# DDEC6 charges by PACMAN v1.1 (https://github.com/mtap-research/PACMAN-charge/)
data_QIKTUD_ASR_pacman
_symmetry_space_group_name_H-M   'P 1'
_cell_length_a   8.84630000
_cell_length_b   18.86340000
_cell_length_c   20.86620000
_cell_angle_alpha   113.66500000
_cell_angle_beta   95.57100000
_cell_angle_gamma   102.23000000
_symmetry_Int_Tables_number   1
_chemical_formula_structural   EuH10C20SN2O5
_chemical_formula_sum   'Eu6 H60 C120 S6 N12 O30'
_cell_volume   3051.60294723
_cell_formula_units_Z   6
loop_
 _symmetry_equiv_pos_site_id
 _symmetry_equiv_pos_as_xyz
  1  'x, y, z'
loop_
 _atom_site_type_symbol
 _atom_site_label
 _atom_site_symmetry_multiplicity
 _atom_site_fract_x
 _atom_site_fract_y
 _atom_site_fract_z
 _atom_site_occupancy
 _atom_site_charge
Eu  Eu1  1  0.82296000  0.47835000  0.42554000  1.0 2.1896609955
Eu  Eu2  1  0.17704000  0.52165000  0.57446000  1.0 2.1896609955
Eu  Eu3  1  0.60035000  0.61996000  0.55223000  1.0 2.2101672583
Eu  Eu4  1  0.39965000  0.38004000  0.44777000  1.0 2.2101672583
Eu  Eu5  1  0.03734000  0.69167000  0.49491000  1.0 2.1687225991
Eu  Eu6  1  0.96266000  0.30833000  0.50509000  1.0 2.1687225991
H  H1  1  0.63281000  0.39056000  0.19136000  1.0 0.1202268389
H  H2  1  0.36719000  0.60944000  0.80864000  1.0 0.1202268389
H  H3  1  0.52842000  0.31842000  0.07098000  1.0 0.1290716507
H  H4  1  0.47158000  0.68158000  0.92902000  1.0 0.1290716507
H  H5  1  0.09227000  0.29854000  0.11230000  1.0 0.1202268389
H  H6  1  0.90773000  0.70146000  0.88770000  1.0 0.1202268389
H  H7  1  0.19821000  0.37101000  0.23292000  1.0 0.1202268389
H  H8  1  0.80179000  0.62899000  0.76708000  1.0 0.1202268389
H  H9  1  0.95567000  0.06320000  0.91602000  1.0 0.1202268389
H  H10  1  0.04433000  0.93680000  0.08398000  1.0 0.1202268389
H  H11  1  0.06415000  0.16546000  0.02831000  1.0 0.1202268389
H  H12  1  0.93585000  0.83454000  0.97169000  1.0 0.1202268389
H  H13  1  0.21771000  0.02879000  0.74899000  1.0 0.1290716507
H  H14  1  0.78229000  0.97121000  0.25101000  1.0 0.1290716507
H  H15  1  0.68684000  0.89785000  0.70177000  1.0 0.1202268389
H  H16  1  0.31316000  0.10215000  0.29823000  1.0 0.1202268389
H  H17  1  0.10816000  0.91251000  0.64576000  1.0 0.1202268389
H  H18  1  0.89184000  0.08749000  0.35424000  1.0 0.1202268389
H  H19  1  0.79474000  0.01597000  0.80350000  1.0 0.1202268389
H  H20  1  0.20526000  0.98403000  0.19650000  1.0 0.1202268389
H  H21  1  0.42656000  0.26440000  0.27277000  1.0 0.1202268389
H  H22  1  0.57344000  0.73560000  0.72723000  1.0 0.1202268389
H  H23  1  0.72010000  0.13689000  0.29533000  1.0 0.1202268389
H  H24  1  0.27990000  0.86311000  0.70467000  1.0 0.1202268389
H  H25  1  0.60553000  0.03744000  0.18260000  1.0 0.1202268389
H  H26  1  0.39447000  0.96256000  0.81740000  1.0 0.1202268389
H  H27  1  0.31374000  0.16515000  0.15855000  1.0 0.1202268389
H  H28  1  0.68626000  0.83485000  0.84145000  1.0 0.1202268389
H  H29  1  0.32542000  0.09474000  0.03876000  1.0 0.1202268389
H  H30  1  0.67458000  0.90526000  0.96124000  1.0 0.1202268389
H  H31  1  0.21183000  0.99508000  0.92574000  1.0 0.1202268389
H  H32  1  0.78817000  0.00492000  0.07426000  1.0 0.1202268389
H  H33  1  0.29886000  0.76380000  0.86888000  1.0 0.1202268389
H  H34  1  0.70114000  0.23620000  0.13112000  1.0 0.1202268389
H  H35  1  0.99775000  0.88764000  0.84497000  1.0 0.1202268389
H  H36  1  0.00225000  0.11236000  0.15503000  1.0 0.1202268389
H  H37  1  0.88947000  0.78842000  0.73017000  1.0 0.1202268389
H  H38  1  0.11053000  0.21158000  0.26983000  1.0 0.1202268389
H  H39  1  0.19136000  0.66555000  0.75463000  1.0 0.1202268389
H  H40  1  0.80864000  0.33445000  0.24537000  1.0 0.1202268389
H  H41  1  0.78921000  0.65254000  0.25276000  1.0 0.1290716507
H  H42  1  0.21079000  0.34746000  0.74724000  1.0 0.1290716507
H  H43  1  0.97068000  0.47350000  0.24525000  1.0 0.1290716507
H  H44  1  0.02932000  0.52650000  0.75475000  1.0 0.1290716507
H  H45  1  0.92130000  0.41989000  0.12220000  1.0 0.1202268389
H  H46  1  0.07870000  0.58011000  0.87780000  1.0 0.1202268389
H  H47  1  0.73991000  0.59902000  0.13065000  1.0 0.1117359141
H  H48  1  0.26009000  0.40098000  0.86935000  1.0 0.1117359141
H  H49  1  0.65859000  0.54239000  0.02611000  1.0 0.1202268389
H  H50  1  0.34141000  0.45761000  0.97389000  1.0 0.1202268389
H  H51  1  0.60915000  0.50186000  0.90531000  1.0 0.1202268389
H  H52  1  0.39085000  0.49814000  0.09469000  1.0 0.1202268389
H  H53  1  0.54210000  0.46160000  0.79987000  1.0 0.1117359141
H  H54  1  0.45790000  0.53840000  0.20013000  1.0 0.1117359141
H  H55  1  0.81493000  0.31255000  0.76599000  1.0 0.1202268389
H  H56  1  0.18507000  0.68745000  0.23401000  1.0 0.1202268389
H  H57  1  0.77402000  0.28566000  0.64795000  1.0 0.1117359141
H  H58  1  0.22598000  0.71434000  0.35205000  1.0 0.1117359141
H  H59  1  0.49493000  0.43076000  0.68055000  1.0 0.1383422308
H  H60  1  0.50507000  0.56924000  0.31945000  1.0 0.1383422308
C  C1  1  0.49680000  0.41925000  0.30405000  1.0 0.6121178561
C  C2  1  0.50320000  0.58075000  0.69595000  1.0 0.6121178561
C  C3  1  0.42680000  0.38329000  0.22548000  1.0 -0.0359196553
C  C4  1  0.57320000  0.61671000  0.77452000  1.0 -0.0359196553
C  C5  1  0.52390000  0.36988000  0.17568000  1.0 -0.0978075533
C  C6  1  0.47610000  0.63012000  0.82432000  1.0 -0.0978075533
C  C7  1  0.28360000  0.23606000  0.94217000  1.0 0.1117359141
C  C8  1  0.71640000  0.76394000  0.05783000  1.0 0.1117359141
C  C9  1  0.29830000  0.29435000  0.07851000  1.0 0.0911064439
C  C10  1  0.70170000  0.70565000  0.92149000  1.0 0.0911064439
C  C11  1  0.46140000  0.32640000  0.10336000  1.0 -0.140258501
C  C12  1  0.53860000  0.67360000  0.89664000  1.0 -0.140258501
C  C13  1  0.20130000  0.31461000  0.12813000  1.0 -0.1488796042
C  C14  1  0.79870000  0.68539000  0.87187000  1.0 -0.1488796042
C  C15  1  0.26490000  0.35835000  0.20069000  1.0 -0.0894339712
C  C16  1  0.73510000  0.64165000  0.79931000  1.0 -0.0894339712
C  C17  1  0.22870000  0.23432000  0.00370000  1.0 -0.0100403919
C  C18  1  0.77130000  0.76568000  0.99630000  1.0 -0.0100403919
C  C19  1  0.21550000  0.17184000  0.87166000  1.0 0.1117359141
C  C20  1  0.78450000  0.82816000  0.12834000  1.0 0.1117359141
C  C21  1  0.03880000  0.10562000  0.92070000  1.0 -0.1488796042
C  C22  1  0.96120000  0.89438000  0.07930000  1.0 -0.1488796042
C  C23  1  0.10580000  0.16875000  0.99004000  1.0 -0.1488796042
C  C24  1  0.89420000  0.83125000  0.00996000  1.0 -0.1488796042
C  C25  1  0.02000000  0.03378000  0.78960000  1.0 0.0911064439
C  C26  1  0.98000000  0.96622000  0.21040000  1.0 0.0911064439
C  C27  1  0.09000000  0.10376000  0.86027000  1.0 0.005450554
C  C28  1  0.91000000  0.89624000  0.13973000  1.0 0.005450554
C  C29  1  0.11120000  0.00228000  0.74026000  1.0 -0.140258501
C  C30  1  0.88880000  0.99772000  0.25974000  1.0 -0.140258501
C  C31  1  0.79410000  0.92339000  0.71140000  1.0 -0.0894339712
C  C32  1  0.20590000  0.07661000  0.28860000  1.0 -0.0894339712
C  C33  1  0.04550000  0.93204000  0.67838000  1.0 -0.0894339712
C  C34  1  0.95450000  0.06796000  0.32162000  1.0 -0.0894339712
C  C35  1  0.85940000  0.99427000  0.77281000  1.0 -0.1488796042
C  C36  1  0.14060000  0.00573000  0.22719000  1.0 -0.1488796042
C  C37  1  0.88700000  0.89011000  0.66415000  1.0 -0.0359196553
C  C38  1  0.11300000  0.10989000  0.33585000  1.0 -0.0359196553
C  C39  1  0.46320000  0.21896000  0.25442000  1.0 -0.0894339712
C  C40  1  0.53680000  0.78104000  0.74558000  1.0 -0.0894339712
C  C41  1  0.58590000  0.21102000  0.29566000  1.0 -0.0359196553
C  C42  1  0.41410000  0.78898000  0.70434000  1.0 -0.0359196553
C  C43  1  0.67050000  0.27592000  0.36714000  1.0 0.6519612961
C  C44  1  0.32950000  0.72408000  0.63286000  1.0 0.6519612961
C  C45  1  0.82230000  0.80823000  0.60208000  1.0 0.6395240419
C  C46  1  0.17770000  0.19177000  0.39792000  1.0 0.6395240419
C  C47  1  0.63820000  0.14267000  0.26799000  1.0 -0.0832383183
C  C48  1  0.36180000  0.85733000  0.73201000  1.0 -0.0832383183
C  C49  1  0.56990000  0.08327000  0.20032000  1.0 -0.1335641206
C  C50  1  0.43010000  0.91673000  0.79968000  1.0 -0.140258501
C  C51  1  0.44850000  0.09071000  0.15803000  1.0 0.0911064439
C  C52  1  0.55150000  0.90929000  0.84197000  1.0 0.0911064439
C  C53  1  0.39530000  0.15932000  0.18598000  1.0 -0.1488796042
C  C54  1  0.60470000  0.84068000  0.81402000  1.0 -0.1488796042
C  C55  1  0.37620000  0.02658000  0.08528000  1.0 -0.0006417461
C  C56  1  0.62380000  0.97342000  0.91472000  1.0 -0.0006417461
C  C57  1  0.31840000  0.04166000  0.03007000  1.0 -0.1335641206
C  C58  1  0.68160000  0.95834000  0.96993000  1.0 -0.1335641206
C  C59  1  0.36170000  0.94400000  0.06832000  1.0 0.1117359141
C  C60  1  0.63830000  0.05600000  0.93168000  1.0 0.1117359141
C  C61  1  0.29090000  0.88174000  0.99802000  1.0 0.1117359141
C  C62  1  0.70910000  0.11826000  0.00198000  1.0 0.1117359141
C  C63  1  0.24860000  0.98039000  0.96057000  1.0 -0.1335641206
C  C64  1  0.75140000  0.01961000  0.03943000  1.0 -0.1335641206
C  C65  1  0.23250000  0.90035000  0.94207000  1.0 -0.0006417461
C  C66  1  0.76750000  0.09965000  0.05793000  1.0 -0.0006417461
C  C67  1  0.16030000  0.83660000  0.86917000  1.0 0.0911064439
C  C68  1  0.83970000  0.16340000  0.13083000  1.0 0.0911064439
C  C69  1  0.21700000  0.76911000  0.84117000  1.0 -0.1335641206
C  C70  1  0.78300000  0.23089000  0.15883000  1.0 -0.1335641206
C  C71  1  0.03700000  0.84303000  0.82686000  1.0 -0.159277708
C  C72  1  0.96300000  0.15697000  0.17314000  1.0 -0.159277708
C  C73  1  0.97190000  0.78362000  0.75798000  1.0 -0.0832383183
C  C74  1  0.02810000  0.21638000  0.24202000  1.0 -0.0832383183
C  C75  1  0.15260000  0.71029000  0.77281000  1.0 -0.0978075533
C  C76  1  0.84740000  0.28971000  0.22719000  1.0 -0.0978075533
C  C77  1  0.03010000  0.71724000  0.73079000  1.0 -0.0359196553
C  C78  1  0.96990000  0.28276000  0.26921000  1.0 -0.0359196553
C  C79  1  0.96460000  0.65218000  0.65615000  1.0 0.6519612961
C  C80  1  0.03540000  0.34782000  0.34385000  1.0 0.6519612961
C  C81  1  0.92190000  0.60485000  0.34146000  1.0 0.5935696059
C  C82  1  0.07810000  0.39515000  0.65854000  1.0 0.5935696059
C  C83  1  0.88420000  0.56818000  0.26191000  1.0 -0.0100403919
C  C84  1  0.11580000  0.43182000  0.73809000  1.0 -0.0100403919
C  C85  1  0.81580000  0.60546000  0.22671000  1.0 -0.0894339712
C  C86  1  0.18420000  0.39454000  0.77329000  1.0 -0.0894339712
C  C87  1  0.92370000  0.49897000  0.22223000  1.0 -0.0832383183
C  C88  1  0.07630000  0.50103000  0.77777000  1.0 -0.0832383183
C  C89  1  0.89420000  0.46683000  0.14815000  1.0 -0.140258501
C  C90  1  0.10580000  0.53317000  0.85185000  1.0 -0.1488796042
C  C91  1  0.78670000  0.57320000  0.15331000  1.0 -0.1488796042
C  C92  1  0.21330000  0.42680000  0.84669000  1.0 -0.1488796042
C  C93  1  0.82480000  0.50361000  0.11204000  1.0 0.0911064439
C  C94  1  0.17520000  0.49639000  0.88796000  1.0 0.0911064439
C  C95  1  0.79210000  0.47217000  0.03291000  1.0 0.005450554
C  C96  1  0.20790000  0.52783000  0.96709000  1.0 0.005450554
C  C97  1  0.70170000  0.50238000  0.99832000  1.0 -0.1335641206
C  C98  1  0.29830000  0.49762000  0.00168000  1.0 -0.1335641206
C  C99  1  0.85290000  0.41078000  0.98614000  1.0 0.1290716507
C  C100  1  0.14710000  0.58922000  0.01386000  1.0 0.1290716507
C  C101  1  0.81800000  0.38332000  0.90929000  1.0 0.1117359141
C  C102  1  0.18200000  0.61668000  0.09071000  1.0 0.1117359141
C  C103  1  0.66970000  0.47687000  0.92351000  1.0 -0.140258501
C  C104  1  0.33030000  0.52313000  0.07649000  1.0 -0.140258501
C  C105  1  0.72330000  0.41718000  0.87623000  1.0 0.0026691908
C  C106  1  0.27670000  0.58282000  0.12377000  1.0 0.0026691908
C  C107  1  0.68950000  0.39342000  0.79793000  1.0 0.0801664361
C  C108  1  0.31050000  0.60658000  0.20207000  1.0 0.0801664361
C  C109  1  0.59120000  0.42650000  0.76966000  1.0 -0.1488796042
C  C110  1  0.40880000  0.57350000  0.23034000  1.0 -0.1488796042
C  C111  1  0.75360000  0.33870000  0.74978000  1.0 -0.1335641206
C  C112  1  0.24640000  0.66130000  0.25022000  1.0 -0.1335641206
C  C113  1  0.72850000  0.32240000  0.67870000  1.0 -0.0894339712
C  C114  1  0.27150000  0.67760000  0.32130000  1.0 -0.0894339712
C  C115  1  0.56410000  0.40870000  0.69798000  1.0 -0.0832383183
C  C116  1  0.43590000  0.59130000  0.30202000  1.0 -0.0832383183
C  C117  1  0.63810000  0.35887000  0.65187000  1.0 -0.0181190769
C  C118  1  0.36190000  0.64113000  0.34813000  1.0 -0.0181190769
C  C119  1  0.62470000  0.34633000  0.57563000  1.0 0.6519612961
C  C120  1  0.37530000  0.65367000  0.42437000  1.0 0.6519612961
S  S1  1  0.40866000  0.27135000  0.85906000  1.0 0.4026562416
S  S2  1  0.59134000  0.72865000  0.14094000  1.0 0.4026562416
S  S3  1  0.35587000  0.81893000  0.07048000  1.0 0.415710836
S  S4  1  0.64413000  0.18107000  0.92952000  1.0 0.415710836
S  S5  1  0.98456000  0.31041000  0.93482000  1.0 0.4126876884
S  S6  1  0.01544000  0.68959000  0.06518000  1.0 0.4126876884
N  N1  1  0.27880000  0.18523000  0.82004000  1.0 -0.3571508944
N  N2  1  0.72120000  0.81477000  0.17996000  1.0 -0.3571508944
N  N3  1  0.39500000  0.29703000  0.94169000  1.0 -0.3932835318
N  N4  1  0.60500000  0.70297000  0.05831000  1.0 -0.3932835318
N  N5  1  0.28100000  0.80738000  0.99234000  1.0 -0.3571508944
N  N6  1  0.71900000  0.19262000  0.00766000  1.0 -0.3571508944
N  N7  1  0.94660000  0.37295000  0.00632000  1.0 -0.3571508944
N  N8  1  0.05340000  0.62705000  0.99368000  1.0 -0.3571508944
N  N9  1  0.88590000  0.32529000  0.87510000  1.0 -0.3571508944
N  N10  1  0.11410000  0.67471000  0.12490000  1.0 -0.3571508944
N  N11  1  0.40340000  0.91521000  0.11463000  1.0 -0.3525334455
N  N12  1  0.59660000  0.08479000  0.88537000  1.0 -0.3525334455
O  O1  1  0.64410000  0.45088000  0.32299000  1.0 -0.6253894872
O  O2  1  0.35590000  0.54912000  0.67701000  1.0 -0.6253894872
O  O3  1  0.40840000  0.41284000  0.34592000  1.0 -0.5857732899
O  O4  1  0.59160000  0.58716000  0.65408000  1.0 -0.5857732899
O  O5  1  0.91050000  0.78665000  0.55814000  1.0 -0.6555444605
O  O6  1  0.08950000  0.21335000  0.44186000  1.0 -0.6555444605
O  O7  1  0.96310000  0.56455000  0.37255000  1.0 -0.6126863367
O  O8  1  0.03690000  0.43545000  0.62745000  1.0 -0.6126863367
O  O9  1  0.01700000  0.59220000  0.63842000  1.0 -0.5735687322
O  O10  1  0.98300000  0.40780000  0.36158000  1.0 -0.5735687322
O  O11  1  0.78680000  0.26466000  0.39681000  1.0 -0.6047763534
O  O12  1  0.21320000  0.73534000  0.60319000  1.0 -0.6047763534
O  O13  1  0.62779000  0.34040000  0.39257000  1.0 -0.6743910021
O  O14  1  0.37221000  0.65960000  0.60743000  1.0 -0.6751446433
O  O15  1  0.68940000  0.76585000  0.59833000  1.0 -0.6157974906
O  O16  1  0.31060000  0.23415000  0.40167000  1.0 -0.6157974906
O  O17  1  0.86440000  0.66144000  0.61601000  1.0 -0.6047763534
O  O18  1  0.13560000  0.33856000  0.38399000  1.0 -0.6047763534
O  O19  1  0.72420000  0.31873000  0.54277000  1.0 -0.6126863367
O  O20  1  0.27580000  0.68127000  0.45723000  1.0 -0.6126863367
O  O21  1  0.51570000  0.36610000  0.54932000  1.0 -0.5529961295
O  O22  1  0.48430000  0.63390000  0.45068000  1.0 -0.5529961295
O  O23  1  0.91660000  0.67603000  0.37686000  1.0 -0.5825539834
O  O24  1  0.08340000  0.32397000  0.62314000  1.0 -0.5825539834
O  O25  1  0.64588000  0.48816000  0.50514000  1.0 -0.9999912984
O  O26  1  0.35412000  0.51184000  0.49486000  1.0 -0.9999912984
O  O27  1  0.77183000  0.60818000  0.46922000  1.0 -1.1363993592
O  O28  1  0.22817000  0.39182000  0.53078000  1.0 -1.1363993592
O  O29  1  0.94033000  0.42902000  0.49999000  1.0 -1.0405746407
O  O30  1  0.05967000  0.57098000  0.50001000  1.0 -1.0405746407
