# DDEC6 charges by PACMAN v1.1 (https://github.com/mtap-research/PACMAN-charge/)
data_QIKTAJ_ASR_pacman
_symmetry_space_group_name_H-M   'P 1'
_cell_length_a   10.19800000
_cell_length_b   10.61150000
_cell_length_c   10.64780000
_cell_angle_alpha   79.59500000
_cell_angle_beta   73.29500000
_cell_angle_gamma   72.34000000
_symmetry_Int_Tables_number   1
_chemical_formula_structural   CoC21N3O8
_chemical_formula_sum   'Co2 C42 N6 O16'
_cell_volume   1046.10240618
_cell_formula_units_Z   2
loop_
 _symmetry_equiv_pos_site_id
 _symmetry_equiv_pos_as_xyz
  1  'x, y, z'
loop_
 _atom_site_type_symbol
 _atom_site_label
 _atom_site_symmetry_multiplicity
 _atom_site_fract_x
 _atom_site_fract_y
 _atom_site_fract_z
 _atom_site_occupancy
 _atom_site_charge
Co  Co1  1  0.89280000  0.40090000  0.91210000  1.0 0.8578244724
Co  Co2  1  0.10720000  0.59910000  0.08790000  1.0 0.8578244724
C  C1  1  0.97200000  0.14700000  0.06400000  1.0 0.1860327699
C  C2  1  0.02800000  0.85300000  0.93600000  1.0 0.1860327699
C  C3  1  0.96800000  0.03700000  0.15400000  1.0 -0.1507237389
C  C4  1  0.03200000  0.96300000  0.84600000  1.0 -0.1507237389
C  C5  1  0.86300000  0.04300000  0.26200000  1.0 0.1116762425
C  C6  1  0.13700000  0.95700000  0.73800000  1.0 0.1116762425
C  C7  1  0.77200000  0.15800000  0.29200000  1.0 -0.1507237389
C  C8  1  0.22800000  0.84200000  0.70800000  1.0 -0.1507237389
C  C9  1  0.77300000  0.26500000  0.19900000  1.0 0.2296697066
C  C10  1  0.22700000  0.73500000  0.80100000  1.0 0.2296697066
C  C11  1  0.92400000  0.56100000  0.63600000  1.0 0.2296697066
C  C12  1  0.07600000  0.43900000  0.36400000  1.0 0.2296697066
C  C13  1  0.94200000  0.68200000  0.54970000  1.0 -0.1573000646
C  C14  1  0.05800000  0.31800000  0.45030000  1.0 -0.1573000646
C  C15  1  0.86600000  0.80300000  0.59400000  1.0 0.1116762425
C  C16  1  0.13400000  0.19700000  0.40600000  1.0 0.1116762425
C  C17  1  0.80600000  0.80000000  0.72800000  1.0 -0.0937455392
C  C18  1  0.19400000  0.20000000  0.27200000  1.0 -0.0969576807
C  C19  1  0.82000000  0.68000000  0.81100000  1.0 0.2350670078
C  C20  1  0.18000000  0.32000000  0.18900000  1.0 0.2350670078
C  C21  1  0.75500000  0.97100000  0.38100000  1.0 0.13695739
C  C22  1  0.24500000  0.02900000  0.61900000  1.0 0.13695739
C  C23  1  0.86000000  0.89300000  0.45200000  1.0 0.1275161334
C  C24  1  0.14000000  0.10700000  0.54800000  1.0 0.1275161334
C  C25  1  0.68830000  0.35400000  0.85800000  1.0 0.5777026095
C  C26  1  0.31170000  0.64600000  0.14200000  1.0 0.5777026095
C  C27  1  0.59980000  0.31100000  0.79400000  1.0 -0.1099738649
C  C28  1  0.40020000  0.68900000  0.20600000  1.0 -0.1099738649
C  C29  1  0.45810000  0.35500000  0.83600000  1.0 0.0253662241
C  C30  1  0.54190000  0.64500000  0.16400000  1.0 0.0225583461
C  C31  1  0.37280000  0.30300000  0.80600000  1.0 -0.0969576807
C  C32  1  0.62720000  0.69700000  0.19400000  1.0 -0.0969576807
C  C33  1  0.42800000  0.20700000  0.72100000  1.0 0.0812630185
C  C34  1  0.57200000  0.79300000  0.27900000  1.0 0.0812630185
C  C35  1  0.65600000  0.19900000  0.73100000  1.0 0.1275161334
C  C36  1  0.34400000  0.80100000  0.26900000  1.0 0.1275161334
C  C37  1  0.21070000  0.35300000  0.86600000  1.0 0.5718901136
C  C38  1  0.78930000  0.64700000  0.13400000  1.0 0.5718901136
C  C39  1  0.80800000  0.94100000  0.38900000  1.0 0.1116762425
C  C40  1  0.19200000  0.05900000  0.61100000  1.0 0.1116762425
C  C41  1  0.82300000  0.94800000  0.51300000  1.0 0.1180207708
C  C42  1  0.17700000  0.05200000  0.48700000  1.0 0.1180207708
N  N1  1  0.89500000  0.56600000  0.76100000  1.0 -0.1696272142
N  N2  1  0.10500000  0.43400000  0.23900000  1.0 -0.1696272142
N  N3  1  0.88000000  0.26500000  0.08900000  1.0 -0.2012032069
N  N4  1  0.12000000  0.73500000  0.91100000  1.0 -0.2012032069
N  N5  1  0.57200000  0.17800000  0.66200000  1.0 -0.0373172688
N  N6  1  0.42800000  0.82200000  0.33800000  1.0 -0.0373172688
O  O1  1  0.61900000  0.96800000  0.47200000  1.0 -0.2785873733
O  O2  1  0.38100000  0.03200000  0.52800000  1.0 -0.2785873733
O  O3  1  0.00400000  0.87100000  0.37200000  1.0 -0.0763505309
O  O4  1  0.99600000  0.12900000  0.62800000  1.0 -0.0763505309
O  O5  1  0.12800000  0.32700000  0.82600000  1.0 -0.4106941841
O  O6  1  0.87200000  0.67300000  0.17400000  1.0 -0.4106941841
O  O7  1  0.16350000  0.43500000  0.94600000  1.0 -0.491816046
O  O8  1  0.83650000  0.56500000  0.05400000  1.0 -0.491816046
O  O9  1  0.82910000  0.30300000  0.82500000  1.0 -0.5154882095
O  O10  1  0.17090000  0.69700000  0.17500000  1.0 -0.5154882095
O  O11  1  0.62400000  0.43700000  0.95200000  1.0 -0.5397319815
O  O12  1  0.37600000  0.56300000  0.04800000  1.0 -0.5397319815
O  O13  1  0.86900000  0.04800000  0.53800000  1.0 -0.3639929912
O  O14  1  0.13100000  0.95200000  0.46200000  1.0 -0.3545722089
O  O15  1  0.90600000  0.85000000  0.30800000  1.0 0.0030084678
O  O16  1  0.09400000  0.15000000  0.69200000  1.0 0.0030084678
