# DDEC6 charges by PACMAN v1.1 (https://github.com/mtap-research/PACMAN-charge/)
data_QIKYOA_FSR_pacman
_symmetry_space_group_name_H-M   'P 1'
_cell_length_a   12.21430000
_cell_length_b   13.80510000
_cell_length_c   16.52930000
_cell_angle_alpha   90.00000000
_cell_angle_beta   90.00000000
_cell_angle_gamma   90.00000000
_symmetry_Int_Tables_number   1
_chemical_formula_structural   Co3H20C24(N14O)2
_chemical_formula_sum   'Co6 H40 C48 N56 O4'
_cell_volume   2787.16449859
_cell_formula_units_Z   2
loop_
 _symmetry_equiv_pos_site_id
 _symmetry_equiv_pos_as_xyz
  1  'x, y, z'
loop_
 _atom_site_type_symbol
 _atom_site_label
 _atom_site_symmetry_multiplicity
 _atom_site_fract_x
 _atom_site_fract_y
 _atom_site_fract_z
 _atom_site_occupancy
 _atom_site_charge
Co  Co1  1  0.00000000  0.00000000  0.50000000  1.0 0.588483081
Co  Co2  1  0.50000000  0.50000000  0.00000000  1.0 0.588483081
Co  Co3  1  0.06725000  0.23852000  0.50000000  1.0 0.6378378875
Co  Co4  1  0.93275000  0.76148000  0.50000000  1.0 0.6378378875
Co  Co5  1  0.43275000  0.73852000  0.00000000  1.0 0.6378378875
Co  Co6  1  0.56725000  0.26148000  0.00000000  1.0 0.6378378875
H  H1  1  0.99630000  0.39720000  0.45290000  1.0 0.3668547578
H  H2  1  0.00370000  0.60280000  0.45290000  1.0 0.3668547578
H  H3  1  0.50370000  0.89720000  0.04710000  1.0 0.3668547578
H  H4  1  0.49630000  0.10280000  0.04710000  1.0 0.3668547578
H  H5  1  0.00370000  0.60280000  0.54710000  1.0 0.3668547578
H  H6  1  0.99630000  0.39720000  0.54710000  1.0 0.3668547578
H  H7  1  0.49630000  0.10280000  0.95290000  1.0 0.3668547578
H  H8  1  0.50370000  0.89720000  0.95290000  1.0 0.3668547578
H  H9  1  0.76840000  0.32360000  0.73990000  1.0 0.1344026036
H  H10  1  0.23160000  0.67640000  0.73990000  1.0 0.1344026036
H  H11  1  0.73160000  0.82360000  0.76010000  1.0 0.1344026036
H  H12  1  0.26840000  0.17640000  0.76010000  1.0 0.1344026036
H  H13  1  0.23160000  0.67640000  0.26010000  1.0 0.1344026036
H  H14  1  0.76840000  0.32360000  0.26010000  1.0 0.1344026036
H  H15  1  0.26840000  0.17640000  0.23990000  1.0 0.1344026036
H  H16  1  0.73160000  0.82360000  0.23990000  1.0 0.1344026036
H  H17  1  0.79230000  0.04380000  0.81070000  1.0 0.1362417199
H  H18  1  0.20770000  0.95620000  0.81070000  1.0 0.1362417199
H  H19  1  0.70770000  0.54380000  0.68930000  1.0 0.1362417199
H  H20  1  0.29230000  0.45620000  0.68930000  1.0 0.1362417199
H  H21  1  0.20770000  0.95620000  0.18930000  1.0 0.1362417199
H  H22  1  0.79230000  0.04380000  0.18930000  1.0 0.1362417199
H  H23  1  0.29230000  0.45620000  0.31070000  1.0 0.1362417199
H  H24  1  0.70770000  0.54380000  0.31070000  1.0 0.1362417199
H  H25  1  0.66780000  0.35360000  0.85540000  1.0 0.0894320611
H  H26  1  0.33220000  0.64640000  0.85540000  1.0 0.0894320611
H  H27  1  0.83220000  0.85360000  0.64460000  1.0 0.0894320611
H  H28  1  0.16780000  0.14640000  0.64460000  1.0 0.0894320611
H  H29  1  0.33220000  0.64640000  0.14460000  1.0 0.0894320611
H  H30  1  0.66780000  0.35360000  0.14460000  1.0 0.0894320611
H  H31  1  0.16780000  0.14640000  0.35540000  1.0 0.0894320611
H  H32  1  0.83220000  0.85360000  0.35540000  1.0 0.0894320611
H  H33  1  0.69250000  0.08410000  0.92490000  1.0 0.0894320611
H  H34  1  0.30750000  0.91590000  0.92490000  1.0 0.0894320611
H  H35  1  0.80750000  0.58410000  0.57510000  1.0 0.0894320611
H  H36  1  0.19250000  0.41590000  0.57510000  1.0 0.0894320611
H  H37  1  0.30750000  0.91590000  0.07510000  1.0 0.0894320611
H  H38  1  0.69250000  0.08410000  0.07510000  1.0 0.0894320611
H  H39  1  0.19250000  0.41590000  0.42490000  1.0 0.0894320611
H  H40  1  0.80750000  0.58410000  0.42490000  1.0 0.0894320611
C  C1  1  0.85370000  0.16040000  0.68790000  1.0 0.2194165297
C  C2  1  0.14630000  0.83960000  0.68790000  1.0 0.2194165297
C  C3  1  0.64630000  0.66040000  0.81210000  1.0 0.2194165297
C  C4  1  0.35370000  0.33960000  0.81210000  1.0 0.2194165297
C  C5  1  0.14630000  0.83960000  0.31210000  1.0 0.2194165297
C  C6  1  0.85370000  0.16040000  0.31210000  1.0 0.2194165297
C  C7  1  0.35370000  0.33960000  0.18790000  1.0 0.2194165297
C  C8  1  0.64630000  0.66040000  0.18790000  1.0 0.2194165297
C  C9  1  0.79130000  0.17870000  0.76140000  1.0 0.0894320611
C  C10  1  0.20870000  0.82130000  0.76140000  1.0 0.0894320611
C  C11  1  0.70870000  0.67870000  0.73860000  1.0 0.0894320611
C  C12  1  0.29130000  0.32130000  0.73860000  1.0 0.0894320611
C  C13  1  0.20870000  0.82130000  0.23860000  1.0 0.0894320611
C  C14  1  0.79130000  0.17870000  0.23860000  1.0 0.0894320611
C  C15  1  0.29130000  0.32130000  0.26140000  1.0 0.0894320611
C  C16  1  0.70870000  0.67870000  0.26140000  1.0 0.0894320611
C  C17  1  0.75350000  0.27250000  0.77690000  1.0 -0.1792513432
C  C18  1  0.24650000  0.72750000  0.77690000  1.0 -0.1792513432
C  C19  1  0.74650000  0.77250000  0.72310000  1.0 -0.1792513432
C  C20  1  0.25350000  0.22750000  0.72310000  1.0 -0.1792513432
C  C21  1  0.24650000  0.72750000  0.22310000  1.0 -0.1792513432
C  C22  1  0.75350000  0.27250000  0.22310000  1.0 -0.1792513432
C  C23  1  0.25350000  0.22750000  0.27690000  1.0 -0.1792513432
C  C24  1  0.74650000  0.77250000  0.27690000  1.0 -0.1792513432
C  C25  1  0.76790000  0.10850000  0.81830000  1.0 -0.1792513432
C  C26  1  0.23210000  0.89150000  0.81830000  1.0 -0.1792513432
C  C27  1  0.73210000  0.60850000  0.68170000  1.0 -0.1792513432
C  C28  1  0.26790000  0.39150000  0.68170000  1.0 -0.1792513432
C  C29  1  0.23210000  0.89150000  0.18170000  1.0 -0.1792513432
C  C30  1  0.76790000  0.10850000  0.18170000  1.0 -0.1792513432
C  C31  1  0.26790000  0.39150000  0.31830000  1.0 -0.1792513432
C  C32  1  0.73210000  0.60850000  0.31830000  1.0 -0.1792513432
C  C33  1  0.69430000  0.28990000  0.84610000  1.0 0.0602987267
C  C34  1  0.30570000  0.71010000  0.84610000  1.0 0.0602987267
C  C35  1  0.80570000  0.78990000  0.65390000  1.0 0.0602987267
C  C36  1  0.19430000  0.21010000  0.65390000  1.0 0.0602987267
C  C37  1  0.30570000  0.71010000  0.15390000  1.0 0.0602987267
C  C38  1  0.69430000  0.28990000  0.15390000  1.0 0.0602987267
C  C39  1  0.19430000  0.21010000  0.34610000  1.0 0.0602987267
C  C40  1  0.80570000  0.78990000  0.34610000  1.0 0.0602987267
C  C41  1  0.70830000  0.13340000  0.88650000  1.0 0.0532700203
C  C42  1  0.29170000  0.86660000  0.88650000  1.0 0.0532700203
C  C43  1  0.79170000  0.63340000  0.61350000  1.0 0.0532700203
C  C44  1  0.20830000  0.36660000  0.61350000  1.0 0.0532700203
C  C45  1  0.29170000  0.86660000  0.11350000  1.0 0.0532700203
C  C46  1  0.70830000  0.13340000  0.11350000  1.0 0.0532700203
C  C47  1  0.20830000  0.36660000  0.38650000  1.0 0.0532700203
C  C48  1  0.79170000  0.63340000  0.38650000  1.0 0.0532700203
N  N1  1  0.93090000  0.09150000  0.58960000  1.0 -0.0586463765
N  N2  1  0.06910000  0.90850000  0.58960000  1.0 -0.0586463765
N  N3  1  0.56910000  0.59150000  0.91040000  1.0 -0.0586463765
N  N4  1  0.43090000  0.40850000  0.91040000  1.0 -0.0586463765
N  N5  1  0.06910000  0.90850000  0.41040000  1.0 -0.0586463765
N  N6  1  0.93090000  0.09150000  0.41040000  1.0 -0.0586463765
N  N7  1  0.43090000  0.40850000  0.08960000  1.0 -0.0586463765
N  N8  1  0.56910000  0.59150000  0.08960000  1.0 -0.0586463765
N  N9  1  0.13130000  0.09540000  0.50000000  1.0 -0.5354188227
N  N10  1  0.86870000  0.90460000  0.50000000  1.0 -0.5354188227
N  N11  1  0.36870000  0.59540000  0.00000000  1.0 -0.5354188227
N  N12  1  0.63130000  0.40460000  0.00000000  1.0 -0.5337870263
N  N13  1  0.86670000  0.07250000  0.65370000  1.0 -0.2975810051
N  N14  1  0.13330000  0.92750000  0.65370000  1.0 -0.2975810051
N  N15  1  0.63330000  0.57250000  0.84630000  1.0 -0.2975810051
N  N16  1  0.36670000  0.42750000  0.84630000  1.0 -0.2975810051
N  N17  1  0.13330000  0.92750000  0.34630000  1.0 -0.2975810051
N  N18  1  0.86670000  0.07250000  0.34630000  1.0 -0.2975810051
N  N19  1  0.36670000  0.42750000  0.15370000  1.0 -0.2975810051
N  N20  1  0.63330000  0.57250000  0.15370000  1.0 -0.2975810051
N  N21  1  0.95480000  0.18490000  0.58740000  1.0 -0.0499533854
N  N22  1  0.04520000  0.81510000  0.58740000  1.0 -0.0499533854
N  N23  1  0.54520000  0.68490000  0.91260000  1.0 -0.0499533854
N  N24  1  0.45480000  0.31510000  0.91260000  1.0 -0.0499533854
N  N25  1  0.04520000  0.81510000  0.41260000  1.0 -0.0499533854
N  N26  1  0.95480000  0.18490000  0.41260000  1.0 -0.0499533854
N  N27  1  0.45480000  0.31510000  0.08740000  1.0 -0.0499533854
N  N28  1  0.54520000  0.68490000  0.08740000  1.0 -0.0499533854
N  N29  1  0.22620000  0.07310000  0.50000000  1.0 0.2865204967
N  N30  1  0.77380000  0.92690000  0.50000000  1.0 0.2865204967
N  N31  1  0.27380000  0.57310000  0.00000000  1.0 0.2865204967
N  N32  1  0.72620000  0.42690000  0.00000000  1.0 0.2837804116
N  N33  1  0.90680000  0.23010000  0.64880000  1.0 -0.2778061286
N  N34  1  0.09320000  0.76990000  0.64880000  1.0 -0.2778061286
N  N35  1  0.59320000  0.73010000  0.85120000  1.0 -0.2778061286
N  N36  1  0.40680000  0.26990000  0.85120000  1.0 -0.2778061286
N  N37  1  0.09320000  0.76990000  0.35120000  1.0 -0.2778061286
N  N38  1  0.90680000  0.23010000  0.35120000  1.0 -0.2778061286
N  N39  1  0.40680000  0.26990000  0.14880000  1.0 -0.2778061286
N  N40  1  0.59320000  0.73010000  0.14880000  1.0 -0.2778061286
N  N41  1  0.67230000  0.22150000  0.90090000  1.0 -0.2330737331
N  N42  1  0.32770000  0.77850000  0.90090000  1.0 -0.2330737331
N  N43  1  0.82770000  0.72150000  0.59910000  1.0 -0.2330737331
N  N44  1  0.17230000  0.27850000  0.59910000  1.0 -0.2330737331
N  N45  1  0.32770000  0.77850000  0.09910000  1.0 -0.2330737331
N  N46  1  0.67230000  0.22150000  0.09910000  1.0 -0.2330737331
N  N47  1  0.17230000  0.27850000  0.40090000  1.0 -0.2330737331
N  N48  1  0.82770000  0.72150000  0.40090000  1.0 -0.2330737331
N  N49  1  0.31610000  0.05410000  0.48490000  1.0 0.0362266011
N  N50  1  0.68390000  0.94590000  0.48490000  1.0 0.0318768404
N  N51  1  0.18390000  0.55410000  0.01510000  1.0 0.0362266011
N  N52  1  0.81610000  0.44590000  0.01510000  1.0 0.0318768404
N  N53  1  0.68390000  0.94590000  0.51510000  1.0 0.0318768404
N  N54  1  0.31610000  0.05410000  0.51510000  1.0 0.0362266011
N  N55  1  0.81610000  0.44590000  0.98490000  1.0 0.0318768404
N  N56  1  0.18390000  0.55410000  0.98490000  1.0 0.0362266011
O  O1  1  0.99690000  0.37430000  0.50000000  1.0 -0.6774419241
O  O2  1  0.00310000  0.62570000  0.50000000  1.0 -0.6774419241
O  O3  1  0.50310000  0.87430000  0.00000000  1.0 -0.6774419241
O  O4  1  0.49690000  0.12570000  0.00000000  1.0 -0.6774419241
