# DDEC6 charges by PACMAN v1.1 (https://github.com/mtap-research/PACMAN-charge/)
data_QILKOP_ASR_pacman
_symmetry_space_group_name_H-M   'P 1'
_cell_length_a   12.25860000
_cell_length_b   14.48890000
_cell_length_c   15.54030000
_cell_angle_alpha   99.15600000
_cell_angle_beta   108.85700000
_cell_angle_gamma   90.36400000
_symmetry_Int_Tables_number   1
_chemical_formula_structural   Zn2C57(NO)6
_chemical_formula_sum   'Zn4 C114 N12 O12'
_cell_volume   2573.80856447
_cell_formula_units_Z   2
loop_
 _symmetry_equiv_pos_site_id
 _symmetry_equiv_pos_as_xyz
  1  'x, y, z'
loop_
 _atom_site_type_symbol
 _atom_site_label
 _atom_site_symmetry_multiplicity
 _atom_site_fract_x
 _atom_site_fract_y
 _atom_site_fract_z
 _atom_site_occupancy
 _atom_site_charge
Zn  Zn1  1  0.08406000  0.04696000  0.36743000  1.0 0.8098261511
Zn  Zn2  1  0.91594000  0.95304000  0.63257000  1.0 0.8098261511
Zn  Zn3  1  0.54244000  0.12950000  0.46846000  1.0 0.7744127666
Zn  Zn4  1  0.45756000  0.87050000  0.53154000  1.0 0.7744127666
C  C1  1  0.95660000  0.03900000  0.48930000  1.0 0.4697359359
C  C2  1  0.04340000  0.96100000  0.51070000  1.0 0.4697359359
C  C3  1  0.41240000  0.59310000  0.07370000  1.0 0.0296090362
C  C4  1  0.58760000  0.40690000  0.92630000  1.0 0.0296090362
C  C5  1  0.78690000  0.35030000  0.72500000  1.0 0.1421673452
C  C6  1  0.21310000  0.64970000  0.27500000  1.0 0.1421673452
C  C7  1  0.31280000  0.12230000  0.47010000  1.0 0.4619269227
C  C8  1  0.68720000  0.87770000  0.52990000  1.0 0.4619269227
C  C9  1  0.32390000  0.03840000  0.39680000  1.0 0.4477823978
C  C10  1  0.67610000  0.96160000  0.60320000  1.0 0.4477823978
C  C11  1  0.90360000  0.42460000  0.89150000  1.0 0.0296090362
C  C12  1  0.09640000  0.57540000  0.10850000  1.0 0.0296090362
C  C13  1  0.34160000  0.52790000  0.99820000  1.0 0.0042620893
C  C14  1  0.65840000  0.47210000  0.00180000  1.0 0.0042620893
C  C15  1  0.97250000  0.50250000  0.95270000  1.0 0.0042620893
C  C16  1  0.02750000  0.49750000  0.04730000  1.0 0.0042620893
C  C17  1  0.85430000  0.42990000  0.79620000  1.0 0.0296090362
C  C18  1  0.14570000  0.57010000  0.20380000  1.0 0.0296090362
C  C19  1  0.31520000  0.43460000  0.01040000  1.0 -0.0068933856
C  C20  1  0.68480000  0.56540000  0.98960000  1.0 -0.0068933856
C  C21  1  0.98760000  0.58680000  0.91880000  1.0 0.0296090362
C  C22  1  0.01240000  0.41320000  0.08120000  1.0 0.0296090362
C  C23  1  0.91820000  0.76680000  0.82850000  1.0 -0.1682017639
C  C24  1  0.08180000  0.23320000  0.17150000  1.0 -0.1682017639
C  C25  1  0.93690000  0.67800000  0.78460000  1.0 0.1492577219
C  C26  1  0.06310000  0.32200000  0.21540000  1.0 0.1492577219
C  C27  1  0.46360000  0.20310000  0.19940000  1.0 -0.1299866134
C  C28  1  0.53640000  0.79690000  0.80060000  1.0 -0.1299866134
C  C29  1  0.24500000  0.36860000  0.93420000  1.0 0.0296090362
C  C30  1  0.75500000  0.63140000  0.06580000  1.0 0.0296090362
C  C31  1  0.36320000  0.40920000  0.10010000  1.0 0.0296090362
C  C32  1  0.63680000  0.59080000  0.89990000  1.0 0.0296090362
C  C33  1  0.32530000  0.64300000  0.89650000  1.0 0.0296090362
C  C34  1  0.67470000  0.35700000  0.10350000  1.0 0.0296090362
C  C35  1  0.39660000  0.28110000  0.19960000  1.0 0.1492577219
C  C36  1  0.60340000  0.71890000  0.80040000  1.0 0.1492577219
C  C37  1  0.22810000  0.27590000  0.94740000  1.0 0.0296090362
C  C38  1  0.77190000  0.72410000  0.05260000  1.0 0.0296090362
C  C39  1  0.43410000  0.68560000  0.06080000  1.0 0.0296090362
C  C40  1  0.56590000  0.31440000  0.93920000  1.0 0.0296090362
C  C41  1  0.29560000  0.55290000  0.90800000  1.0 0.0296090362
C  C42  1  0.70440000  0.44710000  0.09200000  1.0 0.0296090362
C  C43  1  0.34370000  0.31520000  0.10910000  1.0 0.0296090362
C  C44  1  0.65630000  0.68480000  0.89090000  1.0 0.0296090362
C  C45  1  0.93310000  0.59110000  0.82480000  1.0 0.0296090362
C  C46  1  0.06690000  0.40890000  0.17520000  1.0 0.0296090362
C  C47  1  0.06270000  0.66300000  0.98190000  1.0 -0.0582411917
C  C48  1  0.93730000  0.33700000  0.01810000  1.0 -0.0582411917
C  C49  1  0.28020000  0.25050000  0.03400000  1.0 -0.0774441555
C  C50  1  0.71980000  0.74950000  0.96600000  1.0 -0.0774441555
C  C51  1  0.91830000  0.84380000  0.78540000  1.0 0.2173542162
C  C52  1  0.08170000  0.15620000  0.21460000  1.0 0.2173542162
C  C53  1  0.95370000  0.67340000  0.70010000  1.0 -0.1490890602
C  C54  1  0.04630000  0.32660000  0.29990000  1.0 -0.1490890602
C  C55  1  0.37930000  0.31930000  0.28090000  1.0 -0.140494443
C  C56  1  0.62070000  0.68070000  0.71910000  1.0 -0.140494443
C  C57  1  0.28850000  0.67230000  0.80250000  1.0 0.1581183528
C  C58  1  0.71150000  0.32770000  0.19750000  1.0 0.1581183528
C  C59  1  0.42740000  0.28040000  0.35940000  1.0 0.199044551
C  C60  1  0.57260000  0.71960000  0.64060000  1.0 0.199044551
C  C61  1  0.11380000  0.65820000  0.07220000  1.0 -0.0774441555
C  C62  1  0.88620000  0.34180000  0.92780000  1.0 -0.0774441555
C  C63  1  0.49390000  0.76360000  0.13830000  1.0 0.1492577219
C  C64  1  0.50610000  0.23640000  0.86170000  1.0 0.1492577219
C  C65  1  0.50980000  0.16920000  0.28100000  1.0 0.199044551
C  C66  1  0.49020000  0.83080000  0.71900000  1.0 0.199044551
C  C67  1  0.15610000  0.20110000  0.87150000  1.0 0.1492577219
C  C68  1  0.84390000  0.79890000  0.12850000  1.0 0.1492577219
C  C69  1  0.38980000  0.70820000  0.97170000  1.0 -0.1299866134
C  C70  1  0.61020000  0.29180000  0.02830000  1.0 -0.1299866134
C  C71  1  0.86980000  0.51270000  0.76450000  1.0 -0.0774441555
C  C72  1  0.13020000  0.48730000  0.23550000  1.0 -0.0774441555
C  C73  1  0.45640000  0.56470000  0.16330000  1.0 -0.0500495422
C  C74  1  0.54360000  0.43530000  0.83670000  1.0 -0.0500495422
C  C75  1  0.63390000  0.22800000  0.66140000  1.0 0.2438351964
C  C76  1  0.36610000  0.77200000  0.33860000  1.0 0.2438351964
C  C77  1  0.81220000  0.32820000  0.64240000  1.0 -0.1299866134
C  C78  1  0.18780000  0.67180000  0.35760000  1.0 -0.1299866134
C  C79  1  0.74560000  0.25750000  0.57190000  1.0 0.199044551
C  C80  1  0.25440000  0.74250000  0.42810000  1.0 0.199044551
C  C81  1  0.19850000  0.11240000  0.85840000  1.0 -0.1299866134
C  C82  1  0.80150000  0.88760000  0.14160000  1.0 -0.1299866134
C  C83  1  0.95220000  0.75350000  0.66220000  1.0 0.2316250043
C  C84  1  0.04780000  0.24650000  0.33780000  1.0 0.2316250043
C  C85  1  0.21920000  0.48660000  0.83470000  1.0 -0.0500495422
C  C86  1  0.78080000  0.51340000  0.16530000  1.0 -0.0500495422
C  C87  1  0.19670000  0.39830000  0.84600000  1.0 -0.0500495422
C  C88  1  0.80330000  0.60170000  0.15400000  1.0 -0.0500495422
C  C89  1  0.12880000  0.04210000  0.79280000  1.0 0.1793680494
C  C90  1  0.87120000  0.95790000  0.20720000  1.0 0.1793680494
C  C91  1  0.43260000  0.47830000  0.17530000  1.0 -0.0669929901
C  C92  1  0.56740000  0.52170000  0.82470000  1.0 -0.0669929901
C  C93  1  0.30220000  0.61410000  0.72610000  1.0 -0.1682017639
C  C94  1  0.69780000  0.38590000  0.27390000  1.0 -0.1682017639
C  C95  1  0.98190000  0.14220000  0.75030000  1.0 0.2316250043
C  C96  1  0.01810000  0.85780000  0.24970000  1.0 0.2316250043
C  C97  1  0.69840000  0.29640000  0.73500000  1.0 -0.140494443
C  C98  1  0.30160000  0.70360000  0.26500000  1.0 -0.140494443
C  C99  1  0.24710000  0.75990000  0.79170000  1.0 -0.1844964022
C  C100  1  0.75290000  0.24010000  0.20830000  1.0 -0.1844964022
C  C101  1  0.43960000  0.84570000  0.14450000  1.0 -0.1490890602
C  C102  1  0.56040000  0.15430000  0.85550000  1.0 -0.1490890602
C  C103  1  0.04650000  0.21520000  0.81540000  1.0 -0.1628126497
C  C104  1  0.95350000  0.78480000  0.18460000  1.0 -0.1628126497
C  C105  1  0.64510000  0.83440000  0.27430000  1.0 0.2438351964
C  C106  1  0.35490000  0.16560000  0.72570000  1.0 0.2438351964
C  C107  1  0.49060000  0.91990000  0.21570000  1.0 0.2316250043
C  C108  1  0.50940000  0.08010000  0.78430000  1.0 0.2316250043
C  C109  1  0.26980000  0.64290000  0.64100000  1.0 0.2173542162
C  C110  1  0.73020000  0.35710000  0.35900000  1.0 0.2173542162
C  C111  1  0.21800000  0.78470000  0.70330000  1.0 0.2316250043
C  C112  1  0.78200000  0.21530000  0.29670000  1.0 0.2316250043
C  C113  1  0.59920000  0.75650000  0.20530000  1.0 -0.1682017639
C  C114  1  0.40080000  0.24350000  0.79470000  1.0 -0.1682017639
N  N1  1  0.65490000  0.21140000  0.58030000  1.0 -0.208308428
N  N2  1  0.34510000  0.78860000  0.41970000  1.0 -0.208308428
N  N3  1  0.02020000  0.05640000  0.73810000  1.0 -0.2023906255
N  N4  1  0.97980000  0.94360000  0.26190000  1.0 -0.2023906255
N  N5  1  0.93470000  0.83840000  0.70340000  1.0 -0.2246937746
N  N6  1  0.06530000  0.16160000  0.29660000  1.0 -0.2246937746
N  N7  1  0.49250000  0.20520000  0.35990000  1.0 -0.2303220997
N  N8  1  0.50750000  0.79480000  0.64010000  1.0 -0.2303220997
N  N9  1  0.59250000  0.91540000  0.28130000  1.0 -0.2833436872
N  N10  1  0.40750000  0.08460000  0.71870000  1.0 -0.2833436872
N  N11  1  0.22860000  0.72910000  0.63040000  1.0 -0.2596676791
N  N12  1  0.77140000  0.27090000  0.36960000  1.0 -0.2596676791
O  O1  1  0.21610000  0.13531000  0.47700000  1.0 -0.4667188967
O  O2  1  0.78390000  0.86469000  0.52300000  1.0 -0.4667188967
O  O3  1  0.88890000  0.04974000  0.53513000  1.0 -0.507126003
O  O4  1  0.11110000  0.95026000  0.46487000  1.0 -0.507126003
O  O5  1  0.23160000  0.99789000  0.34090000  1.0 -0.4930560434
O  O6  1  0.76840000  0.00211000  0.65910000  1.0 -0.4930560434
O  O7  1  0.96000000  0.08416000  0.42790000  1.0 -0.5029834057
O  O8  1  0.04000000  0.91584000  0.57210000  1.0 -0.5029834057
O  O9  1  0.42440000  0.01880000  0.39910000  1.0 -0.5029834057
O  O10  1  0.57560000  0.98120000  0.60090000  1.0 -0.5029834057
O  O11  1  0.40570000  0.16972000  0.51660000  1.0 -0.5029834057
O  O12  1  0.59430000  0.83028000  0.48340000  1.0 -0.5029834057
