# DDEC6 charges by PACMAN v1.1 (https://github.com/mtap-research/PACMAN-charge/)
data_QINSUD01_FSR_pacman
_symmetry_space_group_name_H-M   'P 1'
_cell_length_a   8.90420000
_cell_length_b   9.20040000
_cell_length_c   12.77570000
_cell_angle_alpha   90.00000000
_cell_angle_beta   90.00000000
_cell_angle_gamma   90.00000000
_symmetry_Int_Tables_number   1
_chemical_formula_structural   MnH5(CO2)3
_chemical_formula_sum   'Mn4 H20 C12 O24'
_cell_volume   1046.61347200
_cell_formula_units_Z   4
loop_
 _symmetry_equiv_pos_site_id
 _symmetry_equiv_pos_as_xyz
  1  'x, y, z'
loop_
 _atom_site_type_symbol
 _atom_site_label
 _atom_site_symmetry_multiplicity
 _atom_site_fract_x
 _atom_site_fract_y
 _atom_site_fract_z
 _atom_site_occupancy
 _atom_site_charge
Mn  Mn1  1  0.50000000  0.50000000  0.00000000  1.0 1.0689789866
Mn  Mn2  1  0.00000000  0.00000000  0.00000000  1.0 1.0893308734
Mn  Mn3  1  0.00000000  0.00000000  0.50000000  1.0 1.0893308734
Mn  Mn4  1  0.50000000  0.50000000  0.50000000  1.0 1.0689789866
H  H1  1  0.32140000  0.80430000  0.02280000  1.0 0.1509570898
H  H2  1  0.17860000  0.30430000  0.97720000  1.0 0.1509570898
H  H3  1  0.82140000  0.69570000  0.47720000  1.0 0.1509570898
H  H4  1  0.67860000  0.19570000  0.52280000  1.0 0.1509570898
H  H5  1  0.67860000  0.19570000  0.97720000  1.0 0.1509570898
H  H6  1  0.82140000  0.69570000  0.02280000  1.0 0.1509570898
H  H7  1  0.17860000  0.30430000  0.52280000  1.0 0.1509570898
H  H8  1  0.32140000  0.80430000  0.47720000  1.0 0.1509570898
H  H9  1  0.50030000  0.42420000  0.25000000  1.0 0.0736658525
H  H10  1  0.99970000  0.92420000  0.75000000  1.0 0.0736658525
H  H11  1  0.00030000  0.07580000  0.25000000  1.0 0.0736658525
H  H12  1  0.49970000  0.57580000  0.75000000  1.0 0.0736658525
H  H13  1  0.40980000  0.45250000  0.25000000  1.0 0.1006656428
H  H14  1  0.09020000  0.95250000  0.75000000  1.0 0.1006656428
H  H15  1  0.90980000  0.04750000  0.25000000  1.0 0.1006656428
H  H16  1  0.59020000  0.54750000  0.75000000  1.0 0.1006656428
H  H17  1  0.58250000  0.47050000  0.25000000  1.0 0.1006656428
H  H18  1  0.91750000  0.97050000  0.75000000  1.0 0.1006656428
H  H19  1  0.08250000  0.02950000  0.25000000  1.0 0.1006656428
H  H20  1  0.41750000  0.52950000  0.75000000  1.0 0.1006656428
C  C1  1  0.25585000  0.74934000  0.98220000  1.0 0.4720711524
C  C2  1  0.24415000  0.24934000  0.01780000  1.0 0.4720711524
C  C3  1  0.75585000  0.75066000  0.51780000  1.0 0.4757023667
C  C4  1  0.74415000  0.25066000  0.48220000  1.0 0.4720711524
C  C5  1  0.74415000  0.25066000  0.01780000  1.0 0.4720711524
C  C6  1  0.75585000  0.75066000  0.98220000  1.0 0.4757023667
C  C7  1  0.24415000  0.24934000  0.48220000  1.0 0.4720711524
C  C8  1  0.25585000  0.74934000  0.51780000  1.0 0.4720711524
C  C9  1  0.48910000  0.52470000  0.25000000  1.0 0.2641391074
C  C10  1  0.01090000  0.02470000  0.75000000  1.0 0.2641391074
C  C11  1  0.98910000  0.97530000  0.25000000  1.0 0.2641391074
C  C12  1  0.51090000  0.47530000  0.75000000  1.0 0.2641391074
O  O1  1  0.29857000  0.62533000  0.95799000  1.0 -0.5013489361
O  O2  1  0.20143000  0.12533000  0.04201000  1.0 -0.5013489361
O  O3  1  0.79857000  0.87467000  0.54201000  1.0 -0.5065430189
O  O4  1  0.70143000  0.37467000  0.45799000  1.0 -0.5013489361
O  O5  1  0.70143000  0.37467000  0.04201000  1.0 -0.5013489361
O  O6  1  0.79857000  0.87467000  0.95799000  1.0 -0.5065430189
O  O7  1  0.20143000  0.12533000  0.45799000  1.0 -0.5013489361
O  O8  1  0.29857000  0.62533000  0.54201000  1.0 -0.5013489361
O  O9  1  0.13555000  0.80773000  0.95820000  1.0 -0.5013489361
O  O10  1  0.36445000  0.30773000  0.04180000  1.0 -0.5013489361
O  O11  1  0.63555000  0.69227000  0.54180000  1.0 -0.5013489361
O  O12  1  0.86445000  0.19227000  0.45820000  1.0 -0.5013489361
O  O13  1  0.86445000  0.19227000  0.04180000  1.0 -0.5013489361
O  O14  1  0.63555000  0.69227000  0.95820000  1.0 -0.5013489361
O  O15  1  0.36445000  0.30773000  0.45820000  1.0 -0.5013489361
O  O16  1  0.13555000  0.80773000  0.54180000  1.0 -0.5013489361
O  O17  1  0.48286000  0.58086000  0.16310000  1.0 -0.4290852408
O  O18  1  0.01714000  0.08086000  0.83690000  1.0 -0.4290852408
O  O19  1  0.98286000  0.91914000  0.33690000  1.0 -0.4290852408
O  O20  1  0.51714000  0.41914000  0.66310000  1.0 -0.4290852408
O  O21  1  0.51714000  0.41914000  0.83690000  1.0 -0.4290852408
O  O22  1  0.98286000  0.91914000  0.16310000  1.0 -0.4290852408
O  O23  1  0.01714000  0.08086000  0.66310000  1.0 -0.4290852408
O  O24  1  0.48286000  0.58086000  0.33690000  1.0 -0.4290852408
