# DDEC6 charges by PACMAN v1.1 (https://github.com/mtap-research/PACMAN-charge/)
data_QIRYAS_ASR_pacman
_symmetry_space_group_name_H-M   'P 1'
_cell_length_a   11.11930000
_cell_length_b   11.24730000
_cell_length_c   11.36200000
_cell_angle_alpha   75.65100000
_cell_angle_beta   66.11900000
_cell_angle_gamma   76.99100000
_symmetry_Int_Tables_number   1
_chemical_formula_structural   Co3H7C15N2O11
_chemical_formula_sum   'Co6 H14 C30 N4 O22'
_cell_volume   1246.22338893
_cell_formula_units_Z   2
loop_
 _symmetry_equiv_pos_site_id
 _symmetry_equiv_pos_as_xyz
  1  'x, y, z'
loop_
 _atom_site_type_symbol
 _atom_site_label
 _atom_site_symmetry_multiplicity
 _atom_site_fract_x
 _atom_site_fract_y
 _atom_site_fract_z
 _atom_site_occupancy
 _atom_site_charge
Co  Co1  1  0.10894000  0.38861000  0.49877000  1.0 0.8593515516
Co  Co2  1  0.89106000  0.61139000  0.50123000  1.0 0.8593515516
Co  Co3  1  0.02891000  0.56873000  0.71005000  1.0 1.0796835184
Co  Co4  1  0.97109000  0.43127000  0.28995000  1.0 1.0796835184
Co  Co5  1  0.00083000  0.35774000  0.00891000  1.0 1.0796835184
Co  Co6  1  0.99917000  0.64226000  0.99109000  1.0 1.0796835184
H  H1  1  0.87320000  0.52390000  0.92190000  1.0 0.4027298898
H  H2  1  0.12680000  0.47610000  0.07810000  1.0 0.4027298898
H  H3  1  0.97220000  0.03250000  0.85730000  1.0 0.1633155927
H  H4  1  0.02780000  0.96750000  0.14270000  1.0 0.1633155927
H  H5  1  0.14180000  0.92550000  0.50300000  1.0 0.1485184565
H  H6  1  0.85820000  0.07450000  0.49700000  1.0 0.1485184565
H  H7  1  0.18500000  0.12670000  0.40800000  1.0 0.1256195516
H  H8  1  0.81500000  0.87330000  0.59200000  1.0 0.1256195516
H  H9  1  0.54810000  0.41960000  0.13830000  1.0 0.1633155927
H  H10  1  0.45190000  0.58040000  0.86170000  1.0 0.1633155927
H  H11  1  0.58080000  0.34890000  0.49330000  1.0 0.1485184565
H  H12  1  0.41920000  0.65110000  0.50670000  1.0 0.1485184565
H  H13  1  0.35600000  0.32650000  0.59020000  1.0 0.1256195516
H  H14  1  0.64400000  0.67350000  0.40980000  1.0 0.1256195516
C  C1  1  0.01500000  0.27350000  0.77340000  1.0 0.5703216553
C  C2  1  0.98500000  0.72650000  0.22660000  1.0 0.5703216553
C  C3  1  0.04500000  0.16770000  0.70130000  1.0 0.1103108911
C  C4  1  0.95500000  0.83230000  0.29870000  1.0 0.1103108911
C  C5  1  0.01470000  0.05020000  0.76490000  1.0 -0.1358212322
C  C6  1  0.98530000  0.94980000  0.23510000  1.0 -0.1358212322
C  C7  1  0.04810000  0.95840000  0.69000000  1.0 0.0427887052
C  C8  1  0.95190000  0.04160000  0.31000000  1.0 0.0427887052
C  C9  1  0.11450000  0.98740000  0.55580000  1.0 -0.1478143647
C  C10  1  0.88550000  0.01260000  0.44420000  1.0 -0.1478143647
C  C11  1  0.14030000  0.10720000  0.50000000  1.0 0.1103108911
C  C12  1  0.85970000  0.89280000  0.50000000  1.0 0.1103108911
C  C13  1  0.01220000  0.82930000  0.75370000  1.0 0.5939974547
C  C14  1  0.98780000  0.17070000  0.24630000  1.0 0.5939974547
C  C15  1  0.28180000  0.41380000  0.22440000  1.0 0.5598246813
C  C16  1  0.71820000  0.58620000  0.77560000  1.0 0.5598246813
C  C17  1  0.37680000  0.39320000  0.29550000  1.0 0.1103108911
C  C18  1  0.62320000  0.60680000  0.70450000  1.0 0.1103108911
C  C19  1  0.51030000  0.40260000  0.23110000  1.0 -0.1280139476
C  C20  1  0.48970000  0.59740000  0.76890000  1.0 -0.1280139476
C  C21  1  0.58830000  0.38670000  0.30500000  1.0 0.047633639
C  C22  1  0.41170000  0.61330000  0.69500000  1.0 0.047633639
C  C23  1  0.52970000  0.35960000  0.44070000  1.0 -0.1478143647
C  C24  1  0.47030000  0.64040000  0.55930000  1.0 -0.1478143647
C  C25  1  0.39520000  0.34840000  0.49780000  1.0 0.1103108911
C  C26  1  0.60480000  0.65160000  0.50220000  1.0 0.1103108911
C  C27  1  0.73300000  0.40220000  0.24040000  1.0 0.5939974547
C  C28  1  0.26700000  0.59780000  0.75960000  1.0 0.5939974547
C  C29  1  0.81730000  0.34940000  0.58360000  1.0 0.4027298898
C  C30  1  0.18270000  0.65060000  0.41640000  1.0 0.4027298898
N  N1  1  0.10480000  0.19670000  0.57070000  1.0 -0.2639030903
N  N2  1  0.89520000  0.80330000  0.42930000  1.0 -0.2639030903
N  N3  1  0.31910000  0.36740000  0.42720000  1.0 -0.2742183447
N  N4  1  0.68090000  0.63260000  0.57280000  1.0 -0.2742183447
O  O1  1  0.04890000  0.37550000  0.70030000  1.0 -0.5687453588
O  O2  1  0.95110000  0.62450000  0.29970000  1.0 -0.5687453588
O  O3  1  0.96470000  0.25400000  0.89570000  1.0 -0.49643507
O  O4  1  0.03530000  0.74600000  0.10430000  1.0 -0.49643507
O  O5  1  0.03650000  0.75600000  0.67760000  1.0 -0.5547501683
O  O6  1  0.96350000  0.24400000  0.32240000  1.0 -0.5547501683
O  O7  1  0.96070000  0.80840000  0.87640000  1.0 -0.5377779096
O  O8  1  0.03930000  0.19160000  0.12360000  1.0 -0.5377779096
O  O9  1  0.16160000  0.40560000  0.30040000  1.0 -0.5766594648
O  O10  1  0.83840000  0.59440000  0.69960000  1.0 -0.5766594648
O  O11  1  0.32320000  0.43520000  0.10380000  1.0 -0.4575449764
O  O12  1  0.67680000  0.56480000  0.89620000  1.0 -0.4575449764
O  O13  1  0.79810000  0.35890000  0.13750000  1.0 -0.5377779096
O  O14  1  0.20190000  0.64110000  0.86250000  1.0 -0.5377779096
O  O15  1  0.77480000  0.45800000  0.29720000  1.0 -0.5687453588
O  O16  1  0.22520000  0.54200000  0.70280000  1.0 -0.5687453588
O  O17  1  0.94940000  0.52890000  0.90590000  1.0 -0.8808921814
O  O18  1  0.05060000  0.47110000  0.09410000  1.0 -0.8808921814
O  O19  1  0.91830000  0.42570000  0.49030000  1.0 -0.7032336235
O  O20  1  0.08170000  0.57430000  0.50970000  1.0 -0.7032336235
O  O21  1  0.70660000  0.29490000  0.67820000  1.0 -0.5687453588
O  O22  1  0.29340000  0.70510000  0.32180000  1.0 -0.5687453588
