# DDEC6 charges by PACMAN v1.1 (https://github.com/mtap-research/PACMAN-charge/)
data_QISJEJ_ion_pacman
_symmetry_space_group_name_H-M   'P 1'
_cell_length_a   19.65000000
_cell_length_b   19.65000000
_cell_length_c   7.65600000
_cell_angle_alpha   90.00000000
_cell_angle_beta   90.00000000
_cell_angle_gamma   120.00000000
_symmetry_Int_Tables_number   1
_chemical_formula_structural   CdH38C28(N7O3)2
_chemical_formula_sum   'Cd3 H114 C84 N42 O18'
_cell_volume   2560.10434026
_cell_formula_units_Z   3
loop_
 _symmetry_equiv_pos_site_id
 _symmetry_equiv_pos_as_xyz
  1  'x, y, z'
loop_
 _atom_site_type_symbol
 _atom_site_label
 _atom_site_symmetry_multiplicity
 _atom_site_fract_x
 _atom_site_fract_y
 _atom_site_fract_z
 _atom_site_occupancy
 _atom_site_charge
Cd  Cd1  1  0.66666667  0.33333333  0.35049000  1.0 0.698801154
Cd  Cd2  1  0.33333333  0.66666667  0.64951000  1.0 0.698801154
Cd  Cd3  1  0.00000000  0.00000000  0.00000000  1.0 0.7128181698
H  H1  1  0.47620000  0.19060000  0.44490000  1.0 0.1100767697
H  H2  1  0.80940000  0.28560000  0.44490000  1.0 0.1100767697
H  H3  1  0.71440000  0.52380000  0.44490000  1.0 0.1100767697
H  H4  1  0.52380000  0.80940000  0.55510000  1.0 0.1100767697
H  H5  1  0.19060000  0.71440000  0.55510000  1.0 0.1100767697
H  H6  1  0.28560000  0.47620000  0.55510000  1.0 0.1100767697
H  H7  1  0.58590000  0.39020000  0.68860000  1.0 0.1193987779
H  H8  1  0.60980000  0.19570000  0.68860000  1.0 0.1193987779
H  H9  1  0.80430000  0.41410000  0.68860000  1.0 0.1193987779
H  H10  1  0.41410000  0.60980000  0.31140000  1.0 0.1193987779
H  H11  1  0.39020000  0.80430000  0.31140000  1.0 0.1193987779
H  H12  1  0.19570000  0.58590000  0.31140000  1.0 0.1193987779
H  H13  1  0.45500000  0.31910000  0.81450000  1.0 0.1193987779
H  H14  1  0.68090000  0.13590000  0.81450000  1.0 0.1193987779
H  H15  1  0.86410000  0.54500000  0.81450000  1.0 0.1193987779
H  H16  1  0.54500000  0.68090000  0.18550000  1.0 0.1193987779
H  H17  1  0.31910000  0.86410000  0.18550000  1.0 0.1193987779
H  H18  1  0.13590000  0.45500000  0.18550000  1.0 0.1193987779
H  H19  1  0.20900000  0.00800000  0.53810000  1.0 0.1100767697
H  H20  1  0.99200000  0.20100000  0.53810000  1.0 0.1100767697
H  H21  1  0.79900000  0.79100000  0.53810000  1.0 0.1100767697
H  H22  1  0.79100000  0.99200000  0.46190000  1.0 0.1100767697
H  H23  1  0.00800000  0.79900000  0.46190000  1.0 0.1100767697
H  H24  1  0.20100000  0.20900000  0.46190000  1.0 0.1100767697
H  H25  1  0.07740000  0.94060000  0.66340000  1.0 0.1193987779
H  H26  1  0.05940000  0.13680000  0.66340000  1.0 0.1193987779
H  H27  1  0.86320000  0.92260000  0.66340000  1.0 0.1193987779
H  H28  1  0.92260000  0.05940000  0.33660000  1.0 0.1193987779
H  H29  1  0.94060000  0.86320000  0.33660000  1.0 0.1193987779
H  H30  1  0.13680000  0.07740000  0.33660000  1.0 0.1193987779
H  H31  1  0.19170000  0.13650000  0.91120000  1.0 0.1100767697
H  H32  1  0.86350000  0.05520000  0.91120000  1.0 0.1100767697
H  H33  1  0.94480000  0.80830000  0.91120000  1.0 0.1100767697
H  H34  1  0.80830000  0.86350000  0.08880000  1.0 0.1100767697
H  H35  1  0.13650000  0.94480000  0.08880000  1.0 0.1100767697
H  H36  1  0.05520000  0.19170000  0.08880000  1.0 0.1100767697
H  H37  1  0.52480000  0.38600000  0.26880000  1.0 0.1193987779
H  H38  1  0.61400000  0.13880000  0.26880000  1.0 0.1193987779
H  H39  1  0.86120000  0.47520000  0.26880000  1.0 0.1193987779
H  H40  1  0.47520000  0.61400000  0.73120000  1.0 0.1193987779
H  H41  1  0.38600000  0.86120000  0.73120000  1.0 0.1193987779
H  H42  1  0.13880000  0.52480000  0.73120000  1.0 0.1193987779
H  H43  1  0.72320000  0.46990000  0.01490000  1.0 0.1193987779
H  H44  1  0.53010000  0.25330000  0.01490000  1.0 0.1193987779
H  H45  1  0.74670000  0.27680000  0.01490000  1.0 0.1193987779
H  H46  1  0.27680000  0.53010000  0.98510000  1.0 0.1193987779
H  H47  1  0.46990000  0.74670000  0.98510000  1.0 0.1193987779
H  H48  1  0.25330000  0.72320000  0.98510000  1.0 0.1193987779
H  H49  1  0.65870000  0.54120000  0.91350000  1.0 0.1193987779
H  H50  1  0.45880000  0.11750000  0.91350000  1.0 0.1193987779
H  H51  1  0.88250000  0.34130000  0.91350000  1.0 0.1193987779
H  H52  1  0.34130000  0.45880000  0.08650000  1.0 0.1193987779
H  H53  1  0.54120000  0.88250000  0.08650000  1.0 0.1193987779
H  H54  1  0.11750000  0.65870000  0.08650000  1.0 0.1193987779
H  H55  1  0.54540000  0.55960000  0.12090000  1.0 0.1275670284
H  H56  1  0.44040000  0.98580000  0.12090000  1.0 0.1275670284
H  H57  1  0.01420000  0.45460000  0.12090000  1.0 0.1275670284
H  H58  1  0.45460000  0.44040000  0.87910000  1.0 0.1275670284
H  H59  1  0.55960000  0.01420000  0.87910000  1.0 0.1275670284
H  H60  1  0.98580000  0.54540000  0.87910000  1.0 0.1275670284
H  H61  1  0.47620000  0.47630000  0.17350000  1.0 0.1275670284
H  H62  1  0.52370000  0.99990000  0.17350000  1.0 0.1275670284
H  H63  1  0.00010000  0.52380000  0.17350000  1.0 0.1275670284
H  H64  1  0.52380000  0.52370000  0.82650000  1.0 0.1275670284
H  H65  1  0.47630000  0.00010000  0.82650000  1.0 0.1275670284
H  H66  1  0.99990000  0.47620000  0.82650000  1.0 0.1275670284
H  H67  1  0.33540000  0.15530000  0.85790000  1.0 0.0796648405
H  H68  1  0.84470000  0.18010000  0.85790000  1.0 0.0796648405
H  H69  1  0.81990000  0.66460000  0.85790000  1.0 0.0796648405
H  H70  1  0.66460000  0.84470000  0.14210000  1.0 0.087345341
H  H71  1  0.15530000  0.81990000  0.14210000  1.0 0.0796648405
H  H72  1  0.18010000  0.33540000  0.14210000  1.0 0.0796648405
H  H73  1  0.33770000  0.09590000  0.72170000  1.0 0.0796648405
H  H74  1  0.90410000  0.24180000  0.72170000  1.0 0.0796648405
H  H75  1  0.75820000  0.66230000  0.72170000  1.0 0.0796648405
H  H76  1  0.66230000  0.90410000  0.27830000  1.0 0.0796648405
H  H77  1  0.09590000  0.75820000  0.27830000  1.0 0.0796648405
H  H78  1  0.24180000  0.33770000  0.27830000  1.0 0.0796648405
H  H79  1  0.32820000  0.23000000  0.62510000  1.0 0.0796648405
H  H80  1  0.77000000  0.09820000  0.62510000  1.0 0.0796648405
H  H81  1  0.90180000  0.67180000  0.62510000  1.0 0.0796648405
H  H82  1  0.67180000  0.77000000  0.37490000  1.0 0.0796648405
H  H83  1  0.23000000  0.90180000  0.37490000  1.0 0.0796648405
H  H84  1  0.09820000  0.32820000  0.37490000  1.0 0.0796648405
H  H85  1  0.33333333  0.17140000  0.49060000  1.0 0.087345341
H  H86  1  0.82860000  0.16193000  0.49060000  1.0 0.087345341
H  H87  1  0.83807000  0.66666667  0.49060000  1.0 0.087345341
H  H88  1  0.66666667  0.82860000  0.50940000  1.0 0.087345341
H  H89  1  0.17140000  0.83807000  0.50940000  1.0 0.087345341
H  H90  1  0.16193000  0.33333333  0.50940000  1.0 0.087345341
H  H91  1  0.29800000  0.16740000  0.51550000  1.0 0.0796648405
H  H92  1  0.83260000  0.13060000  0.51550000  1.0 0.0796648405
H  H93  1  0.86940000  0.70200000  0.51550000  1.0 0.0796648405
H  H94  1  0.70200000  0.83260000  0.48450000  1.0 0.0796648405
H  H95  1  0.16740000  0.86940000  0.48450000  1.0 0.0796648405
H  H96  1  0.13060000  0.29800000  0.48450000  1.0 0.0796648405
H  H97  1  0.30150000  0.21460000  0.68580000  1.0 0.0796648405
H  H98  1  0.78540000  0.08690000  0.68580000  1.0 0.0796648405
H  H99  1  0.91310000  0.69850000  0.68580000  1.0 0.0796648405
H  H100  1  0.69850000  0.78540000  0.31420000  1.0 0.087345341
H  H101  1  0.21460000  0.91310000  0.31420000  1.0 0.087345341
H  H102  1  0.08690000  0.30150000  0.31420000  1.0 0.0796648405
H  H103  1  0.36830000  0.15850000  0.83510000  1.0 0.0796648405
H  H104  1  0.84150000  0.20980000  0.83510000  1.0 0.0796648405
H  H105  1  0.79020000  0.63170000  0.83510000  1.0 0.0796648405
H  H106  1  0.63170000  0.84150000  0.16490000  1.0 0.0796648405
H  H107  1  0.15850000  0.79020000  0.16490000  1.0 0.0796648405
H  H108  1  0.20980000  0.36830000  0.16490000  1.0 0.0796648405
H  H109  1  0.36620000  0.11320000  0.66270000  1.0 0.087345341
H  H110  1  0.88680000  0.25300000  0.66270000  1.0 0.087345341
H  H111  1  0.74700000  0.63380000  0.66270000  1.0 0.087345341
H  H112  1  0.63380000  0.88680000  0.33730000  1.0 0.087345341
H  H113  1  0.11320000  0.74700000  0.33730000  1.0 0.087345341
H  H114  1  0.25300000  0.36620000  0.33730000  1.0 0.087345341
C  C1  1  0.48770000  0.23240000  0.51950000  1.0 0.0285266327
C  C2  1  0.76760000  0.25530000  0.51950000  1.0 0.0285266327
C  C3  1  0.74470000  0.51230000  0.51950000  1.0 0.0285266327
C  C4  1  0.51230000  0.76760000  0.48050000  1.0 0.0285266327
C  C5  1  0.23240000  0.74470000  0.48050000  1.0 0.0285266327
C  C6  1  0.25530000  0.48770000  0.48050000  1.0 0.0285266327
C  C7  1  0.54670000  0.34050000  0.65390000  1.0 -0.0473686202
C  C8  1  0.65950000  0.20620000  0.65390000  1.0 -0.0473686202
C  C9  1  0.79380000  0.45330000  0.65390000  1.0 -0.0473686202
C  C10  1  0.45330000  0.65950000  0.34610000  1.0 -0.0473686202
C  C11  1  0.34050000  0.79380000  0.34610000  1.0 -0.0473686202
C  C12  1  0.20620000  0.54670000  0.34610000  1.0 -0.0473686202
C  C13  1  0.47460000  0.30200000  0.72450000  1.0 -0.156632983
C  C14  1  0.69800000  0.17260000  0.72450000  1.0 -0.156632983
C  C15  1  0.82740000  0.52540000  0.72450000  1.0 -0.156632983
C  C16  1  0.52540000  0.69800000  0.27550000  1.0 -0.156632983
C  C17  1  0.30200000  0.82740000  0.27550000  1.0 -0.156632983
C  C18  1  0.17260000  0.47460000  0.27550000  1.0 -0.156632983
C  C19  1  0.19030000  0.02590000  0.62830000  1.0 -0.1814761617
C  C20  1  0.97410000  0.16440000  0.62830000  1.0 -0.1814761617
C  C21  1  0.83560000  0.80970000  0.62830000  1.0 -0.1814761617
C  C22  1  0.80970000  0.97410000  0.37170000  1.0 -0.1814761617
C  C23  1  0.02590000  0.83560000  0.37170000  1.0 -0.1814761617
C  C24  1  0.16440000  0.19030000  0.37170000  1.0 -0.1814761617
C  C25  1  0.11800000  0.98950000  0.69870000  1.0 -0.0473686202
C  C26  1  0.01050000  0.12850000  0.69870000  1.0 -0.0473686202
C  C27  1  0.87150000  0.88200000  0.69870000  1.0 -0.0473686202
C  C28  1  0.88200000  0.01050000  0.30130000  1.0 -0.0473686202
C  C29  1  0.98950000  0.87150000  0.30130000  1.0 -0.0473686202
C  C30  1  0.12850000  0.11800000  0.30130000  1.0 -0.0473686202
C  C31  1  0.17910000  0.09520000  0.83420000  1.0 0.069603338
C  C32  1  0.90480000  0.08390000  0.83420000  1.0 0.069603338
C  C33  1  0.91610000  0.82090000  0.83420000  1.0 0.069603338
C  C34  1  0.82090000  0.90480000  0.16580000  1.0 0.069603338
C  C35  1  0.09520000  0.91610000  0.16580000  1.0 0.069603338
C  C36  1  0.08390000  0.17910000  0.16580000  1.0 0.069603338
C  C37  1  0.56690000  0.41640000  0.19510000  1.0 0.0974678563
C  C38  1  0.58360000  0.15050000  0.19510000  1.0 0.0974678563
C  C39  1  0.84950000  0.43310000  0.19510000  1.0 0.0974678563
C  C40  1  0.43310000  0.58360000  0.80490000  1.0 0.0974678563
C  C41  1  0.41640000  0.84950000  0.80490000  1.0 0.0974678563
C  C42  1  0.15050000  0.56690000  0.80490000  1.0 0.0974678563
C  C43  1  0.67510000  0.46220000  0.05440000  1.0 -0.0473686202
C  C44  1  0.53780000  0.21290000  0.05440000  1.0 -0.0473686202
C  C45  1  0.78710000  0.32490000  0.05440000  1.0 -0.0473686202
C  C46  1  0.32490000  0.53780000  0.94560000  1.0 -0.0473686202
C  C47  1  0.46220000  0.78710000  0.94560000  1.0 -0.0473686202
C  C48  1  0.21290000  0.67510000  0.94560000  1.0 -0.0473686202
C  C49  1  0.64010000  0.50220000  0.99870000  1.0 -0.1266530786
C  C50  1  0.49780000  0.13790000  0.99870000  1.0 -0.1266530786
C  C51  1  0.86210000  0.35990000  0.99870000  1.0 -0.1266530786
C  C52  1  0.35990000  0.49780000  0.00130000  1.0 -0.1266530786
C  C53  1  0.50220000  0.86210000  0.00130000  1.0 -0.1266530786
C  C54  1  0.13790000  0.64010000  0.00130000  1.0 -0.1266530786
C  C55  1  0.51760000  0.50450000  0.08860000  1.0 -0.1266530786
C  C56  1  0.49550000  0.01310000  0.08860000  1.0 -0.1266530786
C  C57  1  0.98690000  0.48240000  0.08860000  1.0 -0.1266530786
C  C58  1  0.48240000  0.49550000  0.91140000  1.0 -0.1266530786
C  C59  1  0.50450000  0.98690000  0.91140000  1.0 -0.1266530786
C  C60  1  0.01310000  0.51760000  0.91140000  1.0 -0.1266530786
C  C61  1  0.31950000  0.13280000  0.74220000  1.0 -0.0627441346
C  C62  1  0.86720000  0.18670000  0.74220000  1.0 -0.0627441346
C  C63  1  0.81330000  0.68050000  0.74220000  1.0 -0.0627441346
C  C64  1  0.68050000  0.86720000  0.25780000  1.0 -0.0627441346
C  C65  1  0.13280000  0.81330000  0.25780000  1.0 -0.0627441346
C  C66  1  0.18670000  0.31950000  0.25780000  1.0 -0.0627441346
C  C67  1  0.34760000  0.19390000  0.60680000  1.0 -0.0689335987
C  C68  1  0.80610000  0.15370000  0.60680000  1.0 -0.0689335987
C  C69  1  0.84630000  0.65240000  0.60680000  1.0 -0.0689335987
C  C70  1  0.65240000  0.80610000  0.39320000  1.0 -0.0689335987
C  C71  1  0.19390000  0.84630000  0.39320000  1.0 -0.0689335987
C  C72  1  0.15370000  0.34760000  0.39320000  1.0 -0.0689335987
C  C73  1  0.29950000  0.16730000  0.64220000  1.0 -0.0689335987
C  C74  1  0.83270000  0.13220000  0.64220000  1.0 -0.0689335987
C  C75  1  0.86780000  0.70050000  0.64220000  1.0 -0.0689335987
C  C76  1  0.70050000  0.83270000  0.35780000  1.0 -0.0689335987
C  C77  1  0.16730000  0.86780000  0.35780000  1.0 -0.0689335987
C  C78  1  0.13220000  0.29950000  0.35780000  1.0 -0.0689335987
C  C79  1  0.36760000  0.15990000  0.70850000  1.0 -0.0689335987
C  C80  1  0.84010000  0.20770000  0.70850000  1.0 -0.0689335987
C  C81  1  0.79230000  0.63240000  0.70850000  1.0 -0.0689335987
C  C82  1  0.63240000  0.84010000  0.29150000  1.0 -0.0689335987
C  C83  1  0.15990000  0.79230000  0.29150000  1.0 -0.0689335987
C  C84  1  0.20770000  0.36760000  0.29150000  1.0 -0.0689335987
N  N1  1  0.55490000  0.29760000  0.52480000  1.0 -0.2696414151
N  N2  1  0.70240000  0.25730000  0.52480000  1.0 -0.2696414151
N  N3  1  0.74270000  0.44510000  0.52480000  1.0 -0.2696414151
N  N4  1  0.44510000  0.70240000  0.47520000  1.0 -0.2696414151
N  N5  1  0.29760000  0.74270000  0.47520000  1.0 -0.2696414151
N  N6  1  0.25730000  0.55490000  0.47520000  1.0 -0.2696414151
N  N7  1  0.43680000  0.23360000  0.63820000  1.0 0.0285266327
N  N8  1  0.76640000  0.20320000  0.63820000  1.0 0.0285266327
N  N9  1  0.79680000  0.56320000  0.63820000  1.0 0.0285266327
N  N10  1  0.56320000  0.76640000  0.36180000  1.0 0.0285266327
N  N11  1  0.23360000  0.79680000  0.36180000  1.0 0.0285266327
N  N12  1  0.20320000  0.43680000  0.36180000  1.0 0.0285266327
N  N13  1  0.22990000  0.09410000  0.71700000  1.0 -0.0257841332
N  N14  1  0.90590000  0.13580000  0.71700000  1.0 -0.0257841332
N  N15  1  0.86420000  0.77010000  0.71700000  1.0 -0.0257841332
N  N16  1  0.77010000  0.90590000  0.28300000  1.0 -0.0257841332
N  N17  1  0.09410000  0.86420000  0.28300000  1.0 -0.0257841332
N  N18  1  0.13580000  0.22990000  0.28300000  1.0 -0.0257841332
N  N19  1  0.11180000  0.03300000  0.82700000  1.0 -0.2568510829
N  N20  1  0.96700000  0.07880000  0.82700000  1.0 -0.2568510829
N  N21  1  0.92120000  0.88820000  0.82700000  1.0 -0.2568510829
N  N22  1  0.88820000  0.96700000  0.17300000  1.0 -0.2568510829
N  N23  1  0.03300000  0.92120000  0.17300000  1.0 -0.2568510829
N  N24  1  0.07880000  0.11180000  0.17300000  1.0 -0.2568510829
N  N25  1  0.62890000  0.40850000  0.17840000  1.0 -0.2696414151
N  N26  1  0.59150000  0.22040000  0.17840000  1.0 -0.2696414151
N  N27  1  0.77960000  0.37110000  0.17840000  1.0 -0.2696414151
N  N28  1  0.37110000  0.59150000  0.82160000  1.0 -0.2696414151
N  N29  1  0.40850000  0.77960000  0.82160000  1.0 -0.2696414151
N  N30  1  0.22040000  0.62890000  0.82160000  1.0 -0.2696414151
N  N31  1  0.57180000  0.47430000  0.09170000  1.0 0.048295548
N  N32  1  0.52570000  0.09750000  0.09170000  1.0 0.048295548
N  N33  1  0.90250000  0.42820000  0.09170000  1.0 0.048295548
N  N34  1  0.42820000  0.52570000  0.90830000  1.0 0.048295548
N  N35  1  0.47430000  0.90250000  0.90830000  1.0 0.048295548
N  N36  1  0.09750000  0.57180000  0.90830000  1.0 0.048295548
N  N37  1  0.07440000  0.34990000  0.85050000  1.0 0.169600851
N  N38  1  0.27550000  0.92560000  0.85050000  1.0 0.169600851
N  N39  1  0.65010000  0.72450000  0.85050000  1.0 0.169600851
N  N40  1  0.92560000  0.65010000  0.14950000  1.0 0.169600851
N  N41  1  0.72450000  0.07440000  0.14950000  1.0 0.169600851
N  N42  1  0.34990000  0.27550000  0.14950000  1.0 0.169600851
O  O1  1  0.07310000  0.37230000  0.70620000  1.0 -0.3268385836
O  O2  1  0.12340000  0.33710000  0.88560000  1.0 -0.2940479873
O  O3  1  0.02790000  0.34040000  0.95020000  1.0 -0.3061639029
O  O4  1  0.29920000  0.92690000  0.70620000  1.0 -0.3268385836
O  O5  1  0.21370000  0.87660000  0.88560000  1.0 -0.2940479873
O  O6  1  0.31250000  0.97210000  0.95020000  1.0 -0.3061639029
O  O7  1  0.62770000  0.70080000  0.70620000  1.0 -0.3268385836
O  O8  1  0.66290000  0.78630000  0.88560000  1.0 -0.2940479873
O  O9  1  0.65960000  0.68750000  0.95020000  1.0 -0.3061639029
O  O10  1  0.92690000  0.62770000  0.29380000  1.0 -0.3268385836
O  O11  1  0.87660000  0.66290000  0.11440000  1.0 -0.2940479873
O  O12  1  0.97210000  0.65960000  0.04980000  1.0 -0.3061639029
O  O13  1  0.70080000  0.07310000  0.29380000  1.0 -0.3268385836
O  O14  1  0.78630000  0.12340000  0.11440000  1.0 -0.2940479873
O  O15  1  0.68750000  0.02790000  0.04980000  1.0 -0.3061639029
O  O16  1  0.37230000  0.29920000  0.29380000  1.0 -0.3268385836
O  O17  1  0.33710000  0.21370000  0.11440000  1.0 -0.2940479873
O  O18  1  0.34040000  0.31250000  0.04980000  1.0 -0.3061639029
