# DDEC6 charges by PACMAN v1.1 (https://github.com/mtap-research/PACMAN-charge/)
data_QIVDUX_ASR_pacman
_symmetry_space_group_name_H-M   'P 1'
_cell_length_a   4.64460000
_cell_length_b   13.01400000
_cell_length_c   14.32100000
_cell_angle_alpha   66.41600000
_cell_angle_beta   84.77200000
_cell_angle_gamma   80.58200000
_symmetry_Int_Tables_number   1
_chemical_formula_structural   MnH6(C4O3)2
_chemical_formula_sum   'Mn3 H18 C24 O18'
_cell_volume   782.31967974
_cell_formula_units_Z   3
loop_
 _symmetry_equiv_pos_site_id
 _symmetry_equiv_pos_as_xyz
  1  'x, y, z'
loop_
 _atom_site_type_symbol
 _atom_site_label
 _atom_site_symmetry_multiplicity
 _atom_site_fract_x
 _atom_site_fract_y
 _atom_site_fract_z
 _atom_site_occupancy
 _atom_site_charge
Mn  Mn1  1  0.31615000  0.61440000  0.89884000  1.0 1.0523573945
Mn  Mn2  1  0.68385000  0.38560000  0.10116000  1.0 1.0523573945
Mn  Mn3  1  0.00000000  0.00000000  0.50000000  1.0 1.0282831977
H  H1  1  0.40560000  0.74730000  0.04260000  1.0 0.148097277
H  H2  1  0.48630000  0.64590000  0.14610000  1.0 0.1378595273
H  H3  1  0.83640000  0.56070000  0.23630000  1.0 0.1305904031
H  H4  1  0.85180000  0.40210000  0.35640000  1.0 0.1240868608
H  H5  1  0.09830000  0.30260000  0.40950000  1.0 0.1305904031
H  H6  1  0.38090000  0.60780000  0.41560000  1.0 0.148097277
H  H7  1  0.96850000  0.87510000  0.18960000  1.0 0.1708972643
H  H8  1  0.66190000  0.74500000  0.40570000  1.0 0.1240868608
H  H9  1  0.37770000  0.74950000  0.47380000  1.0 0.1305904031
H  H10  1  0.59440000  0.25270000  0.95740000  1.0 0.148097277
H  H11  1  0.51370000  0.35410000  0.85390000  1.0 0.1378595273
H  H12  1  0.16360000  0.43930000  0.76370000  1.0 0.1305904031
H  H13  1  0.14820000  0.59790000  0.64360000  1.0 0.1240868608
H  H14  1  0.90170000  0.69740000  0.59050000  1.0 0.1305904031
H  H15  1  0.61910000  0.39220000  0.58440000  1.0 0.148097277
H  H16  1  0.03150000  0.12490000  0.81040000  1.0 0.1708972643
H  H17  1  0.33810000  0.25500000  0.59430000  1.0 0.1240868608
H  H18  1  0.62230000  0.25050000  0.52620000  1.0 0.1305904031
C  C1  1  0.77490000  0.64330000  0.03000000  1.0 0.6169780086
C  C2  1  0.56640000  0.70260000  0.08630000  1.0 -0.1811536585
C  C3  1  0.16880000  0.37770000  0.25440000  1.0 0.6136251878
C  C4  1  0.92990000  0.60890000  0.25300000  1.0 -0.3892125298
C  C5  1  0.87890000  0.72450000  0.19910000  1.0 0.2865110825
C  C6  1  0.12210000  0.56590000  0.33200000  1.0 0.2990421246
C  C7  1  0.06130000  0.37900000  0.35810000  1.0 -0.1811536585
C  C8  1  0.25550000  0.63720000  0.36110000  1.0 -0.3892125298
C  C9  1  0.19500000  0.75250000  0.30630000  1.0 0.2795777808
C  C10  1  0.00750000  0.79720000  0.22560000  1.0 -0.3446097781
C  C11  1  0.56260000  0.89790000  0.42290000  1.0 0.6136251878
C  C12  1  0.48580000  0.79290000  0.41350000  1.0 -0.1811536585
C  C13  1  0.22510000  0.35670000  0.97000000  1.0 0.6169780086
C  C14  1  0.43360000  0.29740000  0.91370000  1.0 -0.1811536585
C  C15  1  0.83120000  0.62230000  0.74560000  1.0 0.6136251878
C  C16  1  0.07010000  0.39110000  0.74700000  1.0 -0.3892125298
C  C17  1  0.12110000  0.27550000  0.80090000  1.0 0.2865110825
C  C18  1  0.87790000  0.43410000  0.66800000  1.0 0.2990421246
C  C19  1  0.93870000  0.62100000  0.64190000  1.0 -0.1811536585
C  C20  1  0.74450000  0.36280000  0.63890000  1.0 -0.3892125298
C  C21  1  0.80500000  0.24750000  0.69370000  1.0 0.2795777808
C  C22  1  0.99250000  0.20280000  0.77440000  1.0 -0.3446097781
C  C23  1  0.43740000  0.10210000  0.57710000  1.0 0.6136251878
C  C24  1  0.51420000  0.20710000  0.58650000  1.0 -0.1811536585
O  O1  1  0.39460000  0.41720000  0.21466000  1.0 -0.545774739
O  O2  1  0.01570000  0.32970000  0.21882000  1.0 -0.5939373483
O  O3  1  0.01690000  0.67181000  0.99982000  1.0 -0.5140145232
O  O4  1  0.66920000  0.56678000  0.01322000  1.0 -0.6154995371
O  O5  1  0.19490000  0.45230000  0.38739000  1.0 -0.1704122235
O  O6  1  0.69820000  0.77458000  0.11756000  1.0 -0.1514903714
O  O7  1  0.31150000  0.83191000  0.32547000  1.0 -0.1435537298
O  O8  1  0.38280000  0.98776000  0.39533000  1.0 -0.5422402431
O  O9  1  0.80050000  0.88445000  0.46351000  1.0 -0.5773361136
O  O10  1  0.60540000  0.58280000  0.78534000  1.0 -0.545774739
O  O11  1  0.98430000  0.67030000  0.78118000  1.0 -0.5939373483
O  O12  1  0.98310000  0.32819000  0.00018000  1.0 -0.5140145232
O  O13  1  0.33080000  0.43322000  0.98678000  1.0 -0.6154995371
O  O14  1  0.80510000  0.54770000  0.61261000  1.0 -0.1704122235
O  O15  1  0.30180000  0.22542000  0.88244000  1.0 -0.1514903714
O  O16  1  0.68850000  0.16809000  0.67453000  1.0 -0.1435537298
O  O17  1  0.61720000  0.01224000  0.60467000  1.0 -0.5422402431
O  O18  1  0.19950000  0.11555000  0.53649000  1.0 -0.5773361136
