# DDEC6 charges by PACMAN v1.1 (https://github.com/mtap-research/PACMAN-charge/)
data_QIVMEQ_ASR_pacman
_symmetry_space_group_name_H-M   'P 1'
_cell_length_a   12.43380000
_cell_length_b   17.78510000
_cell_length_c   19.57760000
_cell_angle_alpha   101.57000000
_cell_angle_beta   95.30700000
_cell_angle_gamma   101.65600000
_symmetry_Int_Tables_number   1
_chemical_formula_structural   TbH12C27(S2O3)2
_chemical_formula_sum   'Tb4 H48 C108 S16 O24'
_cell_volume   4113.77590202
_cell_formula_units_Z   4
loop_
 _symmetry_equiv_pos_site_id
 _symmetry_equiv_pos_as_xyz
  1  'x, y, z'
loop_
 _atom_site_type_symbol
 _atom_site_label
 _atom_site_symmetry_multiplicity
 _atom_site_fract_x
 _atom_site_fract_y
 _atom_site_fract_z
 _atom_site_occupancy
 _atom_site_charge
Tb  Tb1  1  0.10670000  0.10589000  0.47036000  1.0 2.0592310536
Tb  Tb2  1  0.60367000  0.61217000  0.51150000  1.0 2.0592310536
Tb  Tb3  1  0.89330000  0.89411000  0.52964000  1.0 2.0529219417
Tb  Tb4  1  0.39633000  0.38783000  0.48850000  1.0 2.0592310536
H  H1  1  0.18456000  0.30484000  0.70585000  1.0 0.1204498487
H  H2  1  0.13469000  0.36932000  0.80841000  1.0 0.110895981
H  H3  1  0.81640000  0.26098000  0.73993000  1.0 0.1204498487
H  H4  1  0.86611000  0.19437000  0.63798000  1.0 0.1297503718
H  H5  1  0.91456000  0.51809000  0.77872000  1.0 0.110895981
H  H6  1  0.82860000  0.54152000  0.67820000  1.0 0.1204498487
H  H7  1  0.57292000  0.36494000  0.67494000  1.0 0.1297503718
H  H8  1  0.65986000  0.34557000  0.77953000  1.0 0.1204498487
H  H9  1  0.95380000  0.39065000  0.29907000  1.0 0.110895981
H  H10  1  0.00700000  0.32515000  0.38051000  1.0 0.1297503718
H  H11  1  0.02034000  0.14157000  0.22538000  1.0 0.1297503718
H  H12  1  0.95872000  0.20571000  0.14360000  1.0 0.1204498487
H  H13  1  0.80946000  0.51785000  0.24987000  1.0 0.1204498487
H  H14  1  0.71715000  0.53472000  0.34660000  1.0 0.1297503718
H  H15  1  0.60913000  0.30001000  0.31138000  1.0 0.1204498487
H  H16  1  0.70416000  0.28470000  0.21588000  1.0 0.1297503718
H  H17  1  0.62944000  0.75214000  0.70093000  1.0 0.1297503718
H  H18  1  0.55174000  0.80421000  0.79879000  1.0 0.09923712
H  H19  1  0.57111000  0.00220000  0.72458000  1.0 0.110895981
H  H20  1  0.62198000  0.94012000  0.62343000  1.0 0.1297503718
H  H21  1  0.41584000  0.10692000  0.78157000  1.0 0.110895981
H  H22  1  0.29068000  0.11674000  0.68943000  1.0 0.1297503718
H  H23  1  0.17122000  0.88564000  0.63272000  1.0 0.1204498487
H  H24  1  0.27592000  0.86812000  0.73540000  1.0 0.110895981
H  H25  1  0.81544000  0.69516000  0.29415000  1.0 0.1204498487
H  H26  1  0.86531000  0.63068000  0.19159000  1.0 0.110895981
H  H27  1  0.18360000  0.73902000  0.26007000  1.0 0.1204498487
H  H28  1  0.13389000  0.80563000  0.36202000  1.0 0.1297503718
H  H29  1  0.08544000  0.48191000  0.22128000  1.0 0.110895981
H  H30  1  0.17140000  0.45848000  0.32180000  1.0 0.1204498487
H  H31  1  0.42708000  0.63506000  0.32506000  1.0 0.1297503718
H  H32  1  0.34014000  0.65443000  0.22047000  1.0 0.1204498487
H  H33  1  0.04620000  0.60935000  0.70093000  1.0 0.110895981
H  H34  1  0.99300000  0.67485000  0.61949000  1.0 0.1297503718
H  H35  1  0.97966000  0.85843000  0.77462000  1.0 0.1297503718
H  H36  1  0.04128000  0.79429000  0.85640000  1.0 0.1204498487
H  H37  1  0.19054000  0.48215000  0.75013000  1.0 0.1204498487
H  H38  1  0.28285000  0.46528000  0.65340000  1.0 0.1297503718
H  H39  1  0.39087000  0.69999000  0.68862000  1.0 0.1204498487
H  H40  1  0.29584000  0.71530000  0.78412000  1.0 0.1297503718
H  H41  1  0.37056000  0.24786000  0.29907000  1.0 0.1297503718
H  H42  1  0.44826000  0.19579000  0.20121000  1.0 0.09923712
H  H43  1  0.42889000  0.99780000  0.27542000  1.0 0.110895981
H  H44  1  0.37802000  0.05988000  0.37657000  1.0 0.1297503718
H  H45  1  0.58416000  0.89308000  0.21843000  1.0 0.110895981
H  H46  1  0.70932000  0.88326000  0.31057000  1.0 0.1297503718
H  H47  1  0.82878000  0.11436000  0.36728000  1.0 0.1204498487
H  H48  1  0.72408000  0.13188000  0.26460000  1.0 0.110895981
C  C1  1  0.06160000  0.20110000  0.59360000  1.0 0.5670938997
C  C2  1  0.03160000  0.24390000  0.66100000  1.0 -0.0091868944
C  C3  1  0.11030000  0.29610000  0.71240000  1.0 -0.0858509874
C  C4  1  0.08040000  0.33570000  0.77360000  1.0 -0.1741528006
C  C5  1  0.96920000  0.32530000  0.78320000  1.0 0.0902385556
C  C6  1  0.89030000  0.27060000  0.73260000  1.0 -0.1505023947
C  C7  1  0.91990000  0.23020000  0.67160000  1.0 -0.0858509874
C  C8  1  0.93580000  0.36910000  0.84820000  1.0 -0.0600557282
C  C9  1  0.85660000  0.40980000  0.84880000  1.0 -0.0600557282
C  C10  1  0.79690000  0.42640000  0.78600000  1.0 0.0902385556
C  C11  1  0.84570000  0.48670000  0.75760000  1.0 -0.1505023947
C  C12  1  0.79360000  0.50140000  0.69800000  1.0 -0.0813385616
C  C13  1  0.69010000  0.45710000  0.66770000  1.0 -0.0205761558
C  C14  1  0.64130000  0.39710000  0.69610000  1.0 -0.0858509874
C  C15  1  0.69530000  0.38400000  0.75810000  1.0 -0.142119377
C  C16  1  0.63010000  0.47260000  0.60250000  1.0 0.6607231109
C  C17  1  0.91060000  0.40490000  0.97880000  1.0 -0.1012010255
C  C18  1  0.90500000  0.40080000  0.04570000  1.0 -0.1012010255
C  C19  1  0.91390000  0.34770000  0.16010000  1.0 -0.0600557282
C  C20  1  0.83500000  0.39000000  0.16350000  1.0 -0.0600557282
C  C21  1  0.94910000  0.30440000  0.21110000  1.0 0.0809378105
C  C22  1  0.96540000  0.34020000  0.28430000  1.0 -0.142119377
C  C23  1  0.99780000  0.30130000  0.33290000  1.0 -0.0858509874
C  C24  1  0.01750000  0.22540000  0.31200000  1.0 -0.0205761558
C  C25  1  0.00490000  0.19080000  0.24020000  1.0 -0.0813385616
C  C26  1  0.96930000  0.23010000  0.19120000  1.0 -0.1564867811
C  C27  1  0.05400000  0.18460000  0.36550000  1.0 0.5579821377
C  C28  1  0.76680000  0.40090000  0.22290000  1.0 0.09923712
C  C29  1  0.76910000  0.47380000  0.26230000  1.0 -0.1505023947
C  C30  1  0.71320000  0.48430000  0.32010000  1.0 -0.0813385616
C  C31  1  0.65160000  0.41950000  0.33820000  1.0 -0.0205761558
C  C32  1  0.64930000  0.34410000  0.29890000  1.0 -0.0858509874
C  C33  1  0.70610000  0.33500000  0.24190000  1.0 -0.142119377
C  C34  1  0.58960000  0.42770000  0.40080000  1.0 0.6505219249
C  C35  1  0.67770000  0.80630000  0.58810000  1.0 0.6607231109
C  C36  1  0.63100000  0.84050000  0.65240000  1.0 -0.0250044183
C  C37  1  0.61240000  0.80130000  0.70500000  1.0 -0.0813385616
C  C38  1  0.56880000  0.83240000  0.76450000  1.0 -0.1944608779
C  C39  1  0.55160000  0.91150000  0.76980000  1.0 0.0902385556
C  C40  1  0.57710000  0.95010000  0.71910000  1.0 -0.1505023947
C  C41  1  0.61150000  0.91400000  0.65980000  1.0 -0.0813385616
C  C42  1  0.53590000  0.97150000  0.83550000  1.0 -0.0406751743
C  C43  1  0.44400000  0.00450000  0.83920000  1.0 0.0073543668
C  C44  1  0.53110000  0.02330000  0.96680000  1.0 -0.0858509874
C  C45  1  0.34990000  0.99220000  0.77360000  1.0 0.0902385556
C  C46  1  0.36230000  0.06330000  0.75650000  1.0 -0.1812324615
C  C47  1  0.28940000  0.06720000  0.69840000  1.0 -0.0600557282
C  C48  1  0.22030000  0.00730000  0.65600000  1.0 -0.0600557282
C  C49  1  0.21510000  0.92870000  0.66550000  1.0 -0.0813385616
C  C50  1  0.27850000  0.91760000  0.72600000  1.0 -0.212816784
C  C51  1  0.15890000  0.01920000  0.59310000  1.0 0.6505219249
C  C52  1  0.56170000  0.05480000  0.03900000  1.0 -0.1144694702
C  C53  1  0.52500000  0.08240000  0.16910000  1.0 -0.0091868944
C  C54  1  0.61500000  0.05020000  0.17330000  1.0 -0.0813385616
C  C55  1  0.93840000  0.79890000  0.40640000  1.0 0.5670938997
C  C56  1  0.96840000  0.75610000  0.33900000  1.0 -0.0091868944
C  C57  1  0.88970000  0.70390000  0.28760000  1.0 -0.0858509874
C  C58  1  0.91960000  0.66430000  0.22640000  1.0 -0.1741528006
C  C59  1  0.03080000  0.67470000  0.21680000  1.0 0.0902385556
C  C60  1  0.10970000  0.72940000  0.26740000  1.0 -0.1505023947
C  C61  1  0.08010000  0.76980000  0.32840000  1.0 -0.0858509874
C  C62  1  0.06420000  0.63090000  0.15180000  1.0 -0.0600557282
C  C63  1  0.14340000  0.59020000  0.15120000  1.0 -0.0600557282
C  C64  1  0.20310000  0.57360000  0.21400000  1.0 0.0902385556
C  C65  1  0.15430000  0.51330000  0.24240000  1.0 -0.1505023947
C  C66  1  0.20640000  0.49860000  0.30200000  1.0 -0.0813385616
C  C67  1  0.30990000  0.54290000  0.33230000  1.0 -0.0205761558
C  C68  1  0.35870000  0.60290000  0.30390000  1.0 -0.0858509874
C  C69  1  0.30470000  0.61600000  0.24190000  1.0 -0.142119377
C  C70  1  0.36990000  0.52740000  0.39750000  1.0 0.6607231109
C  C71  1  0.08940000  0.59510000  0.02120000  1.0 -0.1012010255
C  C72  1  0.09500000  0.59920000  0.95430000  1.0 -0.1012010255
C  C73  1  0.08610000  0.65230000  0.83990000  1.0 -0.0600557282
C  C74  1  0.16500000  0.61000000  0.83650000  1.0 -0.0600557282
C  C75  1  0.05090000  0.69560000  0.78890000  1.0 0.0809378105
C  C76  1  0.03460000  0.65980000  0.71570000  1.0 -0.142119377
C  C77  1  0.00220000  0.69870000  0.66710000  1.0 -0.0858509874
C  C78  1  0.98250000  0.77460000  0.68800000  1.0 -0.0205761558
C  C79  1  0.99510000  0.80920000  0.75980000  1.0 -0.0858509874
C  C80  1  0.03070000  0.76990000  0.80880000  1.0 -0.1564867811
C  C81  1  0.94600000  0.81540000  0.63450000  1.0 0.5579821377
C  C82  1  0.23320000  0.59910000  0.77710000  1.0 0.09923712
C  C83  1  0.23090000  0.52620000  0.73770000  1.0 -0.1505023947
C  C84  1  0.28680000  0.51570000  0.67990000  1.0 -0.0813385616
C  C85  1  0.34840000  0.58050000  0.66180000  1.0 -0.0205761558
C  C86  1  0.35070000  0.65590000  0.70110000  1.0 -0.0858509874
C  C87  1  0.29390000  0.66500000  0.75810000  1.0 -0.142119377
C  C88  1  0.41040000  0.57230000  0.59920000  1.0 0.6505219249
C  C89  1  0.32230000  0.19370000  0.41190000  1.0 0.6607231109
C  C90  1  0.36900000  0.15950000  0.34760000  1.0 -0.0250044183
C  C91  1  0.38760000  0.19870000  0.29500000  1.0 -0.0813385616
C  C92  1  0.43120000  0.16760000  0.23550000  1.0 -0.1944608779
C  C93  1  0.44840000  0.08850000  0.23020000  1.0 0.0902385556
C  C94  1  0.42290000  0.04990000  0.28090000  1.0 -0.1505023947
C  C95  1  0.38850000  0.08600000  0.34020000  1.0 -0.0813385616
C  C96  1  0.46410000  0.02850000  0.16450000  1.0 -0.0406751743
C  C97  1  0.55600000  0.99550000  0.16080000  1.0 0.0073543668
C  C98  1  0.46890000  0.97670000  0.03320000  1.0 -0.0813385616
C  C99  1  0.65010000  0.00780000  0.22640000  1.0 0.0902385556
C  C100  1  0.63770000  0.93670000  0.24350000  1.0 -0.1812324615
C  C101  1  0.71060000  0.93280000  0.30160000  1.0 -0.0543356852
C  C102  1  0.77970000  0.99270000  0.34400000  1.0 -0.0600557282
C  C103  1  0.78490000  0.07130000  0.33450000  1.0 -0.0813385616
C  C104  1  0.72150000  0.08240000  0.27400000  1.0 -0.212816784
C  C105  1  0.84110000  0.98080000  0.40690000  1.0 0.6505219249
C  C106  1  0.43830000  0.94520000  0.96100000  1.0 -0.1164237426
C  C107  1  0.47500000  0.91760000  0.83090000  1.0 -0.0091868944
C  C108  1  0.38500000  0.94980000  0.82670000  1.0 -0.0813385616
S  S1  1  0.82926000  0.45461000  0.93311000  1.0 0.0604295211
S  S2  1  0.00292000  0.36318000  0.92923000  1.0 0.0604295211
S  S3  1  0.82029000  0.44476000  0.09988000  1.0 0.0809378105
S  S4  1  0.98939000  0.34957000  0.08796000  1.0 0.0478191769
S  S5  1  0.42500000  0.05360000  0.92095000  1.0 0.0604295211
S  S6  1  0.60890000  0.97130000  0.91585000  1.0 0.0604295211
S  S7  1  0.48680000  0.11100000  0.09050000  1.0 0.0421618831
S  S8  1  0.66770000  0.02710000  0.08760000  1.0 0.0421618831
S  S9  1  0.17074000  0.54539000  0.06689000  1.0 0.0604295211
S  S10  1  0.99708000  0.63682000  0.07077000  1.0 0.0604295211
S  S11  1  0.17971000  0.55524000  0.90012000  1.0 0.0809378105
S  S12  1  0.01061000  0.65043000  0.91204000  1.0 0.0478191769
S  S13  1  0.57500000  0.94640000  0.07905000  1.0 0.0604295211
S  S14  1  0.39110000  0.02870000  0.08415000  1.0 0.0604295211
S  S15  1  0.51320000  0.88900000  0.90950000  1.0 0.0421618831
S  S16  1  0.33230000  0.97290000  0.91240000  1.0 0.0421618831
O  O1  1  0.99240000  0.14110000  0.55710000  1.0 -0.6346581371
O  O2  1  0.15340000  0.22460000  0.57530000  1.0 -0.5969107838
O  O3  1  0.08110000  0.11930000  0.34690000  1.0 -0.6390126041
O  O4  1  0.05880000  0.21710000  0.43110000  1.0 -0.6390126041
O  O5  1  0.52500000  0.36890000  0.40980000  1.0 -0.6192502321
O  O6  1  0.60360000  0.49450000  0.43980000  1.0 -0.7271197231
O  O7  1  0.55920000  0.41680000  0.56520000  1.0 -0.6812879534
O  O8  1  0.65470000  0.54130000  0.59280000  1.0 -0.6732224913
O  O9  1  0.20160000  0.07480000  0.56650000  1.0 -0.6390126041
O  O10  1  0.06590000  0.97310000  0.56600000  1.0 -0.7131659479
O  O11  1  0.71580000  0.84800000  0.54960000  1.0 -0.6192502321
O  O12  1  0.68040000  0.73350000  0.57830000  1.0 -0.7271197231
O  O13  1  0.00760000  0.85890000  0.44290000  1.0 -0.6346581371
O  O14  1  0.84660000  0.77540000  0.42470000  1.0 -0.5969107838
O  O15  1  0.91890000  0.88070000  0.65310000  1.0 -0.6390126041
O  O16  1  0.94120000  0.78290000  0.56890000  1.0 -0.6390126041
O  O17  1  0.47500000  0.63110000  0.59020000  1.0 -0.6192502321
O  O18  1  0.39640000  0.50550000  0.56020000  1.0 -0.7271197231
O  O19  1  0.44080000  0.58320000  0.43480000  1.0 -0.6812879534
O  O20  1  0.34530000  0.45870000  0.40720000  1.0 -0.6732224913
O  O21  1  0.79840000  0.92520000  0.43350000  1.0 -0.6390126041
O  O22  1  0.93410000  0.02690000  0.43400000  1.0 -0.7131659479
O  O23  1  0.28420000  0.15200000  0.45040000  1.0 -0.6192502321
O  O24  1  0.31960000  0.26650000  0.42170000  1.0 -0.7271197231
