# DDEC6 charges by PACMAN v1.1 (https://github.com/mtap-research/PACMAN-charge/)
data_QIVMOA_FSR_pacman
_symmetry_space_group_name_H-M   'P 1'
_cell_length_a   12.37520000
_cell_length_b   17.69850000
_cell_length_c   19.55960000
_cell_angle_alpha   101.38000000
_cell_angle_beta   95.37300000
_cell_angle_gamma   102.02800000
_symmetry_Int_Tables_number   1
_chemical_formula_structural   Ho2H30C54S8O15
_chemical_formula_sum   'Ho4 H60 C108 S16 O30'
_cell_volume   4066.79613053
_cell_formula_units_Z   2
loop_
 _symmetry_equiv_pos_site_id
 _symmetry_equiv_pos_as_xyz
  1  'x, y, z'
loop_
 _atom_site_type_symbol
 _atom_site_label
 _atom_site_symmetry_multiplicity
 _atom_site_fract_x
 _atom_site_fract_y
 _atom_site_fract_z
 _atom_site_occupancy
 _atom_site_charge
Ho  Ho1  1  0.39312000  0.39213000  0.02822000  1.0 2.0360336186
Ho  Ho2  1  0.89568000  0.88975000  0.98861000  1.0 2.0944850327
Ho  Ho3  1  0.60688000  0.60787000  0.97178000  1.0 2.0360336186
Ho  Ho4  1  0.10432000  0.11025000  0.01139000  1.0 2.0980558278
H  H1  1  0.41584000  0.56154000  0.08634000  1.0 0.4087662976
H  H2  1  0.35035000  0.51979000  0.13857000  1.0 0.4152576806
H  H3  1  0.88163000  0.78272000  0.08026000  1.0 0.4087662976
H  H4  1  0.78114000  0.81281000  0.08299000  1.0 0.4087662976
H  H5  1  0.66720000  0.82172000  0.96961000  1.0 0.3936214329
H  H6  1  0.67477000  0.90355000  0.97011000  1.0 0.3771083237
H  H7  1  0.31285000  0.19406000  0.79617000  1.0 0.1282739397
H  H8  1  0.36400000  0.12761000  0.69221000  1.0 0.109036603
H  H9  1  0.68323000  0.24253000  0.76111000  1.0 0.1197393803
H  H10  1  0.62895000  0.31012000  0.86134000  1.0 0.1282739397
H  H11  1  0.58773000  0.98074000  0.71934000  1.0 0.109036603
H  H12  1  0.68079000  0.95154000  0.81572000  1.0 0.1197393803
H  H13  1  0.92196000  0.14335000  0.83193000  1.0 0.1282739397
H  H14  1  0.83445000  0.16611000  0.72955000  1.0 0.1197393803
H  H15  1  0.54922000  0.11006000  0.20175000  1.0 0.1197393803
H  H16  1  0.49987000  0.17472000  0.11863000  1.0 0.1197393803
H  H17  1  0.47415000  0.35651000  0.27085000  1.0 0.1282739397
H  H18  1  0.53948000  0.29421000  0.35510000  1.0 0.1282739397
H  H19  1  0.69011000  0.98143000  0.24997000  1.0 0.109036603
H  H20  1  0.78532000  0.96478000  0.15178000  1.0 0.1282739397
H  H21  1  0.89830000  0.20034000  0.18982000  1.0 0.1197393803
H  H22  1  0.79889000  0.21708000  0.28388000  1.0 0.1197393803
H  H23  1  0.86776000  0.75047000  0.79867000  1.0 0.1282739397
H  H24  1  0.93383000  0.69186000  0.69778000  1.0 0.109036603
H  H25  1  0.95013000  0.50467000  0.77750000  1.0 0.109036603
H  H26  1  0.88051000  0.55775000  0.87850000  1.0 0.1282739397
H  H27  1  0.10570000  0.39969000  0.71115000  1.0 0.1197393803
H  H28  1  0.21004000  0.38114000  0.80475000  1.0 0.1282739397
H  H29  1  0.33317000  0.61590000  0.86604000  1.0 0.1197393803
H  H30  1  0.23196000  0.63485000  0.76772000  1.0 0.1197393803
H  H31  1  0.58416000  0.43846000  0.91366000  1.0 0.4087662976
H  H32  1  0.64965000  0.48021000  0.86143000  1.0 0.4152576806
H  H33  1  0.11837000  0.21728000  0.91974000  1.0 0.4087662976
H  H34  1  0.21886000  0.18719000  0.91701000  1.0 0.4087662976
H  H35  1  0.33280000  0.17828000  0.03039000  1.0 0.3936214329
H  H36  1  0.32523000  0.09645000  0.02989000  1.0 0.3771083237
H  H37  1  0.68715000  0.80594000  0.20383000  1.0 0.1282739397
H  H38  1  0.63600000  0.87239000  0.30779000  1.0 0.109036603
H  H39  1  0.31677000  0.75747000  0.23889000  1.0 0.1197393803
H  H40  1  0.37105000  0.68988000  0.13866000  1.0 0.1282739397
H  H41  1  0.41227000  0.01926000  0.28066000  1.0 0.109036603
H  H42  1  0.31921000  0.04846000  0.18428000  1.0 0.1197393803
H  H43  1  0.07804000  0.85665000  0.16807000  1.0 0.1282739397
H  H44  1  0.16555000  0.83389000  0.27045000  1.0 0.1197393803
H  H45  1  0.45078000  0.88994000  0.79825000  1.0 0.1197393803
H  H46  1  0.50013000  0.82528000  0.88137000  1.0 0.1197393803
H  H47  1  0.52585000  0.64349000  0.72915000  1.0 0.1282739397
H  H48  1  0.46052000  0.70579000  0.64490000  1.0 0.1282739397
H  H49  1  0.30989000  0.01857000  0.75003000  1.0 0.109036603
H  H50  1  0.21468000  0.03522000  0.84822000  1.0 0.1282739397
H  H51  1  0.10170000  0.79966000  0.81018000  1.0 0.1197393803
H  H52  1  0.20111000  0.78292000  0.71612000  1.0 0.1197393803
H  H53  1  0.13224000  0.24953000  0.20133000  1.0 0.1282739397
H  H54  1  0.06617000  0.30814000  0.30222000  1.0 0.109036603
H  H55  1  0.04987000  0.49533000  0.22250000  1.0 0.109036603
H  H56  1  0.11949000  0.44225000  0.12150000  1.0 0.1282739397
H  H57  1  0.89430000  0.60031000  0.28885000  1.0 0.1197393803
H  H58  1  0.78996000  0.61886000  0.19525000  1.0 0.1282739397
H  H59  1  0.66683000  0.38410000  0.13396000  1.0 0.1197393803
H  H60  1  0.76804000  0.36515000  0.23228000  1.0 0.1197393803
C  C1  1  0.43410000  0.29880000  0.90470000  1.0 0.5773349287
C  C2  1  0.46430000  0.25640000  0.83780000  1.0 -0.0200360931
C  C3  1  0.38730000  0.20390000  0.78900000  1.0 -0.0887432229
C  C4  1  0.41800000  0.16310000  0.72640000  1.0 -0.1672395139
C  C5  1  0.53010000  0.17680000  0.71690000  1.0 0.1001955898
C  C6  1  0.60850000  0.23220000  0.76750000  1.0 -0.1339774697
C  C7  1  0.57620000  0.27260000  0.82780000  1.0 -0.0984059864
C  C8  1  0.56630000  0.13560000  0.65310000  1.0 -0.05362754
C  C9  1  0.64620000  0.09210000  0.65200000  1.0 -0.0585531127
C  C10  1  0.70390000  0.07520000  0.71510000  1.0 0.0892818936
C  C11  1  0.65680000  0.01270000  0.74080000  1.0 -0.1524658656
C  C12  1  0.71220000  0.99620000  0.79980000  1.0 -0.0887432229
C  C13  1  0.81150000  0.04410000  0.83460000  1.0 -0.0284470345
C  C14  1  0.85570000  0.10870000  0.80880000  1.0 -0.0887432229
C  C15  1  0.80200000  0.12330000  0.74760000  1.0 -0.1524658656
C  C16  1  0.87170000  0.02930000  0.89960000  1.0 0.657615024
C  C17  1  0.58990000  0.09460000  0.52100000  1.0 -0.0984059864
C  C18  1  0.59630000  0.09980000  0.45420000  1.0 -0.1086024499
C  C19  1  0.58620000  0.15220000  0.33910000  1.0 -0.0585531127
C  C20  1  0.66540000  0.11040000  0.33570000  1.0 -0.0686394854
C  C21  1  0.54980000  0.19410000  0.28650000  1.0 0.0892818936
C  C22  1  0.53630000  0.16040000  0.21590000  1.0 -0.1240782781
C  C23  1  0.50480000  0.19810000  0.16610000  1.0 -0.1086024499
C  C24  1  0.47950000  0.27270000  0.18620000  1.0 -0.0200360931
C  C25  1  0.49120000  0.30750000  0.25680000  1.0 -0.0887432229
C  C26  1  0.52860000  0.26960000  0.30760000  1.0 -0.1524658656
C  C27  1  0.44420000  0.31440000  0.13180000  1.0 0.5578726412
C  C28  1  0.73350000  0.10000000  0.27700000  1.0 0.1001955898
C  C29  1  0.73100000  0.02580000  0.23750000  1.0 -0.1582383954
C  C30  1  0.78910000  0.01510000  0.17860000  1.0 -0.0800003192
C  C31  1  0.85110000  0.08140000  0.16210000  1.0 -0.0393667898
C  C32  1  0.85540000  0.15620000  0.20150000  1.0 -0.0887432229
C  C33  1  0.79650000  0.16640000  0.25830000  1.0 -0.1409396349
C  C34  1  0.91140000  0.07210000  0.10020000  1.0 0.6468017281
C  C35  1  0.82000000  0.69490000  0.91190000  1.0 0.657615024
C  C36  1  0.86410000  0.65810000  0.84870000  1.0 -0.0284470345
C  C37  1  0.88260000  0.70050000  0.79440000  1.0 -0.0800003192
C  C38  1  0.92370000  0.66550000  0.73420000  1.0 -0.1905875697
C  C39  1  0.94950000  0.59130000  0.72890000  1.0 0.0789886912
C  C40  1  0.93290000  0.55390000  0.78150000  1.0 -0.1524658656
C  C41  1  0.89040000  0.58550000  0.84290000  1.0 -0.0984059864
C  C42  1  0.97300000  0.53300000  0.66610000  1.0 0.009838555
C  C43  1  0.05000000  0.49600000  0.66330000  1.0 -0.0200360931
C  C44  1  0.97700000  0.47900000  0.53240000  1.0 -0.0686394854
C  C45  1  0.15640000  0.51480000  0.72970000  1.0 0.0789886912
C  C46  1  0.15250000  0.44350000  0.74210000  1.0 -0.1582383954
C  C47  1  0.21400000  0.43220000  0.79830000  1.0 -0.0686394854
C  C48  1  0.28030000  0.49340000  0.84440000  1.0 -0.0393667898
C  C49  1  0.28750000  0.57280000  0.83370000  1.0 -0.0887432229
C  C50  1  0.22740000  0.58450000  0.77640000  1.0 -0.1582383954
C  C51  1  0.34330000  0.48340000  0.90880000  1.0 0.6438472749
C  C52  1  0.95400000  0.45600000  0.46320000  1.0 -0.1339774697
C  C53  1  0.01400000  0.57800000  0.66960000  1.0 -0.0016104052
C  C54  1  0.10200000  0.54000000  0.66720000  1.0 0.009838555
C  C55  1  0.56590000  0.70120000  0.09530000  1.0 0.5773349287
C  C56  1  0.53570000  0.74360000  0.16220000  1.0 -0.0200360931
C  C57  1  0.61270000  0.79610000  0.21100000  1.0 -0.0887432229
C  C58  1  0.58200000  0.83690000  0.27360000  1.0 -0.1672395139
C  C59  1  0.46990000  0.82320000  0.28310000  1.0 0.1001955898
C  C60  1  0.39150000  0.76780000  0.23250000  1.0 -0.1339774697
C  C61  1  0.42380000  0.72740000  0.17220000  1.0 -0.0984059864
C  C62  1  0.43370000  0.86440000  0.34690000  1.0 -0.0585531127
C  C63  1  0.35380000  0.90790000  0.34800000  1.0 -0.0585531127
C  C64  1  0.29610000  0.92480000  0.28490000  1.0 0.0892818936
C  C65  1  0.34320000  0.98730000  0.25920000  1.0 -0.1524658656
C  C66  1  0.28780000  0.00380000  0.20020000  1.0 -0.0887432229
C  C67  1  0.18850000  0.95590000  0.16540000  1.0 -0.0284470345
C  C68  1  0.14430000  0.89130000  0.19120000  1.0 -0.0887432229
C  C69  1  0.19800000  0.87670000  0.25240000  1.0 -0.1524658656
C  C70  1  0.12830000  0.97070000  0.10040000  1.0 0.657615024
C  C71  1  0.41010000  0.90540000  0.47900000  1.0 -0.0984059864
C  C72  1  0.40370000  0.90020000  0.54580000  1.0 -0.1086024499
C  C73  1  0.41380000  0.84780000  0.66090000  1.0 -0.0585531127
C  C74  1  0.33460000  0.88960000  0.66430000  1.0 -0.0686394854
C  C75  1  0.45020000  0.80590000  0.71350000  1.0 0.0892818936
C  C76  1  0.46370000  0.83960000  0.78410000  1.0 -0.1240782781
C  C77  1  0.49520000  0.80190000  0.83390000  1.0 -0.1086024499
C  C78  1  0.52050000  0.72730000  0.81380000  1.0 -0.0200360931
C  C79  1  0.50880000  0.69250000  0.74320000  1.0 -0.0887432229
C  C80  1  0.47140000  0.73040000  0.69240000  1.0 -0.1524658656
C  C81  1  0.55580000  0.68560000  0.86820000  1.0 0.5578726412
C  C82  1  0.26650000  0.90000000  0.72300000  1.0 0.1001955898
C  C83  1  0.26900000  0.97420000  0.76250000  1.0 -0.1582383954
C  C84  1  0.21090000  0.98490000  0.82140000  1.0 -0.0800003192
C  C85  1  0.14890000  0.91860000  0.83790000  1.0 -0.0393667898
C  C86  1  0.14460000  0.84380000  0.79850000  1.0 -0.0887432229
C  C87  1  0.20350000  0.83360000  0.74170000  1.0 -0.1409396349
C  C88  1  0.08860000  0.92790000  0.89980000  1.0 0.6468017281
C  C89  1  0.18000000  0.30510000  0.08810000  1.0 0.657615024
C  C90  1  0.13590000  0.34190000  0.15130000  1.0 -0.0284470345
C  C91  1  0.11740000  0.29950000  0.20560000  1.0 -0.0800003192
C  C92  1  0.07630000  0.33450000  0.26580000  1.0 -0.1905875697
C  C93  1  0.05050000  0.40870000  0.27110000  1.0 0.0789886912
C  C94  1  0.06710000  0.44610000  0.21850000  1.0 -0.1582383954
C  C95  1  0.10960000  0.41450000  0.15710000  1.0 -0.0984059864
C  C96  1  0.02700000  0.46700000  0.33390000  1.0 0.009838555
C  C97  1  0.95000000  0.50400000  0.33670000  1.0 -0.0200360931
C  C98  1  0.02300000  0.52100000  0.46760000  1.0 -0.0585531127
C  C99  1  0.84360000  0.48520000  0.27030000  1.0 0.0789886912
C  C100  1  0.84750000  0.55650000  0.25790000  1.0 -0.1582383954
C  C101  1  0.78600000  0.56780000  0.20170000  1.0 -0.0686394854
C  C102  1  0.71970000  0.50660000  0.15560000  1.0 -0.0393667898
C  C103  1  0.71250000  0.42720000  0.16630000  1.0 -0.0887432229
C  C104  1  0.77260000  0.41550000  0.22360000  1.0 -0.1524658656
C  C105  1  0.65670000  0.51660000  0.09120000  1.0 0.6438472749
C  C106  1  0.04600000  0.54400000  0.53680000  1.0 -0.1339774697
C  C107  1  0.98600000  0.42200000  0.33040000  1.0 0.0037211649
C  C108  1  0.89800000  0.46000000  0.33280000  1.0 0.009838555
S  S1  1  0.49780000  0.13800000  0.57034000  1.0 0.057358458
S  S2  1  0.67180000  0.04667000  0.56807000  1.0 0.072225069
S  S3  1  0.68180000  0.05634000  0.40059000  1.0 0.072225069
S  S4  1  0.51220000  0.15111000  0.41161000  1.0 0.057358458
S  S5  1  0.08310000  0.45090000  0.58140000  1.0 0.009838555
S  S6  1  0.89550000  0.53060000  0.58340000  1.0 0.0251558212
S  S7  1  0.03730000  0.40380000  0.41110000  1.0 0.0037211649
S  S8  1  0.84820000  0.48120000  0.41280000  1.0 -0.0016104052
S  S9  1  0.50220000  0.86200000  0.42966000  1.0 0.057358458
S  S10  1  0.32820000  0.95333000  0.43193000  1.0 0.072225069
S  S11  1  0.31820000  0.94366000  0.59941000  1.0 0.072225069
S  S12  1  0.48780000  0.84889000  0.58839000  1.0 0.057358458
S  S13  1  0.91690000  0.54910000  0.41860000  1.0 0.009838555
S  S14  1  0.10450000  0.46940000  0.41660000  1.0 0.0242446674
S  S15  1  0.96270000  0.59620000  0.58890000  1.0 0.0037211649
S  S16  1  0.15180000  0.51880000  0.58720000  1.0 -0.0016104052
O  O1  1  0.34570000  0.27470000  0.92520000  1.0 -0.5699106573
O  O2  1  0.50410000  0.35960000  0.94050000  1.0 -0.6177346228
O  O3  1  0.41720000  0.37840000  0.14930000  1.0 -0.6009675978
O  O4  1  0.44070000  0.28270000  0.06640000  1.0 -0.6497812091
O  O5  1  0.97900000  0.13210000  0.09080000  1.0 -0.6497812091
O  O6  1  0.89860000  0.00560000  0.06160000  1.0 -0.700064954
O  O7  1  0.94050000  0.08640000  0.93890000  1.0 -0.6679312109
O  O8  1  0.84700000  0.95980000  0.90870000  1.0 -0.6899528621
O  O9  1  0.30190000  0.42790000  0.93530000  1.0 -0.6177346228
O  O10  1  0.43570000  0.53130000  0.93490000  1.0 -0.700064954
O  O11  1  0.78420000  0.65200000  0.95350000  1.0 -0.6775420128
O  O12  1  0.82160000  0.76810000  0.92230000  1.0 -0.7150461792
O  O13  1  0.35730000  0.51290000  0.08640000  1.0 -0.8349700092
O  O14  1  0.85570000  0.82770000  0.08240000  1.0 -0.8061964332
O  O15  1  0.70280000  0.87060000  0.99130000  1.0 -0.7884530245
O  O16  1  0.65430000  0.72530000  0.07480000  1.0 -0.5699106573
O  O17  1  0.49590000  0.64040000  0.05950000  1.0 -0.6177346228
O  O18  1  0.58280000  0.62160000  0.85070000  1.0 -0.6009675978
O  O19  1  0.55930000  0.71730000  0.93360000  1.0 -0.6497812091
O  O20  1  0.02100000  0.86790000  0.90920000  1.0 -0.6497812091
O  O21  1  0.10140000  0.99440000  0.93840000  1.0 -0.700064954
O  O22  1  0.05950000  0.91360000  0.06110000  1.0 -0.6679312109
O  O23  1  0.15300000  0.04020000  0.09130000  1.0 -0.6899528621
O  O24  1  0.69810000  0.57210000  0.06470000  1.0 -0.6177346228
O  O25  1  0.56430000  0.46870000  0.06510000  1.0 -0.700064954
O  O26  1  0.21580000  0.34800000  0.04650000  1.0 -0.6775420128
O  O27  1  0.17840000  0.23190000  0.07770000  1.0 -0.7150461792
O  O28  1  0.64270000  0.48710000  0.91360000  1.0 -0.8349700092
O  O29  1  0.14430000  0.17230000  0.91760000  1.0 -0.8061964332
O  O30  1  0.29720000  0.12940000  0.00870000  1.0 -0.7884530245
