# DDEC6 charges by PACMAN v1.1 (https://github.com/mtap-research/PACMAN-charge/)
data_QIVMIU_FSR_pacman
_symmetry_space_group_name_H-M   'P 1'
_cell_length_a   12.63620000
_cell_length_b   17.90080000
_cell_length_c   19.44000000
_cell_angle_alpha   101.48000000
_cell_angle_beta   95.06500000
_cell_angle_gamma   101.90700000
_symmetry_Int_Tables_number   1
_chemical_formula_structural   Dy2H31C54S8O15
_chemical_formula_sum   'Dy4 H62 C108 S16 O30'
_cell_volume   4178.06071517
_cell_formula_units_Z   2
loop_
 _symmetry_equiv_pos_site_id
 _symmetry_equiv_pos_as_xyz
  1  'x, y, z'
loop_
 _atom_site_type_symbol
 _atom_site_label
 _atom_site_symmetry_multiplicity
 _atom_site_fract_x
 _atom_site_fract_y
 _atom_site_fract_z
 _atom_site_occupancy
 _atom_site_charge
Dy  Dy1  1  0.39191000  0.39238000  0.02820000  1.0 2.0348454023
Dy  Dy2  1  0.89668000  0.88917000  0.98919000  1.0 2.1042039896
Dy  Dy3  1  0.60809000  0.60762000  0.97180000  1.0 2.0350144411
Dy  Dy4  1  0.10332000  0.11083000  0.01081000  1.0 2.1072779203
H  H1  1  0.42736000  0.55189000  0.11436000  1.0 0.419612212
H  H2  1  0.31062000  0.51071000  0.12364000  1.0 0.419612212
H  H3  1  0.19297000  0.38607000  0.81422000  1.0 0.1201554889
H  H4  1  0.32842000  0.61400000  0.86891000  1.0 0.1298559104
H  H5  1  0.31720000  0.19113000  0.79489000  1.0 0.1298559104
H  H6  1  0.62871000  0.30474000  0.86080000  1.0 0.1298559104
H  H7  1  0.23307000  0.64492000  0.78000000  1.0 0.1298559104
H  H8  1  0.36590000  0.12619000  0.69144000  1.0 0.110767477
H  H9  1  0.68092000  0.23789000  0.76175000  1.0 0.1201554889
H  H10  1  0.94318000  0.69527000  0.70125000  1.0 0.110767477
H  H11  1  0.90849000  0.49274000  0.77102000  1.0 0.1201554889
H  H12  1  0.84440000  0.14364000  0.71397000  1.0 0.1201554889
H  H13  1  0.58632000  0.98151000  0.72377000  1.0 0.110767477
H  H14  1  0.87754000  0.75256000  0.80310000  1.0 0.1298559104
H  H15  1  0.87905000  0.56281000  0.87974000  1.0 0.1201554889
H  H16  1  0.92519000  0.13426000  0.82254000  1.0 0.1201554889
H  H17  1  0.67599000  0.95716000  0.82458000  1.0 0.1201554889
H  H18  1  0.68936000  0.98231000  0.24857000  1.0 0.110767477
H  H19  1  0.78728000  0.21727000  0.27877000  1.0 0.1201554889
H  H20  1  0.54771000  0.10788000  0.20013000  1.0 0.1201554889
H  H21  1  0.54095000  0.29269000  0.35502000  1.0 0.1201554889
H  H22  1  0.78710000  0.96675000  0.15160000  1.0 0.1298559104
H  H23  1  0.88391000  0.20093000  0.18407000  1.0 0.1201554889
H  H24  1  0.49129000  0.17338000  0.11605000  1.0 0.1201554889
H  H25  1  0.47473000  0.35387000  0.27219000  1.0 0.1298559104
H  H26  1  0.67551000  0.82161000  0.98462000  1.0 0.3837343658
H  H27  1  0.67637000  0.88793000  0.95609000  1.0 0.3635533358
H  H28  1  0.90470000  0.80509000  0.10233000  1.0 0.411353236
H  H29  1  0.78457000  0.79184000  0.07763000  1.0 0.411353236
H  H30  1  0.08380000  0.43521000  0.73587000  1.0 0.1201554889
H  H31  1  0.18838000  0.42745000  0.70085000  1.0 0.1201554889
H  H32  1  0.57264000  0.44811000  0.88564000  1.0 0.419612212
H  H33  1  0.68938000  0.48929000  0.87636000  1.0 0.419612212
H  H34  1  0.80703000  0.61393000  0.18578000  1.0 0.1201554889
H  H35  1  0.67158000  0.38600000  0.13109000  1.0 0.1298559104
H  H36  1  0.68280000  0.80887000  0.20511000  1.0 0.1298559104
H  H37  1  0.37129000  0.69526000  0.13920000  1.0 0.1298559104
H  H38  1  0.76693000  0.35508000  0.22000000  1.0 0.1298559104
H  H39  1  0.63410000  0.87381000  0.30856000  1.0 0.110767477
H  H40  1  0.31908000  0.76211000  0.23825000  1.0 0.1201554889
H  H41  1  0.05682000  0.30473000  0.29875000  1.0 0.110767477
H  H42  1  0.09151000  0.50726000  0.22898000  1.0 0.1201554889
H  H43  1  0.15560000  0.85636000  0.28603000  1.0 0.1201554889
H  H44  1  0.41368000  0.01849000  0.27623000  1.0 0.110767477
H  H45  1  0.12246000  0.24744000  0.19690000  1.0 0.1298559104
H  H46  1  0.12095000  0.43719000  0.12026000  1.0 0.1298559104
H  H47  1  0.07481000  0.86574000  0.17746000  1.0 0.1201554889
H  H48  1  0.32401000  0.04284000  0.17542000  1.0 0.1201554889
H  H49  1  0.31064000  0.01769000  0.75143000  1.0 0.110767477
H  H50  1  0.21272000  0.78273000  0.72123000  1.0 0.1201554889
H  H51  1  0.45229000  0.89212000  0.79987000  1.0 0.1201554889
H  H52  1  0.45905000  0.70731000  0.64498000  1.0 0.1201554889
H  H53  1  0.21290000  0.03325000  0.84840000  1.0 0.1298559104
H  H54  1  0.11609000  0.79907000  0.81593000  1.0 0.1201554889
H  H55  1  0.50871000  0.82662000  0.88395000  1.0 0.1201554889
H  H56  1  0.52527000  0.64613000  0.72781000  1.0 0.1298559104
H  H57  1  0.32449000  0.17839000  0.01538000  1.0 0.3837343658
H  H58  1  0.32363000  0.11207000  0.04391000  1.0 0.3635533358
H  H59  1  0.09530000  0.19491000  0.89767000  1.0 0.411353236
H  H60  1  0.21543000  0.20816000  0.92237000  1.0 0.411353236
H  H61  1  0.91620000  0.56479000  0.26413000  1.0 0.1201554889
H  H62  1  0.81162000  0.57255000  0.29915000  1.0 0.1201554889
C  C1  1  0.34650000  0.48820000  0.90940000  1.0 0.6540710832
C  C2  1  0.43320000  0.29840000  0.90310000  1.0 0.5734831596
C  C3  1  0.28040000  0.49890000  0.84600000  1.0 -0.0416698923
C  C4  1  0.46410000  0.25480000  0.83720000  1.0 -0.0309821995
C  C5  1  0.20930000  0.43550000  0.80420000  1.0 -0.0821106221
C  C6  1  0.28370000  0.57300000  0.83490000  1.0 -0.1087924895
C  C7  1  0.39000000  0.20120000  0.78760000  1.0 -0.0821106221
C  C8  1  0.57670000  0.26840000  0.82700000  1.0 -0.0999831242
C  C9  1  0.16210000  0.45580000  0.74120000  1.0 -0.2404287552
C  C10  1  0.23120000  0.59320000  0.78200000  1.0 -0.1087924895
C  C11  1  0.41890000  0.16060000  0.72600000  1.0 -0.1723564958
C  C12  1  0.60780000  0.22850000  0.76830000  1.0 -0.1384701734
C  C13  1  0.17940000  0.53630000  0.73520000  1.0 -0.0025769115
C  C14  1  0.52900000  0.17270000  0.71710000  1.0 0.110767477
C  C15  1  0.12370000  0.55860000  0.67160000  1.0 -0.0629719404
C  C16  1  0.56330000  0.12940000  0.65240000  1.0 -0.0416698923
C  C17  1  0.03880000  0.59780000  0.67170000  1.0 -0.0629719404
C  C18  1  0.05060000  0.49520000  0.66110000  1.0 -0.119481722
C  C19  1  0.64280000  0.08620000  0.64900000  1.0 -0.0676651822
C  C20  1  0.95440000  0.59030000  0.72930000  1.0 0.0990882074
C  C21  1  0.06580000  0.55620000  0.53750000  1.0 -0.1384701734
C  C22  1  0.58610000  0.09000000  0.51840000  1.0 -0.0999831242
C  C23  1  0.70120000  0.07160000  0.71350000  1.0 0.0899249254
C  C24  1  0.93090000  0.66810000  0.73700000  1.0 -0.2138822471
C  C25  1  0.91490000  0.54660000  0.77940000  1.0 -0.1900630389
C  C26  1  0.96480000  0.47020000  0.53200000  1.0 -0.130475918
C  C27  1  0.59300000  0.09780000  0.45170000  1.0 -0.0999831242
C  C28  1  0.80660000  0.11010000  0.73910000  1.0 -0.1480296572
C  C29  1  0.65500000  0.01240000  0.74350000  1.0 -0.1623038943
C  C30  1  0.88990000  0.70240000  0.79750000  1.0 -0.0676651822
C  C31  1  0.88590000  0.58740000  0.84190000  1.0 -0.0999831242
C  C32  1  0.85890000  0.10060000  0.80150000  1.0 -0.0913763836
C  C33  1  0.70930000  0.99690000  0.80390000  1.0 -0.0821106221
C  C34  1  0.86800000  0.65820000  0.85000000  1.0 -0.0309821995
C  C35  1  0.66290000  0.11120000  0.33290000  1.0 -0.0416698923
C  C36  1  0.58590000  0.15170000  0.33810000  1.0 -0.0457237569
C  C37  1  0.81300000  0.04170000  0.83200000  1.0 -0.0309821995
C  C38  1  0.82310000  0.69390000  0.91360000  1.0 0.6540710832
C  C39  1  0.72900000  0.10180000  0.27330000  1.0 0.0899249254
C  C40  1  0.54540000  0.19150000  0.28450000  1.0 0.0899249254
C  C41  1  0.87360000  0.02750000  0.89580000  1.0 0.6573000158
C  C42  1  0.72870000  0.02590000  0.23540000  1.0 -0.1623038943
C  C43  1  0.78740000  0.16720000  0.25390000  1.0 -0.1480296572
C  C44  1  0.53340000  0.15710000  0.21450000  1.0 -0.1384701734
C  C45  1  0.52770000  0.26800000  0.30720000  1.0 -0.1623038943
C  C46  1  0.78780000  0.01640000  0.17780000  1.0 -0.0821106221
C  C47  1  0.84570000  0.15700000  0.19740000  1.0 -0.0913763836
C  C48  1  0.49920000  0.19660000  0.16400000  1.0 -0.1087924895
C  C49  1  0.49070000  0.30520000  0.25740000  1.0 -0.0913763836
C  C50  1  0.84900000  0.08500000  0.16060000  1.0 -0.0163243992
C  C51  1  0.47680000  0.27110000  0.18570000  1.0 -0.0138479128
C  C52  1  0.43850000  0.31270000  0.13160000  1.0 0.5637070442
C  C53  1  0.91020000  0.07360000  0.09720000  1.0 0.6429761554
C  C54  1  0.97340000  0.53520000  0.66720000  1.0 -0.0309821995
C  C55  1  0.65350000  0.51180000  0.09060000  1.0 0.6540710832
C  C56  1  0.56680000  0.70160000  0.09690000  1.0 0.5734831596
C  C57  1  0.71960000  0.50110000  0.15400000  1.0 -0.0416698923
C  C58  1  0.53590000  0.74520000  0.16280000  1.0 -0.0309821995
C  C59  1  0.79070000  0.56450000  0.19580000  1.0 -0.0821106221
C  C60  1  0.71630000  0.42700000  0.16510000  1.0 -0.1087924895
C  C61  1  0.61000000  0.79880000  0.21240000  1.0 -0.0821106221
C  C62  1  0.42330000  0.73160000  0.17300000  1.0 -0.0999831242
C  C63  1  0.83790000  0.54420000  0.25880000  1.0 -0.2404287552
C  C64  1  0.76880000  0.40680000  0.21800000  1.0 -0.1087924895
C  C65  1  0.58110000  0.83940000  0.27400000  1.0 -0.1723564958
C  C66  1  0.39220000  0.77150000  0.23170000  1.0 -0.1384701734
C  C67  1  0.82060000  0.46370000  0.26480000  1.0 -0.0025769115
C  C68  1  0.47100000  0.82730000  0.28290000  1.0 0.110767477
C  C69  1  0.87630000  0.44140000  0.32840000  1.0 -0.0629719404
C  C70  1  0.43670000  0.87060000  0.34760000  1.0 -0.0416698923
C  C71  1  0.96120000  0.40220000  0.32830000  1.0 -0.0629719404
C  C72  1  0.94940000  0.50480000  0.33890000  1.0 -0.119481722
C  C73  1  0.35720000  0.91380000  0.35100000  1.0 -0.0676651822
C  C74  1  0.04560000  0.40970000  0.27070000  1.0 0.0990882074
C  C75  1  0.93420000  0.44380000  0.46250000  1.0 -0.130475918
C  C76  1  0.41390000  0.91000000  0.48160000  1.0 -0.0999831242
C  C77  1  0.29880000  0.92840000  0.28650000  1.0 0.0899249254
C  C78  1  0.06910000  0.33190000  0.26300000  1.0 -0.2138822471
C  C79  1  0.08510000  0.45340000  0.22060000  1.0 -0.1900630389
C  C80  1  0.03520000  0.52980000  0.46800000  1.0 -0.130475918
C  C81  1  0.40700000  0.90220000  0.54830000  1.0 -0.0999831242
C  C82  1  0.19340000  0.88990000  0.26090000  1.0 -0.1480296572
C  C83  1  0.34500000  0.98760000  0.25650000  1.0 -0.1623038943
C  C84  1  0.11010000  0.29760000  0.20250000  1.0 -0.0676651822
C  C85  1  0.11410000  0.41260000  0.15810000  1.0 -0.0999831242
C  C86  1  0.14110000  0.89940000  0.19850000  1.0 -0.0913763836
C  C87  1  0.29070000  0.00310000  0.19610000  1.0 -0.0821106221
C  C88  1  0.13200000  0.34180000  0.15000000  1.0 -0.0309821995
C  C89  1  0.33710000  0.88880000  0.66710000  1.0 -0.0416698923
C  C90  1  0.41410000  0.84830000  0.66190000  1.0 -0.0457237569
C  C91  1  0.18700000  0.95830000  0.16800000  1.0 -0.0309821995
C  C92  1  0.17690000  0.30610000  0.08640000  1.0 0.6540710832
C  C93  1  0.27100000  0.89820000  0.72670000  1.0 0.0899249254
C  C94  1  0.45460000  0.80850000  0.71550000  1.0 0.0899249254
C  C95  1  0.12640000  0.97250000  0.10420000  1.0 0.6573000158
C  C96  1  0.27130000  0.97410000  0.76460000  1.0 -0.1623038943
C  C97  1  0.21260000  0.83280000  0.74610000  1.0 -0.1480296572
C  C98  1  0.46660000  0.84290000  0.78550000  1.0 -0.1384701734
C  C99  1  0.47230000  0.73200000  0.69280000  1.0 -0.1623038943
C  C100  1  0.21220000  0.98360000  0.82220000  1.0 -0.0821106221
C  C101  1  0.15430000  0.84300000  0.80260000  1.0 -0.0913763836
C  C102  1  0.50080000  0.80340000  0.83600000  1.0 -0.1087924895
C  C103  1  0.50930000  0.69480000  0.74260000  1.0 -0.0913763836
C  C104  1  0.15100000  0.91500000  0.83940000  1.0 -0.0163243992
C  C105  1  0.52320000  0.72890000  0.81430000  1.0 -0.0138479128
C  C106  1  0.56150000  0.68730000  0.86840000  1.0 0.5637070442
C  C107  1  0.08980000  0.92640000  0.90280000  1.0 0.6429761554
C  C108  1  0.02660000  0.46480000  0.33280000  1.0 -0.0309821995
S  S1  1  0.16750000  0.53130000  0.58990000  1.0 0.0823925043
S  S2  1  0.49573000  0.13247000  0.56932000  1.0 0.053459985
S  S3  1  0.98890000  0.61390000  0.59210000  1.0 0.0823925043
S  S4  1  0.66895000  0.04374000  0.56596000  1.0 0.0823925043
S  S5  1  0.67931000  0.05516000  0.39845000  1.0 0.0347789357
S  S6  1  0.50951000  0.14746000  0.41023000  1.0 0.042807754
S  S7  1  0.88560000  0.52240000  0.58313000  1.0 0.0990882074
S  S8  1  0.06800000  0.44210000  0.58028000  1.0 0.1201554889
S  S9  1  0.83250000  0.46870000  0.41010000  1.0 0.0823925043
S  S10  1  0.50427000  0.86753000  0.43068000  1.0 0.053459985
S  S11  1  0.01110000  0.38610000  0.40790000  1.0 0.0899249254
S  S12  1  0.33105000  0.95626000  0.43404000  1.0 0.0899249254
S  S13  1  0.32069000  0.94484000  0.60155000  1.0 0.0347789357
S  S14  1  0.49049000  0.85254000  0.58977000  1.0 0.042807754
S  S15  1  0.11440000  0.47760000  0.41687000  1.0 0.0899249254
S  S16  1  0.93200000  0.55790000  0.41972000  1.0 0.110767477
O  O1  1  0.30900000  0.43190000  0.93630000  1.0 -0.6388887162
O  O2  1  0.34420000  0.27600000  0.92240000  1.0 -0.5919508432
O  O3  1  0.50460000  0.35740000  0.94030000  1.0 -0.6271020169
O  O4  1  0.36090000  0.51410000  0.08750000  1.0 -0.8146718835
O  O5  1  0.43660000  0.53440000  0.93490000  1.0 -0.6881499385
O  O6  1  0.78350000  0.65080000  0.95100000  1.0 -0.6271020169
O  O7  1  0.41440000  0.37760000  0.15010000  1.0 -0.6271020169
O  O8  1  0.43490000  0.28100000  0.06660000  1.0 -0.6388887162
O  O9  1  0.82390000  0.76620000  0.92400000  1.0 -0.7009276544
O  O10  1  0.94260000  0.08300000  0.93390000  1.0 -0.6563976203
O  O11  1  0.84860000  0.95810000  0.90730000  1.0 -0.7115346288
O  O12  1  0.70540000  0.87080000  0.99000000  1.0 -0.7583134865
O  O13  1  0.89830000  0.00700000  0.05980000  1.0 -0.6881499385
O  O14  1  0.97530000  0.13290000  0.08860000  1.0 -0.6388887162
O  O15  1  0.85170000  0.83050000  0.08680000  1.0 -0.8203795647
O  O16  1  0.69100000  0.56810000  0.06370000  1.0 -0.6388887162
O  O17  1  0.65580000  0.72400000  0.07760000  1.0 -0.5919508432
O  O18  1  0.49540000  0.64260000  0.05970000  1.0 -0.6271020169
O  O19  1  0.63910000  0.48590000  0.91250000  1.0 -0.8203795647
O  O20  1  0.56340000  0.46560000  0.06510000  1.0 -0.6881499385
O  O21  1  0.21650000  0.34920000  0.04900000  1.0 -0.6271020169
O  O22  1  0.58560000  0.62240000  0.84990000  1.0 -0.6271020169
O  O23  1  0.56510000  0.71900000  0.93340000  1.0 -0.6388887162
O  O24  1  0.17610000  0.23380000  0.07600000  1.0 -0.7009276544
O  O25  1  0.05740000  0.91700000  0.06610000  1.0 -0.6563976203
O  O26  1  0.15140000  0.04190000  0.09270000  1.0 -0.7115346288
O  O27  1  0.29460000  0.12920000  0.01000000  1.0 -0.7583134865
O  O28  1  0.10170000  0.99300000  0.94020000  1.0 -0.6881499385
O  O29  1  0.02470000  0.86710000  0.91140000  1.0 -0.6388887162
O  O30  1  0.14830000  0.16950000  0.91320000  1.0 -0.8203795647
