# DDEC6 charges by PACMAN v1.1 (https://github.com/mtap-research/PACMAN-charge/)
data_QIWHEL_ASR_pacman
_symmetry_space_group_name_H-M   'P 1'
_cell_length_a   12.08500000
_cell_length_b   19.16900000
_cell_length_c   24.11900000
_cell_angle_alpha   90.00000000
_cell_angle_beta   90.34100000
_cell_angle_gamma   90.00000000
_symmetry_Int_Tables_number   1
_chemical_formula_structural   Cd3H18RuC36(N3O7)2
_chemical_formula_sum   'Cd12 H72 Ru4 C144 N24 O56'
_cell_volume   5587.24503146
_cell_formula_units_Z   4
loop_
 _symmetry_equiv_pos_site_id
 _symmetry_equiv_pos_as_xyz
  1  'x, y, z'
loop_
 _atom_site_type_symbol
 _atom_site_label
 _atom_site_symmetry_multiplicity
 _atom_site_fract_x
 _atom_site_fract_y
 _atom_site_fract_z
 _atom_site_occupancy
 _atom_site_charge
Cd  Cd1  1  0.99741000  0.43246000  0.26261000  1.0 1.0183174664
Cd  Cd2  1  0.00259000  0.93246000  0.23739000  1.0 1.0183174664
Cd  Cd3  1  0.00259000  0.56754000  0.73739000  1.0 1.0183174664
Cd  Cd4  1  0.99741000  0.06754000  0.76261000  1.0 1.0183174664
Cd  Cd5  1  0.00493000  0.63580000  0.89959000  1.0 0.7307547285
Cd  Cd6  1  0.99507000  0.13580000  0.60041000  1.0 0.7307547285
Cd  Cd7  1  0.99507000  0.36420000  0.10041000  1.0 0.7307547285
Cd  Cd8  1  0.00493000  0.86420000  0.39959000  1.0 0.7307547285
Cd  Cd9  1  0.01130000  0.61240000  0.90963000  1.0 0.7359334285
Cd  Cd10  1  0.98870000  0.11240000  0.59037000  1.0 0.7307547285
Cd  Cd11  1  0.98870000  0.38760000  0.09037000  1.0 0.7307547285
Cd  Cd12  1  0.01130000  0.88760000  0.40963000  1.0 0.7359334285
H  H1  1  0.29660000  0.77270000  0.16520000  1.0 0.1176009977
H  H2  1  0.70340000  0.27270000  0.33480000  1.0 0.1176009977
H  H3  1  0.70340000  0.22730000  0.83480000  1.0 0.1176009977
H  H4  1  0.29660000  0.72730000  0.66520000  1.0 0.1176009977
H  H5  1  0.23380000  0.76340000  0.32970000  1.0 0.1410670123
H  H6  1  0.76620000  0.26340000  0.17030000  1.0 0.1410670123
H  H7  1  0.76620000  0.23660000  0.67030000  1.0 0.1410670123
H  H8  1  0.23380000  0.73660000  0.82970000  1.0 0.1410670123
H  H9  1  0.38870000  0.69050000  0.34010000  1.0 0.1302562234
H  H10  1  0.61130000  0.19050000  0.15990000  1.0 0.1302562234
H  H11  1  0.61130000  0.30950000  0.65990000  1.0 0.1302562234
H  H12  1  0.38870000  0.80950000  0.84010000  1.0 0.1302562234
H  H13  1  0.54720000  0.64120000  0.34670000  1.0 0.1302562234
H  H14  1  0.45280000  0.14120000  0.15330000  1.0 0.1302562234
H  H15  1  0.45280000  0.35880000  0.65330000  1.0 0.1302562234
H  H16  1  0.54720000  0.85880000  0.84670000  1.0 0.1302562234
H  H17  1  0.71380000  0.58020000  0.34740000  1.0 0.1302562234
H  H18  1  0.28620000  0.08020000  0.15260000  1.0 0.1302562234
H  H19  1  0.28620000  0.41980000  0.65260000  1.0 0.1302562234
H  H20  1  0.71380000  0.91980000  0.84740000  1.0 0.1302562234
H  H21  1  0.71010000  0.58570000  0.17970000  1.0 0.1176009977
H  H22  1  0.28990000  0.08570000  0.32030000  1.0 0.1176009977
H  H23  1  0.28990000  0.41430000  0.82030000  1.0 0.1176009977
H  H24  1  0.71010000  0.91430000  0.67970000  1.0 0.1176009977
H  H25  1  0.29210000  0.64150000  0.06510000  1.0 0.1176009977
H  H26  1  0.70790000  0.14150000  0.43490000  1.0 0.1176009977
H  H27  1  0.70790000  0.35850000  0.93490000  1.0 0.1176009977
H  H28  1  0.29210000  0.85850000  0.56510000  1.0 0.1176009977
H  H29  1  0.27770000  0.80070000  0.95510000  1.0 0.1302562234
H  H30  1  0.72230000  0.30070000  0.54490000  1.0 0.1302562234
H  H31  1  0.72230000  0.19930000  0.04490000  1.0 0.1302562234
H  H32  1  0.27770000  0.69930000  0.45510000  1.0 0.1302562234
H  H33  1  0.42710000  0.85360000  0.00320000  1.0 0.1302562234
H  H34  1  0.57290000  0.35360000  0.49680000  1.0 0.1302562234
H  H35  1  0.57290000  0.14640000  0.99680000  1.0 0.1302562234
H  H36  1  0.42710000  0.64640000  0.50320000  1.0 0.1302562234
H  H37  1  0.56700000  0.89310000  0.04700000  1.0 0.1302562234
H  H38  1  0.43300000  0.39310000  0.45300000  1.0 0.1302562234
H  H39  1  0.43300000  0.10690000  0.95300000  1.0 0.1302562234
H  H40  1  0.56700000  0.60690000  0.54700000  1.0 0.1302562234
H  H41  1  0.72680000  0.92820000  0.09640000  1.0 0.1302562234
H  H42  1  0.27320000  0.42820000  0.40360000  1.0 0.1302562234
H  H43  1  0.27320000  0.07180000  0.90360000  1.0 0.1302562234
H  H44  1  0.72680000  0.57180000  0.59640000  1.0 0.1302562234
H  H45  1  0.69800000  0.75410000  0.18980000  1.0 0.1176009977
H  H46  1  0.30200000  0.25410000  0.31020000  1.0 0.1176009977
H  H47  1  0.30200000  0.24590000  0.81020000  1.0 0.1176009977
H  H48  1  0.69800000  0.74590000  0.68980000  1.0 0.1176009977
H  H49  1  0.28790000  0.59420000  0.19270000  1.0 0.1176009977
H  H50  1  0.71210000  0.09420000  0.30730000  1.0 0.1176009977
H  H51  1  0.71210000  0.40580000  0.80730000  1.0 0.1176009977
H  H52  1  0.28790000  0.90580000  0.69270000  1.0 0.1176009977
H  H53  1  0.27790000  0.40070000  0.12520000  1.0 0.1302562234
H  H54  1  0.72210000  0.90070000  0.37480000  1.0 0.1302562234
H  H55  1  0.72210000  0.59930000  0.87480000  1.0 0.1302562234
H  H56  1  0.27790000  0.09930000  0.62520000  1.0 0.1302562234
H  H57  1  0.44520000  0.42550000  0.08010000  1.0 0.1302562234
H  H58  1  0.55480000  0.92550000  0.41990000  1.0 0.1302562234
H  H59  1  0.55480000  0.57450000  0.91990000  1.0 0.1302562234
H  H60  1  0.44520000  0.07450000  0.58010000  1.0 0.1302562234
H  H61  1  0.59920000  0.45350000  0.04150000  1.0 0.1302562234
H  H62  1  0.40080000  0.95350000  0.45850000  1.0 0.1302562234
H  H63  1  0.40080000  0.54650000  0.95850000  1.0 0.1302562234
H  H64  1  0.59920000  0.04650000  0.54150000  1.0 0.1302562234
H  H65  1  0.75180000  0.49630000  0.99380000  1.0 0.1302562234
H  H66  1  0.24820000  0.99630000  0.50620000  1.0 0.1302562234
H  H67  1  0.24820000  0.50370000  0.00620000  1.0 0.1302562234
H  H68  1  0.75180000  0.00370000  0.49380000  1.0 0.1302562234
H  H69  1  0.69920000  0.68510000  0.06180000  1.0 0.1136528345
H  H70  1  0.30080000  0.18510000  0.43820000  1.0 0.1136528345
H  H71  1  0.30080000  0.31490000  0.93820000  1.0 0.1136528345
H  H72  1  0.69920000  0.81490000  0.56180000  1.0 0.1136528345
Ru  Ru1  1  0.49764000  0.66939000  0.14318000  1.0 0.4759880805
Ru  Ru2  1  0.50236000  0.16939000  0.35682000  1.0 0.4759880805
Ru  Ru3  1  0.50236000  0.33061000  0.85682000  1.0 0.4731501246
Ru  Ru4  1  0.49764000  0.83061000  0.64318000  1.0 0.4731501246
C  C1  1  0.31630000  0.75610000  0.20110000  1.0 0.0316552434
C  C2  1  0.68370000  0.25610000  0.29890000  1.0 0.0316552434
C  C3  1  0.68370000  0.24390000  0.79890000  1.0 0.0316552434
C  C4  1  0.31630000  0.74390000  0.70110000  1.0 0.0316552434
C  C5  1  0.25410000  0.77710000  0.24620000  1.0 -0.0314680405
C  C6  1  0.74590000  0.27710000  0.25380000  1.0 -0.0314680405
C  C7  1  0.74590000  0.22290000  0.75380000  1.0 -0.0314680405
C  C8  1  0.25410000  0.72290000  0.74620000  1.0 -0.0314680405
C  C9  1  0.27840000  0.75160000  0.29870000  1.0 -0.023529513
C  C10  1  0.72160000  0.25160000  0.20130000  1.0 -0.023529513
C  C11  1  0.72160000  0.24840000  0.70130000  1.0 -0.023529513
C  C12  1  0.27840000  0.74840000  0.79870000  1.0 -0.023529513
C  C13  1  0.36940000  0.70850000  0.30470000  1.0 -0.1876928305
C  C14  1  0.63060000  0.20850000  0.19530000  1.0 -0.1876928305
C  C15  1  0.63060000  0.29150000  0.69530000  1.0 -0.1876928305
C  C16  1  0.36940000  0.79150000  0.80470000  1.0 -0.1876928305
C  C17  1  0.43280000  0.69140000  0.25860000  1.0 0.1410670123
C  C18  1  0.56720000  0.19140000  0.24140000  1.0 0.1410670123
C  C19  1  0.56720000  0.30860000  0.74140000  1.0 0.1410670123
C  C20  1  0.43280000  0.80860000  0.75860000  1.0 0.1410670123
C  C21  1  0.53510000  0.65080000  0.26240000  1.0 0.1410670123
C  C22  1  0.46490000  0.15080000  0.23760000  1.0 0.1410670123
C  C23  1  0.46490000  0.34920000  0.73760000  1.0 0.1410670123
C  C24  1  0.53510000  0.84920000  0.76240000  1.0 0.1410670123
C  C25  1  0.58260000  0.63000000  0.31270000  1.0 -0.1876928305
C  C26  1  0.41740000  0.13000000  0.18730000  1.0 -0.1876928305
C  C27  1  0.41740000  0.37000000  0.68730000  1.0 -0.1876928305
C  C28  1  0.58260000  0.87000000  0.81270000  1.0 -0.1876928305
C  C29  1  0.68010000  0.59330000  0.31330000  1.0 -0.0482992577
C  C30  1  0.31990000  0.09330000  0.18670000  1.0 -0.0482992577
C  C31  1  0.31990000  0.40670000  0.68670000  1.0 -0.0482992577
C  C32  1  0.68010000  0.90670000  0.81330000  1.0 -0.0482992577
C  C33  1  0.72930000  0.57550000  0.26270000  1.0 -0.0390631313
C  C34  1  0.27070000  0.07550000  0.23730000  1.0 -0.0390631313
C  C35  1  0.27070000  0.42450000  0.73730000  1.0 -0.0390631313
C  C36  1  0.72930000  0.92450000  0.76270000  1.0 -0.0390631313
C  C37  1  0.67710000  0.59760000  0.21410000  1.0 0.0487675455
C  C38  1  0.32290000  0.09760000  0.28590000  1.0 0.0487675455
C  C39  1  0.32290000  0.40240000  0.78590000  1.0 0.0487675455
C  C40  1  0.67710000  0.90240000  0.71410000  1.0 0.0487675455
C  C41  1  0.15970000  0.82980000  0.23840000  1.0 0.538886165
C  C42  1  0.84030000  0.32980000  0.26160000  1.0 0.538886165
C  C43  1  0.84030000  0.17020000  0.76160000  1.0 0.538886165
C  C44  1  0.15970000  0.67020000  0.73840000  1.0 0.538886165
C  C45  1  0.83120000  0.53000000  0.26040000  1.0 0.5301119143
C  C46  1  0.16880000  0.03000000  0.23960000  1.0 0.5301119143
C  C47  1  0.16880000  0.47000000  0.73960000  1.0 0.5301119143
C  C48  1  0.83120000  0.97000000  0.76040000  1.0 0.5301119143
C  C49  1  0.32110000  0.68440000  0.05170000  1.0 0.0444629228
C  C50  1  0.67890000  0.18440000  0.44830000  1.0 0.0444629228
C  C51  1  0.67890000  0.31560000  0.94830000  1.0 0.0444629228
C  C52  1  0.32110000  0.81560000  0.55170000  1.0 0.0444629228
C  C53  1  0.27130000  0.71490000  0.00580000  1.0 -0.0482992577
C  C54  1  0.72870000  0.21490000  0.49420000  1.0 -0.0482992577
C  C55  1  0.72870000  0.28510000  0.99420000  1.0 -0.0482992577
C  C56  1  0.27130000  0.78510000  0.50580000  1.0 -0.0482992577
C  C57  1  0.31040000  0.77870000  0.98650000  1.0 -0.0482992577
C  C58  1  0.68960000  0.27870000  0.51350000  1.0 -0.0482992577
C  C59  1  0.68960000  0.22130000  0.01350000  1.0 -0.0482992577
C  C60  1  0.31040000  0.72130000  0.48650000  1.0 -0.0482992577
C  C61  1  0.39960000  0.80950000  0.01490000  1.0 -0.1810007513
C  C62  1  0.60040000  0.30950000  0.48510000  1.0 -0.1810007513
C  C63  1  0.60040000  0.19050000  0.98510000  1.0 -0.1810007513
C  C64  1  0.39960000  0.69050000  0.51490000  1.0 -0.1810007513
C  C65  1  0.44770000  0.77610000  0.05960000  1.0 0.1410670123
C  C66  1  0.55230000  0.27610000  0.44040000  1.0 0.1410670123
C  C67  1  0.55230000  0.22390000  0.94040000  1.0 0.1410670123
C  C68  1  0.44770000  0.72390000  0.55960000  1.0 0.1410670123
C  C69  1  0.54480000  0.80210000  0.08950000  1.0 0.1486691067
C  C70  1  0.45520000  0.30210000  0.41050000  1.0 0.1486691067
C  C71  1  0.45520000  0.19790000  0.91050000  1.0 0.1486691067
C  C72  1  0.54480000  0.69790000  0.58950000  1.0 0.1486691067
C  C73  1  0.59590000  0.86490000  0.07600000  1.0 -0.1810007513
C  C74  1  0.40410000  0.36490000  0.42400000  1.0 -0.1810007513
C  C75  1  0.40410000  0.13510000  0.92400000  1.0 -0.1810007513
C  C76  1  0.59590000  0.63510000  0.57600000  1.0 -0.1810007513
C  C77  1  0.69010000  0.88590000  0.10540000  1.0 -0.0390631313
C  C78  1  0.30990000  0.38590000  0.39460000  1.0 -0.0390631313
C  C79  1  0.30990000  0.11410000  0.89460000  1.0 -0.0390631313
C  C80  1  0.69010000  0.61410000  0.60540000  1.0 -0.0390631313
C  C81  1  0.72880000  0.84400000  0.14790000  1.0 -0.0390631313
C  C82  1  0.27120000  0.34400000  0.35210000  1.0 -0.0390631313
C  C83  1  0.27120000  0.15600000  0.85210000  1.0 -0.0390631313
C  C84  1  0.72880000  0.65600000  0.64790000  1.0 -0.0390631313
C  C85  1  0.67210000  0.78240000  0.16010000  1.0 0.0444629228
C  C86  1  0.32790000  0.28240000  0.33990000  1.0 0.0444629228
C  C87  1  0.32790000  0.21760000  0.83990000  1.0 0.0444629228
C  C88  1  0.67210000  0.71760000  0.66010000  1.0 0.0444629228
C  C89  1  0.17670000  0.67740000  0.97600000  1.0 0.5167565102
C  C90  1  0.82330000  0.17740000  0.52400000  1.0 0.5167565102
C  C91  1  0.82330000  0.32260000  0.02400000  1.0 0.5167565102
C  C92  1  0.17670000  0.82260000  0.47600000  1.0 0.5167565102
C  C93  1  0.82900000  0.86470000  0.18260000  1.0 0.5301119143
C  C94  1  0.17100000  0.36470000  0.31740000  1.0 0.5301119143
C  C95  1  0.17100000  0.13530000  0.81740000  1.0 0.5301119143
C  C96  1  0.82900000  0.63530000  0.68260000  1.0 0.5301119143
C  C97  1  0.31950000  0.56000000  0.16910000  1.0 0.0487675455
C  C98  1  0.68050000  0.06000000  0.33090000  1.0 0.0487675455
C  C99  1  0.68050000  0.44000000  0.83090000  1.0 0.0487675455
C  C100  1  0.31950000  0.94000000  0.66910000  1.0 0.0487675455
C  C101  1  0.26620000  0.49560000  0.16370000  1.0 -0.0390631313
C  C102  1  0.73380000  0.99560000  0.33630000  1.0 -0.0390631313
C  C103  1  0.73380000  0.50440000  0.83630000  1.0 -0.0390631313
C  C104  1  0.26620000  0.00440000  0.66370000  1.0 -0.0390631313
C  C105  1  0.31280000  0.44480000  0.12980000  1.0 -0.0390631313
C  C106  1  0.68720000  0.94480000  0.37020000  1.0 -0.0390631313
C  C107  1  0.68720000  0.55520000  0.87020000  1.0 -0.0390631313
C  C108  1  0.31280000  0.05520000  0.62980000  1.0 -0.0390631313
C  C109  1  0.41120000  0.45970000  0.10290000  1.0 -0.1810007513
C  C110  1  0.58880000  0.95970000  0.39710000  1.0 -0.1810007513
C  C111  1  0.58880000  0.54030000  0.89710000  1.0 -0.1810007513
C  C112  1  0.41120000  0.04030000  0.60290000  1.0 -0.1810007513
C  C113  1  0.45970000  0.52460000  0.10950000  1.0 0.1410670123
C  C114  1  0.54030000  0.02460000  0.39050000  1.0 0.1410670123
C  C115  1  0.54030000  0.47540000  0.89050000  1.0 0.1410670123
C  C116  1  0.45970000  0.97540000  0.60950000  1.0 0.1410670123
C  C117  1  0.56010000  0.54590000  0.07950000  1.0 0.1410670123
C  C118  1  0.43990000  0.04590000  0.42050000  1.0 0.1410670123
C  C119  1  0.43990000  0.45410000  0.92050000  1.0 0.1410670123
C  C120  1  0.56010000  0.95410000  0.57950000  1.0 0.1410670123
C  C121  1  0.62030000  0.50100000  0.04520000  1.0 -0.1726288295
C  C122  1  0.37970000  0.00100000  0.45480000  1.0 -0.1726288295
C  C123  1  0.37970000  0.49900000  0.95480000  1.0 -0.1726288295
C  C124  1  0.62030000  0.99900000  0.54520000  1.0 -0.1726288295
C  C125  1  0.70990000  0.52630000  0.01700000  1.0 -0.0314680405
C  C126  1  0.29010000  0.02630000  0.48300000  1.0 -0.0314680405
C  C127  1  0.29010000  0.47370000  0.98300000  1.0 -0.0314680405
C  C128  1  0.70990000  0.97370000  0.51700000  1.0 -0.0314680405
C  C129  1  0.73930000  0.59650000  0.02260000  1.0 -0.0482992577
C  C130  1  0.26070000  0.09650000  0.47740000  1.0 -0.0482992577
C  C131  1  0.26070000  0.40350000  0.97740000  1.0 -0.055365449
C  C132  1  0.73930000  0.90350000  0.52260000  1.0 -0.055365449
C  C133  1  0.67830000  0.63760000  0.05770000  1.0 0.0316552434
C  C134  1  0.32170000  0.13760000  0.44230000  1.0 0.0316552434
C  C135  1  0.32170000  0.36240000  0.94230000  1.0 0.0316552434
C  C136  1  0.67830000  0.86240000  0.55770000  1.0 0.0316552434
C  C137  1  0.16130000  0.48150000  0.19630000  1.0 0.5500854457
C  C138  1  0.83870000  0.98150000  0.30370000  1.0 0.5500854457
C  C139  1  0.83870000  0.51850000  0.80370000  1.0 0.5500854457
C  C140  1  0.16130000  0.01850000  0.69630000  1.0 0.5500854457
C  C141  1  0.83440000  0.62680000  0.99010000  1.0 0.538886165
C  C142  1  0.16560000  0.12680000  0.50990000  1.0 0.538886165
C  C143  1  0.16560000  0.37320000  0.00990000  1.0 0.538886165
C  C144  1  0.83440000  0.87320000  0.49010000  1.0 0.538886165
N  N1  1  0.40480000  0.71240000  0.20630000  1.0 -0.2208339824
N  N2  1  0.59520000  0.21240000  0.29370000  1.0 -0.2208339824
N  N3  1  0.59520000  0.28760000  0.79370000  1.0 -0.2208339824
N  N4  1  0.40480000  0.78760000  0.70630000  1.0 -0.2208339824
N  N5  1  0.58320000  0.63470000  0.21310000  1.0 -0.2208339824
N  N6  1  0.41680000  0.13470000  0.28690000  1.0 -0.2208339824
N  N7  1  0.41680000  0.36530000  0.78690000  1.0 -0.2208339824
N  N8  1  0.58320000  0.86530000  0.71310000  1.0 -0.2208339824
N  N9  1  0.40900000  0.71280000  0.07850000  1.0 -0.2208339824
N  N10  1  0.59100000  0.21280000  0.42150000  1.0 -0.2208339824
N  N11  1  0.59100000  0.28720000  0.92150000  1.0 -0.2208339824
N  N12  1  0.40900000  0.78720000  0.57850000  1.0 -0.2208339824
N  N13  1  0.58230000  0.76160000  0.13130000  1.0 -0.2089454031
N  N14  1  0.41770000  0.26160000  0.36870000  1.0 -0.2089454031
N  N15  1  0.41770000  0.23840000  0.86870000  1.0 -0.2089454031
N  N16  1  0.58230000  0.73840000  0.63130000  1.0 -0.2089454031
N  N17  1  0.41360000  0.57530000  0.14230000  1.0 -0.2208339824
N  N18  1  0.58640000  0.07530000  0.35770000  1.0 -0.2208339824
N  N19  1  0.58640000  0.42470000  0.85770000  1.0 -0.2208339824
N  N20  1  0.41360000  0.92470000  0.64230000  1.0 -0.2208339824
N  N21  1  0.59040000  0.61450000  0.08690000  1.0 -0.2208339824
N  N22  1  0.40960000  0.11450000  0.41310000  1.0 -0.2208339824
N  N23  1  0.40960000  0.38550000  0.91310000  1.0 -0.2208339824
N  N24  1  0.59040000  0.88550000  0.58690000  1.0 -0.2208339824
O  O1  1  0.15130000  0.86140000  0.19380000  1.0 -0.5229887014
O  O2  1  0.84870000  0.36140000  0.30620000  1.0 -0.5229887014
O  O3  1  0.84870000  0.13860000  0.80620000  1.0 -0.5229887014
O  O4  1  0.15130000  0.63860000  0.69380000  1.0 -0.5229887014
O  O5  1  0.09820000  0.83920000  0.28030000  1.0 -0.5291107243
O  O6  1  0.90180000  0.33920000  0.21970000  1.0 -0.5291107243
O  O7  1  0.90180000  0.16080000  0.71970000  1.0 -0.5291107243
O  O8  1  0.09820000  0.66080000  0.78030000  1.0 -0.5291107243
O  O9  1  0.89200000  0.52590000  0.30260000  1.0 -0.5086653938
O  O10  1  0.10800000  0.02590000  0.19740000  1.0 -0.5086653938
O  O11  1  0.10800000  0.47410000  0.69740000  1.0 -0.5086653938
O  O12  1  0.89200000  0.97410000  0.80260000  1.0 -0.5086653938
O  O13  1  0.84760000  0.49640000  0.21760000  1.0 -0.4724098092
O  O14  1  0.15240000  0.99640000  0.28240000  1.0 -0.4724098092
O  O15  1  0.15240000  0.50360000  0.78240000  1.0 -0.4724098092
O  O16  1  0.84760000  0.00360000  0.71760000  1.0 -0.4724098092
O  O17  1  0.13380000  0.62820000  0.99650000  1.0 -0.4588110095
O  O18  1  0.86620000  0.12820000  0.50350000  1.0 -0.4588110095
O  O19  1  0.86620000  0.37180000  0.00350000  1.0 -0.4588110095
O  O20  1  0.13380000  0.87180000  0.49650000  1.0 -0.4588110095
O  O21  1  0.15140000  0.70040000  0.92920000  1.0 -0.4724098092
O  O22  1  0.84860000  0.20040000  0.57080000  1.0 -0.4724098092
O  O23  1  0.84860000  0.29960000  0.07080000  1.0 -0.4724098092
O  O24  1  0.15140000  0.79960000  0.42920000  1.0 -0.4724098092
O  O25  1  0.84120000  0.83730000  0.22890000  1.0 -0.5086653938
O  O26  1  0.15880000  0.33730000  0.27110000  1.0 -0.5086653938
O  O27  1  0.15880000  0.16270000  0.77110000  1.0 -0.5038899427
O  O28  1  0.84120000  0.66270000  0.72890000  1.0 -0.5086653938
O  O29  1  0.89200000  0.91100000  0.16270000  1.0 -0.5291107243
O  O30  1  0.10800000  0.41100000  0.33730000  1.0 -0.5291107243
O  O31  1  0.10800000  0.08900000  0.83730000  1.0 -0.5291107243
O  O32  1  0.89200000  0.58900000  0.66270000  1.0 -0.5291107243
O  O33  1  0.14570000  0.51330000  0.23890000  1.0 -0.4785522355
O  O34  1  0.85430000  0.01330000  0.26110000  1.0 -0.4785522355
O  O35  1  0.85430000  0.48670000  0.76110000  1.0 -0.4785522355
O  O36  1  0.14570000  0.98670000  0.73890000  1.0 -0.4785522355
O  O37  1  0.09840000  0.43380000  0.17710000  1.0 -0.5435566401
O  O38  1  0.90160000  0.93380000  0.32290000  1.0 -0.5435566401
O  O39  1  0.90160000  0.56620000  0.82290000  1.0 -0.5435566401
O  O40  1  0.09840000  0.06620000  0.67710000  1.0 -0.5435566401
O  O41  1  0.85500000  0.68880000  0.99450000  1.0 -0.5086653938
O  O42  1  0.14500000  0.18880000  0.50550000  1.0 -0.5086653938
O  O43  1  0.14500000  0.31120000  0.00550000  1.0 -0.5086653938
O  O44  1  0.85500000  0.81120000  0.49450000  1.0 -0.5086653938
O  O45  1  0.88150000  0.58660000  0.95800000  1.0 -0.4499822056
O  O46  1  0.11850000  0.08660000  0.54200000  1.0 -0.4499822056
O  O47  1  0.11850000  0.41340000  0.04200000  1.0 -0.4499822056
O  O48  1  0.88150000  0.91340000  0.45800000  1.0 -0.4499822056
O  O49  1  0.09740000  0.53060000  0.89530000  1.0 -0.4785522355
O  O50  1  0.90260000  0.03060000  0.60470000  1.0 -0.4785522355
O  O51  1  0.90260000  0.46940000  0.10470000  1.0 -0.4785522355
O  O52  1  0.09740000  0.96940000  0.39530000  1.0 -0.4785522355
O  O53  1  0.92320000  0.71930000  0.85280000  1.0 -0.1982125251
O  O54  1  0.07680000  0.21930000  0.64720000  1.0 -0.1982125251
O  O55  1  0.07680000  0.28070000  0.14720000  1.0 -0.1982125251
O  O56  1  0.92320000  0.78070000  0.35280000  1.0 -0.1982125251
