# DDEC6 charges by PACMAN v1.1 (https://github.com/mtap-research/PACMAN-charge/)
data_QIXNAP_ion_pacman
_symmetry_space_group_name_H-M   'P 1'
_cell_length_a   13.48180000
_cell_length_b   13.48180000
_cell_length_c   23.09500000
_cell_angle_alpha   79.42270000
_cell_angle_beta   100.57700000
_cell_angle_gamma   110.99700000
_symmetry_Int_Tables_number   1
_chemical_formula_structural   Zn3H40C60(NO3)6
_chemical_formula_sum   'Zn6 H80 C120 N12 O36'
_cell_volume   3820.54052630
_cell_formula_units_Z   2
loop_
 _symmetry_equiv_pos_site_id
 _symmetry_equiv_pos_as_xyz
  1  'x, y, z'
loop_
 _atom_site_type_symbol
 _atom_site_label
 _atom_site_symmetry_multiplicity
 _atom_site_fract_x
 _atom_site_fract_y
 _atom_site_fract_z
 _atom_site_occupancy
 _atom_site_charge
Zn  Zn1  1  0.66267000  0.72243000  0.55794000  1.0 0.9135833491
Zn  Zn2  1  0.72243000  0.66267000  0.94206000  1.0 0.9135833491
Zn  Zn3  1  0.33733000  0.27757000  0.44206000  1.0 0.9135833491
Zn  Zn4  1  0.27757000  0.33733000  0.05794000  1.0 0.9135833491
Zn  Zn5  1  0.50000000  0.50000000  0.50000000  1.0 1.0138758678
Zn  Zn6  1  0.50000000  0.50000000  0.00000000  1.0 1.0138758678
H  H1  1  0.30566000  0.53432000  0.54658000  1.0 0.1307737501
H  H2  1  0.14061000  0.41895000  0.57635000  1.0 0.14071215
H  H3  1  0.43853000  0.55137000  0.71866000  1.0 0.14071215
H  H4  1  0.36738000  0.46028000  0.83260000  1.0 0.14071215
H  H5  1  0.08963000  0.25229000  0.88945000  1.0 0.1307737501
H  H6  1  0.00835000  0.23573000  0.79171000  1.0 0.14071215
H  H7  1  0.04079000  0.51943000  0.67681000  1.0 0.14071215
H  H8  1  0.91423000  0.60277000  0.63691000  1.0 0.14071215
H  H9  1  0.71130000  0.33126000  0.57117000  1.0 0.1455675323
H  H10  1  0.71355000  0.11681000  0.57667000  1.0 0.1307737501
H  H11  1  0.92963000  0.96435000  0.64180000  1.0 0.1307737501
H  H12  1  0.05183000  0.11921000  0.67879000  1.0 0.14071215
H  H13  1  0.53432000  0.30566000  0.95342000  1.0 0.1307737501
H  H14  1  0.41895000  0.14061000  0.92365000  1.0 0.14071215
H  H15  1  0.55137000  0.43853000  0.78134000  1.0 0.14071215
H  H16  1  0.46028000  0.36738000  0.66740000  1.0 0.14071215
H  H17  1  0.25229000  0.08963000  0.61055000  1.0 0.1307737501
H  H18  1  0.23573000  0.00835000  0.70829000  1.0 0.14071215
H  H19  1  0.51943000  0.04079000  0.82319000  1.0 0.14071215
H  H20  1  0.60277000  0.91423000  0.86309000  1.0 0.14071215
H  H21  1  0.33126000  0.71130000  0.92883000  1.0 0.1455675323
H  H22  1  0.11681000  0.71355000  0.92333000  1.0 0.1307737501
H  H23  1  0.96435000  0.92963000  0.85820000  1.0 0.1307737501
H  H24  1  0.11921000  0.05183000  0.82121000  1.0 0.14071215
H  H25  1  0.69434000  0.46568000  0.45342000  1.0 0.1307737501
H  H26  1  0.85939000  0.58105000  0.42365000  1.0 0.14071215
H  H27  1  0.56147000  0.44863000  0.28134000  1.0 0.14071215
H  H28  1  0.63262000  0.53972000  0.16740000  1.0 0.14071215
H  H29  1  0.91037000  0.74771000  0.11055000  1.0 0.1307737501
H  H30  1  0.99165000  0.76427000  0.20829000  1.0 0.14071215
H  H31  1  0.95921000  0.48057000  0.32319000  1.0 0.14071215
H  H32  1  0.08577000  0.39723000  0.36309000  1.0 0.14071215
H  H33  1  0.28870000  0.66874000  0.42883000  1.0 0.1455675323
H  H34  1  0.28645000  0.88319000  0.42333000  1.0 0.1307737501
H  H35  1  0.07037000  0.03565000  0.35820000  1.0 0.1307737501
H  H36  1  0.94817000  0.88079000  0.32121000  1.0 0.14071215
H  H37  1  0.46568000  0.69434000  0.04658000  1.0 0.1307737501
H  H38  1  0.58105000  0.85939000  0.07635000  1.0 0.14071215
H  H39  1  0.44863000  0.56147000  0.21866000  1.0 0.14071215
H  H40  1  0.53972000  0.63262000  0.33260000  1.0 0.14071215
H  H41  1  0.74771000  0.91037000  0.38945000  1.0 0.1307737501
H  H42  1  0.76427000  0.99165000  0.29171000  1.0 0.14071215
H  H43  1  0.48057000  0.95921000  0.17681000  1.0 0.14071215
H  H44  1  0.39723000  0.08577000  0.13691000  1.0 0.14071215
H  H45  1  0.66874000  0.28870000  0.07117000  1.0 0.1455675323
H  H46  1  0.88319000  0.28645000  0.07667000  1.0 0.1307737501
H  H47  1  0.03565000  0.07037000  0.14180000  1.0 0.1307737501
H  H48  1  0.88079000  0.94817000  0.17879000  1.0 0.14071215
H  H49  1  0.96935000  0.41435000  0.99513000  1.0 0.2036661316
H  H50  1  0.95527000  0.51141000  0.96197000  1.0 0.2195701558
H  H51  1  0.79979000  0.39639000  0.97871000  1.0 0.2271088768
H  H52  1  0.82073000  0.31155000  0.94651000  1.0 0.0989213578
H  H53  1  0.80545000  0.41829000  0.90870000  1.0 0.1114574779
H  H54  1  0.10697000  0.51321000  0.94550000  1.0 0.14071215
H  H55  1  0.02813000  0.48935000  0.88499000  1.0 0.1307737501
H  H56  1  0.05546000  0.39344000  0.92896000  1.0 0.1307737501
H  H57  1  0.41435000  0.96935000  0.50487000  1.0 0.2036661316
H  H58  1  0.51141000  0.95527000  0.53803000  1.0 0.2195701558
H  H59  1  0.39639000  0.79979000  0.52129000  1.0 0.2271088768
H  H60  1  0.31155000  0.82073000  0.55349000  1.0 0.0989213578
H  H61  1  0.41829000  0.80545000  0.59130000  1.0 0.1114574779
H  H62  1  0.51321000  0.10697000  0.55450000  1.0 0.14071215
H  H63  1  0.48935000  0.02813000  0.61501000  1.0 0.1307737501
H  H64  1  0.39344000  0.05546000  0.57104000  1.0 0.1307737501
H  H65  1  0.03065000  0.58565000  0.00487000  1.0 0.2036661316
H  H66  1  0.04473000  0.48859000  0.03803000  1.0 0.2195701558
H  H67  1  0.20021000  0.60361000  0.02129000  1.0 0.2271088768
H  H68  1  0.17927000  0.68845000  0.05349000  1.0 0.0989213578
H  H69  1  0.19455000  0.58171000  0.09130000  1.0 0.1114574779
H  H70  1  0.89303000  0.48679000  0.05450000  1.0 0.14071215
H  H71  1  0.97187000  0.51065000  0.11501000  1.0 0.1307737501
H  H72  1  0.94454000  0.60656000  0.07104000  1.0 0.1307737501
H  H73  1  0.58565000  0.03065000  0.49513000  1.0 0.2036661316
H  H74  1  0.48859000  0.04473000  0.46197000  1.0 0.2195701558
H  H75  1  0.60361000  0.20021000  0.47871000  1.0 0.2271088768
H  H76  1  0.68845000  0.17927000  0.44651000  1.0 0.0989213578
H  H77  1  0.58171000  0.19455000  0.40870000  1.0 0.1114574779
H  H78  1  0.48679000  0.89303000  0.44550000  1.0 0.14071215
H  H79  1  0.51065000  0.97187000  0.38499000  1.0 0.1307737501
H  H80  1  0.60656000  0.94454000  0.42896000  1.0 0.1307737501
C  C1  1  0.49430000  0.61670000  0.61090000  1.0 0.5583060045
C  C2  1  0.38840000  0.55100000  0.62982000  1.0 -0.0310181339
C  C3  1  0.29910000  0.51270000  0.58760000  1.0 -0.0707605894
C  C4  1  0.20150000  0.44390000  0.60470000  1.0 -0.1810293536
C  C5  1  0.19749000  0.41351000  0.66490000  1.0 0.0989213578
C  C6  1  0.28337000  0.45343000  0.70814000  1.0 -0.0103255743
C  C7  1  0.37923000  0.52297000  0.69005000  1.0 -0.1298076477
C  C8  1  0.24773000  0.40607000  0.76536000  1.0 -0.0103255743
C  C9  1  0.29530000  0.41530000  0.82417000  1.0 -0.1298076477
C  C10  1  0.23612000  0.35808000  0.87003000  1.0 -0.0310181339
C  C11  1  0.12910000  0.29110000  0.85752000  1.0 -0.1080423132
C  C12  1  0.08040000  0.28080000  0.80000000  1.0 -0.1924226176
C  C13  1  0.14073000  0.33887000  0.75474000  1.0 0.0929874663
C  C14  1  0.28615000  0.37045000  0.93274000  1.0 0.5889998932
C  C15  1  0.94848000  0.37632000  0.64793000  1.0 0.0989213578
C  C16  1  0.97420000  0.48180000  0.65580000  1.0 -0.1810293536
C  C17  1  0.89920000  0.53020000  0.63200000  1.0 -0.0943811577
C  C18  1  0.80140000  0.47540000  0.60067000  1.0 -0.0228765387
C  C19  1  0.77718000  0.36842000  0.59296000  1.0 -0.1298076477
C  C20  1  0.85057000  0.31763000  0.61755000  1.0 -0.0020501841
C  C21  1  0.72219000  0.53141000  0.57523000  1.0 0.5972057242
C  C22  1  0.85341000  0.20999000  0.61901000  1.0 0.0050976753
C  C23  1  0.78130000  0.11730000  0.59765000  1.0 -0.1435679163
C  C24  1  0.80920000  0.02580000  0.60730000  1.0 -0.0103255743
C  C25  1  0.91093000  0.02727000  0.63680000  1.0 -0.0943811577
C  C26  1  0.98366000  0.11834000  0.65840000  1.0 -0.1924226176
C  C27  1  0.95336000  0.20824000  0.64928000  1.0 0.0989213578
C  C28  1  0.73140000  0.92400000  0.58530000  1.0 0.5666396279
C  C29  1  0.61670000  0.49430000  0.88910000  1.0 0.5583060045
C  C30  1  0.55100000  0.38840000  0.87018000  1.0 -0.0310181339
C  C31  1  0.51270000  0.29910000  0.91240000  1.0 -0.0707605894
C  C32  1  0.44390000  0.20150000  0.89530000  1.0 -0.1810293536
C  C33  1  0.41351000  0.19749000  0.83510000  1.0 0.0989213578
C  C34  1  0.45343000  0.28337000  0.79186000  1.0 -0.0103255743
C  C35  1  0.52297000  0.37923000  0.80995000  1.0 -0.1298076477
C  C36  1  0.40607000  0.24773000  0.73464000  1.0 -0.0103255743
C  C37  1  0.41530000  0.29530000  0.67583000  1.0 -0.1298076477
C  C38  1  0.35808000  0.23612000  0.62997000  1.0 -0.0310181339
C  C39  1  0.29110000  0.12910000  0.64248000  1.0 -0.1080423132
C  C40  1  0.28080000  0.08040000  0.70000000  1.0 -0.1924226176
C  C41  1  0.33887000  0.14073000  0.74526000  1.0 0.0929874663
C  C42  1  0.37045000  0.28615000  0.56726000  1.0 0.5889998932
C  C43  1  0.37632000  0.94848000  0.85207000  1.0 0.0989213578
C  C44  1  0.48180000  0.97420000  0.84420000  1.0 -0.1810293536
C  C45  1  0.53020000  0.89920000  0.86800000  1.0 -0.0943811577
C  C46  1  0.47540000  0.80140000  0.89933000  1.0 -0.0228765387
C  C47  1  0.36842000  0.77718000  0.90704000  1.0 -0.1298076477
C  C48  1  0.31763000  0.85057000  0.88245000  1.0 -0.0020501841
C  C49  1  0.53141000  0.72219000  0.92477000  1.0 0.5972057242
C  C50  1  0.20999000  0.85341000  0.88099000  1.0 0.0050976753
C  C51  1  0.11730000  0.78130000  0.90235000  1.0 -0.1435679163
C  C52  1  0.02580000  0.80920000  0.89270000  1.0 -0.0103255743
C  C53  1  0.02727000  0.91093000  0.86320000  1.0 -0.0956999551
C  C54  1  0.11834000  0.98366000  0.84160000  1.0 -0.1924226176
C  C55  1  0.20824000  0.95336000  0.85072000  1.0 0.0989213578
C  C56  1  0.92400000  0.73140000  0.91470000  1.0 0.5666396279
C  C57  1  0.50570000  0.38330000  0.38910000  1.0 0.5583060045
C  C58  1  0.61160000  0.44900000  0.37018000  1.0 -0.0310181339
C  C59  1  0.70090000  0.48730000  0.41240000  1.0 -0.0707605894
C  C60  1  0.79850000  0.55610000  0.39530000  1.0 -0.1810293536
C  C61  1  0.80251000  0.58649000  0.33510000  1.0 0.0989213578
C  C62  1  0.71663000  0.54657000  0.29186000  1.0 -0.0103255743
C  C63  1  0.62077000  0.47703000  0.30995000  1.0 -0.1298076477
C  C64  1  0.75227000  0.59393000  0.23464000  1.0 -0.0103255743
C  C65  1  0.70470000  0.58470000  0.17583000  1.0 -0.1298076477
C  C66  1  0.76388000  0.64192000  0.12997000  1.0 -0.0310181339
C  C67  1  0.87090000  0.70890000  0.14248000  1.0 -0.1080423132
C  C68  1  0.91960000  0.71920000  0.20000000  1.0 -0.1924226176
C  C69  1  0.85927000  0.66113000  0.24526000  1.0 0.0929874663
C  C70  1  0.71385000  0.62955000  0.06726000  1.0 0.5889998932
C  C71  1  0.05152000  0.62368000  0.35207000  1.0 0.0989213578
C  C72  1  0.02580000  0.51820000  0.34420000  1.0 -0.1810293536
C  C73  1  0.10080000  0.46980000  0.36800000  1.0 -0.0943811577
C  C74  1  0.19860000  0.52460000  0.39933000  1.0 -0.0228765387
C  C75  1  0.22282000  0.63158000  0.40704000  1.0 -0.1298076477
C  C76  1  0.14943000  0.68237000  0.38245000  1.0 -0.0020501841
C  C77  1  0.27781000  0.46859000  0.42477000  1.0 0.5972057242
C  C78  1  0.14659000  0.79001000  0.38099000  1.0 0.0050976753
C  C79  1  0.21870000  0.88270000  0.40235000  1.0 -0.1435679163
C  C80  1  0.19080000  0.97420000  0.39270000  1.0 -0.0103255743
C  C81  1  0.08907000  0.97273000  0.36320000  1.0 -0.0956999551
C  C82  1  0.01634000  0.88166000  0.34160000  1.0 -0.1924226176
C  C83  1  0.04664000  0.79176000  0.35072000  1.0 0.0989213578
C  C84  1  0.26860000  0.07600000  0.41470000  1.0 0.5666396279
C  C85  1  0.38330000  0.50570000  0.11090000  1.0 0.5583060045
C  C86  1  0.44900000  0.61160000  0.12982000  1.0 -0.0310181339
C  C87  1  0.48730000  0.70090000  0.08760000  1.0 -0.0707605894
C  C88  1  0.55610000  0.79850000  0.10470000  1.0 -0.1810293536
C  C89  1  0.58649000  0.80251000  0.16490000  1.0 0.0989213578
C  C90  1  0.54657000  0.71663000  0.20814000  1.0 -0.0103255743
C  C91  1  0.47703000  0.62077000  0.19005000  1.0 -0.1298076477
C  C92  1  0.59393000  0.75227000  0.26536000  1.0 -0.0103255743
C  C93  1  0.58470000  0.70470000  0.32417000  1.0 -0.1298076477
C  C94  1  0.64192000  0.76388000  0.37003000  1.0 -0.0310181339
C  C95  1  0.70890000  0.87090000  0.35752000  1.0 -0.1080423132
C  C96  1  0.71920000  0.91960000  0.30000000  1.0 -0.1924226176
C  C97  1  0.66113000  0.85927000  0.25474000  1.0 0.0929874663
C  C98  1  0.62955000  0.71385000  0.43274000  1.0 0.5889998932
C  C99  1  0.62368000  0.05152000  0.14793000  1.0 0.0989213578
C  C100  1  0.51820000  0.02580000  0.15580000  1.0 -0.1810293536
C  C101  1  0.46980000  0.10080000  0.13200000  1.0 -0.0943811577
C  C102  1  0.52460000  0.19860000  0.10067000  1.0 -0.0228765387
C  C103  1  0.63158000  0.22282000  0.09296000  1.0 -0.1298076477
C  C104  1  0.68237000  0.14943000  0.11755000  1.0 -0.0020501841
C  C105  1  0.46859000  0.27781000  0.07523000  1.0 0.5972057242
C  C106  1  0.79001000  0.14659000  0.11901000  1.0 0.0050976753
C  C107  1  0.88270000  0.21870000  0.09765000  1.0 -0.1435679163
C  C108  1  0.97420000  0.19080000  0.10730000  1.0 -0.0103255743
C  C109  1  0.97273000  0.08907000  0.13680000  1.0 -0.0943811577
C  C110  1  0.88166000  0.01634000  0.15840000  1.0 -0.1924226176
C  C111  1  0.79176000  0.04664000  0.14928000  1.0 0.0989213578
C  C112  1  0.07600000  0.26860000  0.08530000  1.0 0.5666396279
C  C113  1  0.83450000  0.38790000  0.94710000  1.0 -0.0470277838
C  C114  1  0.04310000  0.46150000  0.92670000  1.0 -0.320886914
C  C115  1  0.38790000  0.83450000  0.55290000  1.0 -0.0470277838
C  C116  1  0.46150000  0.04310000  0.57330000  1.0 -0.320886914
C  C117  1  0.16550000  0.61210000  0.05290000  1.0 -0.0470277838
C  C118  1  0.95690000  0.53850000  0.07330000  1.0 -0.320886914
C  C119  1  0.61210000  0.16550000  0.44710000  1.0 -0.0470277838
C  C120  1  0.53850000  0.95690000  0.42670000  1.0 -0.320886914
N  N1  1  0.11319000  0.34181000  0.69351000  1.0 -0.0310181339
N  N2  1  0.00941000  0.30939000  0.66658000  1.0 -0.0103255743
N  N3  1  0.34181000  0.11319000  0.80649000  1.0 -0.0310181339
N  N4  1  0.30939000  0.00941000  0.83342000  1.0 -0.0103255743
N  N5  1  0.88681000  0.65819000  0.30649000  1.0 -0.0310181339
N  N6  1  0.99059000  0.69061000  0.33342000  1.0 -0.0103255743
N  N7  1  0.65819000  0.88681000  0.19351000  1.0 -0.0310181339
N  N8  1  0.69061000  0.99059000  0.16658000  1.0 -0.0103255743
N  N9  1  0.95050000  0.44390000  0.95790000  1.0 -0.2521912497
N  N10  1  0.44390000  0.95050000  0.54210000  1.0 -0.2521912497
N  N11  1  0.04950000  0.55610000  0.04210000  1.0 -0.2521912497
N  N12  1  0.55610000  0.04950000  0.45790000  1.0 -0.2521912497
O  O1  1  0.50697000  0.62595000  0.55542000  1.0 -0.5891844373
O  O2  1  0.56920000  0.66320000  0.64679000  1.0 -0.4921967055
O  O3  1  0.38220000  0.42360000  0.94030000  1.0 -0.5236374677
O  O4  1  0.22684000  0.32596000  0.97294000  1.0 -0.5236374677
O  O5  1  0.74851000  0.62769000  0.58420000  1.0 -0.5236374677
O  O6  1  0.63678000  0.48002000  0.54705000  1.0 -0.5401079397
O  O7  1  0.64307000  0.92273000  0.55793000  1.0 -0.5401079397
O  O8  1  0.76444000  0.84508000  0.59530000  1.0 -0.5017475824
O  O9  1  0.62595000  0.50697000  0.94458000  1.0 -0.5891844373
O  O10  1  0.66320000  0.56920000  0.85321000  1.0 -0.4921967055
O  O11  1  0.42360000  0.38220000  0.55970000  1.0 -0.5236374677
O  O12  1  0.32596000  0.22684000  0.52706000  1.0 -0.5236374677
O  O13  1  0.62769000  0.74851000  0.91580000  1.0 -0.5236374677
O  O14  1  0.48002000  0.63678000  0.95295000  1.0 -0.5401079397
O  O15  1  0.92273000  0.64307000  0.94207000  1.0 -0.5401079397
O  O16  1  0.84508000  0.76444000  0.90470000  1.0 -0.5017475824
O  O17  1  0.49303000  0.37405000  0.44458000  1.0 -0.5891844373
O  O18  1  0.43080000  0.33680000  0.35321000  1.0 -0.4921967055
O  O19  1  0.61780000  0.57640000  0.05970000  1.0 -0.5236374677
O  O20  1  0.77316000  0.67404000  0.02706000  1.0 -0.5236374677
O  O21  1  0.25149000  0.37231000  0.41580000  1.0 -0.5236374677
O  O22  1  0.36322000  0.51998000  0.45295000  1.0 -0.5401079397
O  O23  1  0.35693000  0.07727000  0.44207000  1.0 -0.5401079397
O  O24  1  0.23556000  0.15492000  0.40470000  1.0 -0.5017475824
O  O25  1  0.37405000  0.49303000  0.05542000  1.0 -0.5891844373
O  O26  1  0.33680000  0.43080000  0.14679000  1.0 -0.4921967055
O  O27  1  0.57640000  0.61780000  0.44030000  1.0 -0.5236374677
O  O28  1  0.67404000  0.77316000  0.47294000  1.0 -0.5236374677
O  O29  1  0.37231000  0.25149000  0.08420000  1.0 -0.5236374677
O  O30  1  0.51998000  0.36322000  0.04705000  1.0 -0.5401079397
O  O31  1  0.07727000  0.35693000  0.05793000  1.0 -0.5401079397
O  O32  1  0.15492000  0.23556000  0.09530000  1.0 -0.5017475824
O  O33  1  0.80410000  0.41730000  0.99780000  1.0 -0.3813871856
O  O34  1  0.41730000  0.80410000  0.50220000  1.0 -0.3813871856
O  O35  1  0.19590000  0.58270000  0.00220000  1.0 -0.3813871856
O  O36  1  0.58270000  0.19590000  0.49780000  1.0 -0.3813871856
