# DDEC6 charges by PACMAN v1.1 (https://github.com/mtap-research/PACMAN-charge/)
data_QIZLIW_FSR_pacman
_symmetry_space_group_name_H-M   'P 1'
_cell_length_a   21.40190000
_cell_length_b   21.40190000
_cell_length_c   14.16090000
_cell_angle_alpha   79.58490000
_cell_angle_beta   100.41500000
_cell_angle_gamma   146.95400000
_symmetry_Int_Tables_number   1
_chemical_formula_structural   Cu4H6C18SeO17
_chemical_formula_sum   'Cu16 H24 C72 Se4 O68'
_cell_volume   3473.59460533
_cell_formula_units_Z   4
loop_
 _symmetry_equiv_pos_site_id
 _symmetry_equiv_pos_as_xyz
  1  'x, y, z'
loop_
 _atom_site_type_symbol
 _atom_site_label
 _atom_site_symmetry_multiplicity
 _atom_site_fract_x
 _atom_site_fract_y
 _atom_site_fract_z
 _atom_site_occupancy
 _atom_site_charge
Cu  Cu1  1  0.95370000  0.40460000  0.50734000  1.0 0.9288107421
Cu  Cu2  1  0.40460000  0.95370000  0.99266000  1.0 0.9288107421
Cu  Cu3  1  0.04630000  0.59540000  0.49266000  1.0 0.9288107421
Cu  Cu4  1  0.59540000  0.04630000  0.00734000  1.0 0.9288107421
Cu  Cu5  1  0.44082000  0.56474000  0.04574000  1.0 0.9696459588
Cu  Cu6  1  0.56474000  0.44082000  0.45426000  1.0 0.9696459588
Cu  Cu7  1  0.55918000  0.43526000  0.95426000  1.0 0.9696459588
Cu  Cu8  1  0.43526000  0.55918000  0.54574000  1.0 0.9696459588
Cu  Cu9  1  0.22560000  0.32416000  0.92050000  1.0 0.9527164366
Cu  Cu10  1  0.32416000  0.22560000  0.57950000  1.0 0.9527164366
Cu  Cu11  1  0.77440000  0.67584000  0.07950000  1.0 0.9527164366
Cu  Cu12  1  0.67584000  0.77440000  0.42050000  1.0 0.9527164366
Cu  Cu13  1  0.24079000  0.32289000  0.67683000  1.0 0.9918213751
Cu  Cu14  1  0.32289000  0.24079000  0.82317000  1.0 0.9918213751
Cu  Cu15  1  0.75921000  0.67711000  0.32317000  1.0 0.9918213751
Cu  Cu16  1  0.67711000  0.75921000  0.17683000  1.0 0.9918213751
H  H1  1  0.41050000  0.72330000  0.94240000  1.0 0.1438251924
H  H2  1  0.72330000  0.41050000  0.55760000  1.0 0.1438251924
H  H3  1  0.58950000  0.27670000  0.05760000  1.0 0.1438251924
H  H4  1  0.27670000  0.58950000  0.44240000  1.0 0.1438251924
H  H5  1  0.17230000  0.48250000  0.74650000  1.0 0.1438251924
H  H6  1  0.48250000  0.17230000  0.75350000  1.0 0.1438251924
H  H7  1  0.82770000  0.51750000  0.25350000  1.0 0.1438251924
H  H8  1  0.51750000  0.82770000  0.24650000  1.0 0.1438251924
H  H9  1  0.25520000  0.73400000  0.75200000  1.0 0.1465037655
H  H10  1  0.73400000  0.25520000  0.74800000  1.0 0.1465037655
H  H11  1  0.74480000  0.26600000  0.24800000  1.0 0.1465037655
H  H12  1  0.26600000  0.74480000  0.25200000  1.0 0.1465037655
H  H13  1  0.28190000  0.39910000  0.29350000  1.0 0.125817031
H  H14  1  0.39910000  0.28190000  0.20650000  1.0 0.125817031
H  H15  1  0.71810000  0.60090000  0.70650000  1.0 0.125817031
H  H16  1  0.60090000  0.71810000  0.79350000  1.0 0.125817031
H  H17  1  0.00690000  0.10690000  0.43890000  1.0 0.1465037655
H  H18  1  0.10690000  0.00690000  0.06110000  1.0 0.1465037655
H  H19  1  0.99310000  0.89310000  0.56110000  1.0 0.1465037655
H  H20  1  0.89310000  0.99310000  0.93890000  1.0 0.1465037655
H  H21  1  0.00610000  0.10870000  0.15320000  1.0 0.1465037655
H  H22  1  0.10870000  0.00610000  0.34680000  1.0 0.1465037655
H  H23  1  0.99390000  0.89130000  0.84680000  1.0 0.1465037655
H  H24  1  0.89130000  0.99390000  0.65320000  1.0 0.1465037655
C  C1  1  0.40430000  0.84390000  0.90340000  1.0 0.5801537897
C  C2  1  0.84390000  0.40430000  0.59660000  1.0 0.5801537897
C  C3  1  0.59570000  0.15610000  0.09660000  1.0 0.5801537897
C  C4  1  0.15610000  0.59570000  0.40340000  1.0 0.5801537897
C  C5  1  0.34250000  0.74410000  0.85450000  1.0 -0.0103878226
C  C6  1  0.74410000  0.34250000  0.64550000  1.0 -0.0103878226
C  C7  1  0.65750000  0.25590000  0.14550000  1.0 -0.0103878226
C  C8  1  0.25590000  0.65750000  0.35450000  1.0 -0.0103878226
C  C9  1  0.35740000  0.69220000  0.89140000  1.0 -0.0940306273
C  C10  1  0.69220000  0.35740000  0.60860000  1.0 -0.0940306273
C  C11  1  0.64260000  0.30780000  0.10860000  1.0 -0.0940306273
C  C12  1  0.30780000  0.64260000  0.39140000  1.0 -0.0940306273
C  C13  1  0.29240000  0.59360000  0.85160000  1.0 -0.0028589117
C  C14  1  0.59360000  0.29240000  0.64840000  1.0 -0.0028589117
C  C15  1  0.70760000  0.40640000  0.14840000  1.0 -0.0028589117
C  C16  1  0.40640000  0.70760000  0.35160000  1.0 -0.0028589117
C  C17  1  0.21500000  0.54800000  0.77330000  1.0 -0.0963522229
C  C18  1  0.54800000  0.21500000  0.72670000  1.0 -0.0940306273
C  C19  1  0.78500000  0.45200000  0.22670000  1.0 -0.0963522229
C  C20  1  0.45200000  0.78500000  0.27330000  1.0 -0.0940306273
C  C21  1  0.20280000  0.60240000  0.73580000  1.0 -0.0028589117
C  C22  1  0.60240000  0.20280000  0.76420000  1.0 -0.0028589117
C  C23  1  0.79720000  0.39760000  0.26420000  1.0 -0.0028589117
C  C24  1  0.39760000  0.79720000  0.23580000  1.0 -0.0028589117
C  C25  1  0.26510000  0.69930000  0.77660000  1.0 -0.0940306273
C  C26  1  0.69930000  0.26510000  0.72340000  1.0 -0.0940306273
C  C27  1  0.73490000  0.30070000  0.22340000  1.0 -0.0940306273
C  C28  1  0.30070000  0.73490000  0.27660000  1.0 -0.0940306273
C  C29  1  0.12230000  0.55770000  0.64950000  1.0 0.5801537897
C  C30  1  0.55770000  0.12230000  0.85050000  1.0 0.5801537897
C  C31  1  0.87770000  0.44230000  0.35050000  1.0 0.5801537897
C  C32  1  0.44230000  0.87770000  0.14950000  1.0 0.5801537897
C  C33  1  0.30870000  0.53710000  0.89720000  1.0 0.587619495
C  C34  1  0.53710000  0.30870000  0.60280000  1.0 0.587619495
C  C35  1  0.69130000  0.46290000  0.10280000  1.0 0.587619495
C  C36  1  0.46290000  0.69130000  0.39720000  1.0 0.587619495
C  C37  1  0.21800000  0.33320000  0.11900000  1.0 0.6062311497
C  C38  1  0.33320000  0.21800000  0.38100000  1.0 0.6062311497
C  C39  1  0.78200000  0.66680000  0.88100000  1.0 0.6062311497
C  C40  1  0.66680000  0.78200000  0.61900000  1.0 0.6062311497
C  C41  1  0.15300000  0.26480000  0.20880000  1.0 -0.0103878226
C  C42  1  0.26480000  0.15300000  0.29120000  1.0 -0.0103878226
C  C43  1  0.84700000  0.73520000  0.79120000  1.0 -0.0103878226
C  C44  1  0.73520000  0.84700000  0.70880000  1.0 -0.0103878226
C  C45  1  0.20810000  0.32090000  0.29420000  1.0 -0.1109618727
C  C46  1  0.32090000  0.20810000  0.20580000  1.0 -0.1109618727
C  C47  1  0.79190000  0.67910000  0.70580000  1.0 -0.1109618727
C  C48  1  0.67910000  0.79190000  0.79420000  1.0 -0.1109618727
C  C49  1  0.15420000  0.26180000  0.38050000  1.0 -0.0103878226
C  C50  1  0.26180000  0.15420000  0.11950000  1.0 -0.0103878226
C  C51  1  0.84580000  0.73820000  0.61950000  1.0 -0.0103878226
C  C52  1  0.73820000  0.84580000  0.88050000  1.0 -0.0103878226
C  C53  1  0.04360000  0.14660000  0.38140000  1.0 -0.0940306273
C  C54  1  0.14660000  0.04360000  0.11860000  1.0 -0.0940306273
C  C55  1  0.95640000  0.85340000  0.61860000  1.0 -0.0940306273
C  C56  1  0.85340000  0.95640000  0.88140000  1.0 -0.0940306273
C  C57  1  0.98640000  0.08900000  0.29530000  1.0 -0.0103878226
C  C58  1  0.08900000  0.98640000  0.20470000  1.0 -0.0103878226
C  C59  1  0.01360000  0.91100000  0.70470000  1.0 -0.0103878226
C  C60  1  0.91100000  0.01360000  0.79530000  1.0 -0.0103878226
C  C61  1  0.04240000  0.14760000  0.20960000  1.0 -0.0963522229
C  C62  1  0.14760000  0.04240000  0.29040000  1.0 -0.0963522229
C  C63  1  0.95760000  0.85240000  0.79040000  1.0 -0.0963522229
C  C64  1  0.85240000  0.95760000  0.70960000  1.0 -0.0963522229
C  C65  1  0.86310000  0.96570000  0.29400000  1.0 0.6062311497
C  C66  1  0.96570000  0.86310000  0.20600000  1.0 0.6062311497
C  C67  1  0.13690000  0.03430000  0.70600000  1.0 0.6062311497
C  C68  1  0.03430000  0.13690000  0.79400000  1.0 0.6062311497
C  C69  1  0.21980000  0.32700000  0.47120000  1.0 0.601844516
C  C70  1  0.32700000  0.21980000  0.02880000  1.0 0.601844516
C  C71  1  0.78020000  0.67300000  0.52880000  1.0 0.601844516
C  C72  1  0.67300000  0.78020000  0.97120000  1.0 0.601844516
Se  Se1  1  0.43648000  0.46920000  0.86198000  1.0 1.1536667612
Se  Se2  1  0.46920000  0.43648000  0.63802000  1.0 1.1536667612
Se  Se3  1  0.56352000  0.53080000  0.13802000  1.0 1.1536667612
Se  Se4  1  0.53080000  0.56352000  0.36198000  1.0 1.1536667612
O  O1  1  0.50820000  0.91880000  0.93180000  1.0 -0.5197475089
O  O2  1  0.91880000  0.50820000  0.56820000  1.0 -0.5197475089
O  O3  1  0.49180000  0.08120000  0.06820000  1.0 -0.5197475089
O  O4  1  0.08120000  0.49180000  0.43180000  1.0 -0.5197475089
O  O5  1  0.34845000  0.84535000  0.91340000  1.0 -0.5087788675
O  O6  1  0.84535000  0.34845000  0.58660000  1.0 -0.5087788675
O  O7  1  0.65155000  0.15465000  0.08660000  1.0 -0.5087788675
O  O8  1  0.15465000  0.65155000  0.41340000  1.0 -0.5087788675
O  O9  1  0.12969000  0.62151000  0.61000000  1.0 -0.5261289511
O  O10  1  0.62151000  0.12969000  0.89000000  1.0 -0.5261289511
O  O11  1  0.87031000  0.37849000  0.39000000  1.0 -0.5261289511
O  O12  1  0.37849000  0.87031000  0.11000000  1.0 -0.5261289511
O  O13  1  0.05361000  0.46059000  0.62290000  1.0 -0.5087788675
O  O14  1  0.46059000  0.05361000  0.87710000  1.0 -0.5087788675
O  O15  1  0.94639000  0.53941000  0.37710000  1.0 -0.5087788675
O  O16  1  0.53941000  0.94639000  0.12290000  1.0 -0.5087788675
O  O17  1  0.35683000  0.56797000  0.98020000  1.0 -0.5087788675
O  O18  1  0.56797000  0.35683000  0.51980000  1.0 -0.5087788675
O  O19  1  0.64317000  0.43203000  0.01980000  1.0 -0.5087788675
O  O20  1  0.43203000  0.64317000  0.48020000  1.0 -0.5087788675
O  O21  1  0.27322000  0.46578000  0.85180000  1.0 -0.5379354093
O  O22  1  0.46578000  0.27322000  0.64820000  1.0 -0.5379354093
O  O23  1  0.72678000  0.53422000  0.14820000  1.0 -0.5379354093
O  O24  1  0.53422000  0.72678000  0.35180000  1.0 -0.5379354093
O  O25  1  0.86110000  0.23990000  0.50640000  1.0 -0.1734771166
O  O26  1  0.23990000  0.86110000  0.99360000  1.0 -0.1734771166
O  O27  1  0.13890000  0.76010000  0.49360000  1.0 -0.1755916957
O  O28  1  0.76010000  0.13890000  0.00640000  1.0 -0.1755916957
O  O29  1  0.16570000  0.28150000  0.04090000  1.0 -0.5087788675
O  O30  1  0.28150000  0.16570000  0.45910000  1.0 -0.5087788675
O  O31  1  0.83430000  0.71850000  0.95910000  1.0 -0.5087788675
O  O32  1  0.71850000  0.83430000  0.54090000  1.0 -0.5087788675
O  O33  1  0.31882000  0.43558000  0.12920000  1.0 -0.5197475089
O  O34  1  0.43558000  0.31882000  0.37080000  1.0 -0.5197475089
O  O35  1  0.68118000  0.56442000  0.87080000  1.0 -0.5197475089
O  O36  1  0.56442000  0.68118000  0.62920000  1.0 -0.5197475089
O  O37  1  0.81140000  0.92700000  0.36930000  1.0 -0.5087788675
O  O38  1  0.92700000  0.81140000  0.13070000  1.0 -0.5087788675
O  O39  1  0.18860000  0.07300000  0.63070000  1.0 -0.5087788675
O  O40  1  0.07300000  0.18860000  0.86930000  1.0 -0.5087788675
O  O41  1  0.82343000  0.91377000  0.22090000  1.0 -0.5197475089
O  O42  1  0.91377000  0.82343000  0.27910000  1.0 -0.5197475089
O  O43  1  0.17657000  0.08623000  0.77910000  1.0 -0.5197475089
O  O44  1  0.08623000  0.17657000  0.72090000  1.0 -0.5197475089
O  O45  1  0.17764000  0.26896000  0.54960000  1.0 -0.4955409203
O  O46  1  0.26896000  0.17764000  0.95040000  1.0 -0.4955409203
O  O47  1  0.82236000  0.73104000  0.45040000  1.0 -0.4955409203
O  O48  1  0.73104000  0.82236000  0.04960000  1.0 -0.4955409203
O  O49  1  0.31056000  0.43484000  0.45960000  1.0 -0.5528614853
O  O50  1  0.43484000  0.31056000  0.04040000  1.0 -0.5528614853
O  O51  1  0.68944000  0.56516000  0.54040000  1.0 -0.5528614853
O  O52  1  0.56516000  0.68944000  0.95960000  1.0 -0.5528614853
O  O53  1  0.27489000  0.45571000  0.65460000  1.0 -0.2507217783
O  O54  1  0.45571000  0.27489000  0.84540000  1.0 -0.2507217783
O  O55  1  0.72511000  0.54429000  0.34540000  1.0 -0.2507217783
O  O56  1  0.54429000  0.72511000  0.15460000  1.0 -0.2507217783
O  O57  1  0.38699000  0.43321000  0.97050000  1.0 -0.7207541276
O  O58  1  0.43321000  0.38699000  0.52950000  1.0 -0.7207541276
O  O59  1  0.61301000  0.56679000  0.02950000  1.0 -0.7207541276
O  O60  1  0.56679000  0.61301000  0.47050000  1.0 -0.7207541276
O  O61  1  0.29819000  0.35961000  0.80950000  1.0 -0.7207541276
O  O62  1  0.35961000  0.29819000  0.69050000  1.0 -0.7207541276
O  O63  1  0.70181000  0.64039000  0.19050000  1.0 -0.7207541276
O  O64  1  0.64039000  0.70181000  0.30950000  1.0 -0.7207541276
O  O65  1  0.45432000  0.40588000  0.86180000  1.0 -0.6976392899
O  O66  1  0.40588000  0.45432000  0.63820000  1.0 -0.6976392899
O  O67  1  0.54568000  0.59412000  0.13820000  1.0 -0.6976392899
O  O68  1  0.59412000  0.54568000  0.36180000  1.0 -0.6976392899
