# DDEC6 charges by PACMAN v1.1 (https://github.com/mtap-research/PACMAN-charge/)
data_QOBWEJ_FSR_pacman
_symmetry_space_group_name_H-M   'P 1'
_cell_length_a   10.20000000
_cell_length_b   9.99800000
_cell_length_c   10.44710000
_cell_angle_alpha   90.00000000
_cell_angle_beta   92.24200000
_cell_angle_gamma   90.00000000
_symmetry_Int_Tables_number   1
_chemical_formula_structural   ZnPO4
_chemical_formula_sum   'Zn8 P8 O32'
_cell_volume   1064.57553103
_cell_formula_units_Z   8
loop_
 _symmetry_equiv_pos_site_id
 _symmetry_equiv_pos_as_xyz
  1  'x, y, z'
loop_
 _atom_site_type_symbol
 _atom_site_label
 _atom_site_symmetry_multiplicity
 _atom_site_fract_x
 _atom_site_fract_y
 _atom_site_fract_z
 _atom_site_occupancy
 _atom_site_charge
Zn  Zn1  1  0.86280000  0.57650000  0.10730000  1.0 1.2533536293
Zn  Zn2  1  0.13720000  0.07650000  0.89270000  1.0 1.2533536293
Zn  Zn3  1  0.62760000  0.90110000  0.87890000  1.0 1.228542123
Zn  Zn4  1  0.37240000  0.40110000  0.12110000  1.0 1.228542123
Zn  Zn5  1  0.91700000  0.84990000  0.60120000  1.0 1.2039213516
Zn  Zn6  1  0.08300000  0.34990000  0.39880000  1.0 1.2039213516
Zn  Zn7  1  0.42080000  0.18570000  0.62500000  1.0 1.2375865914
Zn  Zn8  1  0.57920000  0.68570000  0.37500000  1.0 1.2375865914
P  P1  1  0.07180000  0.32870000  0.09420000  1.0 1.4070646105
P  P2  1  0.92820000  0.82870000  0.90580000  1.0 1.4070646105
P  P3  1  0.61590000  0.93630000  0.56870000  1.0 1.401658946
P  P4  1  0.38410000  0.43630000  0.43130000  1.0 1.401658946
P  P5  1  0.88560000  0.60320000  0.41220000  1.0 1.401658946
P  P6  1  0.11440000  0.10320000  0.58780000  1.0 1.4070646105
P  P7  1  0.56730000  0.64540000  0.07070000  1.0 1.4171755053
P  P8  1  0.43270000  0.14540000  0.92930000  1.0 1.4171755053
O  O1  1  0.68060000  0.54320000  0.06910000  1.0 -0.6986861728
O  O2  1  0.31940000  0.04320000  0.93090000  1.0 -0.6986861728
O  O3  1  0.94090000  0.40270000  0.08300000  1.0 -0.6416723155
O  O4  1  0.05910000  0.90270000  0.91700000  1.0 -0.6416723155
O  O5  1  0.89910000  0.65520000  0.27580000  1.0 -0.6806541147
O  O6  1  0.10090000  0.15520000  0.72420000  1.0 -0.6806541147
O  O7  1  0.93820000  0.71330000  0.00110000  1.0 -0.6416723155
O  O8  1  0.06180000  0.21330000  0.99890000  1.0 -0.6416723155
O  O9  1  0.57030000  0.73800000  0.95410000  1.0 -0.6294378502
O  O10  1  0.42970000  0.23800000  0.04590000  1.0 -0.6294378502
O  O11  1  0.59160000  0.86980000  0.69780000  1.0 -0.6806541147
O  O12  1  0.40840000  0.36980000  0.30220000  1.0 -0.6806541147
O  O13  1  0.43690000  0.57060000  0.06160000  1.0 -0.6206174753
O  O14  1  0.56310000  0.07060000  0.93840000  1.0 -0.6141147278
O  O15  1  0.18450000  0.42580000  0.06240000  1.0 -0.6806541147
O  O16  1  0.81550000  0.92580000  0.93760000  1.0 -0.6806541147
O  O17  1  0.76330000  0.94470000  0.54340000  1.0 -0.6806541147
O  O18  1  0.23670000  0.44470000  0.45660000  1.0 -0.6806541147
O  O19  1  0.92940000  0.46030000  0.42340000  1.0 -0.6416723155
O  O20  1  0.07060000  0.96030000  0.57660000  1.0 -0.646270182
O  O21  1  0.96730000  0.69110000  0.50330000  1.0 -0.6206174753
O  O22  1  0.03270000  0.19110000  0.49670000  1.0 -0.6206174753
O  O23  1  0.09600000  0.27030000  0.22810000  1.0 -0.6903925799
O  O24  1  0.90400000  0.77030000  0.77190000  1.0 -0.6986861728
O  O25  1  0.56550000  0.08000000  0.56550000  1.0 -0.6294378502
O  O26  1  0.43450000  0.58000000  0.43450000  1.0 -0.6294378502
O  O27  1  0.57640000  0.73060000  0.19430000  1.0 -0.6986861728
O  O28  1  0.42360000  0.23060000  0.80570000  1.0 -0.6986861728
O  O29  1  0.73900000  0.60470000  0.44730000  1.0 -0.6806541147
O  O30  1  0.26100000  0.10470000  0.55270000  1.0 -0.6903925799
O  O31  1  0.54520000  0.85630000  0.46280000  1.0 -0.6294378502
O  O32  1  0.45480000  0.35630000  0.53720000  1.0 -0.6294378502
