# DDEC6 charges by PACMAN v1.1 (https://github.com/mtap-research/PACMAN-charge/)
data_QOFPAE_FSR_pacman
_symmetry_space_group_name_H-M   'P 1'
_cell_length_a   9.51520000
_cell_length_b   33.14400000
_cell_length_c   13.17200000
_cell_angle_alpha   90.00000000
_cell_angle_beta   132.94700000
_cell_angle_gamma   90.00000000
_symmetry_Int_Tables_number   1
_chemical_formula_structural   U5(PO7)4
_chemical_formula_sum   'U20 P16 O112'
_cell_volume   3040.71910109
_cell_formula_units_Z   4
loop_
 _symmetry_equiv_pos_site_id
 _symmetry_equiv_pos_as_xyz
  1  'x, y, z'
loop_
 _atom_site_type_symbol
 _atom_site_label
 _atom_site_symmetry_multiplicity
 _atom_site_fract_x
 _atom_site_fract_y
 _atom_site_fract_z
 _atom_site_occupancy
 _atom_site_charge
U  U1  1  0.41714000  0.24021000  0.33664000  1.0 2.5089659934
U  U2  1  0.58286000  0.74021000  0.16336000  1.0 2.5089659934
U  U3  1  0.58286000  0.75979000  0.66336000  1.0 2.5089659934
U  U4  1  0.41714000  0.25979000  0.83664000  1.0 2.5089659934
U  U5  1  0.91479000  0.24060000  0.73330000  1.0 2.5398069465
U  U6  1  0.08521000  0.74060000  0.76670000  1.0 2.5398069465
U  U7  1  0.08521000  0.75940000  0.26670000  1.0 2.5398069465
U  U8  1  0.91479000  0.25940000  0.23330000  1.0 2.5292241816
U  U9  1  0.74960000  0.00736000  0.20020000  1.0 2.4715223078
U  U10  1  0.25040000  0.50736000  0.29980000  1.0 2.4715223078
U  U11  1  0.25040000  0.99264000  0.79980000  1.0 2.4715223078
U  U12  1  0.74960000  0.49264000  0.70020000  1.0 2.4715223078
U  U13  1  0.25387000  0.00763000  0.30463000  1.0 2.4715223078
U  U14  1  0.74613000  0.50763000  0.19537000  1.0 2.480907385
U  U15  1  0.74613000  0.99237000  0.69537000  1.0 2.480907385
U  U16  1  0.25387000  0.49237000  0.80463000  1.0 2.480907385
U  U17  1  0.20114000  0.13048000  0.55712000  1.0 2.4511050626
U  U18  1  0.79886000  0.63048000  0.94288000  1.0 2.4511050626
U  U19  1  0.79886000  0.86952000  0.44288000  1.0 2.4511050626
U  U20  1  0.20114000  0.36952000  0.05712000  1.0 2.4420798068
P  P1  1  0.25290000  0.02024000  0.54130000  1.0 1.5961245541
P  P2  1  0.74710000  0.52024000  0.95870000  1.0 1.5909867638
P  P3  1  0.74710000  0.97976000  0.45870000  1.0 1.5909867638
P  P4  1  0.25290000  0.47976000  0.04130000  1.0 1.5909867638
P  P5  1  0.93330000  0.22173000  0.50510000  1.0 1.5909867638
P  P6  1  0.06670000  0.72173000  0.99490000  1.0 1.5909867638
P  P7  1  0.06670000  0.77827000  0.49490000  1.0 1.5909867638
P  P8  1  0.93330000  0.27827000  0.00510000  1.0 1.5909867638
P  P9  1  0.74630000  0.02118000  0.96130000  1.0 1.5677876417
P  P10  1  0.25370000  0.52118000  0.53870000  1.0 1.5677876417
P  P11  1  0.25370000  0.97882000  0.03870000  1.0 1.5677876417
P  P12  1  0.74630000  0.47882000  0.46130000  1.0 1.5677876417
P  P13  1  0.39900000  0.23074000  0.56710000  1.0 1.5909867638
P  P14  1  0.60100000  0.73074000  0.93290000  1.0 1.5909867638
P  P15  1  0.60100000  0.76926000  0.43290000  1.0 1.5909867638
P  P16  1  0.39900000  0.26926000  0.06710000  1.0 1.5909867638
O  O1  1  0.42770000  0.25920000  0.66870000  1.0 -0.802291302
O  O2  1  0.57230000  0.75920000  0.83130000  1.0 -0.802291302
O  O3  1  0.57230000  0.74080000  0.33130000  1.0 -0.802291302
O  O4  1  0.42770000  0.24080000  0.16870000  1.0 -0.802291302
O  O5  1  0.23170000  0.98980000  0.61560000  1.0 -0.7784717735
O  O6  1  0.76830000  0.48980000  0.88440000  1.0 -0.7784717735
O  O7  1  0.76830000  0.01020000  0.38440000  1.0 -0.7784717735
O  O8  1  0.23170000  0.51020000  0.11560000  1.0 -0.7784717735
O  O9  1  0.08120000  0.01780000  0.38210000  1.0 -0.8899474877
O  O10  1  0.91880000  0.51780000  0.11790000  1.0 -0.8899474877
O  O11  1  0.91880000  0.98220000  0.61790000  1.0 -0.8899474877
O  O12  1  0.08120000  0.48220000  0.88210000  1.0 -0.8899474877
O  O13  1  0.75640000  0.99480000  0.87340000  1.0 -0.8097680564
O  O14  1  0.24360000  0.49480000  0.62660000  1.0 -0.8097680564
O  O15  1  0.24360000  0.00520000  0.12660000  1.0 -0.8097680564
O  O16  1  0.75640000  0.50520000  0.37340000  1.0 -0.8097680564
O  O17  1  0.09090000  0.23690000  0.65510000  1.0 -0.9097108449
O  O18  1  0.90910000  0.73690000  0.84490000  1.0 -0.9097108449
O  O19  1  0.90910000  0.76310000  0.34490000  1.0 -0.9097108449
O  O20  1  0.09090000  0.26310000  0.15510000  1.0 -0.9097108449
O  O21  1  0.91920000  0.01690000  0.11720000  1.0 -0.8973447438
O  O22  1  0.08080000  0.51690000  0.38280000  1.0 -0.8973447438
O  O23  1  0.08080000  0.98310000  0.88280000  1.0 -0.8973447438
O  O24  1  0.91920000  0.48310000  0.61720000  1.0 -0.8973447438
O  O25  1  0.24420000  0.24700000  0.41610000  1.0 -0.8973447438
O  O26  1  0.75580000  0.74700000  0.08390000  1.0 -0.8973447438
O  O27  1  0.75580000  0.75300000  0.58390000  1.0 -0.8973447438
O  O28  1  0.24420000  0.25300000  0.91610000  1.0 -0.8973447438
O  O29  1  0.57940000  0.23030000  0.58500000  1.0 -0.8899474877
O  O30  1  0.42060000  0.73030000  0.91500000  1.0 -0.8973447438
O  O31  1  0.42060000  0.76970000  0.41500000  1.0 -0.8899474877
O  O32  1  0.57940000  0.26970000  0.08500000  1.0 -0.8973447438
O  O33  1  0.90920000  0.25100000  0.40610000  1.0 -0.8206111472
O  O34  1  0.09080000  0.75100000  0.09390000  1.0 -0.8206111472
O  O35  1  0.09080000  0.74900000  0.59390000  1.0 -0.8206111472
O  O36  1  0.90920000  0.24900000  0.90610000  1.0 -0.8206111472
O  O37  1  0.75280000  0.22380000  0.48740000  1.0 -0.8973447438
O  O38  1  0.24720000  0.72380000  0.01260000  1.0 -0.8973447438
O  O39  1  0.24720000  0.77620000  0.51260000  1.0 -0.8973447438
O  O40  1  0.75280000  0.27620000  0.98740000  1.0 -0.8973447438
O  O41  1  0.41970000  0.00750000  0.55160000  1.0 -0.8899474877
O  O42  1  0.58030000  0.50750000  0.94840000  1.0 -0.8899474877
O  O43  1  0.58030000  0.99250000  0.44840000  1.0 -0.8899474877
O  O44  1  0.41970000  0.49250000  0.05160000  1.0 -0.8899474877
O  O45  1  0.96820000  0.17960000  0.48790000  1.0 -0.802291302
O  O46  1  0.03180000  0.67960000  0.01210000  1.0 -0.802291302
O  O47  1  0.03180000  0.82040000  0.51210000  1.0 -0.802291302
O  O48  1  0.96820000  0.32040000  0.98790000  1.0 -0.802291302
O  O49  1  0.57970000  0.00880000  0.94800000  1.0 -0.8973447438
O  O50  1  0.42030000  0.50880000  0.55200000  1.0 -0.8899474877
O  O51  1  0.42030000  0.99120000  0.05200000  1.0 -0.8973447438
O  O52  1  0.57970000  0.49120000  0.44800000  1.0 -0.8973447438
O  O53  1  0.70500000  0.05900000  0.18350000  1.0 -0.5397574212
O  O54  1  0.29500000  0.55900000  0.31650000  1.0 -0.5397574212
O  O55  1  0.29500000  0.94100000  0.81650000  1.0 -0.5397574212
O  O56  1  0.70500000  0.44100000  0.68350000  1.0 -0.5397574212
O  O57  1  0.29720000  0.05950000  0.31850000  1.0 -0.5702114061
O  O58  1  0.70280000  0.55950000  0.18150000  1.0 -0.5702114061
O  O59  1  0.70280000  0.94050000  0.68150000  1.0 -0.5702114061
O  O60  1  0.29720000  0.44050000  0.81850000  1.0 -0.5702114061
O  O61  1  0.87440000  0.29230000  0.69130000  1.0 -0.5965251878
O  O62  1  0.12560000  0.79230000  0.80870000  1.0 -0.5965251878
O  O63  1  0.12560000  0.70770000  0.30870000  1.0 -0.5965251878
O  O64  1  0.87440000  0.20770000  0.19130000  1.0 -0.5904515217
O  O65  1  0.21230000  0.95530000  0.29340000  1.0 -0.5702114061
O  O66  1  0.78770000  0.45530000  0.20660000  1.0 -0.5783950891
O  O67  1  0.78770000  0.04470000  0.70660000  1.0 -0.5783950891
O  O68  1  0.21230000  0.54470000  0.79340000  1.0 -0.5783950891
O  O69  1  0.35000000  0.18930000  0.30150000  1.0 -0.5702114061
O  O70  1  0.65000000  0.68930000  0.19850000  1.0 -0.5702114061
O  O71  1  0.65000000  0.81070000  0.69850000  1.0 -0.5702114061
O  O72  1  0.35000000  0.31070000  0.80150000  1.0 -0.5702114061
O  O73  1  0.28040000  0.06140000  0.59500000  1.0 -0.7916646804
O  O74  1  0.71960000  0.56140000  0.90500000  1.0 -0.7916646804
O  O75  1  0.71960000  0.93860000  0.40500000  1.0 -0.7916646804
O  O76  1  0.28040000  0.43860000  0.09500000  1.0 -0.7916646804
O  O77  1  0.79770000  0.95520000  0.21540000  1.0 -0.5904515217
O  O78  1  0.20230000  0.45520000  0.28460000  1.0 -0.5904515217
O  O79  1  0.20230000  0.04480000  0.78460000  1.0 -0.5904515217
O  O80  1  0.79770000  0.54480000  0.71540000  1.0 -0.5904515217
O  O81  1  0.94740000  0.18800000  0.76950000  1.0 -0.5904515217
O  O82  1  0.05260000  0.68800000  0.73050000  1.0 -0.5904515217
O  O83  1  0.05260000  0.81200000  0.23050000  1.0 -0.5904515217
O  O84  1  0.94740000  0.31200000  0.26950000  1.0 -0.5783950891
O  O85  1  0.49220000  0.29130000  0.38010000  1.0 -0.5904515217
O  O86  1  0.50780000  0.79130000  0.11990000  1.0 -0.5904515217
O  O87  1  0.50780000  0.70870000  0.61990000  1.0 -0.5904515217
O  O88  1  0.49220000  0.20870000  0.88010000  1.0 -0.5904515217
O  O89  1  0.29740000  0.13420000  0.72530000  1.0 -0.5506187435
O  O90  1  0.70260000  0.63420000  0.77470000  1.0 -0.5506187435
O  O91  1  0.70260000  0.86580000  0.27470000  1.0 -0.5506187435
O  O92  1  0.29740000  0.36580000  0.22530000  1.0 -0.5506187435
O  O93  1  0.72760000  0.06590000  0.91960000  1.0 -0.6350931879
O  O94  1  0.27240000  0.56590000  0.58040000  1.0 -0.6326853986
O  O95  1  0.27240000  0.93410000  0.08040000  1.0 -0.6350931879
O  O96  1  0.72760000  0.43410000  0.41960000  1.0 -0.6350931879
O  O97  1  0.09710000  0.12430000  0.38500000  1.0 -0.5904515217
O  O98  1  0.90290000  0.62430000  0.11500000  1.0 -0.5904515217
O  O99  1  0.90290000  0.87570000  0.61500000  1.0 -0.5904515217
O  O100  1  0.09710000  0.37570000  0.88500000  1.0 -0.5904515217
O  O101  1  0.34960000  0.18940000  0.57880000  1.0 -0.8206111472
O  O102  1  0.65040000  0.68940000  0.92120000  1.0 -0.8206111472
O  O103  1  0.65040000  0.81060000  0.42120000  1.0 -0.8206111472
O  O104  1  0.34960000  0.31060000  0.07880000  1.0 -0.8206111472
O  O105  1  0.54490000  0.11790000  0.66800000  1.0 0.2725905721
O  O106  1  0.45510000  0.61790000  0.83200000  1.0 0.2841510717
O  O107  1  0.45510000  0.88210000  0.33200000  1.0 0.2725905721
O  O108  1  0.54490000  0.38210000  0.16800000  1.0 0.2889430468
O  O109  1  0.92290000  0.09450000  0.49600000  1.0 0.1260237986
O  O110  1  0.07710000  0.59450000  0.00400000  1.0 0.1230027024
O  O111  1  0.07710000  0.90550000  0.50400000  1.0 0.1260237986
O  O112  1  0.92290000  0.40550000  0.99600000  1.0 0.1260237986
