# DDEC6 charges by PACMAN v1.1 (https://github.com/mtap-research/PACMAN-charge/)
data_QOGREK_FSR_pacman
_symmetry_space_group_name_H-M   'P 1'
_cell_length_a   15.84200000
_cell_length_b   14.89770000
_cell_length_c   10.71110000
_cell_angle_alpha   74.42290000
_cell_angle_beta   64.93850000
_cell_angle_gamma   40.63860000
_symmetry_Int_Tables_number   1
_chemical_formula_structural   CdH20C20(N6O)2
_chemical_formula_sum   'Cd2 H40 C40 N24 O4'
_cell_volume   1485.38803133
_cell_formula_units_Z   2
loop_
 _symmetry_equiv_pos_site_id
 _symmetry_equiv_pos_as_xyz
  1  'x, y, z'
loop_
 _atom_site_type_symbol
 _atom_site_label
 _atom_site_symmetry_multiplicity
 _atom_site_fract_x
 _atom_site_fract_y
 _atom_site_fract_z
 _atom_site_occupancy
 _atom_site_charge
Cd  Cd1  1  0.25000000  0.25000000  0.25000000  1.0 0.8222594723
Cd  Cd2  1  0.00000000  0.00000000  0.00000000  1.0 0.8222594723
H  H1  1  0.61220000  0.00420000  0.10080000  1.0 0.1045914195
H  H2  1  0.00420000  0.61220000  0.28280000  1.0 0.1045914195
H  H3  1  0.28280000  0.10080000  0.00420000  1.0 0.1045914195
H  H4  1  0.10080000  0.28280000  0.61220000  1.0 0.1045914195
H  H5  1  0.63780000  0.24580000  0.14920000  1.0 0.1045914195
H  H6  1  0.24580000  0.63780000  0.96720000  1.0 0.1045914195
H  H7  1  0.96720000  0.14920000  0.24580000  1.0 0.1045914195
H  H8  1  0.14920000  0.96720000  0.63780000  1.0 0.1045914195
H  H9  1  0.34540000  0.34940000  0.95060000  1.0 0.107800068
H  H10  1  0.34940000  0.34540000  0.35460000  1.0 0.107800068
H  H11  1  0.35460000  0.95060000  0.34940000  1.0 0.107800068
H  H12  1  0.95060000  0.35460000  0.34540000  1.0 0.107800068
H  H13  1  0.90460000  0.90060000  0.29940000  1.0 0.107800068
H  H14  1  0.90060000  0.90460000  0.89540000  1.0 0.107800068
H  H15  1  0.89540000  0.29940000  0.90060000  1.0 0.107800068
H  H16  1  0.29940000  0.89540000  0.90460000  1.0 0.107800068
H  H17  1  0.46900000  0.01900000  0.36100000  1.0 0.3630185887
H  H18  1  0.01900000  0.46900000  0.15100000  1.0 0.3630185887
H  H19  1  0.15100000  0.36100000  0.01900000  1.0 0.3630185887
H  H20  1  0.36100000  0.15100000  0.46900000  1.0 0.3630185887
H  H21  1  0.78100000  0.23100000  0.88900000  1.0 0.3630185887
H  H22  1  0.23100000  0.78100000  0.09900000  1.0 0.3630185887
H  H23  1  0.09900000  0.88900000  0.23100000  1.0 0.3630185887
H  H24  1  0.88900000  0.09900000  0.78100000  1.0 0.3630185887
H  H25  1  0.66000000  0.22400000  0.73000000  1.0 0.077907033
H  H26  1  0.22400000  0.66000000  0.38600000  1.0 0.077907033
H  H27  1  0.38600000  0.73000000  0.22400000  1.0 0.077907033
H  H28  1  0.73000000  0.38600000  0.66000000  1.0 0.077907033
H  H29  1  0.59000000  0.02600000  0.52000000  1.0 0.077907033
H  H30  1  0.02600000  0.59000000  0.86400000  1.0 0.077907033
H  H31  1  0.86400000  0.52000000  0.02600000  1.0 0.077907033
H  H32  1  0.52000000  0.86400000  0.59000000  1.0 0.077907033
H  H33  1  0.52800000  0.32200000  0.74800000  1.0 0.0907244772
H  H34  1  0.32200000  0.52800000  0.40200000  1.0 0.0907244772
H  H35  1  0.40200000  0.74800000  0.32200000  1.0 0.0907244772
H  H36  1  0.74800000  0.40200000  0.52800000  1.0 0.0907244772
H  H37  1  0.72200000  0.92800000  0.50200000  1.0 0.0907244772
H  H38  1  0.92800000  0.72200000  0.84800000  1.0 0.0907244772
H  H39  1  0.84800000  0.50200000  0.92800000  1.0 0.0907244772
H  H40  1  0.50200000  0.84800000  0.72200000  1.0 0.0907244772
C  C1  1  0.57360000  0.07640000  0.04120000  1.0 0.107800068
C  C2  1  0.07640000  0.57360000  0.30880000  1.0 0.107800068
C  C3  1  0.30880000  0.04120000  0.07640000  1.0 0.107800068
C  C4  1  0.04120000  0.30880000  0.57360000  1.0 0.107800068
C  C5  1  0.67640000  0.17360000  0.20880000  1.0 0.107800068
C  C6  1  0.17360000  0.67640000  0.94120000  1.0 0.107800068
C  C7  1  0.94120000  0.20880000  0.17360000  1.0 0.107800068
C  C8  1  0.20880000  0.94120000  0.67640000  1.0 0.107800068
C  C9  1  0.42864000  0.26224000  0.96316000  1.0 0.0410937677
C  C10  1  0.26224000  0.42864000  0.34596000  1.0 0.0410937677
C  C11  1  0.34596000  0.96316000  0.26224000  1.0 0.0410937677
C  C12  1  0.96316000  0.34596000  0.42864000  1.0 0.0410937677
C  C13  1  0.82136000  0.98776000  0.28684000  1.0 0.0410937677
C  C14  1  0.98776000  0.82136000  0.90404000  1.0 0.0410937677
C  C15  1  0.90404000  0.28684000  0.98776000  1.0 0.0410937677
C  C16  1  0.28684000  0.90404000  0.82136000  1.0 0.0410937677
C  C17  1  0.59470000  0.23290000  0.74110000  1.0 -0.0834976606
C  C18  1  0.23290000  0.59470000  0.43130000  1.0 -0.0834976606
C  C19  1  0.43130000  0.74110000  0.23290000  1.0 -0.0834976606
C  C20  1  0.74110000  0.43130000  0.59470000  1.0 -0.0834976606
C  C21  1  0.65530000  0.01710000  0.50890000  1.0 -0.0834976606
C  C22  1  0.01710000  0.65530000  0.81870000  1.0 -0.0834976606
C  C23  1  0.81870000  0.50890000  0.01710000  1.0 -0.0834976606
C  C24  1  0.50890000  0.81870000  0.65530000  1.0 -0.0834976606
C  C25  1  0.66666667  0.13100000  0.62680000  1.0 -0.0421138935
C  C26  1  0.13100000  0.66666667  0.57560000  1.0 -0.0421138935
C  C27  1  0.57560000  0.62680000  0.13100000  1.0 -0.0421138935
C  C28  1  0.62680000  0.57560000  0.66666667  1.0 -0.0421138935
C  C29  1  0.58340000  0.11900000  0.62320000  1.0 -0.0421138935
C  C30  1  0.11900000  0.58340000  0.67440000  1.0 -0.0421138935
C  C31  1  0.67440000  0.62320000  0.11900000  1.0 -0.0421138935
C  C32  1  0.62320000  0.67440000  0.58340000  1.0 -0.0421138935
C  C33  1  0.57790000  0.20250000  0.63350000  1.0 -0.0322183711
C  C34  1  0.20250000  0.57790000  0.58610000  1.0 -0.0322183711
C  C35  1  0.58610000  0.63350000  0.20250000  1.0 -0.0322183711
C  C36  1  0.63350000  0.58610000  0.57790000  1.0 -0.0322183711
C  C37  1  0.67210000  0.04750000  0.61650000  1.0 -0.0322183711
C  C38  1  0.04750000  0.67210000  0.66390000  1.0 -0.0322183711
C  C39  1  0.66390000  0.61650000  0.04750000  1.0 -0.0322183711
C  C40  1  0.61650000  0.66390000  0.67210000  1.0 -0.0322183711
N  N1  1  0.55471000  0.19591000  0.87689000  1.0 0.0566447849
N  N2  1  0.19591000  0.55471000  0.37249000  1.0 0.0566447849
N  N3  1  0.37249000  0.87689000  0.19591000  1.0 0.0566447849
N  N4  1  0.87689000  0.37249000  0.55471000  1.0 0.0566447849
N  N5  1  0.69529000  0.05409000  0.37311000  1.0 0.0566447849
N  N6  1  0.05409000  0.69529000  0.87751000  1.0 0.0566447849
N  N7  1  0.87751000  0.37311000  0.05409000  1.0 0.0566447849
N  N8  1  0.37311000  0.87751000  0.69529000  1.0 0.0566447849
N  N9  1  0.64980000  0.07520000  0.92480000  1.0 -0.2849963143
N  N10  1  0.07520000  0.64980000  0.35020000  1.0 -0.2859343484
N  N11  1  0.35020000  0.92480000  0.07520000  1.0 -0.2859343484
N  N12  1  0.92480000  0.35020000  0.64980000  1.0 -0.2849963143
N  N13  1  0.60020000  0.17480000  0.32520000  1.0 -0.2859343484
N  N14  1  0.17480000  0.60020000  0.89980000  1.0 -0.2849963143
N  N15  1  0.89980000  0.32520000  0.17480000  1.0 -0.2859343484
N  N16  1  0.32520000  0.89980000  0.60020000  1.0 -0.2859343484
N  N17  1  0.43528000  0.18932000  0.06968000  1.0 -0.3268794924
N  N18  1  0.18932000  0.43528000  0.30572000  1.0 -0.3268794924
N  N19  1  0.30572000  0.06968000  0.18932000  1.0 -0.3268794924
N  N20  1  0.06968000  0.30572000  0.43528000  1.0 -0.3268794924
N  N21  1  0.81472000  0.06068000  0.18032000  1.0 -0.3268794924
N  N22  1  0.06068000  0.81472000  0.94428000  1.0 -0.3268794924
N  N23  1  0.94428000  0.18032000  0.06068000  1.0 -0.3268794924
N  N24  1  0.18032000  0.94428000  0.81472000  1.0 -0.3268794924
O  O1  1  0.38940000  0.11060000  0.38940000  1.0 -0.7697061434
O  O2  1  0.11060000  0.38940000  0.11060000  1.0 -0.7697061434
O  O3  1  0.86060000  0.13940000  0.86060000  1.0 -0.7697061434
O  O4  1  0.13940000  0.86060000  0.13940000  1.0 -0.7697061434
