# DDEC6 charges by PACMAN v1.1 (https://github.com/mtap-research/PACMAN-charge/)
data_QOGZET_FSR_pacman
_symmetry_space_group_name_H-M   'P 1'
_cell_length_a   13.35000000
_cell_length_b   13.35000000
_cell_length_c   17.84300000
_cell_angle_alpha   90.00000000
_cell_angle_beta   90.00000000
_cell_angle_gamma   120.00000000
_symmetry_Int_Tables_number   1
_chemical_formula_structural   Ga4P7H13O24
_chemical_formula_sum   'Ga16 P28 H52 O96'
_cell_volume   2753.98162710
_cell_formula_units_Z   4
loop_
 _symmetry_equiv_pos_site_id
 _symmetry_equiv_pos_as_xyz
  1  'x, y, z'
loop_
 _atom_site_type_symbol
 _atom_site_label
 _atom_site_symmetry_multiplicity
 _atom_site_fract_x
 _atom_site_fract_y
 _atom_site_fract_z
 _atom_site_occupancy
 _atom_site_charge
Ga  Ga1  1  0.00000000  0.00000000  0.25000000  1.0 1.4599894785
Ga  Ga2  1  0.00000000  0.00000000  0.75000000  1.0 1.4599894785
Ga  Ga3  1  0.00000000  0.00000000  0.00000000  1.0 1.4299193524
Ga  Ga4  1  0.00000000  0.00000000  0.50000000  1.0 1.4299193524
Ga  Ga5  1  0.85886000  0.29249000  0.03983000  1.0 1.4407156312
Ga  Ga6  1  0.70751000  0.56637000  0.03983000  1.0 1.4407156312
Ga  Ga7  1  0.43363000  0.14114000  0.03983000  1.0 1.4407156312
Ga  Ga8  1  0.29249000  0.85886000  0.46017000  1.0 1.4407156312
Ga  Ga9  1  0.56637000  0.70751000  0.46017000  1.0 1.4407156312
Ga  Ga10  1  0.14114000  0.43363000  0.46017000  1.0 1.4407156312
Ga  Ga11  1  0.14114000  0.70751000  0.96017000  1.0 1.4407156312
Ga  Ga12  1  0.29249000  0.43363000  0.96017000  1.0 1.4407156312
Ga  Ga13  1  0.56637000  0.85886000  0.96017000  1.0 1.4407156312
Ga  Ga14  1  0.70751000  0.14114000  0.53983000  1.0 1.4407156312
Ga  Ga15  1  0.43363000  0.29249000  0.53983000  1.0 1.4407156312
Ga  Ga16  1  0.85886000  0.56637000  0.53983000  1.0 1.4407156312
P  P1  1  0.63163000  0.12718000  0.94623000  1.0 1.1806499663
P  P2  1  0.87282000  0.50445000  0.94623000  1.0 1.1806499663
P  P3  1  0.49555000  0.36837000  0.94623000  1.0 1.1806499663
P  P4  1  0.12718000  0.63163000  0.55377000  1.0 1.1806499663
P  P5  1  0.50445000  0.87282000  0.55377000  1.0 1.1806499663
P  P6  1  0.36837000  0.49555000  0.55377000  1.0 1.1806499663
P  P7  1  0.36837000  0.87282000  0.05377000  1.0 1.1806499663
P  P8  1  0.12718000  0.49555000  0.05377000  1.0 1.1806499663
P  P9  1  0.50445000  0.63163000  0.05377000  1.0 1.1806499663
P  P10  1  0.87282000  0.36837000  0.44623000  1.0 1.1806499663
P  P11  1  0.49555000  0.12718000  0.44623000  1.0 1.1806499663
P  P12  1  0.63163000  0.50445000  0.44623000  1.0 1.1806499663
P  P13  1  0.66666667  0.33333333  0.13770000  1.0 1.241977384
P  P14  1  0.33333333  0.66666667  0.36230000  1.0 1.241977384
P  P15  1  0.33333333  0.66666667  0.86230000  1.0 1.241977384
P  P16  1  0.66666667  0.33333333  0.63770000  1.0 1.241977384
P  P17  1  0.97445000  0.16139000  0.12923000  1.0 1.1682719293
P  P18  1  0.83861000  0.81306000  0.12923000  1.0 1.1682719293
P  P19  1  0.18694000  0.02555000  0.12923000  1.0 1.1682719293
P  P20  1  0.16139000  0.97445000  0.37077000  1.0 1.1682719293
P  P21  1  0.81306000  0.83861000  0.37077000  1.0 1.1682719293
P  P22  1  0.02555000  0.18694000  0.37077000  1.0 1.1682719293
P  P23  1  0.02555000  0.83861000  0.87077000  1.0 1.1682719293
P  P24  1  0.16139000  0.18694000  0.87077000  1.0 1.1682719293
P  P25  1  0.81306000  0.97445000  0.87077000  1.0 1.1682719293
P  P26  1  0.83861000  0.02555000  0.62923000  1.0 1.1682719293
P  P27  1  0.18694000  0.16139000  0.62923000  1.0 1.1682719293
P  P28  1  0.97445000  0.81306000  0.62923000  1.0 1.1682719293
H  H1  1  0.68800000  0.18000000  0.88430000  1.0 -0.0803727045
H  H2  1  0.82000000  0.50800000  0.88430000  1.0 -0.0803727045
H  H3  1  0.49200000  0.31200000  0.88430000  1.0 -0.0803727045
H  H4  1  0.18000000  0.68800000  0.61570000  1.0 -0.0803727045
H  H5  1  0.50800000  0.82000000  0.61570000  1.0 -0.0803727045
H  H6  1  0.31200000  0.49200000  0.61570000  1.0 -0.0803727045
H  H7  1  0.31200000  0.82000000  0.11570000  1.0 -0.0803727045
H  H8  1  0.18000000  0.49200000  0.11570000  1.0 -0.0803727045
H  H9  1  0.50800000  0.68800000  0.11570000  1.0 -0.0803727045
H  H10  1  0.82000000  0.31200000  0.38430000  1.0 -0.0803727045
H  H11  1  0.49200000  0.18000000  0.38430000  1.0 -0.0803727045
H  H12  1  0.68800000  0.50800000  0.38430000  1.0 -0.0803727045
H  H13  1  0.66666667  0.33333333  0.21100000  1.0 -0.1110704637
H  H14  1  0.33333333  0.66666667  0.28900000  1.0 -0.1110704637
H  H15  1  0.33333333  0.66666667  0.78900000  1.0 -0.1110704637
H  H16  1  0.66666667  0.33333333  0.71100000  1.0 -0.1110704637
H  H17  1  0.05400000  0.25800000  0.16000000  1.0 -0.0803727045
H  H18  1  0.74200000  0.79600000  0.16000000  1.0 -0.0803727045
H  H19  1  0.20400000  0.94600000  0.16000000  1.0 -0.0803727045
H  H20  1  0.25800000  0.05400000  0.34000000  1.0 -0.0803727045
H  H21  1  0.79600000  0.74200000  0.34000000  1.0 -0.0803727045
H  H22  1  0.94600000  0.20400000  0.34000000  1.0 -0.0803727045
H  H23  1  0.94600000  0.74200000  0.84000000  1.0 -0.0803727045
H  H24  1  0.25800000  0.20400000  0.84000000  1.0 -0.0803727045
H  H25  1  0.79600000  0.05400000  0.84000000  1.0 -0.0803727045
H  H26  1  0.74200000  0.94600000  0.66000000  1.0 -0.0803727045
H  H27  1  0.20400000  0.25800000  0.66000000  1.0 -0.0803727045
H  H28  1  0.05400000  0.79600000  0.66000000  1.0 -0.0803727045
H  H29  1  0.93000000  0.18930000  0.96700000  1.0 0.3330550768
H  H30  1  0.81070000  0.74070000  0.96700000  1.0 0.3330550768
H  H31  1  0.25930000  0.07000000  0.96700000  1.0 0.3330550768
H  H32  1  0.18930000  0.93000000  0.53300000  1.0 0.3330550768
H  H33  1  0.74070000  0.81070000  0.53300000  1.0 0.3330550768
H  H34  1  0.07000000  0.25930000  0.53300000  1.0 0.3330550768
H  H35  1  0.07000000  0.81070000  0.03300000  1.0 0.3330550768
H  H36  1  0.18930000  0.25930000  0.03300000  1.0 0.3330550768
H  H37  1  0.74070000  0.93000000  0.03300000  1.0 0.3330550768
H  H38  1  0.81070000  0.07000000  0.46700000  1.0 0.3330550768
H  H39  1  0.25930000  0.18930000  0.46700000  1.0 0.3330550768
H  H40  1  0.93000000  0.74070000  0.46700000  1.0 0.3330550768
H  H41  1  0.01270000  0.27800000  0.94800000  1.0 0.3423150384
H  H42  1  0.72200000  0.73470000  0.94800000  1.0 0.3423150384
H  H43  1  0.26530000  0.98730000  0.94800000  1.0 0.3423150384
H  H44  1  0.27800000  0.01270000  0.55200000  1.0 0.3423150384
H  H45  1  0.73470000  0.72200000  0.55200000  1.0 0.3423150384
H  H46  1  0.98730000  0.26530000  0.55200000  1.0 0.3423150384
H  H47  1  0.98730000  0.72200000  0.05200000  1.0 0.3423150384
H  H48  1  0.27800000  0.26530000  0.05200000  1.0 0.3423150384
H  H49  1  0.73470000  0.01270000  0.05200000  1.0 0.3423150384
H  H50  1  0.72200000  0.98730000  0.44800000  1.0 0.3423150384
H  H51  1  0.26530000  0.27800000  0.44800000  1.0 0.3423150384
H  H52  1  0.01270000  0.73470000  0.44800000  1.0 0.3423150384
O  O1  1  0.57140000  0.99950000  0.92690000  1.0 -0.6516915044
O  O2  1  0.00050000  0.57190000  0.92690000  1.0 -0.6516915044
O  O3  1  0.42810000  0.42860000  0.92690000  1.0 -0.6516915044
O  O4  1  0.99950000  0.57140000  0.57310000  1.0 -0.6516915044
O  O5  1  0.57190000  0.00050000  0.57310000  1.0 -0.6516915044
O  O6  1  0.42860000  0.42810000  0.57310000  1.0 -0.6516915044
O  O7  1  0.42860000  0.00050000  0.07310000  1.0 -0.6516915044
O  O8  1  0.99950000  0.42810000  0.07310000  1.0 -0.6516915044
O  O9  1  0.57190000  0.57140000  0.07310000  1.0 -0.6516915044
O  O10  1  0.00050000  0.42860000  0.42690000  1.0 -0.6516915044
O  O11  1  0.42810000  0.99950000  0.42690000  1.0 -0.6516915044
O  O12  1  0.57140000  0.57190000  0.42690000  1.0 -0.6516915044
O  O13  1  0.02800000  0.13520000  0.06080000  1.0 -0.6699378984
O  O14  1  0.86480000  0.89280000  0.06080000  1.0 -0.6699378984
O  O15  1  0.10720000  0.97200000  0.06080000  1.0 -0.6699378984
O  O16  1  0.13520000  0.02800000  0.43920000  1.0 -0.6699378984
O  O17  1  0.89280000  0.86480000  0.43920000  1.0 -0.6699378984
O  O18  1  0.97200000  0.10720000  0.43920000  1.0 -0.6699378984
O  O19  1  0.97200000  0.86480000  0.93920000  1.0 -0.6699378984
O  O20  1  0.13520000  0.10720000  0.93920000  1.0 -0.6699378984
O  O21  1  0.89280000  0.02800000  0.93920000  1.0 -0.6699378984
O  O22  1  0.86480000  0.97200000  0.56080000  1.0 -0.6699378984
O  O23  1  0.10720000  0.13520000  0.56080000  1.0 -0.6699378984
O  O24  1  0.02800000  0.89280000  0.56080000  1.0 -0.6699378984
O  O25  1  0.71900000  0.15230000  0.00820000  1.0 -0.6304938864
O  O26  1  0.84770000  0.56670000  0.00820000  1.0 -0.6304938864
O  O27  1  0.43330000  0.28100000  0.00820000  1.0 -0.6304938864
O  O28  1  0.15230000  0.71900000  0.49180000  1.0 -0.6304938864
O  O29  1  0.56670000  0.84770000  0.49180000  1.0 -0.6304938864
O  O30  1  0.28100000  0.43330000  0.49180000  1.0 -0.6304938864
O  O31  1  0.28100000  0.84770000  0.99180000  1.0 -0.6304938864
O  O32  1  0.15230000  0.43330000  0.99180000  1.0 -0.6304938864
O  O33  1  0.56670000  0.71900000  0.99180000  1.0 -0.6304938864
O  O34  1  0.84770000  0.28100000  0.50820000  1.0 -0.6304938864
O  O35  1  0.43330000  0.15230000  0.50820000  1.0 -0.6304938864
O  O36  1  0.71900000  0.56670000  0.50820000  1.0 -0.6304938864
O  O37  1  0.88190000  0.19050000  0.10760000  1.0 -0.6516915044
O  O38  1  0.80950000  0.69140000  0.10760000  1.0 -0.6516915044
O  O39  1  0.30860000  0.11810000  0.10760000  1.0 -0.6516915044
O  O40  1  0.19050000  0.88190000  0.39240000  1.0 -0.6516915044
O  O41  1  0.69140000  0.80950000  0.39240000  1.0 -0.6516915044
O  O42  1  0.11810000  0.30860000  0.39240000  1.0 -0.6516915044
O  O43  1  0.11810000  0.80950000  0.89240000  1.0 -0.6516915044
O  O44  1  0.19050000  0.30860000  0.89240000  1.0 -0.6516915044
O  O45  1  0.69140000  0.88190000  0.89240000  1.0 -0.6516915044
O  O46  1  0.80950000  0.11810000  0.60760000  1.0 -0.6516915044
O  O47  1  0.30860000  0.19050000  0.60760000  1.0 -0.6516915044
O  O48  1  0.88190000  0.69140000  0.60760000  1.0 -0.6516915044
O  O49  1  0.92560000  0.06680000  0.18810000  1.0 -0.6564047681
O  O50  1  0.93320000  0.85880000  0.18810000  1.0 -0.6564047681
O  O51  1  0.14120000  0.07440000  0.18810000  1.0 -0.6564047681
O  O52  1  0.06680000  0.92560000  0.31190000  1.0 -0.6564047681
O  O53  1  0.85880000  0.93320000  0.31190000  1.0 -0.6564047681
O  O54  1  0.07440000  0.14120000  0.31190000  1.0 -0.6564047681
O  O55  1  0.07440000  0.93320000  0.81190000  1.0 -0.6564047681
O  O56  1  0.06680000  0.14120000  0.81190000  1.0 -0.6564047681
O  O57  1  0.85880000  0.92560000  0.81190000  1.0 -0.6564047681
O  O58  1  0.93320000  0.07440000  0.68810000  1.0 -0.6564047681
O  O59  1  0.14120000  0.06680000  0.68810000  1.0 -0.6564047681
O  O60  1  0.92560000  0.85880000  0.68810000  1.0 -0.6564047681
O  O61  1  0.54840000  0.17030000  0.96380000  1.0 -0.6516915044
O  O62  1  0.82970000  0.37810000  0.96380000  1.0 -0.6516915044
O  O63  1  0.62190000  0.45160000  0.96380000  1.0 -0.6516915044
O  O64  1  0.17030000  0.54840000  0.53620000  1.0 -0.6516915044
O  O65  1  0.37810000  0.82970000  0.53620000  1.0 -0.6516915044
O  O66  1  0.45160000  0.62190000  0.53620000  1.0 -0.6516915044
O  O67  1  0.45160000  0.82970000  0.03620000  1.0 -0.6516915044
O  O68  1  0.17030000  0.62190000  0.03620000  1.0 -0.6516915044
O  O69  1  0.37810000  0.54840000  0.03620000  1.0 -0.6516915044
O  O70  1  0.82970000  0.45160000  0.46380000  1.0 -0.6516915044
O  O71  1  0.62190000  0.17030000  0.46380000  1.0 -0.6516915044
O  O72  1  0.54840000  0.37810000  0.46380000  1.0 -0.6516915044
O  O73  1  0.77460000  0.32460000  0.11730000  1.0 -0.6204777257
O  O74  1  0.67540000  0.45000000  0.11730000  1.0 -0.6204777257
O  O75  1  0.55000000  0.22540000  0.11730000  1.0 -0.6204777257
O  O76  1  0.32460000  0.77460000  0.38270000  1.0 -0.6204777257
O  O77  1  0.45000000  0.67540000  0.38270000  1.0 -0.6204777257
O  O78  1  0.22540000  0.55000000  0.38270000  1.0 -0.6204777257
O  O79  1  0.22540000  0.67540000  0.88270000  1.0 -0.6204777257
O  O80  1  0.32460000  0.55000000  0.88270000  1.0 -0.6204777257
O  O81  1  0.45000000  0.77460000  0.88270000  1.0 -0.6204777257
O  O82  1  0.67540000  0.22540000  0.61730000  1.0 -0.6204777257
O  O83  1  0.55000000  0.32460000  0.61730000  1.0 -0.6204777257
O  O84  1  0.77460000  0.45000000  0.61730000  1.0 -0.6204777257
O  O85  1  0.94240000  0.25690000  0.95710000  1.0 -0.6304938864
O  O86  1  0.74310000  0.68550000  0.95710000  1.0 -0.6304938864
O  O87  1  0.31450000  0.05760000  0.95710000  1.0 -0.6304938864
O  O88  1  0.25690000  0.94240000  0.54290000  1.0 -0.6304938864
O  O89  1  0.68550000  0.74310000  0.54290000  1.0 -0.6304938864
O  O90  1  0.05760000  0.31450000  0.54290000  1.0 -0.6304938864
O  O91  1  0.05760000  0.74310000  0.04290000  1.0 -0.6304938864
O  O92  1  0.25690000  0.31450000  0.04290000  1.0 -0.6304938864
O  O93  1  0.68550000  0.94240000  0.04290000  1.0 -0.6304938864
O  O94  1  0.74310000  0.05760000  0.45710000  1.0 -0.6304938864
O  O95  1  0.31450000  0.25690000  0.45710000  1.0 -0.6304938864
O  O96  1  0.94240000  0.68550000  0.45710000  1.0 -0.6304938864
