# DDEC6 charges by PACMAN v1.1 (https://github.com/mtap-research/PACMAN-charge/)
data_QOLSUI_ASR_pacman
_symmetry_space_group_name_H-M   'P 1'
_cell_length_a   17.71700000
_cell_length_b   5.85350000
_cell_length_c   22.10220000
_cell_angle_alpha   90.00000000
_cell_angle_beta   119.85400000
_cell_angle_gamma   90.00000000
_symmetry_Int_Tables_number   1
_chemical_formula_structural   Cu3H14C30Br8(N2O5)2
_chemical_formula_sum   'Cu6 H28 C60 Br16 N8 O20'
_cell_volume   1987.96620316
_cell_formula_units_Z   2
loop_
 _symmetry_equiv_pos_site_id
 _symmetry_equiv_pos_as_xyz
  1  'x, y, z'
loop_
 _atom_site_type_symbol
 _atom_site_label
 _atom_site_symmetry_multiplicity
 _atom_site_fract_x
 _atom_site_fract_y
 _atom_site_fract_z
 _atom_site_occupancy
 _atom_site_charge
Cu  Cu1  1  0.18138000  0.18792000  0.11111000  1.0 0.8625400798
Cu  Cu2  1  0.81862000  0.68792000  0.38889000  1.0 0.8625400798
Cu  Cu3  1  0.81862000  0.81208000  0.88889000  1.0 0.8625400798
Cu  Cu4  1  0.18138000  0.31208000  0.61111000  1.0 0.8625400798
Cu  Cu5  1  0.00000000  0.50000000  0.00000000  1.0 0.9728385346
Cu  Cu6  1  0.00000000  0.00000000  0.50000000  1.0 0.9728385346
H  H1  1  0.36440000  0.52830000  0.21660000  1.0 0.313832386
H  H2  1  0.23830000  0.74300000  0.18700000  1.0 0.1179617118
H  H3  1  0.35480000  0.25600000  0.08720000  1.0 0.1303802194
H  H4  1  0.51150000  0.59110000  0.19630000  1.0 0.1381916241
H  H5  1  0.56190000  0.84360000  0.14580000  1.0 0.1122976826
H  H6  1  0.48440000  0.16560000  0.08960000  1.0 0.1122976826
H  H7  1  0.07650000  0.41600000  0.11400000  1.0 0.3622956412
H  H8  1  0.63560000  0.02830000  0.28340000  1.0 0.313832386
H  H9  1  0.76170000  0.24300000  0.31300000  1.0 0.1179617118
H  H10  1  0.64520000  0.75600000  0.41280000  1.0 0.1303802194
H  H11  1  0.48850000  0.09110000  0.30370000  1.0 0.1381916241
H  H12  1  0.43810000  0.34360000  0.35420000  1.0 0.1122976826
H  H13  1  0.51560000  0.66560000  0.41040000  1.0 0.1122976826
H  H14  1  0.92350000  0.91600000  0.38600000  1.0 0.3622956412
H  H15  1  0.63560000  0.47170000  0.78340000  1.0 0.313832386
H  H16  1  0.76170000  0.25700000  0.81300000  1.0 0.1179617118
H  H17  1  0.64520000  0.74400000  0.91280000  1.0 0.1303802194
H  H18  1  0.48850000  0.40890000  0.80370000  1.0 0.1381916241
H  H19  1  0.43810000  0.15640000  0.85420000  1.0 0.1122976826
H  H20  1  0.51560000  0.83440000  0.91040000  1.0 0.1122976826
H  H21  1  0.92350000  0.58400000  0.88600000  1.0 0.3622956412
H  H22  1  0.36440000  0.97170000  0.71660000  1.0 0.313832386
H  H23  1  0.23830000  0.75700000  0.68700000  1.0 0.1179617118
H  H24  1  0.35480000  0.24400000  0.58720000  1.0 0.1303802194
H  H25  1  0.51150000  0.90890000  0.69630000  1.0 0.1381916241
H  H26  1  0.56190000  0.65640000  0.64580000  1.0 0.1122976826
H  H27  1  0.48440000  0.33440000  0.58960000  1.0 0.1122976826
H  H28  1  0.07650000  0.08400000  0.61400000  1.0 0.3622956412
C  C1  1  0.12280000  0.16170000  0.86190000  1.0 0.0193715743
C  C2  1  0.24410000  0.45330000  0.85910000  1.0 0.035185183
C  C3  1  0.22300000  0.47350000  0.91200000  1.0 0.0193715743
C  C4  1  0.14420000  0.14380000  0.80950000  1.0 0.0193715743
C  C5  1  0.16230000  0.32780000  0.91410000  1.0 -0.0814680191
C  C6  1  0.20330000  0.29130000  0.80690000  1.0 -0.0720114051
C  C7  1  0.22250000  0.27200000  0.74700000  1.0 0.5648700731
C  C8  1  0.13840000  0.34680000  0.97040000  1.0 0.598687111
C  C9  1  0.35430000  0.96840000  0.13860000  1.0 0.1303802194
C  C10  1  0.28130000  0.78320000  0.17660000  1.0 0.1963630901
C  C11  1  0.38500000  0.12260000  0.10830000  1.0 -0.1717498465
C  C12  1  0.40140000  0.77050000  0.17100000  1.0 0.1179617118
C  C13  1  0.48010000  0.72210000  0.17420000  1.0 -0.1874841763
C  C14  1  0.50930000  0.87210000  0.14410000  1.0 -0.1027818783
C  C15  1  0.46280000  0.06850000  0.11070000  1.0 -0.1114234155
C  C16  1  0.87720000  0.66170000  0.63810000  1.0 0.0193715743
C  C17  1  0.75590000  0.95330000  0.64090000  1.0 0.035185183
C  C18  1  0.77700000  0.97350000  0.58800000  1.0 0.0193715743
C  C19  1  0.85580000  0.64380000  0.69050000  1.0 0.0193715743
C  C20  1  0.83770000  0.82780000  0.58590000  1.0 -0.0814680191
C  C21  1  0.79670000  0.79130000  0.69310000  1.0 -0.0720114051
C  C22  1  0.77750000  0.77200000  0.75300000  1.0 0.5648700731
C  C23  1  0.86160000  0.84680000  0.52960000  1.0 0.598687111
C  C24  1  0.64570000  0.46840000  0.36140000  1.0 0.1303802194
C  C25  1  0.71870000  0.28320000  0.32340000  1.0 0.1963630901
C  C26  1  0.61500000  0.62260000  0.39170000  1.0 -0.1717498465
C  C27  1  0.59860000  0.27050000  0.32900000  1.0 0.1179617118
C  C28  1  0.51990000  0.22210000  0.32580000  1.0 -0.1874841763
C  C29  1  0.49070000  0.37210000  0.35590000  1.0 -0.1027818783
C  C30  1  0.53720000  0.56850000  0.38930000  1.0 -0.1114234155
C  C31  1  0.87720000  0.83830000  0.13810000  1.0 0.0193715743
C  C32  1  0.75590000  0.54670000  0.14090000  1.0 0.035185183
C  C33  1  0.77700000  0.52650000  0.08800000  1.0 0.0193715743
C  C34  1  0.85580000  0.85620000  0.19050000  1.0 0.0193715743
C  C35  1  0.83770000  0.67220000  0.08590000  1.0 -0.0814680191
C  C36  1  0.79670000  0.70870000  0.19310000  1.0 -0.0720114051
C  C37  1  0.77750000  0.72800000  0.25300000  1.0 0.5648700731
C  C38  1  0.86160000  0.65320000  0.02960000  1.0 0.598687111
C  C39  1  0.64570000  0.03160000  0.86140000  1.0 0.1303802194
C  C40  1  0.71870000  0.21680000  0.82340000  1.0 0.1963630901
C  C41  1  0.61500000  0.87740000  0.89170000  1.0 -0.1717498465
C  C42  1  0.59860000  0.22950000  0.82900000  1.0 0.1179617118
C  C43  1  0.51990000  0.27790000  0.82580000  1.0 -0.1874841763
C  C44  1  0.49070000  0.12790000  0.85590000  1.0 -0.1027818783
C  C45  1  0.53720000  0.93150000  0.88930000  1.0 -0.1114234155
C  C46  1  0.12280000  0.33830000  0.36190000  1.0 0.0193715743
C  C47  1  0.24410000  0.04670000  0.35910000  1.0 0.035185183
C  C48  1  0.22300000  0.02650000  0.41200000  1.0 0.0193715743
C  C49  1  0.14420000  0.35620000  0.30950000  1.0 0.0193715743
C  C50  1  0.16230000  0.17220000  0.41410000  1.0 -0.0814680191
C  C51  1  0.20330000  0.20870000  0.30690000  1.0 -0.0720114051
C  C52  1  0.22250000  0.22800000  0.24700000  1.0 0.5648700731
C  C53  1  0.13840000  0.15320000  0.47040000  1.0 0.598687111
C  C54  1  0.35430000  0.53160000  0.63860000  1.0 0.1303802194
C  C55  1  0.28130000  0.71680000  0.67660000  1.0 0.1963630901
C  C56  1  0.38500000  0.37740000  0.60830000  1.0 -0.1717498465
C  C57  1  0.40140000  0.72950000  0.67100000  1.0 0.1179617118
C  C58  1  0.48010000  0.77790000  0.67420000  1.0 -0.1874841763
C  C59  1  0.50930000  0.62790000  0.64410000  1.0 -0.1027818783
C  C60  1  0.46280000  0.43150000  0.61070000  1.0 -0.1114234155
Br  Br1  1  0.04002000  0.96476000  0.86394000  1.0 -0.0264718979
Br  Br2  1  0.27537000  0.69891000  0.98216000  1.0 -0.0061474601
Br  Br3  1  0.09191000  0.91358000  0.74072000  1.0 -0.0264718979
Br  Br4  1  0.32516000  0.65357000  0.85552000  1.0 -0.0193930123
Br  Br5  1  0.95998000  0.46476000  0.63606000  1.0 -0.0264718979
Br  Br6  1  0.72463000  0.19891000  0.51784000  1.0 -0.0061474601
Br  Br7  1  0.90809000  0.41358000  0.75928000  1.0 -0.0264718979
Br  Br8  1  0.67484000  0.15357000  0.64448000  1.0 -0.0193930123
Br  Br9  1  0.95998000  0.03524000  0.13606000  1.0 -0.0264718979
Br  Br10  1  0.72463000  0.30109000  0.01784000  1.0 -0.0061474601
Br  Br11  1  0.90809000  0.08642000  0.25928000  1.0 -0.0264718979
Br  Br12  1  0.67484000  0.34643000  0.14448000  1.0 -0.0193930123
Br  Br13  1  0.04002000  0.53524000  0.36394000  1.0 -0.0264718979
Br  Br14  1  0.27537000  0.80109000  0.48216000  1.0 -0.0061474601
Br  Br15  1  0.09191000  0.58642000  0.24072000  1.0 -0.0264718979
Br  Br16  1  0.32516000  0.84643000  0.35552000  1.0 -0.0193930123
N  N1  1  0.27840000  0.97020000  0.14270000  1.0 -0.3732346459
N  N2  1  0.35180000  0.65630000  0.19460000  1.0 -0.2503249882
N  N3  1  0.72160000  0.47020000  0.35730000  1.0 -0.3732346459
N  N4  1  0.64820000  0.15630000  0.30540000  1.0 -0.2503249882
N  N5  1  0.72160000  0.02980000  0.85730000  1.0 -0.3732346459
N  N6  1  0.64820000  0.34370000  0.80540000  1.0 -0.2503249882
N  N7  1  0.27840000  0.52980000  0.64270000  1.0 -0.3732346459
N  N8  1  0.35180000  0.84370000  0.69460000  1.0 -0.2503249882
O  O1  1  0.16870000  0.37780000  0.69250000  1.0 -0.5388055407
O  O2  1  0.18890000  0.24830000  0.02630000  1.0 -0.5092743499
O  O3  1  0.09710000  0.42640000  0.08790000  1.0 -0.7831247909
O  O4  1  0.28430000  0.15580000  0.75480000  1.0 -0.5388055407
O  O5  1  0.07020000  0.45210000  0.95420000  1.0 -0.5388055407
O  O6  1  0.83130000  0.87780000  0.80750000  1.0 -0.5388055407
O  O7  1  0.81110000  0.74830000  0.47370000  1.0 -0.5092743499
O  O8  1  0.90290000  0.92640000  0.41210000  1.0 -0.7831247909
O  O9  1  0.71570000  0.65580000  0.74520000  1.0 -0.5388055407
O  O10  1  0.92980000  0.95210000  0.54580000  1.0 -0.5388055407
O  O11  1  0.83130000  0.62220000  0.30750000  1.0 -0.5388055407
O  O12  1  0.81110000  0.75170000  0.97370000  1.0 -0.5092743499
O  O13  1  0.90290000  0.57360000  0.91210000  1.0 -0.7831247909
O  O14  1  0.71570000  0.84420000  0.24520000  1.0 -0.5388055407
O  O15  1  0.92980000  0.54790000  0.04580000  1.0 -0.5388055407
O  O16  1  0.16870000  0.12220000  0.19250000  1.0 -0.5388055407
O  O17  1  0.18890000  0.25170000  0.52630000  1.0 -0.5092743499
O  O18  1  0.09710000  0.07360000  0.58790000  1.0 -0.7831247909
O  O19  1  0.28430000  0.34420000  0.25480000  1.0 -0.5388055407
O  O20  1  0.07020000  0.04790000  0.45420000  1.0 -0.5388055407
