# DDEC6 charges by PACMAN v1.1 (https://github.com/mtap-research/PACMAN-charge/)
data_QOLSOC_ASR_pacman
_symmetry_space_group_name_H-M   'P 1'
_cell_length_a   9.16760000
_cell_length_b   9.83860000
_cell_length_c   11.89450000
_cell_angle_alpha   84.57500000
_cell_angle_beta   82.11800000
_cell_angle_gamma   76.55200000
_symmetry_Int_Tables_number   1
_chemical_formula_structural   CdC16(BrO)8
_chemical_formula_sum   'Cd1 C16 Br8 O8'
_cell_volume   1031.37920295
_cell_formula_units_Z   1
loop_
 _symmetry_equiv_pos_site_id
 _symmetry_equiv_pos_as_xyz
  1  'x, y, z'
loop_
 _atom_site_type_symbol
 _atom_site_label
 _atom_site_symmetry_multiplicity
 _atom_site_fract_x
 _atom_site_fract_y
 _atom_site_fract_z
 _atom_site_occupancy
 _atom_site_charge
Cd  Cd1  1  0.00000000  0.50000000  0.00000000  1.0 1.1303638986
C  C1  1  0.97610000  0.47810000  0.61860000  1.0 -0.0299891384
C  C2  1  0.14420000  0.49720000  0.44550000  1.0 0.0564742742
C  C3  1  0.12020000  0.47390000  0.56320000  1.0 0.0507748533
C  C4  1  0.56540000  0.97370000  0.10010000  1.0 0.0564742742
C  C5  1  0.47330000  0.10430000  0.07520000  1.0 0.0507748533
C  C6  1  0.40830000  0.13210000  0.97520000  1.0 -0.0299891384
C  C7  1  0.95430000  0.44900000  0.74850000  1.0 0.5894744268
C  C8  1  0.31310000  0.27620000  0.94800000  1.0 0.5894744268
C  C9  1  0.02390000  0.52190000  0.38140000  1.0 -0.0354461127
C  C10  1  0.85580000  0.50280000  0.55450000  1.0 0.0564742742
C  C11  1  0.87980000  0.52610000  0.43680000  1.0 0.0564742742
C  C12  1  0.43460000  0.02630000  0.89990000  1.0 0.0564742742
C  C13  1  0.52670000  0.89570000  0.92480000  1.0 0.0507748533
C  C14  1  0.59170000  0.86790000  0.02480000  1.0 -0.0299891384
C  C15  1  0.04570000  0.55100000  0.25150000  1.0 0.5894744268
C  C16  1  0.68690000  0.72380000  0.05200000  1.0 0.5894744268
Br  Br1  1  0.43421000  0.24692000  0.17759000  1.0 0.0019996117
Br  Br2  1  0.28289000  0.42646000  0.65140000  1.0 0.02194106
Br  Br3  1  0.65335000  0.93595000  0.23634000  1.0 -0.012827263
Br  Br4  1  0.34055000  0.49459000  0.37177000  1.0 -0.0299891384
Br  Br5  1  0.56579000  0.75308000  0.82241000  1.0 0.0019996117
Br  Br6  1  0.71711000  0.57354000  0.34860000  1.0 0.02194106
Br  Br7  1  0.34665000  0.06405000  0.76366000  1.0 -0.012827263
Br  Br8  1  0.65945000  0.50541000  0.62823000  1.0 -0.0299891384
O  O1  1  0.96430000  0.54330000  0.80760000  1.0 -0.4918778766
O  O2  1  0.92880000  0.33150000  0.78200000  1.0 -0.4434042105
O  O3  1  0.17280000  0.29380000  0.98110000  1.0 -0.4918778766
O  O4  1  0.38060000  0.36450000  0.89920000  1.0 -0.4502746889
O  O5  1  0.03570000  0.45670000  0.19240000  1.0 -0.4918778766
O  O6  1  0.07120000  0.66850000  0.21800000  1.0 -0.4434042105
O  O7  1  0.82720000  0.70620000  0.01890000  1.0 -0.4968011209
O  O8  1  0.61940000  0.63550000  0.10080000  1.0 -0.4502746889
