# DDEC6 charges by PACMAN v1.1 (https://github.com/mtap-research/PACMAN-charge/)
data_QONKOV_FSR_pacman
_symmetry_space_group_name_H-M   'P 1'
_cell_length_a   13.13500000
_cell_length_b   14.85500000
_cell_length_c   20.03520000
_cell_angle_alpha   90.00000000
_cell_angle_beta   129.82500000
_cell_angle_gamma   90.00000000
_symmetry_Int_Tables_number   1
_chemical_formula_structural   Cu3H30C30(N14O)2
_chemical_formula_sum   'Cu6 H60 C60 N56 O4'
_cell_volume   3002.34075871
_cell_formula_units_Z   2
loop_
 _symmetry_equiv_pos_site_id
 _symmetry_equiv_pos_as_xyz
  1  'x, y, z'
loop_
 _atom_site_type_symbol
 _atom_site_label
 _atom_site_symmetry_multiplicity
 _atom_site_fract_x
 _atom_site_fract_y
 _atom_site_fract_z
 _atom_site_occupancy
 _atom_site_charge
Cu  Cu1  1  0.00000000  0.00000000  0.50000000  1.0 0.5821989833
Cu  Cu2  1  0.00000000  0.50000000  0.00000000  1.0 0.5821989833
Cu  Cu3  1  0.88525000  0.20820000  0.40294000  1.0 0.5953682719
Cu  Cu4  1  0.11475000  0.70820000  0.09706000  1.0 0.5947208463
Cu  Cu5  1  0.11475000  0.79180000  0.59706000  1.0 0.5953682719
Cu  Cu6  1  0.88525000  0.29180000  0.90294000  1.0 0.5953682719
H  H1  1  0.83920000  0.37030000  0.74910000  1.0 0.110174103
H  H2  1  0.16080000  0.87030000  0.75090000  1.0 0.110174103
H  H3  1  0.16080000  0.62970000  0.25090000  1.0 0.110174103
H  H4  1  0.83920000  0.12970000  0.24910000  1.0 0.115260592
H  H5  1  0.84850000  0.32980000  0.64290000  1.0 0.139835265
H  H6  1  0.15150000  0.82980000  0.85710000  1.0 0.139835265
H  H7  1  0.15150000  0.67020000  0.35710000  1.0 0.139835265
H  H8  1  0.84850000  0.17020000  0.14290000  1.0 0.139835265
H  H9  1  0.96570000  0.08470000  0.74870000  1.0 0.139835265
H  H10  1  0.03430000  0.58470000  0.75130000  1.0 0.139835265
H  H11  1  0.03430000  0.91530000  0.25130000  1.0 0.139835265
H  H12  1  0.96570000  0.41530000  0.24870000  1.0 0.145345798
H  H13  1  0.94720000  0.13090000  0.85030000  1.0 0.1025410971
H  H14  1  0.05280000  0.63090000  0.64970000  1.0 0.110174103
H  H15  1  0.05280000  0.86910000  0.14970000  1.0 0.110174103
H  H16  1  0.94720000  0.36910000  0.35030000  1.0 0.110174103
H  H17  1  0.61560000  0.28240000  0.74010000  1.0 0.1025410971
H  H18  1  0.38440000  0.78240000  0.75990000  1.0 0.1025410971
H  H19  1  0.38440000  0.71760000  0.25990000  1.0 0.1025410971
H  H20  1  0.61560000  0.21760000  0.24010000  1.0 0.1025410971
H  H21  1  0.43190000  0.19210000  0.66410000  1.0 0.139835265
H  H22  1  0.56810000  0.69210000  0.83590000  1.0 0.139835265
H  H23  1  0.56810000  0.80790000  0.33590000  1.0 0.139835265
H  H24  1  0.43190000  0.30790000  0.16410000  1.0 0.139835265
H  H25  1  0.61340000  0.03660000  0.87600000  1.0 0.139835265
H  H26  1  0.38660000  0.53660000  0.62400000  1.0 0.139835265
H  H27  1  0.38660000  0.96340000  0.12400000  1.0 0.139835265
H  H28  1  0.61340000  0.46340000  0.37600000  1.0 0.139835265
H  H29  1  0.79460000  0.12820000  0.94410000  1.0 0.1025410971
H  H30  1  0.20540000  0.62820000  0.55590000  1.0 0.1025410971
H  H31  1  0.20540000  0.87180000  0.05590000  1.0 0.1025410971
H  H32  1  0.79460000  0.37180000  0.44410000  1.0 0.1025410971
H  H33  1  0.15960000  0.25590000  0.57970000  1.0 0.1025410971
H  H34  1  0.84040000  0.75590000  0.92030000  1.0 0.1025410971
H  H35  1  0.84040000  0.74410000  0.42030000  1.0 0.1025410971
H  H36  1  0.15960000  0.24410000  0.07970000  1.0 0.1025410971
H  H37  1  0.29170000  0.36810000  0.77010000  1.0 0.139835265
H  H38  1  0.70830000  0.86810000  0.72990000  1.0 0.139835265
H  H39  1  0.70830000  0.63190000  0.22990000  1.0 0.139835265
H  H40  1  0.29170000  0.13190000  0.27010000  1.0 0.139835265
H  H41  1  0.23420000  0.27120000  0.73510000  1.0 0.139835265
H  H42  1  0.76580000  0.77120000  0.76490000  1.0 0.139835265
H  H43  1  0.76580000  0.72880000  0.26490000  1.0 0.139835265
H  H44  1  0.23420000  0.22880000  0.23510000  1.0 0.139835265
H  H45  1  0.34640000  0.30750000  0.73530000  1.0 0.1300331031
H  H46  1  0.65360000  0.80750000  0.76470000  1.0 0.1300331031
H  H47  1  0.65360000  0.69250000  0.26470000  1.0 0.1300331031
H  H48  1  0.34640000  0.19250000  0.23530000  1.0 0.1300331031
H  H49  1  0.15750000  0.46660000  0.69190000  1.0 0.1300331031
H  H50  1  0.84250000  0.96660000  0.80810000  1.0 0.1300331031
H  H51  1  0.84250000  0.53340000  0.30810000  1.0 0.1300331031
H  H52  1  0.15750000  0.03340000  0.19190000  1.0 0.1300331031
H  H53  1  0.11000000  0.48250000  0.59840000  1.0 0.1300331031
H  H54  1  0.89000000  0.98250000  0.90160000  1.0 0.1300331031
H  H55  1  0.89000000  0.51750000  0.40160000  1.0 0.1300331031
H  H56  1  0.11000000  0.01750000  0.09840000  1.0 0.1300331031
H  H57  1  0.01940000  0.42990000  0.61060000  1.0 0.1300331031
H  H58  1  0.98060000  0.92990000  0.88940000  1.0 0.1300331031
H  H59  1  0.98060000  0.57010000  0.38940000  1.0 0.1300331031
H  H60  1  0.01940000  0.07010000  0.11060000  1.0 0.1300331031
C  C1  1  0.86310000  0.31170000  0.74810000  1.0 0.0691031015
C  C2  1  0.13690000  0.81170000  0.75190000  1.0 0.0691031015
C  C3  1  0.13690000  0.68830000  0.25190000  1.0 0.0691031015
C  C4  1  0.86310000  0.18830000  0.24810000  1.0 0.0691031015
C  C5  1  0.86950000  0.28820000  0.68470000  1.0 -0.188698731
C  C6  1  0.13050000  0.78820000  0.81530000  1.0 -0.188698731
C  C7  1  0.13050000  0.71180000  0.31530000  1.0 -0.188698731
C  C8  1  0.86950000  0.21180000  0.18470000  1.0 -0.1838663162
C  C9  1  0.90720000  0.20230000  0.68390000  1.0 0.0903239191
C  C10  1  0.09280000  0.70230000  0.81610000  1.0 0.0903239191
C  C11  1  0.09280000  0.79770000  0.31610000  1.0 0.0903239191
C  C12  1  0.90720000  0.29770000  0.18390000  1.0 0.0903239191
C  C13  1  0.93810000  0.14290000  0.74700000  1.0 -0.188698731
C  C14  1  0.06190000  0.64290000  0.75300000  1.0 -0.188698731
C  C15  1  0.06190000  0.85710000  0.25300000  1.0 -0.188698731
C  C16  1  0.93810000  0.35710000  0.24700000  1.0 -0.188698731
C  C17  1  0.92730000  0.17140000  0.80800000  1.0 0.0903239191
C  C18  1  0.07270000  0.67140000  0.69200000  1.0 0.0903239191
C  C19  1  0.07270000  0.82860000  0.19200000  1.0 0.0903239191
C  C20  1  0.92730000  0.32860000  0.30800000  1.0 0.0802590056
C  C21  1  0.91410000  0.17300000  0.61650000  1.0 0.2170613392
C  C22  1  0.08590000  0.67300000  0.88350000  1.0 0.2170613392
C  C23  1  0.08590000  0.82700000  0.38350000  1.0 0.2170613392
C  C24  1  0.91410000  0.32700000  0.11650000  1.0 0.2170613392
C  C25  1  0.61560000  0.23170000  0.76740000  1.0 0.0802590056
C  C26  1  0.38440000  0.73170000  0.73260000  1.0 0.0802590056
C  C27  1  0.38440000  0.76830000  0.23260000  1.0 0.0802590056
C  C28  1  0.61560000  0.26830000  0.26740000  1.0 0.0802590056
C  C29  1  0.50420000  0.17800000  0.72130000  1.0 -0.188698731
C  C30  1  0.49580000  0.67800000  0.77870000  1.0 -0.188698731
C  C31  1  0.49580000  0.82200000  0.27870000  1.0 -0.188698731
C  C32  1  0.50420000  0.32200000  0.22130000  1.0 -0.188698731
C  C33  1  0.50080000  0.10250000  0.76100000  1.0 0.1025410971
C  C34  1  0.49920000  0.60250000  0.73900000  1.0 0.1025410971
C  C35  1  0.49920000  0.89750000  0.23900000  1.0 0.1025410971
C  C36  1  0.50080000  0.39750000  0.26100000  1.0 0.1025410971
C  C37  1  0.61200000  0.08560000  0.84650000  1.0 -0.188698731
C  C38  1  0.38800000  0.58560000  0.65350000  1.0 -0.188698731
C  C39  1  0.38800000  0.91440000  0.15350000  1.0 -0.188698731
C  C40  1  0.61200000  0.41440000  0.34650000  1.0 -0.188698731
C  C41  1  0.72000000  0.14150000  0.88730000  1.0 0.0691031015
C  C42  1  0.28000000  0.64150000  0.61270000  1.0 0.0691031015
C  C43  1  0.28000000  0.85850000  0.11270000  1.0 0.0691031015
C  C44  1  0.72000000  0.35850000  0.38730000  1.0 0.0691031015
C  C45  1  0.38290000  0.04560000  0.71270000  1.0 0.214666879
C  C46  1  0.61710000  0.54560000  0.78730000  1.0 0.214666879
C  C47  1  0.61710000  0.95440000  0.28730000  1.0 0.214666879
C  C48  1  0.38290000  0.45440000  0.21270000  1.0 0.214666879
C  C49  1  0.12150000  0.31210000  0.57100000  1.0 0.2468315719
C  C50  1  0.87850000  0.81210000  0.92900000  1.0 0.2468315719
C  C51  1  0.87850000  0.68790000  0.42900000  1.0 0.2468315719
C  C52  1  0.12150000  0.18790000  0.07100000  1.0 0.2468315719
C  C53  1  0.26880000  0.32360000  0.72770000  1.0 -0.3204778896
C  C54  1  0.73120000  0.82360000  0.77230000  1.0 -0.3204778896
C  C55  1  0.73120000  0.67640000  0.27230000  1.0 -0.3204778896
C  C56  1  0.26880000  0.17640000  0.22770000  1.0 -0.3204778896
C  C57  1  0.10920000  0.44110000  0.63490000  1.0 -0.2998495863
C  C58  1  0.89080000  0.94110000  0.86510000  1.0 -0.2998495863
C  C59  1  0.89080000  0.55890000  0.36510000  1.0 -0.2998495863
C  C60  1  0.10920000  0.05890000  0.13490000  1.0 -0.2998495863
N  N1  1  0.89010000  0.25360000  0.80870000  1.0 -0.2000576609
N  N2  1  0.10990000  0.75360000  0.69130000  1.0 -0.2000576609
N  N3  1  0.10990000  0.74640000  0.19130000  1.0 -0.2000576609
N  N4  1  0.89010000  0.24640000  0.30870000  1.0 -0.2000576609
N  N5  1  0.87630000  0.22430000  0.54930000  1.0 -0.2637074606
N  N6  1  0.12370000  0.72430000  0.95070000  1.0 -0.2637074606
N  N7  1  0.12370000  0.77570000  0.45070000  1.0 -0.2637074606
N  N8  1  0.87630000  0.27570000  0.04930000  1.0 -0.2637074606
N  N9  1  0.89830000  0.17300000  0.50590000  1.0 -0.0459564102
N  N10  1  0.10170000  0.67300000  0.99410000  1.0 -0.0459564102
N  N11  1  0.10170000  0.82700000  0.49410000  1.0 -0.0459564102
N  N12  1  0.89830000  0.32700000  0.00590000  1.0 -0.0459564102
N  N13  1  0.94690000  0.09470000  0.54520000  1.0 -0.0318719304
N  N14  1  0.05310000  0.59470000  0.95480000  1.0 -0.0318719304
N  N15  1  0.05310000  0.90530000  0.45480000  1.0 -0.0318719304
N  N16  1  0.94690000  0.40530000  0.04520000  1.0 -0.0318719304
N  N17  1  0.95860000  0.09210000  0.61580000  1.0 -0.2461990358
N  N18  1  0.04140000  0.59210000  0.88420000  1.0 -0.2461990358
N  N19  1  0.04140000  0.90790000  0.38420000  1.0 -0.2461990358
N  N20  1  0.95860000  0.40790000  0.11580000  1.0 -0.2461990358
N  N21  1  0.72290000  0.21470000  0.84890000  1.0 -0.20637002
N  N22  1  0.27710000  0.71470000  0.65110000  1.0 -0.20637002
N  N23  1  0.27710000  0.78530000  0.15110000  1.0 -0.20637002
N  N24  1  0.72290000  0.28530000  0.34890000  1.0 -0.20637002
N  N25  1  0.26720000  0.07340000  0.63980000  1.0 -0.2697981538
N  N26  1  0.73280000  0.57340000  0.86020000  1.0 -0.2697981538
N  N27  1  0.73280000  0.92660000  0.36020000  1.0 -0.2697981538
N  N28  1  0.26720000  0.42660000  0.13980000  1.0 -0.2697981538
N  N29  1  0.18830000  0.00260000  0.61440000  1.0 -0.0367533022
N  N30  1  0.81170000  0.50260000  0.88560000  1.0 -0.0367533022
N  N31  1  0.81170000  0.99740000  0.38560000  1.0 -0.0367533022
N  N32  1  0.18830000  0.49740000  0.11440000  1.0 -0.0367533022
N  N33  1  0.25290000  0.93420000  0.66910000  1.0 -0.0967844648
N  N34  1  0.74710000  0.43420000  0.83090000  1.0 -0.0967844648
N  N35  1  0.74710000  0.06580000  0.33090000  1.0 -0.0967844648
N  N36  1  0.25290000  0.56580000  0.16910000  1.0 -0.0967844648
N  N37  1  0.37780000  0.95980000  0.73260000  1.0 -0.2880307676
N  N38  1  0.62220000  0.45980000  0.76740000  1.0 -0.2880307676
N  N39  1  0.62220000  0.04020000  0.26740000  1.0 -0.2880307676
N  N40  1  0.37780000  0.54020000  0.23260000  1.0 -0.2880307676
N  N41  1  0.03420000  0.12370000  0.44800000  1.0 -0.5324920357
N  N42  1  0.96580000  0.62370000  0.05200000  1.0 -0.5324920357
N  N43  1  0.96580000  0.87630000  0.55200000  1.0 -0.5324920357
N  N44  1  0.03420000  0.37630000  0.94800000  1.0 -0.5324920357
N  N45  1  0.12700000  0.14520000  0.45510000  1.0 0.4209294676
N  N46  1  0.87300000  0.64520000  0.04490000  1.0 0.4209294676
N  N47  1  0.87300000  0.85480000  0.54490000  1.0 0.4209294676
N  N48  1  0.12700000  0.35480000  0.95510000  1.0 0.4209294676
N  N49  1  0.21960000  0.16510000  0.46470000  1.0 -0.3469596521
N  N50  1  0.78040000  0.66510000  0.03530000  1.0 -0.3469596521
N  N51  1  0.78040000  0.83490000  0.53530000  1.0 -0.3469596521
N  N52  1  0.21960000  0.33490000  0.96470000  1.0 -0.3469596521
N  N53  1  0.16880000  0.36020000  0.64060000  1.0 0.0120062868
N  N54  1  0.83120000  0.86020000  0.85940000  1.0 0.0120062868
N  N55  1  0.83120000  0.63980000  0.35940000  1.0 0.0120062868
N  N56  1  0.16880000  0.13980000  0.14060000  1.0 0.0120062868
O  O1  1  0.03340000  0.33450000  0.49700000  1.0 -0.4459006802
O  O2  1  0.96660000  0.83450000  0.00300000  1.0 -0.4459006802
O  O3  1  0.96660000  0.66550000  0.50300000  1.0 -0.4459006802
O  O4  1  0.03340000  0.16550000  0.99700000  1.0 -0.4459006802
