# DDEC6 charges by PACMAN v1.1 (https://github.com/mtap-research/PACMAN-charge/)
data_QOPDEE_ASR_pacman
_symmetry_space_group_name_H-M   'P 1'
_cell_length_a   8.85520000
_cell_length_b   16.25500000
_cell_length_c   14.31960000
_cell_angle_alpha   90.00000000
_cell_angle_beta   90.13400000
_cell_angle_gamma   90.00000000
_symmetry_Int_Tables_number   1
_chemical_formula_structural   ZnGa(PO4)2
_chemical_formula_sum   'Zn8 Ga8 P16 O64'
_cell_volume   2061.17585878
_cell_formula_units_Z   8
loop_
 _symmetry_equiv_pos_site_id
 _symmetry_equiv_pos_as_xyz
  1  'x, y, z'
loop_
 _atom_site_type_symbol
 _atom_site_label
 _atom_site_symmetry_multiplicity
 _atom_site_fract_x
 _atom_site_fract_y
 _atom_site_fract_z
 _atom_site_occupancy
 _atom_site_charge
Zn  Zn1  1  0.80935000  0.83854000  0.86837000  1.0 1.1664841976
Zn  Zn2  1  0.69065000  0.33854000  0.13163000  1.0 1.1664841976
Zn  Zn3  1  0.19065000  0.16146000  0.13163000  1.0 1.1664841976
Zn  Zn4  1  0.30935000  0.66146000  0.86837000  1.0 1.1664841976
Zn  Zn5  1  0.57808000  0.96180000  0.63531000  1.0 1.1884898152
Zn  Zn6  1  0.92192000  0.46180000  0.36469000  1.0 1.1884898152
Zn  Zn7  1  0.42192000  0.03820000  0.36469000  1.0 1.1884898152
Zn  Zn8  1  0.07808000  0.53820000  0.63531000  1.0 1.1884898152
Ga  Ga1  1  0.41321000  0.87088000  0.02682000  1.0 1.5309923794
Ga  Ga2  1  0.08679000  0.37088000  0.97318000  1.0 1.5242234773
Ga  Ga3  1  0.58679000  0.12912000  0.97318000  1.0 1.5309923794
Ga  Ga4  1  0.91321000  0.62912000  0.02682000  1.0 1.5242234773
Ga  Ga5  1  0.63437000  0.72976000  0.53654000  1.0 1.5309923794
Ga  Ga6  1  0.86563000  0.22976000  0.46346000  1.0 1.5309923794
Ga  Ga7  1  0.36563000  0.27024000  0.46346000  1.0 1.5309923794
Ga  Ga8  1  0.13437000  0.77024000  0.53654000  1.0 1.5242234773
P  P1  1  0.55263000  0.96869000  0.86240000  1.0 1.482977232
P  P2  1  0.94737000  0.46869000  0.13760000  1.0 1.482977232
P  P3  1  0.44737000  0.03131000  0.13760000  1.0 1.482977232
P  P4  1  0.05263000  0.53131000  0.86240000  1.0 1.4862975385
P  P5  1  0.11196000  0.78773000  0.97471000  1.0 1.4862975385
P  P6  1  0.38804000  0.28773000  0.02529000  1.0 1.4862975385
P  P7  1  0.88804000  0.21227000  0.02529000  1.0 1.482977232
P  P8  1  0.61196000  0.71227000  0.97471000  1.0 1.482977232
P  P9  1  0.41200000  0.86857000  0.47243000  1.0 1.3958276417
P  P10  1  0.08800000  0.36857000  0.52757000  1.0 1.3958276417
P  P11  1  0.58800000  0.13143000  0.52757000  1.0 1.3917419818
P  P12  1  0.91200000  0.63143000  0.47243000  1.0 1.3917419818
P  P13  1  0.85338000  0.84703000  0.64516000  1.0 1.482977232
P  P14  1  0.64662000  0.34703000  0.35484000  1.0 1.482977232
P  P15  1  0.14662000  0.15297000  0.35484000  1.0 1.4862975385
P  P16  1  0.35338000  0.65297000  0.64516000  1.0 1.482977232
O  O1  1  0.41860000  0.93340000  0.91770000  1.0 -0.7111102361
O  O2  1  0.08140000  0.43340000  0.08230000  1.0 -0.7111102361
O  O3  1  0.58140000  0.06660000  0.08230000  1.0 -0.7111102361
O  O4  1  0.91860000  0.56660000  0.91770000  1.0 -0.7111102361
O  O5  1  0.70120000  0.93680000  0.90210000  1.0 -0.7462875578
O  O6  1  0.79880000  0.43680000  0.09790000  1.0 -0.7462875578
O  O7  1  0.29880000  0.06320000  0.09790000  1.0 -0.7462875578
O  O8  1  0.20120000  0.56320000  0.90210000  1.0 -0.7462875578
O  O9  1  0.54760000  0.06320000  0.86940000  1.0 -0.6706043019
O  O10  1  0.95240000  0.56320000  0.13060000  1.0 -0.6706043019
O  O11  1  0.45240000  0.93680000  0.13060000  1.0 -0.6706043019
O  O12  1  0.04760000  0.43680000  0.86940000  1.0 -0.6706043019
O  O13  1  0.52650000  0.94330000  0.76150000  1.0 -0.6941272113
O  O14  1  0.97350000  0.44330000  0.23850000  1.0 -0.6962800119
O  O15  1  0.47350000  0.05670000  0.23850000  1.0 -0.6941272113
O  O16  1  0.02650000  0.55670000  0.76150000  1.0 -0.6941272113
O  O17  1  0.98590000  0.84680000  0.94680000  1.0 -0.6706043019
O  O18  1  0.51410000  0.34680000  0.05320000  1.0 -0.6706043019
O  O19  1  0.01410000  0.15320000  0.05320000  1.0 -0.6706043019
O  O20  1  0.48590000  0.65320000  0.94680000  1.0 -0.6706043019
O  O21  1  0.21620000  0.83450000  0.04140000  1.0 -0.6523797754
O  O22  1  0.28380000  0.33450000  0.95860000  1.0 -0.6523797754
O  O23  1  0.78380000  0.16550000  0.95860000  1.0 -0.6523797754
O  O24  1  0.71620000  0.66550000  0.04140000  1.0 -0.6523797754
O  O25  1  0.19850000  0.76020000  0.88760000  1.0 -0.7408693038
O  O26  1  0.30150000  0.26020000  0.11240000  1.0 -0.7408693038
O  O27  1  0.80150000  0.23980000  0.11240000  1.0 -0.7408693038
O  O28  1  0.69850000  0.73980000  0.88760000  1.0 -0.7408693038
O  O29  1  0.05150000  0.71410000  0.02840000  1.0 -0.719965199
O  O30  1  0.44850000  0.21410000  0.97160000  1.0 -0.719965199
O  O31  1  0.94850000  0.28590000  0.97160000  1.0 -0.719965199
O  O32  1  0.55150000  0.78590000  0.02840000  1.0 -0.719965199
O  O33  1  0.41980000  0.90720000  0.56910000  1.0 -0.7408693038
O  O34  1  0.08020000  0.40720000  0.43090000  1.0 -0.7408693038
O  O35  1  0.58020000  0.09280000  0.43090000  1.0 -0.7408693038
O  O36  1  0.91980000  0.59280000  0.56910000  1.0 -0.7462875578
O  O37  1  0.53100000  0.80180000  0.46180000  1.0 -0.7111102361
O  O38  1  0.96900000  0.30180000  0.53820000  1.0 -0.7111102361
O  O39  1  0.46900000  0.19820000  0.53820000  1.0 -0.7111102361
O  O40  1  0.03100000  0.69820000  0.46180000  1.0 -0.7111102361
O  O41  1  0.44070000  0.92800000  0.39440000  1.0 -0.6706043019
O  O42  1  0.05930000  0.42800000  0.60560000  1.0 -0.6706043019
O  O43  1  0.55930000  0.07200000  0.60560000  1.0 -0.6706043019
O  O44  1  0.94070000  0.57200000  0.39440000  1.0 -0.6706043019
O  O45  1  0.25510000  0.83230000  0.45760000  1.0 -0.6641225312
O  O46  1  0.24490000  0.33230000  0.54240000  1.0 -0.6706043019
O  O47  1  0.74490000  0.16770000  0.54240000  1.0 -0.6706043019
O  O48  1  0.75510000  0.66770000  0.45760000  1.0 -0.6706043019
O  O49  1  0.89300000  0.85430000  0.74700000  1.0 -0.67811797
O  O50  1  0.60700000  0.35430000  0.25300000  1.0 -0.67811797
O  O51  1  0.10700000  0.14570000  0.25300000  1.0 -0.67811797
O  O52  1  0.39300000  0.64570000  0.74700000  1.0 -0.67811797
O  O53  1  0.00180000  0.84340000  0.59010000  1.0 -0.67811797
O  O54  1  0.49820000  0.34340000  0.40990000  1.0 -0.67811797
O  O55  1  0.99820000  0.15660000  0.40990000  1.0 -0.67811797
O  O56  1  0.50180000  0.65660000  0.59010000  1.0 -0.67811797
O  O57  1  0.77390000  0.92380000  0.60780000  1.0 -0.7408693038
O  O58  1  0.72610000  0.42380000  0.39220000  1.0 -0.7408693038
O  O59  1  0.22610000  0.07620000  0.39220000  1.0 -0.7408693038
O  O60  1  0.27390000  0.57620000  0.60780000  1.0 -0.7408693038
O  O61  1  0.75530000  0.77170000  0.63100000  1.0 -0.7614053134
O  O62  1  0.74470000  0.27170000  0.36900000  1.0 -0.7614053134
O  O63  1  0.24470000  0.22830000  0.36900000  1.0 -0.7614053134
O  O64  1  0.25530000  0.72830000  0.63100000  1.0 -0.7614053134
