# DDEC6 charges by PACMAN v1.1 (https://github.com/mtap-research/PACMAN-charge/)
data_QOPDAA_FSR_pacman
_symmetry_space_group_name_H-M   'P 1'
_cell_length_a   12.84830000
_cell_length_b   12.84830000
_cell_length_c   16.23530000
_cell_angle_alpha   73.43140000
_cell_angle_beta   106.56900000
_cell_angle_gamma   133.02400000
_symmetry_Int_Tables_number   1
_chemical_formula_structural   Zn2GaP5O14
_chemical_formula_sum   'Zn8 Ga4 P20 O56'
_cell_volume   1862.22000738
_cell_formula_units_Z   4
loop_
 _symmetry_equiv_pos_site_id
 _symmetry_equiv_pos_as_xyz
  1  'x, y, z'
loop_
 _atom_site_type_symbol
 _atom_site_label
 _atom_site_symmetry_multiplicity
 _atom_site_fract_x
 _atom_site_fract_y
 _atom_site_fract_z
 _atom_site_occupancy
 _atom_site_charge
Zn  Zn1  1  0.93414000  0.17928000  0.10908000  1.0 0.9188948223
Zn  Zn2  1  0.17928000  0.93414000  0.39092000  1.0 0.9188948223
Zn  Zn3  1  0.06586000  0.82072000  0.89092000  1.0 0.9188948223
Zn  Zn4  1  0.82072000  0.06586000  0.60908000  1.0 0.9188948223
Zn  Zn5  1  0.04818000  0.44406000  0.27756000  1.0 1.0366709181
Zn  Zn6  1  0.44406000  0.04818000  0.22244000  1.0 1.0366709181
Zn  Zn7  1  0.95182000  0.55594000  0.72244000  1.0 1.0366709181
Zn  Zn8  1  0.55594000  0.95182000  0.77756000  1.0 1.0366709181
Ga  Ga1  1  0.61118000  0.20716000  0.97551000  1.0 1.4730288038
Ga  Ga2  1  0.20716000  0.61118000  0.52449000  1.0 1.4730288038
Ga  Ga3  1  0.38882000  0.79284000  0.02449000  1.0 1.4730288038
Ga  Ga4  1  0.79284000  0.38882000  0.47551000  1.0 1.4730288038
P  P1  1  0.75394000  0.22066000  0.17545000  1.0 1.4008792886
P  P2  1  0.22066000  0.75394000  0.32455000  1.0 1.4008792886
P  P3  1  0.24606000  0.77934000  0.82455000  1.0 1.4008792886
P  P4  1  0.77934000  0.24606000  0.67545000  1.0 1.4008792886
P  P5  1  0.98355000  0.32209000  0.46332000  1.0 1.3605592796
P  P6  1  0.32209000  0.98355000  0.03668000  1.0 1.3685128042
P  P7  1  0.01645000  0.67791000  0.53668000  1.0 1.3605592796
P  P8  1  0.67791000  0.01645000  0.96332000  1.0 1.3605592796
P  P9  1  0.16864000  0.50032000  0.11630000  1.0 1.2803345272
P  P10  1  0.50032000  0.16864000  0.38370000  1.0 1.2803345272
P  P11  1  0.83136000  0.49968000  0.88370000  1.0 1.2803345272
P  P12  1  0.49968000  0.83136000  0.61630000  1.0 1.2803345272
P  P13  1  0.12440000  0.12260000  0.25400000  1.0 -0.0645319796
P  P14  1  0.12260000  0.12440000  0.24600000  1.0 -0.0645319796
P  P15  1  0.87560000  0.87740000  0.74600000  1.0 -0.0645319796
P  P16  1  0.87740000  0.87560000  0.75400000  1.0 -0.0645319796
P  P17  1  0.10450000  0.06950000  0.21120000  1.0 -0.1999276182
P  P18  1  0.06950000  0.10450000  0.28880000  1.0 -0.1999276182
P  P19  1  0.89550000  0.93050000  0.78880000  1.0 -0.1999276182
P  P20  1  0.93050000  0.89550000  0.71120000  1.0 -0.1999276182
O  O1  1  0.86068000  0.35792000  0.21830000  1.0 -0.5870293429
O  O2  1  0.35792000  0.86068000  0.28170000  1.0 -0.5870293429
O  O3  1  0.13932000  0.64208000  0.78170000  1.0 -0.5870293429
O  O4  1  0.64208000  0.13932000  0.71830000  1.0 -0.5870293429
O  O5  1  0.70610000  0.26110000  0.08410000  1.0 -0.7373053184
O  O6  1  0.26110000  0.70610000  0.41590000  1.0 -0.7373053184
O  O7  1  0.29390000  0.73890000  0.91590000  1.0 -0.7373053184
O  O8  1  0.73890000  0.29390000  0.58410000  1.0 -0.7373053184
O  O9  1  0.62612000  0.10788000  0.22710000  1.0 -0.6218913695
O  O10  1  0.10788000  0.62612000  0.27290000  1.0 -0.6218913695
O  O11  1  0.37388000  0.89212000  0.77290000  1.0 -0.6218913695
O  O12  1  0.89212000  0.37388000  0.72710000  1.0 -0.6218913695
O  O13  1  0.82040000  0.15800000  0.17720000  1.0 -0.6126707992
O  O14  1  0.15800000  0.82040000  0.32280000  1.0 -0.6126707992
O  O15  1  0.17960000  0.84200000  0.82280000  1.0 -0.6126707992
O  O16  1  0.84200000  0.17960000  0.67720000  1.0 -0.6126707992
O  O17  1  0.04824000  0.34476000  0.38720000  1.0 -0.5304925067
O  O18  1  0.34476000  0.04824000  0.11280000  1.0 -0.5390463045
O  O19  1  0.95176000  0.65524000  0.61280000  1.0 -0.5304925067
O  O20  1  0.65524000  0.95176000  0.88720000  1.0 -0.5304925067
O  O21  1  0.83650000  0.10750000  0.99930000  1.0 -0.4405687353
O  O22  1  0.10750000  0.83650000  0.50070000  1.0 -0.4405687353
O  O23  1  0.16350000  0.89250000  0.00070000  1.0 -0.4405687353
O  O24  1  0.89250000  0.16350000  0.49930000  1.0 -0.4405687353
O  O25  1  0.63235000  0.10645000  0.92860000  1.0 -0.7188574276
O  O26  1  0.10645000  0.63235000  0.57140000  1.0 -0.7188574276
O  O27  1  0.36765000  0.89355000  0.07140000  1.0 -0.7188574276
O  O28  1  0.89355000  0.36765000  0.42860000  1.0 -0.7188574276
O  O29  1  0.41307000  0.10153000  0.96580000  1.0 -0.6551005295
O  O30  1  0.10153000  0.41307000  0.53420000  1.0 -0.6551005295
O  O31  1  0.58693000  0.89847000  0.03420000  1.0 -0.6508182934
O  O32  1  0.89847000  0.58693000  0.46580000  1.0 -0.6508182934
O  O33  1  0.16252000  0.45788000  0.21470000  1.0 -0.5631266287
O  O34  1  0.45788000  0.16252000  0.28530000  1.0 -0.5631266287
O  O35  1  0.83748000  0.54212000  0.78530000  1.0 -0.5663861981
O  O36  1  0.54212000  0.83748000  0.71470000  1.0 -0.5663861981
O  O37  1  0.67416000  0.37464000  0.89790000  1.0 -0.5390463045
O  O38  1  0.37464000  0.67416000  0.60210000  1.0 -0.5390463045
O  O39  1  0.32584000  0.62536000  0.10210000  1.0 -0.5390463045
O  O40  1  0.62536000  0.32584000  0.39790000  1.0 -0.5390463045
O  O41  1  0.10870000  0.37290000  0.07580000  1.0 -0.5304925067
O  O42  1  0.37290000  0.10870000  0.42420000  1.0 -0.5304925067
O  O43  1  0.89130000  0.62710000  0.92420000  1.0 -0.5304925067
O  O44  1  0.62710000  0.89130000  0.57580000  1.0 -0.5304925067
O  O45  1  0.07932000  0.54628000  0.07400000  1.0 -0.4495558342
O  O46  1  0.54628000  0.07932000  0.42600000  1.0 -0.4495558342
O  O47  1  0.92068000  0.45372000  0.92600000  1.0 -0.4495558342
O  O48  1  0.45372000  0.92068000  0.57400000  1.0 -0.4495558342
O  O49  1  0.00080000  0.08360000  0.18090000  1.0 -0.1322488277
O  O50  1  0.08360000  0.00080000  0.31910000  1.0 -0.1322488277
O  O51  1  0.99920000  0.91640000  0.81910000  1.0 -0.1322488277
O  O52  1  0.91640000  0.99920000  0.68090000  1.0 -0.1322488277
O  O53  1  0.18190000  0.25030000  0.29260000  1.0 -0.0878831758
O  O54  1  0.25030000  0.18190000  0.20740000  1.0 -0.0878831758
O  O55  1  0.81810000  0.74970000  0.70740000  1.0 -0.0878831758
O  O56  1  0.74970000  0.81810000  0.79260000  1.0 -0.0878831758
