# DDEC6 charges by PACMAN v1.1 (https://github.com/mtap-research/PACMAN-charge/)
data_QOSCIN_ASR_pacman
_symmetry_space_group_name_H-M   'P 1'
_cell_length_a   13.96030000
_cell_length_b   13.96030000
_cell_length_c   14.99900000
_cell_angle_alpha   85.23660000
_cell_angle_beta   94.76340000
_cell_angle_gamma   52.24250000
_symmetry_Int_Tables_number   1
_chemical_formula_structural   ZnH47C38(NO2)3
_chemical_formula_sum   'Zn2 H94 C76 N6 O12'
_cell_volume   2269.59316768
_cell_formula_units_Z   2
loop_
 _symmetry_equiv_pos_site_id
 _symmetry_equiv_pos_as_xyz
  1  'x, y, z'
loop_
 _atom_site_type_symbol
 _atom_site_label
 _atom_site_symmetry_multiplicity
 _atom_site_fract_x
 _atom_site_fract_y
 _atom_site_fract_z
 _atom_site_occupancy
 _atom_site_charge
Zn  Zn1  1  0.73948000  0.73948000  0.25000000  1.0 0.6906709883
Zn  Zn2  1  0.26052000  0.26052000  0.75000000  1.0 0.6906709883
H  H1  1  0.63560000  0.78900000  0.04570000  1.0 0.1095964897
H  H2  1  0.62370000  0.68430000  0.93850000  1.0 0.1328167383
H  H3  1  0.70220000  0.48120000  0.98250000  1.0 0.1230132717
H  H4  1  0.78340000  0.50600000  0.24050000  1.0 0.1095964897
H  H5  1  0.77690000  0.10710000  0.19740000  1.0 0.1539640937
H  H6  1  0.01450000  0.81550000  0.61260000  1.0 0.0699761688
H  H7  1  0.95580000  0.92960000  0.53290000  1.0 0.0543587755
H  H8  1  0.08040000  0.79780000  0.52620000  1.0 0.0784919325
H  H9  1  0.02680000  0.62980000  0.56920000  1.0 0.0609324414
H  H10  1  0.07510000  0.63590000  0.47740000  1.0 0.0699761688
H  H11  1  0.95210000  0.64990000  0.47330000  1.0 0.0905173782
H  H12  1  0.81710000  0.84230000  0.59540000  1.0 0.0784919325
H  H13  1  0.75850000  0.84510000  0.49790000  1.0 0.0905173782
H  H14  1  0.75540000  0.95820000  0.51660000  1.0 0.0609324414
H  H15  1  0.96320000  0.88460000  0.59900000  1.0 0.0609324414
H  H16  1  0.87810000  0.00210000  0.52010000  1.0 0.0784919325
H  H17  1  0.01320000  0.88780000  0.50750000  1.0 0.0784919325
H  H18  1  0.00720000  0.68660000  0.58080000  1.0 0.0609324414
H  H19  1  0.05710000  0.68370000  0.48800000  1.0 0.0699761688
H  H20  1  0.94880000  0.67420000  0.49050000  1.0 0.0784919325
H  H21  1  0.75690000  0.89850000  0.57030000  1.0 0.0609324414
H  H22  1  0.73010000  0.87010000  0.47420000  1.0 0.0969294364
H  H23  1  0.70350000  0.99810000  0.48040000  1.0 0.0969294364
H  H24  1  0.78900000  0.63560000  0.45430000  1.0 0.1095964897
H  H25  1  0.68430000  0.62370000  0.56150000  1.0 0.1328167383
H  H26  1  0.48120000  0.70220000  0.51750000  1.0 0.1230132717
H  H27  1  0.50600000  0.78340000  0.25950000  1.0 0.1095964897
H  H28  1  0.10710000  0.77690000  0.30260000  1.0 0.1539640937
H  H29  1  0.81550000  0.01450000  0.88740000  1.0 0.0699761688
H  H30  1  0.92960000  0.95580000  0.96710000  1.0 0.0543587755
H  H31  1  0.79780000  0.08040000  0.97380000  1.0 0.0784919325
H  H32  1  0.62980000  0.02680000  0.93080000  1.0 0.0609324414
H  H33  1  0.63590000  0.07510000  0.02260000  1.0 0.0699761688
H  H34  1  0.64990000  0.95210000  0.02670000  1.0 0.0905173782
H  H35  1  0.84230000  0.81710000  0.90460000  1.0 0.0784919325
H  H36  1  0.84510000  0.75850000  0.00210000  1.0 0.0905173782
H  H37  1  0.95820000  0.75540000  0.98340000  1.0 0.0609324414
H  H38  1  0.88460000  0.96320000  0.90100000  1.0 0.0609324414
H  H39  1  0.00210000  0.87810000  0.97990000  1.0 0.0784919325
H  H40  1  0.88780000  0.01320000  0.99250000  1.0 0.0784919325
H  H41  1  0.68660000  0.00720000  0.91920000  1.0 0.0609324414
H  H42  1  0.68370000  0.05710000  0.01200000  1.0 0.0699761688
H  H43  1  0.67420000  0.94880000  0.00950000  1.0 0.0784919325
H  H44  1  0.89850000  0.75690000  0.92970000  1.0 0.0609324414
H  H45  1  0.87010000  0.73010000  0.02580000  1.0 0.0969294364
H  H46  1  0.99810000  0.70350000  0.01960000  1.0 0.0969294364
H  H47  1  0.08240000  0.08240000  0.25000000  1.0 0.1568463135
H  H48  1  0.36440000  0.21100000  0.95430000  1.0 0.1095964897
H  H49  1  0.37630000  0.31570000  0.06150000  1.0 0.1328167383
H  H50  1  0.29780000  0.51880000  0.01750000  1.0 0.1230132717
H  H51  1  0.21660000  0.49400000  0.75950000  1.0 0.1095964897
H  H52  1  0.22310000  0.89290000  0.80260000  1.0 0.1539640937
H  H53  1  0.98550000  0.18450000  0.38740000  1.0 0.0699761688
H  H54  1  0.04420000  0.07040000  0.46710000  1.0 0.0543587755
H  H55  1  0.91960000  0.20220000  0.47380000  1.0 0.0784919325
H  H56  1  0.97320000  0.37020000  0.43080000  1.0 0.0609324414
H  H57  1  0.92490000  0.36410000  0.52260000  1.0 0.0699761688
H  H58  1  0.04790000  0.35010000  0.52670000  1.0 0.0905173782
H  H59  1  0.18290000  0.15770000  0.40460000  1.0 0.0784919325
H  H60  1  0.24150000  0.15490000  0.50210000  1.0 0.0905173782
H  H61  1  0.24460000  0.04180000  0.48340000  1.0 0.0609324414
H  H62  1  0.03680000  0.11540000  0.40100000  1.0 0.0609324414
H  H63  1  0.12190000  0.99790000  0.47990000  1.0 0.0784919325
H  H64  1  0.98680000  0.11220000  0.49250000  1.0 0.0784919325
H  H65  1  0.99280000  0.31340000  0.41920000  1.0 0.0609324414
H  H66  1  0.94290000  0.31630000  0.51200000  1.0 0.0699761688
H  H67  1  0.05120000  0.32580000  0.50950000  1.0 0.0784919325
H  H68  1  0.24310000  0.10150000  0.42970000  1.0 0.0609324414
H  H69  1  0.26990000  0.12990000  0.52580000  1.0 0.0969294364
H  H70  1  0.29650000  0.00190000  0.51960000  1.0 0.0969294364
H  H71  1  0.21100000  0.36440000  0.54570000  1.0 0.1095964897
H  H72  1  0.31570000  0.37630000  0.43850000  1.0 0.1328167383
H  H73  1  0.51880000  0.29780000  0.48250000  1.0 0.1230132717
H  H74  1  0.49400000  0.21660000  0.74050000  1.0 0.1095964897
H  H75  1  0.89290000  0.22310000  0.69740000  1.0 0.1539640937
H  H76  1  0.18450000  0.98550000  0.11260000  1.0 0.0784919325
H  H77  1  0.07040000  0.04420000  0.03290000  1.0 0.0543587755
H  H78  1  0.20220000  0.91960000  0.02620000  1.0 0.0784919325
H  H79  1  0.37020000  0.97320000  0.06920000  1.0 0.0609324414
H  H80  1  0.36410000  0.92490000  0.97740000  1.0 0.0699761688
H  H81  1  0.35010000  0.04790000  0.97330000  1.0 0.0905173782
H  H82  1  0.15770000  0.18290000  0.09540000  1.0 0.0784919325
H  H83  1  0.15490000  0.24150000  0.99790000  1.0 0.0905173782
H  H84  1  0.04180000  0.24460000  0.01660000  1.0 0.0609324414
H  H85  1  0.11540000  0.03680000  0.09900000  1.0 0.0609324414
H  H86  1  0.99790000  0.12190000  0.02010000  1.0 0.0784919325
H  H87  1  0.11220000  0.98680000  0.00750000  1.0 0.0784919325
H  H88  1  0.31340000  0.99280000  0.08080000  1.0 0.0609324414
H  H89  1  0.31630000  0.94290000  0.98800000  1.0 0.0699761688
H  H90  1  0.32580000  0.05120000  0.99050000  1.0 0.0784919325
H  H91  1  0.10150000  0.24310000  0.07030000  1.0 0.0609324414
H  H92  1  0.12990000  0.26990000  0.97420000  1.0 0.0969294364
H  H93  1  0.00190000  0.29650000  0.98040000  1.0 0.0969294364
H  H94  1  0.91760000  0.91760000  0.75000000  1.0 0.1568463135
C  C1  1  0.66438000  0.70758000  0.06460000  1.0 -0.0107831063
C  C2  1  0.65825000  0.64525000  0.00000000  1.0 -0.1531460942
C  C3  1  0.70283000  0.52643000  0.02610000  1.0 -0.0803703081
C  C4  1  0.74912000  0.47292000  0.11710000  1.0 0.1095964897
C  C5  1  0.75103000  0.54223000  0.17830000  1.0 0.0285935614
C  C6  1  0.80294000  0.34694000  0.15090000  1.0 -0.2000217709
C  C7  1  0.85147000  0.24247000  0.18100000  1.0 -0.1918314781
C  C8  1  0.86279000  0.05979000  0.21790000  1.0 -0.176658326
C  C9  1  0.91864000  0.11524000  0.21630000  1.0 0.0609324414
C  C10  1  0.85578000  0.84458000  0.33230000  1.0 0.5545819614
C  C11  1  0.92610000  0.80770000  0.49850000  1.0 0.1906965885
C  C12  1  0.00100000  0.84060000  0.54690000  1.0 -0.2305658657
C  C13  1  0.00180000  0.66820000  0.50520000  1.0 -0.256783535
C  C14  1  0.80350000  0.86870000  0.52990000  1.0 -0.2125290644
C  C15  1  0.88760000  0.85360000  0.49060000  1.0 0.2116840421
C  C16  1  0.94030000  0.91230000  0.53320000  1.0 -0.1638812583
C  C17  1  0.98380000  0.71180000  0.51470000  1.0 -0.2000217709
C  C18  1  0.75810000  0.91010000  0.50500000  1.0 -0.2305658657
C  C19  1  0.70758000  0.66438000  0.43540000  1.0 -0.0107831063
C  C20  1  0.64525000  0.65825000  0.50000000  1.0 -0.1531460942
C  C21  1  0.52643000  0.70283000  0.47390000  1.0 -0.0803703081
C  C22  1  0.47292000  0.74912000  0.38290000  1.0 0.1095964897
C  C23  1  0.54223000  0.75103000  0.32170000  1.0 0.0285935614
C  C24  1  0.34694000  0.80294000  0.34910000  1.0 -0.2000217709
C  C25  1  0.24247000  0.85147000  0.31900000  1.0 -0.1918314781
C  C26  1  0.05979000  0.86279000  0.28210000  1.0 -0.176658326
C  C27  1  0.11524000  0.91864000  0.28370000  1.0 0.0609324414
C  C28  1  0.84458000  0.85578000  0.16770000  1.0 0.5545819614
C  C29  1  0.80770000  0.92610000  0.00150000  1.0 0.1906965885
C  C30  1  0.84060000  0.00100000  0.95310000  1.0 -0.2305658657
C  C31  1  0.66820000  0.00180000  0.99480000  1.0 -0.256783535
C  C32  1  0.86870000  0.80350000  0.97010000  1.0 -0.2125290644
C  C33  1  0.85360000  0.88760000  0.00940000  1.0 0.2116840421
C  C34  1  0.91230000  0.94030000  0.96680000  1.0 -0.1638812583
C  C35  1  0.71180000  0.98380000  0.98530000  1.0 -0.2000217709
C  C36  1  0.91010000  0.75810000  0.99500000  1.0 -0.2305658657
C  C37  1  0.93453000  0.93453000  0.25000000  1.0 0.2116840421
C  C38  1  0.04452000  0.04452000  0.25000000  1.0 -0.1531460942
C  C39  1  0.33562000  0.29242000  0.93540000  1.0 -0.0107831063
C  C40  1  0.34175000  0.35475000  0.00000000  1.0 -0.1531460942
C  C41  1  0.29717000  0.47357000  0.97390000  1.0 -0.0803703081
C  C42  1  0.25088000  0.52708000  0.88290000  1.0 0.1095964897
C  C43  1  0.24897000  0.45777000  0.82170000  1.0 0.0285935614
C  C44  1  0.19706000  0.65306000  0.84910000  1.0 -0.2000217709
C  C45  1  0.14853000  0.75753000  0.81900000  1.0 -0.1918314781
C  C46  1  0.13721000  0.94021000  0.78210000  1.0 -0.176658326
C  C47  1  0.08136000  0.88476000  0.78370000  1.0 0.0609324414
C  C48  1  0.14422000  0.15542000  0.66770000  1.0 0.5545819614
C  C49  1  0.07390000  0.19230000  0.50150000  1.0 0.1906965885
C  C50  1  0.99900000  0.15940000  0.45310000  1.0 -0.2305658657
C  C51  1  0.99820000  0.33180000  0.49480000  1.0 -0.256783535
C  C52  1  0.19650000  0.13130000  0.47010000  1.0 -0.2125290644
C  C53  1  0.11240000  0.14640000  0.50940000  1.0 0.2116840421
C  C54  1  0.05970000  0.08770000  0.46680000  1.0 -0.1638812583
C  C55  1  0.01620000  0.28820000  0.48530000  1.0 -0.2000217709
C  C56  1  0.24190000  0.08990000  0.49500000  1.0 -0.2305658657
C  C57  1  0.29242000  0.33562000  0.56460000  1.0 -0.0107831063
C  C58  1  0.35475000  0.34175000  0.50000000  1.0 -0.1531460942
C  C59  1  0.47357000  0.29717000  0.52610000  1.0 -0.0803703081
C  C60  1  0.52708000  0.25088000  0.61710000  1.0 0.1095964897
C  C61  1  0.45777000  0.24897000  0.67830000  1.0 0.0285935614
C  C62  1  0.65306000  0.19706000  0.65090000  1.0 -0.2000217709
C  C63  1  0.75753000  0.14853000  0.68100000  1.0 -0.1918314781
C  C64  1  0.94021000  0.13721000  0.71790000  1.0 -0.176658326
C  C65  1  0.88476000  0.08136000  0.71630000  1.0 0.0609324414
C  C66  1  0.15542000  0.14422000  0.83230000  1.0 0.5545819614
C  C67  1  0.19230000  0.07390000  0.99850000  1.0 0.1906965885
C  C68  1  0.15940000  0.99900000  0.04690000  1.0 -0.2305658657
C  C69  1  0.33180000  0.99820000  0.00520000  1.0 -0.256783535
C  C70  1  0.13130000  0.19650000  0.02990000  1.0 -0.2125290644
C  C71  1  0.14640000  0.11240000  0.99060000  1.0 0.2116840421
C  C72  1  0.08770000  0.05970000  0.03320000  1.0 -0.1638812583
C  C73  1  0.28820000  0.01620000  0.01470000  1.0 -0.2000217709
C  C74  1  0.08990000  0.24190000  0.00500000  1.0 -0.2305658657
C  C75  1  0.06547000  0.06547000  0.75000000  1.0 0.2116840421
C  C76  1  0.95548000  0.95548000  0.75000000  1.0 -0.1531460942
N  N1  1  0.70907000  0.65767000  0.15262000  1.0 -0.2236747082
N  N2  1  0.65767000  0.70907000  0.34738000  1.0 -0.2236747082
N  N3  1  0.87661000  0.87661000  0.25000000  1.0 -0.3132708158
N  N4  1  0.29093000  0.34233000  0.84738000  1.0 -0.2236747082
N  N5  1  0.34233000  0.29093000  0.65262000  1.0 -0.2236747082
N  N6  1  0.12339000  0.12339000  0.75000000  1.0 -0.3132708158
O  O1  1  0.80170000  0.80188000  0.34117000  1.0 -0.4910422649
O  O2  1  0.90610000  0.86430000  0.40210000  1.0 -0.3237889793
O  O3  1  0.88680000  0.87880000  0.38970000  1.0 -0.2750438835
O  O4  1  0.80188000  0.80170000  0.15883000  1.0 -0.4910422649
O  O5  1  0.86430000  0.90610000  0.09790000  1.0 -0.3237889793
O  O6  1  0.87880000  0.88680000  0.11030000  1.0 -0.2750438835
O  O7  1  0.19830000  0.19812000  0.65883000  1.0 -0.4910422649
O  O8  1  0.09390000  0.13570000  0.59790000  1.0 -0.3237889793
O  O9  1  0.11320000  0.12120000  0.61030000  1.0 -0.2734195378
O  O10  1  0.19812000  0.19830000  0.84117000  1.0 -0.4910422649
O  O11  1  0.13570000  0.09390000  0.90210000  1.0 -0.3237889793
O  O12  1  0.12120000  0.11320000  0.88970000  1.0 -0.2734195378
