# DDEC6 charges by PACMAN v1.1 (https://github.com/mtap-research/PACMAN-charge/)
data_QOSJIT_ASR_pacman
_symmetry_space_group_name_H-M   'P 1'
_cell_length_a   13.94500000
_cell_length_b   30.63300000
_cell_length_c   23.03200000
_cell_angle_alpha   90.00000000
_cell_angle_beta   117.96200000
_cell_angle_gamma   90.00000000
_symmetry_Int_Tables_number   1
_chemical_formula_structural   Eu2Cu3H18C42(N3O13)2
_chemical_formula_sum   'Eu8 Cu12 H72 C168 N24 O104'
_cell_volume   8690.15768148
_cell_formula_units_Z   4
loop_
 _symmetry_equiv_pos_site_id
 _symmetry_equiv_pos_as_xyz
  1  'x, y, z'
loop_
 _atom_site_type_symbol
 _atom_site_label
 _atom_site_symmetry_multiplicity
 _atom_site_fract_x
 _atom_site_fract_y
 _atom_site_fract_z
 _atom_site_occupancy
 _atom_site_charge
Eu  Eu1  1  0.35096000  0.05125000  0.87486000  1.0 1.9772572605
Eu  Eu2  1  0.64904000  0.55125000  0.62514000  1.0 1.9772572605
Eu  Eu3  1  0.64904000  0.94875000  0.12514000  1.0 1.9772572605
Eu  Eu4  1  0.35096000  0.44875000  0.37486000  1.0 1.9772572605
Eu  Eu5  1  0.64402000  0.80977000  0.60508000  1.0 2.0039625255
Eu  Eu6  1  0.35598000  0.30977000  0.89492000  1.0 2.0039625255
Eu  Eu7  1  0.35598000  0.19023000  0.39492000  1.0 2.0039625255
Eu  Eu8  1  0.64402000  0.69023000  0.10508000  1.0 2.0039625255
Cu  Cu1  1  0.72754000  0.02215000  0.71939000  1.0 0.7414754195
Cu  Cu2  1  0.27246000  0.52215000  0.78061000  1.0 0.7414754195
Cu  Cu3  1  0.27246000  0.97785000  0.28061000  1.0 0.7414754195
Cu  Cu4  1  0.72754000  0.47785000  0.21939000  1.0 0.7414754195
Cu  Cu5  1  0.13786000  0.18460000  0.61097000  1.0 0.7414754195
Cu  Cu6  1  0.86214000  0.68460000  0.88903000  1.0 0.7414754195
Cu  Cu7  1  0.86214000  0.81540000  0.38903000  1.0 0.7414754195
Cu  Cu8  1  0.13786000  0.31540000  0.11097000  1.0 0.7414754195
Cu  Cu9  1  0.26291000  0.84256000  0.75863000  1.0 0.6900481669
Cu  Cu10  1  0.73709000  0.34256000  0.74137000  1.0 0.6900481669
Cu  Cu11  1  0.73709000  0.15744000  0.24137000  1.0 0.6900481669
Cu  Cu12  1  0.26291000  0.65744000  0.25863000  1.0 0.6900481669
H  H1  1  0.59200000  0.03980000  0.77850000  1.0 0.1115581499
H  H2  1  0.40800000  0.53980000  0.72150000  1.0 0.1115581499
H  H3  1  0.40800000  0.96020000  0.22150000  1.0 0.1115581499
H  H4  1  0.59200000  0.46020000  0.27850000  1.0 0.1115581499
H  H5  1  0.40880000  0.12000000  0.58870000  1.0 0.1435428125
H  H6  1  0.59120000  0.62000000  0.91130000  1.0 0.1435428125
H  H7  1  0.59120000  0.88000000  0.41130000  1.0 0.1435428125
H  H8  1  0.40880000  0.38000000  0.08870000  1.0 0.1435428125
H  H9  1  0.56900000  0.08380000  0.61130000  1.0 0.1289117075
H  H10  1  0.43100000  0.58380000  0.88870000  1.0 0.1289117075
H  H11  1  0.43100000  0.91620000  0.38870000  1.0 0.1289117075
H  H12  1  0.56900000  0.41620000  0.11130000  1.0 0.1289117075
H  H13  1  0.90370000  0.17330000  0.54610000  1.0 0.100065841
H  H14  1  0.09630000  0.67330000  0.95390000  1.0 0.100065841
H  H15  1  0.09630000  0.82670000  0.45390000  1.0 0.100065841
H  H16  1  0.90370000  0.32670000  0.04610000  1.0 0.100065841
H  H17  1  0.13530000  0.10660000  0.68830000  1.0 0.1115581499
H  H18  1  0.86470000  0.60660000  0.81170000  1.0 0.1115581499
H  H19  1  0.86470000  0.89340000  0.31170000  1.0 0.1115581499
H  H20  1  0.13530000  0.39340000  0.18830000  1.0 0.1115581499
H  H21  1  0.27480000  0.25320000  0.70550000  1.0 0.1203243372
H  H22  1  0.72520000  0.75320000  0.79450000  1.0 0.1203243372
H  H23  1  0.72520000  0.74680000  0.29450000  1.0 0.1203243372
H  H24  1  0.27480000  0.24680000  0.20550000  1.0 0.1203243372
H  H25  1  0.26400000  0.20650000  0.54250000  1.0 0.1115581499
H  H26  1  0.73600000  0.70650000  0.95750000  1.0 0.1115581499
H  H27  1  0.73600000  0.79350000  0.45750000  1.0 0.1115581499
H  H28  1  0.26400000  0.29350000  0.04250000  1.0 0.1115581499
H  H29  1  0.31780000  0.93910000  0.75880000  1.0 0.1203243372
H  H30  1  0.68220000  0.43910000  0.74120000  1.0 0.1203243372
H  H31  1  0.68220000  0.06090000  0.24120000  1.0 0.1203243372
H  H32  1  0.31780000  0.56090000  0.25880000  1.0 0.1203243372
H  H33  1  0.41150000  0.83230000  0.70550000  1.0 0.100065841
H  H34  1  0.58850000  0.33230000  0.79450000  1.0 0.100065841
H  H35  1  0.58850000  0.16770000  0.29450000  1.0 0.100065841
H  H36  1  0.41150000  0.66770000  0.20550000  1.0 0.100065841
H  H37  1  0.42580000  0.98110000  0.72950000  1.0 0.1203243372
H  H38  1  0.57420000  0.48110000  0.77050000  1.0 0.1203243372
H  H39  1  0.57420000  0.01890000  0.27050000  1.0 0.1203243372
H  H40  1  0.42580000  0.51890000  0.22950000  1.0 0.1203243372
H  H41  1  0.01020000  0.06640000  0.70420000  1.0 0.1203243372
H  H42  1  0.98980000  0.56640000  0.79580000  1.0 0.1203243372
H  H43  1  0.98980000  0.93360000  0.29580000  1.0 0.1203243372
H  H44  1  0.01020000  0.43360000  0.20420000  1.0 0.1203243372
H  H45  1  0.42860000  0.29360000  0.72680000  1.0 0.1203243372
H  H46  1  0.57140000  0.79360000  0.77320000  1.0 0.1203243372
H  H47  1  0.57140000  0.70640000  0.27320000  1.0 0.1203243372
H  H48  1  0.42860000  0.20640000  0.22680000  1.0 0.1203243372
H  H49  1  0.96330000  0.18000000  0.30490000  1.0 0.0912570081
H  H50  1  0.03670000  0.68000000  0.19510000  1.0 0.0912570081
H  H51  1  0.03670000  0.82000000  0.69510000  1.0 0.0912570081
H  H52  1  0.96330000  0.32000000  0.80490000  1.0 0.0912570081
H  H53  1  0.06900000  0.38460000  0.76930000  1.0 0.1289117075
H  H54  1  0.93100000  0.88460000  0.73070000  1.0 0.1289117075
H  H55  1  0.93100000  0.61540000  0.23070000  1.0 0.1289117075
H  H56  1  0.06900000  0.11540000  0.26930000  1.0 0.1289117075
H  H57  1  0.84800000  0.25580000  0.10940000  1.0 0.1435428125
H  H58  1  0.15200000  0.75580000  0.39060000  1.0 0.1435428125
H  H59  1  0.15200000  0.74420000  0.89060000  1.0 0.1435428125
H  H60  1  0.84800000  0.24420000  0.60940000  1.0 0.1435428125
H  H61  1  0.22040000  0.42700000  0.79500000  1.0 0.1203243372
H  H62  1  0.77960000  0.92700000  0.70500000  1.0 0.1203243372
H  H63  1  0.77960000  0.57300000  0.20500000  1.0 0.1203243372
H  H64  1  0.22040000  0.07300000  0.29500000  1.0 0.1203243372
H  H65  1  0.03700000  0.53120000  0.71960000  1.0 0.1203243372
H  H66  1  0.96300000  0.03120000  0.78040000  1.0 0.1203243372
H  H67  1  0.96300000  0.46880000  0.28040000  1.0 0.1203243372
H  H68  1  0.03700000  0.96880000  0.21960000  1.0 0.1203243372
H  H69  1  0.72700000  0.21820000  0.13390000  1.0 0.1289117075
H  H70  1  0.27300000  0.71820000  0.36610000  1.0 0.1289117075
H  H71  1  0.27300000  0.78180000  0.86610000  1.0 0.1289117075
H  H72  1  0.72700000  0.28180000  0.63390000  1.0 0.1289117075
C  C1  1  0.41740000  0.06904000  0.77710000  1.0 0.6076404241
C  C2  1  0.58260000  0.56904000  0.72290000  1.0 0.6076404241
C  C3  1  0.58260000  0.93096000  0.22290000  1.0 0.6076404241
C  C4  1  0.41740000  0.43096000  0.27710000  1.0 0.6076404241
C  C5  1  0.45826000  0.07657000  0.72826000  1.0 -0.0604513064
C  C6  1  0.54174000  0.57657000  0.77174000  1.0 -0.0604513064
C  C7  1  0.54174000  0.92343000  0.27174000  1.0 -0.0604513064
C  C8  1  0.45826000  0.42343000  0.22826000  1.0 -0.0604513064
C  C9  1  0.55367000  0.05620000  0.73927000  1.0 0.0385780042
C  C10  1  0.44633000  0.55620000  0.76073000  1.0 0.0385780042
C  C11  1  0.44633000  0.94380000  0.26073000  1.0 0.0385780042
C  C12  1  0.55367000  0.44380000  0.23927000  1.0 0.0385780042
C  C13  1  0.40347000  0.10163000  0.67187000  1.0 0.0198187751
C  C14  1  0.59653000  0.60163000  0.82813000  1.0 0.0198187751
C  C15  1  0.59653000  0.89837000  0.32813000  1.0 0.0198187751
C  C16  1  0.40347000  0.39837000  0.17187000  1.0 0.0198187751
C  C17  1  0.44550000  0.10367000  0.62820000  1.0 -0.1355768057
C  C18  1  0.55450000  0.60367000  0.87180000  1.0 -0.1355768057
C  C19  1  0.55450000  0.89633000  0.37180000  1.0 -0.1355768057
C  C20  1  0.44550000  0.39633000  0.12820000  1.0 -0.1355768057
C  C21  1  0.30826000  0.12957000  0.66466000  1.0 0.5488027421
C  C22  1  0.69174000  0.62957000  0.83534000  1.0 0.5488027421
C  C23  1  0.69174000  0.87043000  0.33534000  1.0 0.5488027421
C  C24  1  0.30826000  0.37043000  0.16466000  1.0 0.5488027421
C  C25  1  0.54102000  0.08198000  0.64172000  1.0 0.1115581499
C  C26  1  0.45898000  0.58198000  0.85828000  1.0 0.1115581499
C  C27  1  0.45898000  0.91802000  0.35828000  1.0 0.1115581499
C  C28  1  0.54102000  0.41802000  0.14172000  1.0 0.1115581499
C  C29  1  0.56078000  0.95961000  0.68308000  1.0 0.5488027421
C  C30  1  0.43922000  0.45961000  0.81692000  1.0 0.5488027421
C  C31  1  0.43922000  0.04039000  0.31692000  1.0 0.5488027421
C  C32  1  0.56078000  0.54039000  0.18308000  1.0 0.5488027421
C  C33  1  0.79381000  0.06923000  0.64301000  1.0 0.5488027421
C  C34  1  0.20619000  0.56923000  0.85699000  1.0 0.5488027421
C  C35  1  0.20619000  0.93077000  0.35699000  1.0 0.5488027421
C  C36  1  0.79381000  0.43077000  0.14301000  1.0 0.5488027421
C  C37  1  0.49034000  0.93098000  0.70114000  1.0 0.0385780042
C  C38  1  0.50966000  0.43098000  0.79886000  1.0 0.0385780042
C  C39  1  0.50966000  0.06902000  0.29886000  1.0 0.0385780042
C  C40  1  0.49034000  0.56902000  0.20114000  1.0 0.0385780042
C  C41  1  0.92479000  0.15142000  0.57909000  1.0 0.0485322339
C  C42  1  0.07521000  0.65142000  0.92091000  1.0 0.0385780042
C  C43  1  0.07521000  0.84858000  0.42091000  1.0 0.0385780042
C  C44  1  0.92479000  0.34858000  0.07909000  1.0 0.0485322339
C  C45  1  0.06017000  0.11247000  0.66177000  1.0 0.0818580774
C  C46  1  0.93983000  0.61247000  0.83823000  1.0 0.0818580774
C  C47  1  0.93983000  0.88753000  0.33823000  1.0 0.0818580774
C  C48  1  0.06017000  0.38753000  0.16177000  1.0 0.0818580774
C  C49  1  0.30422000  0.25160000  0.67572000  1.0 0.0912570081
C  C50  1  0.69578000  0.75160000  0.82428000  1.0 0.0912570081
C  C51  1  0.69578000  0.74840000  0.32428000  1.0 0.0912570081
C  C52  1  0.30422000  0.24840000  0.17572000  1.0 0.0912570081
C  C53  1  0.29797000  0.22452000  0.58037000  1.0 0.0485322339
C  C54  1  0.70203000  0.72452000  0.91963000  1.0 0.0485322339
C  C55  1  0.70203000  0.77548000  0.41963000  1.0 0.0485322339
C  C56  1  0.29797000  0.27548000  0.08037000  1.0 0.0485322339
C  C57  1  0.36085000  0.92513000  0.74225000  1.0 0.0912570081
C  C58  1  0.63915000  0.42513000  0.75775000  1.0 0.0912570081
C  C59  1  0.63915000  0.07487000  0.25775000  1.0 0.0912570081
C  C60  1  0.36085000  0.57487000  0.24225000  1.0 0.0912570081
C  C61  1  0.41700000  0.86299000  0.71180000  1.0 0.0568527871
C  C62  1  0.58300000  0.36299000  0.78820000  1.0 0.0568527871
C  C63  1  0.58300000  0.13701000  0.28820000  1.0 0.0568527871
C  C64  1  0.41700000  0.63701000  0.21180000  1.0 0.0568527871
C  C65  1  0.87438000  0.09667000  0.63298000  1.0 0.0198187751
C  C66  1  0.12562000  0.59667000  0.86702000  1.0 0.0198187751
C  C67  1  0.12562000  0.90333000  0.36702000  1.0 0.0198187751
C  C68  1  0.87438000  0.40333000  0.13298000  1.0 0.0198187751
C  C69  1  0.42551000  0.95031000  0.72501000  1.0 -0.1601542793
C  C70  1  0.57449000  0.45031000  0.77499000  1.0 -0.1601542793
C  C71  1  0.57449000  0.04969000  0.27499000  1.0 -0.1601542793
C  C72  1  0.42551000  0.54969000  0.22501000  1.0 -0.1601542793
C  C73  1  0.48690000  0.88537000  0.69480000  1.0 -0.0686881589
C  C74  1  0.51310000  0.38537000  0.80520000  1.0 -0.0686881589
C  C75  1  0.51310000  0.11463000  0.30520000  1.0 -0.0686881589
C  C76  1  0.48690000  0.61463000  0.19480000  1.0 -0.0686881589
C  C77  1  0.84384000  0.12908000  0.58584000  1.0 -0.0604513064
C  C78  1  0.15616000  0.62908000  0.91416000  1.0 -0.0686881589
C  C79  1  0.15616000  0.87092000  0.41416000  1.0 -0.0686881589
C  C80  1  0.84384000  0.37092000  0.08584000  1.0 -0.0604513064
C  C81  1  0.98618000  0.08851000  0.67148000  1.0 -0.1601542793
C  C82  1  0.01382000  0.58851000  0.82852000  1.0 -0.1601542793
C  C83  1  0.01382000  0.91149000  0.32852000  1.0 -0.1601542793
C  C84  1  0.98618000  0.41149000  0.17148000  1.0 -0.1601542793
C  C85  1  0.39553000  0.27595000  0.68843000  1.0 -0.1512243586
C  C86  1  0.60447000  0.77595000  0.81157000  1.0 -0.1512243586
C  C87  1  0.60447000  0.72405000  0.31157000  1.0 -0.1512243586
C  C88  1  0.39553000  0.22405000  0.18843000  1.0 -0.1512243586
C  C89  1  0.38818000  0.24813000  0.58988000  1.0 -0.0686881589
C  C90  1  0.61182000  0.74813000  0.91012000  1.0 -0.0686881589
C  C91  1  0.61182000  0.75187000  0.41012000  1.0 -0.0686881589
C  C92  1  0.38818000  0.25187000  0.08988000  1.0 -0.0686881589
C  C93  1  0.55295000  0.86034000  0.67055000  1.0 0.5879098562
C  C94  1  0.44705000  0.36034000  0.82945000  1.0 0.5879098562
C  C95  1  0.44705000  0.13966000  0.32945000  1.0 0.5879098562
C  C96  1  0.55295000  0.63966000  0.17055000  1.0 0.5879098562
C  C97  1  0.72725000  0.14278000  0.54385000  1.0 0.5488027421
C  C98  1  0.27275000  0.64278000  0.95615000  1.0 0.5488027421
C  C99  1  0.27275000  0.85722000  0.45615000  1.0 0.5488027421
C  C100  1  0.72725000  0.35722000  0.04385000  1.0 0.5488027421
C  C101  1  0.43879000  0.27460000  0.64549000  1.0 0.0198187751
C  C102  1  0.56121000  0.77460000  0.85451000  1.0 0.0198187751
C  C103  1  0.56121000  0.72540000  0.35451000  1.0 0.0198187751
C  C104  1  0.43879000  0.22540000  0.14549000  1.0 0.0198187751
C  C105  1  0.43115000  0.24298000  0.54105000  1.0 0.6076404241
C  C106  1  0.56885000  0.74298000  0.95895000  1.0 0.6076404241
C  C107  1  0.56885000  0.75702000  0.45895000  1.0 0.6076404241
C  C108  1  0.43115000  0.25702000  0.04105000  1.0 0.6076404241
C  C109  1  0.53128000  0.30512000  0.65778000  1.0 0.5576988844
C  C110  1  0.46872000  0.80512000  0.84222000  1.0 0.5576988844
C  C111  1  0.46872000  0.69488000  0.34222000  1.0 0.5576988844
C  C112  1  0.53128000  0.19488000  0.15778000  1.0 0.5576988844
C  C113  1  0.13539000  0.20854000  0.30049000  1.0 0.5826680152
C  C114  1  0.86461000  0.70854000  0.19951000  1.0 0.5826680152
C  C115  1  0.86461000  0.79146000  0.69951000  1.0 0.5826680152
C  C116  1  0.13539000  0.29146000  0.80049000  1.0 0.5826680152
C  C117  1  0.85974000  0.40393000  0.70874000  1.0 0.5687663344
C  C118  1  0.14026000  0.90393000  0.79126000  1.0 0.5687663344
C  C119  1  0.14026000  0.59607000  0.29126000  1.0 0.5687663344
C  C120  1  0.85974000  0.09607000  0.20874000  1.0 0.5687663344
C  C121  1  0.01843000  0.21479000  0.25173000  1.0 -0.0534988629
C  C122  1  0.98157000  0.71479000  0.24827000  1.0 -0.0534988629
C  C123  1  0.98157000  0.78521000  0.74827000  1.0 -0.0534988629
C  C124  1  0.01843000  0.28521000  0.75173000  1.0 -0.0534988629
C  C125  1  0.95803000  0.43355000  0.72953000  1.0 0.0198187751
C  C126  1  0.04197000  0.93355000  0.77047000  1.0 0.0198187751
C  C127  1  0.04197000  0.56645000  0.27047000  1.0 0.0198187751
C  C128  1  0.95803000  0.06645000  0.22953000  1.0 0.0198187751
C  C129  1  0.94032000  0.19465000  0.26422000  1.0 0.0198187751
C  C130  1  0.05968000  0.69465000  0.23578000  1.0 0.0198187751
C  C131  1  0.05968000  0.80535000  0.73578000  1.0 0.0198187751
C  C132  1  0.94032000  0.30535000  0.76422000  1.0 0.0198187751
C  C133  1  0.98388000  0.23826000  0.19328000  1.0 0.0198187751
C  C134  1  0.01612000  0.73826000  0.30672000  1.0 0.0147386019
C  C135  1  0.01612000  0.76174000  0.80672000  1.0 0.0147386019
C  C136  1  0.98388000  0.26174000  0.69328000  1.0 0.0198187751
C  C137  1  0.06091000  0.41489000  0.75931000  1.0 -0.1601542793
C  C138  1  0.93909000  0.91489000  0.74069000  1.0 -0.1601542793
C  C139  1  0.93909000  0.58511000  0.24069000  1.0 -0.1601542793
C  C140  1  0.06091000  0.08511000  0.25931000  1.0 -0.1601542793
C  C141  1  0.94972000  0.47763000  0.71612000  1.0 -0.075514116
C  C142  1  0.05028000  0.97763000  0.78388000  1.0 -0.075514116
C  C143  1  0.05028000  0.52237000  0.28388000  1.0 -0.075514116
C  C144  1  0.94972000  0.02237000  0.21612000  1.0 -0.075514116
C  C145  1  0.87367000  0.23978000  0.14927000  1.0 -0.1324076268
C  C146  1  0.12633000  0.73978000  0.35073000  1.0 -0.1324076268
C  C147  1  0.12633000  0.76022000  0.85073000  1.0 -0.1324076268
C  C148  1  0.87367000  0.26022000  0.64927000  1.0 -0.1324076268
C  C149  1  0.06527000  0.26495000  0.18197000  1.0 0.5429678646
C  C150  1  0.93473000  0.76495000  0.31803000  1.0 0.5429678646
C  C151  1  0.93473000  0.73505000  0.81803000  1.0 0.5429678646
C  C152  1  0.06527000  0.23505000  0.68197000  1.0 0.5429678646
C  C153  1  0.15067000  0.44024000  0.77427000  1.0 0.0912570081
C  C154  1  0.84933000  0.94024000  0.72573000  1.0 0.0912570081
C  C155  1  0.84933000  0.55976000  0.22573000  1.0 0.0912570081
C  C156  1  0.15067000  0.05976000  0.27427000  1.0 0.0912570081
C  C157  1  0.04354000  0.50109000  0.73094000  1.0 0.0568527871
C  C158  1  0.95646000  0.00109000  0.76906000  1.0 0.0568527871
C  C159  1  0.95646000  0.49891000  0.26906000  1.0 0.0568527871
C  C160  1  0.04354000  0.99891000  0.23094000  1.0 0.0568527871
C  C161  1  0.84387000  0.50190000  0.68727000  1.0 0.5879098562
C  C162  1  0.15613000  0.00190000  0.81273000  1.0 0.5879098562
C  C163  1  0.15613000  0.49810000  0.31273000  1.0 0.5879098562
C  C164  1  0.84387000  0.99810000  0.18727000  1.0 0.5879098562
C  C165  1  0.80206000  0.21759000  0.16456000  1.0 0.100065841
C  C166  1  0.19794000  0.71759000  0.33544000  1.0 0.100065841
C  C167  1  0.19794000  0.78241000  0.83544000  1.0 0.100065841
C  C168  1  0.80206000  0.28241000  0.66456000  1.0 0.100065841
N  N1  1  0.59448000  0.05854000  0.69691000  1.0 -0.2078278872
N  N2  1  0.40552000  0.55854000  0.80309000  1.0 -0.2078278872
N  N3  1  0.40552000  0.94146000  0.30309000  1.0 -0.2078278872
N  N4  1  0.59448000  0.44146000  0.19691000  1.0 -0.2078278872
N  N5  1  0.85664000  0.98325000  0.73945000  1.0 -0.2173581322
N  N6  1  0.14336000  0.48325000  0.76055000  1.0 -0.2173581322
N  N7  1  0.14336000  0.01675000  0.26055000  1.0 -0.2173581322
N  N8  1  0.85664000  0.51675000  0.23945000  1.0 -0.2173581322
N  N9  1  0.03073000  0.14372000  0.61657000  1.0 -0.2173581322
N  N10  1  0.96927000  0.64372000  0.88343000  1.0 -0.2173581322
N  N11  1  0.96927000  0.85628000  0.38343000  1.0 -0.2173581322
N  N12  1  0.03073000  0.35628000  0.11657000  1.0 -0.2173581322
N  N13  1  0.25560000  0.22567000  0.62223000  1.0 -0.2173581322
N  N14  1  0.74440000  0.72567000  0.87777000  1.0 -0.2173581322
N  N15  1  0.74440000  0.77433000  0.37777000  1.0 -0.2173581322
N  N16  1  0.25560000  0.27433000  0.12223000  1.0 -0.2173581322
N  N17  1  0.35694000  0.88150000  0.73641000  1.0 -0.2402725803
N  N18  1  0.64306000  0.38150000  0.76359000  1.0 -0.2402725803
N  N19  1  0.64306000  0.11850000  0.26359000  1.0 -0.2402725803
N  N20  1  0.35694000  0.61850000  0.23641000  1.0 -0.2402725803
N  N21  1  0.83387000  0.30490000  0.72105000  1.0 -0.2338192078
N  N22  1  0.16613000  0.80490000  0.77895000  1.0 -0.2338192078
N  N23  1  0.16613000  0.69510000  0.27895000  1.0 -0.2338192078
N  N24  1  0.83387000  0.19510000  0.22105000  1.0 -0.2338192078
O  O1  1  0.32716000  0.05088000  0.75911000  1.0 -0.6214340019
O  O2  1  0.67284000  0.55088000  0.74089000  1.0 -0.6214340019
O  O3  1  0.67284000  0.94912000  0.24089000  1.0 -0.6214340019
O  O4  1  0.32716000  0.44912000  0.25911000  1.0 -0.6214340019
O  O5  1  0.47826000  0.07952000  0.83641000  1.0 -0.6498563575
O  O6  1  0.52174000  0.57952000  0.66359000  1.0 -0.6498563575
O  O7  1  0.52174000  0.92048000  0.16359000  1.0 -0.6498563575
O  O8  1  0.47826000  0.42048000  0.33641000  1.0 -0.6498563575
O  O9  1  0.24095000  0.98304000  0.82164000  1.0 -0.6113414677
O  O10  1  0.75905000  0.48304000  0.67836000  1.0 -0.6113414677
O  O11  1  0.75905000  0.01696000  0.17836000  1.0 -0.6113414677
O  O12  1  0.24095000  0.51696000  0.32164000  1.0 -0.6113414677
O  O13  1  0.15498000  0.04210000  0.82649000  1.0 -0.6784331712
O  O14  1  0.84502000  0.54210000  0.67351000  1.0 -0.6784331712
O  O15  1  0.84502000  0.95790000  0.17351000  1.0 -0.6784331712
O  O16  1  0.15498000  0.45790000  0.32649000  1.0 -0.6784331712
O  O17  1  0.31554000  0.14607000  0.71590000  1.0 -0.5313780072
O  O18  1  0.68446000  0.64607000  0.78410000  1.0 -0.5313780072
O  O19  1  0.68446000  0.85393000  0.28410000  1.0 -0.5313780072
O  O20  1  0.31554000  0.35393000  0.21590000  1.0 -0.5313780072
O  O21  1  0.23182000  0.13610000  0.60726000  1.0 -0.5494443389
O  O22  1  0.76818000  0.63610000  0.89274000  1.0 -0.5494443389
O  O23  1  0.76818000  0.86390000  0.39274000  1.0 -0.5494443389
O  O24  1  0.23182000  0.36390000  0.10726000  1.0 -0.5494443389
O  O25  1  0.65059000  0.97167000  0.73194000  1.0 -0.5697770479
O  O26  1  0.34941000  0.47167000  0.76806000  1.0 -0.5697770479
O  O27  1  0.34941000  0.02833000  0.26806000  1.0 -0.5697770479
O  O28  1  0.65059000  0.52833000  0.23194000  1.0 -0.5697770479
O  O29  1  0.80199000  0.07107000  0.70042000  1.0 -0.5494443389
O  O30  1  0.19801000  0.57107000  0.79958000  1.0 -0.5494443389
O  O31  1  0.19801000  0.92893000  0.29958000  1.0 -0.5494443389
O  O32  1  0.80199000  0.42893000  0.20042000  1.0 -0.5494443389
O  O33  1  0.05057000  0.23335000  0.62303000  1.0 -0.5569056782
O  O34  1  0.94943000  0.73335000  0.87697000  1.0 -0.5569056782
O  O35  1  0.94943000  0.76665000  0.37697000  1.0 -0.5569056782
O  O36  1  0.05057000  0.26665000  0.12303000  1.0 -0.5569056782
O  O37  1  0.52683000  0.97194000  0.62612000  1.0 -0.4896870206
O  O38  1  0.47317000  0.47194000  0.87388000  1.0 -0.4896870206
O  O39  1  0.47317000  0.02806000  0.37388000  1.0 -0.4896870206
O  O40  1  0.52683000  0.52806000  0.12612000  1.0 -0.4896870206
O  O41  1  0.73008000  0.04548000  0.59812000  1.0 -0.511404297
O  O42  1  0.26992000  0.54548000  0.90188000  1.0 -0.511404297
O  O43  1  0.26992000  0.95452000  0.40188000  1.0 -0.511404297
O  O44  1  0.73008000  0.45452000  0.09812000  1.0 -0.511404297
O  O45  1  0.61619000  0.87989000  0.65444000  1.0 -0.6214340019
O  O46  1  0.38381000  0.37989000  0.84556000  1.0 -0.6214340019
O  O47  1  0.38381000  0.12011000  0.34556000  1.0 -0.6214340019
O  O48  1  0.61619000  0.62011000  0.15444000  1.0 -0.6214340019
O  O49  1  0.54389000  0.81909000  0.66738000  1.0 -0.6498563575
O  O50  1  0.45611000  0.31909000  0.83262000  1.0 -0.6498563575
O  O51  1  0.45611000  0.18091000  0.33262000  1.0 -0.6498563575
O  O52  1  0.54389000  0.68091000  0.16738000  1.0 -0.6498563575
O  O53  1  0.69894000  0.15328000  0.48524000  1.0 -0.5697770479
O  O54  1  0.30106000  0.65328000  0.01476000  1.0 -0.5697770479
O  O55  1  0.30106000  0.84672000  0.51476000  1.0 -0.5697770479
O  O56  1  0.69894000  0.34672000  0.98524000  1.0 -0.5697770479
O  O57  1  0.66834000  0.14359000  0.57123000  1.0 -0.5383180889
O  O58  1  0.33166000  0.64359000  0.92877000  1.0 -0.5383180889
O  O59  1  0.33166000  0.85641000  0.42877000  1.0 -0.5383180889
O  O60  1  0.66834000  0.35641000  0.07123000  1.0 -0.5383180889
O  O61  1  0.52937000  0.25030000  0.56047000  1.0 -0.4896870206
O  O62  1  0.47063000  0.75030000  0.93953000  1.0 -0.4896870206
O  O63  1  0.47063000  0.74970000  0.43953000  1.0 -0.4896870206
O  O64  1  0.52937000  0.24970000  0.06047000  1.0 -0.4896870206
O  O65  1  0.36407000  0.23061000  0.48451000  1.0 -0.6928403291
O  O66  1  0.63593000  0.73061000  0.01549000  1.0 -0.6928403291
O  O67  1  0.63593000  0.76939000  0.51549000  1.0 -0.6928403291
O  O68  1  0.36407000  0.26939000  0.98451000  1.0 -0.6928403291
O  O69  1  0.62269000  0.29697000  0.70674000  1.0 -0.5697770479
O  O70  1  0.37731000  0.79697000  0.79326000  1.0 -0.5697770479
O  O71  1  0.37731000  0.70303000  0.29326000  1.0 -0.5697770479
O  O72  1  0.62269000  0.20303000  0.20674000  1.0 -0.5697770479
O  O73  1  0.50958000  0.33748000  0.62098000  1.0 -0.5198592457
O  O74  1  0.49042000  0.83748000  0.87902000  1.0 -0.5198592457
O  O75  1  0.49042000  0.66252000  0.37902000  1.0 -0.5198592457
O  O76  1  0.50958000  0.16252000  0.12098000  1.0 -0.5198592457
O  O77  1  0.16725000  0.21834000  0.35961000  1.0 -0.6363588633
O  O78  1  0.83275000  0.71834000  0.14039000  1.0 -0.6363588633
O  O79  1  0.83275000  0.78166000  0.64039000  1.0 -0.6363588633
O  O80  1  0.16725000  0.28166000  0.85961000  1.0 -0.6363588633
O  O81  1  0.19787000  0.19140000  0.28103000  1.0 -0.6363588633
O  O82  1  0.80213000  0.69140000  0.21897000  1.0 -0.6363588633
O  O83  1  0.80213000  0.80860000  0.71897000  1.0 -0.6363588633
O  O84  1  0.19787000  0.30860000  0.78103000  1.0 -0.6363588633
O  O85  1  0.83748000  0.39204000  0.75396000  1.0 -0.5697770479
O  O86  1  0.16252000  0.89204000  0.74604000  1.0 -0.5697770479
O  O87  1  0.16252000  0.60796000  0.24604000  1.0 -0.5697770479
O  O88  1  0.83748000  0.10796000  0.25396000  1.0 -0.5697770479
O  O89  1  0.82883000  0.32876000  0.84973000  1.0 0.168112961
O  O90  1  0.17117000  0.82876000  0.65027000  1.0 0.168112961
O  O91  1  0.17117000  0.67124000  0.15027000  1.0 0.168112961
O  O92  1  0.82883000  0.17124000  0.34973000  1.0 0.168112961
O  O93  1  0.81222000  0.39093000  0.65080000  1.0 -0.511404297
O  O94  1  0.18778000  0.89093000  0.84920000  1.0 -0.511404297
O  O95  1  0.18778000  0.60907000  0.34920000  1.0 -0.511404297
O  O96  1  0.81222000  0.10907000  0.15080000  1.0 -0.511404297
O  O97  1  0.13835000  0.28405000  0.22969000  1.0 -0.5313780072
O  O98  1  0.86165000  0.78405000  0.27031000  1.0 -0.5313780072
O  O99  1  0.86165000  0.71595000  0.77031000  1.0 -0.5313780072
O  O100  1  0.13835000  0.21595000  0.72969000  1.0 -0.5313780072
O  O101  1  0.79670000  0.30420000  0.83520000  1.0 0.2115347622
O  O102  1  0.20330000  0.80420000  0.66480000  1.0 0.2115347622
O  O103  1  0.20330000  0.69580000  0.16480000  1.0 0.2115347622
O  O104  1  0.79670000  0.19580000  0.33520000  1.0 0.2115347622
