# DDEC6 charges by PACMAN v1.1 (https://github.com/mtap-research/PACMAN-charge/)
data_QOVYUY_ASR_pacman
_symmetry_space_group_name_H-M   'P 1'
_cell_length_a   12.80390000
_cell_length_b   12.79100000
_cell_length_c   22.64320000
_cell_angle_alpha   90.00000000
_cell_angle_beta   108.33100000
_cell_angle_gamma   90.00000000
_symmetry_Int_Tables_number   1
_chemical_formula_structural   MnH4C10(SO)4
_chemical_formula_sum   'Mn8 H32 C80 S32 O32'
_cell_volume   3520.20273031
_cell_formula_units_Z   8
loop_
 _symmetry_equiv_pos_site_id
 _symmetry_equiv_pos_as_xyz
  1  'x, y, z'
loop_
 _atom_site_type_symbol
 _atom_site_label
 _atom_site_symmetry_multiplicity
 _atom_site_fract_x
 _atom_site_fract_y
 _atom_site_fract_z
 _atom_site_occupancy
 _atom_site_charge
Mn  Mn1  1  0.35599000  0.38759000  0.19755000  1.0 1.0090118462
Mn  Mn2  1  0.27592000  0.38701000  0.05211000  1.0 1.0090118462
Mn  Mn3  1  0.64401000  0.88759000  0.30245000  1.0 1.0090118462
Mn  Mn4  1  0.72408000  0.88701000  0.44789000  1.0 1.0090118462
Mn  Mn5  1  0.64401000  0.61241000  0.80245000  1.0 1.0090118462
Mn  Mn6  1  0.72408000  0.61299000  0.94789000  1.0 1.0090118462
Mn  Mn7  1  0.35599000  0.11241000  0.69755000  1.0 1.0090118462
Mn  Mn8  1  0.27592000  0.11299000  0.55211000  1.0 1.0090118462
H  H1  1  0.88715000  0.39306000  0.02289000  1.0 0.1089104695
H  H2  1  0.74049000  0.38504000  0.21511000  1.0 0.1089104695
H  H3  1  0.37420000  0.01313000  0.22770000  1.0 0.1089104695
H  H4  1  0.26505000  0.75867000  0.03491000  1.0 0.1089104695
H  H5  1  0.00473000  0.39089000  0.21051000  1.0 0.1043470168
H  H6  1  0.62930000  0.39529000  0.02787000  1.0 0.1089104695
H  H7  1  0.26206000  0.02808000  0.03988000  1.0 0.1043470168
H  H8  1  0.38124000  0.75180000  0.22232000  1.0 0.117469039
H  H9  1  0.11285000  0.89306000  0.47711000  1.0 0.1089104695
H  H10  1  0.25951000  0.88504000  0.28489000  1.0 0.1089104695
H  H11  1  0.62580000  0.51313000  0.27230000  1.0 0.1089104695
H  H12  1  0.73495000  0.25867000  0.46509000  1.0 0.1089104695
H  H13  1  0.99527000  0.89089000  0.28949000  1.0 0.1043470168
H  H14  1  0.37070000  0.89529000  0.47213000  1.0 0.1089104695
H  H15  1  0.73794000  0.52808000  0.46012000  1.0 0.1089104695
H  H16  1  0.61876000  0.25180000  0.27768000  1.0 0.117469039
H  H17  1  0.11285000  0.60694000  0.97711000  1.0 0.1089104695
H  H18  1  0.25951000  0.61496000  0.78489000  1.0 0.1089104695
H  H19  1  0.62580000  0.98687000  0.77230000  1.0 0.1089104695
H  H20  1  0.73495000  0.24133000  0.96509000  1.0 0.1089104695
H  H21  1  0.99527000  0.60911000  0.78949000  1.0 0.1089104695
H  H22  1  0.37070000  0.60471000  0.97213000  1.0 0.1089104695
H  H23  1  0.73794000  0.97192000  0.96012000  1.0 0.1089104695
H  H24  1  0.61876000  0.24820000  0.77768000  1.0 0.117469039
H  H25  1  0.88715000  0.10694000  0.52289000  1.0 0.1089104695
H  H26  1  0.74049000  0.11496000  0.71511000  1.0 0.1089104695
H  H27  1  0.37420000  0.48687000  0.72770000  1.0 0.1089104695
H  H28  1  0.26505000  0.74133000  0.53491000  1.0 0.1089104695
H  H29  1  0.00473000  0.10911000  0.71051000  1.0 0.1043470168
H  H30  1  0.62930000  0.10471000  0.52787000  1.0 0.1089104695
H  H31  1  0.26206000  0.47192000  0.53988000  1.0 0.1089104695
H  H32  1  0.38124000  0.74820000  0.72232000  1.0 0.117469039
C  C1  1  0.10478000  0.38970000  0.11298000  1.0 0.5450420195
C  C2  1  0.98996000  0.39070000  0.11536000  1.0 -0.0245141366
C  C3  1  0.89100000  0.39170000  0.06550000  1.0 -0.1332534512
C  C4  1  0.73710000  0.38690000  0.17260000  1.0 -0.1406027486
C  C5  1  0.83409000  0.38860000  0.15119000  1.0 0.0018862013
C  C6  1  0.79556000  0.39050000  0.08686000  1.0 -0.0019490918
C  C7  1  0.63856000  0.38850000  0.12246000  1.0 -0.0271460731
C  C8  1  0.52335000  0.38750000  0.12375000  1.0 0.5171306843
C  C9  1  0.32139000  0.18260000  0.13809000  1.0 0.5404137785
C  C10  1  0.32027000  0.06680000  0.13537000  1.0 -0.0271460731
C  C11  1  0.35010000  0.99410000  0.18500000  1.0 -0.1203468655
C  C12  1  0.29000000  0.77940000  0.07730000  1.0 -0.1507784611
C  C13  1  0.33940000  0.88850000  0.16310000  1.0 -0.0019490918
C  C14  1  0.30115000  0.88890000  0.09875000  1.0 0.0132195728
C  C15  1  0.32059000  0.71120000  0.12679000  1.0 -0.0245141366
C  C16  1  0.32012000  0.59500000  0.12522000  1.0 0.5171306843
C  C17  1  0.95630000  0.39020000  0.16900000  1.0 -0.0612905992
C  C18  1  0.67660000  0.39220000  0.06960000  1.0 -0.1203468655
C  C19  1  0.28810000  0.00260000  0.08130000  1.0 -0.0688880345
C  C20  1  0.35380000  0.77670000  0.18080000  1.0 -0.1131756416
C  C21  1  0.89522000  0.88970000  0.38702000  1.0 0.5450420195
C  C22  1  0.01004000  0.89070000  0.38464000  1.0 -0.0271460731
C  C23  1  0.10900000  0.89170000  0.43450000  1.0 -0.1332534512
C  C24  1  0.26290000  0.88690000  0.32740000  1.0 -0.1406027486
C  C25  1  0.16591000  0.88860000  0.34881000  1.0 0.0018862013
C  C26  1  0.20444000  0.89050000  0.41314000  1.0 -0.0019490918
C  C27  1  0.36144000  0.88850000  0.37754000  1.0 -0.0271460731
C  C28  1  0.47665000  0.88750000  0.37625000  1.0 0.5171306843
C  C29  1  0.67861000  0.68260000  0.36191000  1.0 0.5404137785
C  C30  1  0.67973000  0.56680000  0.36463000  1.0 -0.0271460731
C  C31  1  0.64990000  0.49410000  0.31500000  1.0 -0.1203468655
C  C32  1  0.71000000  0.27940000  0.42270000  1.0 -0.1507784611
C  C33  1  0.66060000  0.38850000  0.33690000  1.0 -0.0019490918
C  C34  1  0.69885000  0.38890000  0.40125000  1.0 0.0132195728
C  C35  1  0.67941000  0.21120000  0.37321000  1.0 -0.0245141366
C  C36  1  0.67988000  0.09500000  0.37478000  1.0 0.5171306843
C  C37  1  0.04370000  0.89020000  0.33100000  1.0 -0.0612905992
C  C38  1  0.32340000  0.89220000  0.43040000  1.0 -0.1203468655
C  C39  1  0.71190000  0.50260000  0.41870000  1.0 -0.0688880345
C  C40  1  0.64620000  0.27670000  0.31920000  1.0 -0.1131756416
C  C41  1  0.89522000  0.61030000  0.88702000  1.0 0.5450420195
C  C42  1  0.01004000  0.60930000  0.88464000  1.0 -0.0271460731
C  C43  1  0.10900000  0.60830000  0.93450000  1.0 -0.1332534512
C  C44  1  0.26290000  0.61310000  0.82740000  1.0 -0.1406027486
C  C45  1  0.16591000  0.61140000  0.84881000  1.0 0.0018862013
C  C46  1  0.20444000  0.60950000  0.91314000  1.0 -0.0019490918
C  C47  1  0.36144000  0.61150000  0.87754000  1.0 -0.0271460731
C  C48  1  0.47665000  0.61250000  0.87625000  1.0 0.5171306843
C  C49  1  0.67861000  0.81740000  0.86191000  1.0 0.5404137785
C  C50  1  0.67973000  0.93320000  0.86463000  1.0 -0.0271460731
C  C51  1  0.64990000  0.00590000  0.81500000  1.0 -0.1203468655
C  C52  1  0.71000000  0.22060000  0.92270000  1.0 -0.1507784611
C  C53  1  0.66060000  0.11150000  0.83690000  1.0 -0.0019490918
C  C54  1  0.69885000  0.11110000  0.90125000  1.0 0.0132195728
C  C55  1  0.67941000  0.28880000  0.87321000  1.0 -0.0245141366
C  C56  1  0.67988000  0.40500000  0.87478000  1.0 0.5171306843
C  C57  1  0.04370000  0.60980000  0.83100000  1.0 -0.0612905992
C  C58  1  0.32340000  0.60780000  0.93040000  1.0 -0.1203468655
C  C59  1  0.71190000  0.99740000  0.91870000  1.0 -0.0688880345
C  C60  1  0.64620000  0.22330000  0.81920000  1.0 -0.1131756416
C  C61  1  0.10478000  0.11030000  0.61298000  1.0 0.5450420195
C  C62  1  0.98996000  0.10930000  0.61536000  1.0 -0.0245141366
C  C63  1  0.89100000  0.10830000  0.56550000  1.0 -0.1332534512
C  C64  1  0.73710000  0.11310000  0.67260000  1.0 -0.1406027486
C  C65  1  0.83409000  0.11140000  0.65119000  1.0 0.0018862013
C  C66  1  0.79556000  0.10950000  0.58686000  1.0 -0.0019490918
C  C67  1  0.63856000  0.11150000  0.62246000  1.0 -0.0271460731
C  C68  1  0.52335000  0.11250000  0.62375000  1.0 0.5171306843
C  C69  1  0.32139000  0.31740000  0.63809000  1.0 0.5404137785
C  C70  1  0.32027000  0.43320000  0.63537000  1.0 -0.0271460731
C  C71  1  0.35010000  0.50590000  0.68500000  1.0 -0.1203468655
C  C72  1  0.29000000  0.72060000  0.57730000  1.0 -0.1507784611
C  C73  1  0.33940000  0.61150000  0.66310000  1.0 -0.0019490918
C  C74  1  0.30115000  0.61110000  0.59875000  1.0 0.0132195728
C  C75  1  0.32059000  0.78880000  0.62679000  1.0 -0.0245141366
C  C76  1  0.32012000  0.90500000  0.62522000  1.0 0.5171306843
C  C77  1  0.95630000  0.10980000  0.66900000  1.0 -0.0612905992
C  C78  1  0.67660000  0.10780000  0.56960000  1.0 -0.1203468655
C  C79  1  0.28810000  0.49740000  0.58130000  1.0 -0.0688880345
C  C80  1  0.35380000  0.72330000  0.68080000  1.0 -0.1131756416
S  S1  1  0.96891000  0.38830000  0.18571000  1.0 0.047261324
S  S2  1  0.65792000  0.38850000  0.05202000  1.0 0.0673508931
S  S3  1  0.27756000  0.00660000  0.06396000  1.0 0.043517044
S  S4  1  0.36314000  0.76990000  0.19744000  1.0 0.0628820269
S  S5  1  0.88750000  0.39520000  0.04840000  1.0 0.0673508931
S  S6  1  0.74385000  0.38680000  0.19005000  1.0 0.047261324
S  S7  1  0.36080000  0.00190000  0.20220000  1.0 0.0673508931
S  S8  1  0.28220000  0.77950000  0.06020000  1.0 0.043517044
S  S9  1  0.03109000  0.88830000  0.31429000  1.0 0.047261324
S  S10  1  0.34208000  0.88850000  0.44798000  1.0 0.0673508931
S  S11  1  0.72244000  0.50660000  0.43604000  1.0 0.043517044
S  S12  1  0.63686000  0.26990000  0.30256000  1.0 0.0628820269
S  S13  1  0.11250000  0.89520000  0.45160000  1.0 0.0673508931
S  S14  1  0.25615000  0.88680000  0.30995000  1.0 0.047261324
S  S15  1  0.63920000  0.50190000  0.29780000  1.0 0.0673508931
S  S16  1  0.71780000  0.27950000  0.43980000  1.0 0.043517044
S  S17  1  0.03109000  0.61170000  0.81429000  1.0 0.047261324
S  S18  1  0.34208000  0.61150000  0.94798000  1.0 0.0673508931
S  S19  1  0.72244000  0.99340000  0.93604000  1.0 0.043517044
S  S20  1  0.63686000  0.23010000  0.80256000  1.0 0.0628820269
S  S21  1  0.11250000  0.60480000  0.95160000  1.0 0.0673508931
S  S22  1  0.25615000  0.61320000  0.80995000  1.0 0.047261324
S  S23  1  0.63920000  0.99810000  0.79780000  1.0 0.0673508931
S  S24  1  0.71780000  0.22050000  0.93980000  1.0 0.043517044
S  S25  1  0.96891000  0.11170000  0.68571000  1.0 0.047261324
S  S26  1  0.65792000  0.11150000  0.55202000  1.0 0.0673508931
S  S27  1  0.27756000  0.49340000  0.56396000  1.0 0.043517044
S  S28  1  0.36314000  0.73010000  0.69744000  1.0 0.0628820269
S  S29  1  0.88750000  0.10480000  0.54840000  1.0 0.0673508931
S  S30  1  0.74385000  0.11320000  0.69005000  1.0 0.047261324
S  S31  1  0.36080000  0.49810000  0.70220000  1.0 0.0673508931
S  S32  1  0.28220000  0.72050000  0.56020000  1.0 0.043517044
O  O1  1  0.18119000  0.38990000  0.16418000  1.0 -0.5561170422
O  O2  1  0.11651000  0.38980000  0.05943000  1.0 -0.5502485955
O  O3  1  0.44930000  0.38942000  0.07178000  1.0 -0.5502485955
O  O4  1  0.50830000  0.38370000  0.17622000  1.0 -0.5784271171
O  O5  1  0.35158000  0.22323000  0.19163000  1.0 -0.5502485955
O  O6  1  0.29238000  0.23092000  0.08713000  1.0 -0.5561170422
O  O7  1  0.28955000  0.55125000  0.07259000  1.0 -0.5784271171
O  O8  1  0.35110000  0.54950000  0.17726000  1.0 -0.5390327161
O  O9  1  0.81881000  0.88990000  0.33582000  1.0 -0.5561170422
O  O10  1  0.88349000  0.88980000  0.44057000  1.0 -0.5502485955
O  O11  1  0.55070000  0.88942000  0.42822000  1.0 -0.5502485955
O  O12  1  0.49170000  0.88370000  0.32378000  1.0 -0.5784271171
O  O13  1  0.64842000  0.72323000  0.30837000  1.0 -0.5502485955
O  O14  1  0.70762000  0.73092000  0.41287000  1.0 -0.5561170422
O  O15  1  0.71045000  0.05125000  0.42741000  1.0 -0.5784271171
O  O16  1  0.64890000  0.04950000  0.32274000  1.0 -0.5390327161
O  O17  1  0.81881000  0.61010000  0.83582000  1.0 -0.5561170422
O  O18  1  0.88349000  0.61020000  0.94057000  1.0 -0.5502485955
O  O19  1  0.55070000  0.61058000  0.92822000  1.0 -0.5502485955
O  O20  1  0.49170000  0.61630000  0.82378000  1.0 -0.5784271171
O  O21  1  0.64842000  0.77677000  0.80837000  1.0 -0.5502485955
O  O22  1  0.70762000  0.76908000  0.91287000  1.0 -0.5502485955
O  O23  1  0.71045000  0.44875000  0.92741000  1.0 -0.5784271171
O  O24  1  0.64890000  0.45050000  0.82274000  1.0 -0.5390327161
O  O25  1  0.18119000  0.11010000  0.66418000  1.0 -0.5561170422
O  O26  1  0.11651000  0.11020000  0.55943000  1.0 -0.5502485955
O  O27  1  0.44930000  0.11058000  0.57178000  1.0 -0.5502485955
O  O28  1  0.50830000  0.11630000  0.67622000  1.0 -0.5784271171
O  O29  1  0.35158000  0.27677000  0.69163000  1.0 -0.5502485955
O  O30  1  0.29238000  0.26908000  0.58713000  1.0 -0.5561170422
O  O31  1  0.28955000  0.94875000  0.57259000  1.0 -0.5784271171
O  O32  1  0.35110000  0.95050000  0.67726000  1.0 -0.5390327161
