# DDEC6 charges by PACMAN v1.1 (https://github.com/mtap-research/PACMAN-charge/)
data_QOWLEU_ASR_pacman
_symmetry_space_group_name_H-M   'P 1'
_cell_length_a   6.79230000
_cell_length_b   15.10030000
_cell_length_c   15.10030000
_cell_angle_alpha   62.20700000
_cell_angle_beta   81.37680000
_cell_angle_gamma   98.62320000
_symmetry_Int_Tables_number   1
_chemical_formula_structural   CoHC4NO4
_chemical_formula_sum   'Co6 H6 C24 N6 O24'
_cell_volume   1311.12496236
_cell_formula_units_Z   6
loop_
 _symmetry_equiv_pos_site_id
 _symmetry_equiv_pos_as_xyz
  1  'x, y, z'
loop_
 _atom_site_type_symbol
 _atom_site_label
 _atom_site_symmetry_multiplicity
 _atom_site_fract_x
 _atom_site_fract_y
 _atom_site_fract_z
 _atom_site_occupancy
 _atom_site_charge
Co  Co1  1  0.29880000  0.26750000  0.31590000  1.0 0.9600869742
Co  Co2  1  0.61470000  0.31590000  0.41660000  1.0 0.9600869742
Co  Co3  1  0.03130000  0.41660000  0.26750000  1.0 0.9600869742
Co  Co4  1  0.70120000  0.73250000  0.68410000  1.0 0.9354402549
Co  Co5  1  0.38530000  0.68410000  0.58340000  1.0 0.9335681326
Co  Co6  1  0.96870000  0.58340000  0.73250000  1.0 0.9521401651
H  H1  1  0.32784000  0.46742000  0.55308000  1.0 0.1308149244
H  H2  1  0.88092000  0.55308000  0.97950000  1.0 0.1385777173
H  H3  1  0.86042000  0.97950000  0.46742000  1.0 0.1308149244
H  H4  1  0.67216000  0.53258000  0.44692000  1.0 0.1308149244
H  H5  1  0.11018000  0.82536000  0.54132000  1.0 0.0707122214
H  H6  1  0.13958000  0.02050000  0.53258000  1.0 0.1308149244
C  C1  1  0.23990000  0.38720000  0.43740000  1.0 0.6302140879
C  C2  1  0.11350000  0.44700000  0.46570000  1.0 -0.1212577917
C  C3  1  0.92880000  0.46700000  0.43380000  1.0 0.2997171946
C  C4  1  0.17900000  0.48130000  0.52910000  1.0 -0.1492667221
C  C5  1  0.67730000  0.43740000  0.17540000  1.0 0.6302140879
C  C6  1  0.57920000  0.46570000  0.08730000  1.0 -0.1144821517
C  C7  1  0.36260000  0.43380000  0.09920000  1.0 0.2797051795
C  C8  1  0.70810000  0.52910000  0.98960000  1.0 -0.1492667221
C  C9  1  0.85270000  0.17540000  0.38720000  1.0 0.6302140879
C  C10  1  0.66650000  0.08730000  0.44700000  1.0 -0.1299158282
C  C11  1  0.46180000  0.09920000  0.46700000  1.0 0.2997171946
C  C12  1  0.69770000  0.98960000  0.48130000  1.0 -0.1492667221
C  C13  1  0.76010000  0.61280000  0.56260000  1.0 0.6229796536
C  C14  1  0.88650000  0.55300000  0.53430000  1.0 -0.1212577917
C  C15  1  0.07120000  0.53300000  0.56620000  1.0 0.2997171946
C  C16  1  0.82100000  0.51870000  0.47090000  1.0 -0.1492667221
C  C17  1  0.32270000  0.56260000  0.82460000  1.0 0.6381539233
C  C18  1  0.42080000  0.53430000  0.91270000  1.0 -0.1299158282
C  C19  1  0.63740000  0.56620000  0.90080000  1.0 0.2997171946
C  C20  1  0.29190000  0.47090000  0.01040000  1.0 -0.0444623962
C  C21  1  0.14730000  0.82460000  0.61280000  1.0 0.4405118651
C  C22  1  0.33350000  0.91270000  0.55300000  1.0 -0.0836206623
C  C23  1  0.53820000  0.90080000  0.53300000  1.0 0.2997171946
C  C24  1  0.30230000  0.01040000  0.51870000  1.0 -0.1658861809
N  N1  1  0.38100000  0.17670000  0.24370000  1.0 -0.3124322765
N  N2  1  0.62470000  0.24370000  0.57960000  1.0 -0.2992583386
N  N3  1  0.20430000  0.57960000  0.17670000  1.0 -0.2992583386
N  N4  1  0.61900000  0.82330000  0.75630000  1.0 -0.2605111175
N  N5  1  0.37530000  0.75630000  0.42040000  1.0 -0.2352355592
N  N6  1  0.79570000  0.42040000  0.82330000  1.0 -0.2922885292
O  O1  1  0.17300000  0.34800000  0.38500000  1.0 -0.5688550346
O  O2  1  0.37540000  0.35850000  0.47830000  1.0 -0.415146666
O  O3  1  0.86240000  0.45260000  0.35940000  1.0 -0.5892115824
O  O4  1  0.46260000  0.18980000  0.14400000  1.0 0.1643048353
O  O5  1  0.55800000  0.38500000  0.26700000  1.0 -0.5688550346
O  O6  1  0.85370000  0.47830000  0.16320000  1.0 -0.4104076199
O  O7  1  0.22180000  0.35940000  0.18800000  1.0 -0.5996828549
O  O8  1  0.60660000  0.14400000  0.66620000  1.0 0.1385777173
O  O9  1  0.82500000  0.26700000  0.34800000  1.0 -0.5624613635
O  O10  1  0.01690000  0.16320000  0.35850000  1.0 -0.4104076199
O  O11  1  0.40980000  0.18800000  0.45260000  1.0 -0.5892115824
O  O12  1  0.27280000  0.66620000  0.18980000  1.0 0.1385777173
O  O13  1  0.82700000  0.65200000  0.61500000  1.0 -0.5688550346
O  O14  1  0.62460000  0.64150000  0.52170000  1.0 -0.4104076199
O  O15  1  0.13760000  0.54740000  0.64060000  1.0 -0.5892115824
O  O16  1  0.53740000  0.81020000  0.85600000  1.0 0.1051278762
O  O17  1  0.44200000  0.61500000  0.73300000  1.0 -0.5624613635
O  O18  1  0.14630000  0.52170000  0.83680000  1.0 -0.4104076199
O  O19  1  0.77820000  0.64060000  0.81200000  1.0 -0.5892115824
O  O20  1  0.39340000  0.85600000  0.33380000  1.0 0.0601225957
O  O21  1  0.17500000  0.73300000  0.65200000  1.0 -0.5362477772
O  O22  1  0.98310000  0.83680000  0.64150000  1.0 -0.3850832157
O  O23  1  0.59020000  0.81200000  0.54740000  1.0 -0.5892115824
O  O24  1  0.72720000  0.33380000  0.81020000  1.0 0.150937704
