# DDEC6 charges by PACMAN v1.1 (https://github.com/mtap-research/PACMAN-charge/)
data_QOXFIU_ASR_pacman
_symmetry_space_group_name_H-M   'P 1'
_cell_length_a   18.86900000
_cell_length_b   18.86900000
_cell_length_c   28.27800000
_cell_angle_alpha   59.03170000
_cell_angle_beta   120.96800000
_cell_angle_gamma   129.08600000
_symmetry_Int_Tables_number   1
_chemical_formula_structural   K4U4C20I2N4O31
_chemical_formula_sum   'K16 U16 C80 I8 N16 O124'
_cell_volume   6421.60302114
_cell_formula_units_Z   4
loop_
 _symmetry_equiv_pos_site_id
 _symmetry_equiv_pos_as_xyz
  1  'x, y, z'
loop_
 _atom_site_type_symbol
 _atom_site_label
 _atom_site_symmetry_multiplicity
 _atom_site_fract_x
 _atom_site_fract_y
 _atom_site_fract_z
 _atom_site_occupancy
 _atom_site_charge
K  K1  1  0.51558000  0.83258000  0.06281000  1.0 0.8994040997
K  K2  1  0.83258000  0.51558000  0.43719000  1.0 0.8994040997
K  K3  1  0.48442000  0.16742000  0.93719000  1.0 0.8994040997
K  K4  1  0.16742000  0.48442000  0.56281000  1.0 0.8994040997
K  K5  1  0.72847000  0.69673000  0.36907000  1.0 0.8804387213
K  K6  1  0.69673000  0.72847000  0.13093000  1.0 0.8804387213
K  K7  1  0.27153000  0.30327000  0.63093000  1.0 0.8804387213
K  K8  1  0.30327000  0.27153000  0.86907000  1.0 0.8804387213
K  K9  1  0.50664000  0.90036000  0.26843000  1.0 0.9212584855
K  K10  1  0.90036000  0.50664000  0.23157000  1.0 0.9212584855
K  K11  1  0.49336000  0.09964000  0.73157000  1.0 0.9212584855
K  K12  1  0.09964000  0.49336000  0.76843000  1.0 0.9212584855
K  K13  1  0.47997000  0.44343000  0.40540000  1.0 0.8994040997
K  K14  1  0.44343000  0.47997000  0.09460000  1.0 0.8994040997
K  K15  1  0.52003000  0.55657000  0.59460000  1.0 0.8994040997
K  K16  1  0.55657000  0.52003000  0.90540000  1.0 0.8994040997
U  U1  1  0.67192000  0.78440000  0.43871000  1.0 2.2807719371
U  U2  1  0.78440000  0.67192000  0.06129000  1.0 2.2807719371
U  U3  1  0.32808000  0.21560000  0.56129000  1.0 2.2807719371
U  U4  1  0.21560000  0.32808000  0.93871000  1.0 2.2807719371
U  U5  1  0.34585000  0.89449000  0.08766000  1.0 2.2958958806
U  U6  1  0.89449000  0.34585000  0.41234000  1.0 2.2958958806
U  U7  1  0.65415000  0.10551000  0.91234000  1.0 2.2958958806
U  U8  1  0.10551000  0.65415000  0.58766000  1.0 2.2958958806
U  U9  1  0.64735000  0.06467000  0.13775000  1.0 2.2807719371
U  U10  1  0.06467000  0.64735000  0.36225000  1.0 2.2807719371
U  U11  1  0.35265000  0.93533000  0.86225000  1.0 2.2807719371
U  U12  1  0.93533000  0.35265000  0.63775000  1.0 2.2807719371
U  U13  1  0.37636000  0.61592000  0.38885000  1.0 2.2807719371
U  U14  1  0.61592000  0.37636000  0.11115000  1.0 2.2807719371
U  U15  1  0.62364000  0.38408000  0.61115000  1.0 2.2807719371
U  U16  1  0.38408000  0.62364000  0.88885000  1.0 2.2807719371
C  C1  1  0.90300000  0.90220000  0.44300000  1.0 0.5896818229
C  C2  1  0.90220000  0.90300000  0.05700000  1.0 0.5896818229
C  C3  1  0.09700000  0.09780000  0.55700000  1.0 0.5896818229
C  C4  1  0.09780000  0.09700000  0.94300000  1.0 0.5896818229
C  C5  1  0.78730000  0.53270000  0.53720000  1.0 -0.0980835286
C  C6  1  0.53270000  0.78730000  0.96280000  1.0 -0.0980835286
C  C7  1  0.21270000  0.46730000  0.46280000  1.0 -0.0980835286
C  C8  1  0.46730000  0.21270000  0.03720000  1.0 -0.0980835286
C  C9  1  0.69410000  0.26430000  0.02930000  1.0 0.5666218461
C  C10  1  0.26430000  0.69410000  0.47070000  1.0 0.5666218461
C  C11  1  0.30590000  0.73570000  0.97070000  1.0 0.5666218461
C  C12  1  0.73570000  0.30590000  0.52930000  1.0 0.5666218461
C  C13  1  0.76770000  0.62030000  0.56670000  1.0 0.0393319452
C  C14  1  0.62030000  0.76770000  0.93330000  1.0 0.0393319452
C  C15  1  0.23230000  0.37970000  0.43330000  1.0 0.0393319452
C  C16  1  0.37970000  0.23230000  0.06670000  1.0 0.0393319452
C  C17  1  0.86450000  0.54190000  0.63430000  1.0 -0.0980835286
C  C18  1  0.54190000  0.86450000  0.86570000  1.0 -0.0980835286
C  C19  1  0.13550000  0.45810000  0.36570000  1.0 -0.0980835286
C  C20  1  0.45810000  0.13550000  0.13430000  1.0 -0.0980835286
C  C21  1  0.84820000  0.71780000  0.54390000  1.0 0.0100665135
C  C22  1  0.71780000  0.84820000  0.95610000  1.0 0.0100665135
C  C23  1  0.15180000  0.28220000  0.45610000  1.0 0.0100665135
C  C24  1  0.28220000  0.15180000  0.04390000  1.0 0.0100665135
C  C25  1  0.91330000  0.88830000  0.50600000  1.0 -0.0557162235
C  C26  1  0.88830000  0.91330000  0.99400000  1.0 -0.0557162235
C  C27  1  0.08670000  0.11170000  0.49400000  1.0 -0.0557162235
C  C28  1  0.11170000  0.08670000  0.00600000  1.0 -0.0557162235
C  C29  1  0.69000000  0.50020000  0.49350000  1.0 0.5997139012
C  C30  1  0.50020000  0.69000000  0.00650000  1.0 0.5997139012
C  C31  1  0.31000000  0.49980000  0.50650000  1.0 0.5997139012
C  C32  1  0.49980000  0.31000000  0.99350000  1.0 0.5997139012
C  C33  1  0.72670000  0.97990000  0.04480000  1.0 0.5896818229
C  C34  1  0.97990000  0.72670000  0.45520000  1.0 0.5896818229
C  C35  1  0.27330000  0.02010000  0.95520000  1.0 0.5896818229
C  C36  1  0.02010000  0.27330000  0.54480000  1.0 0.5896818229
C  C37  1  0.83060000  0.80520000  0.57480000  1.0 0.0275776177
C  C38  1  0.80520000  0.83060000  0.92520000  1.0 0.0275776177
C  C39  1  0.16940000  0.19480000  0.42520000  1.0 0.0275776177
C  C40  1  0.19480000  0.16940000  0.07480000  1.0 0.0275776177
C  C41  1  0.73010000  0.74070000  0.58070000  1.0 0.5896818229
C  C42  1  0.74070000  0.73010000  0.91930000  1.0 0.5896818229
C  C43  1  0.26990000  0.25930000  0.41930000  1.0 0.5896818229
C  C44  1  0.25930000  0.26990000  0.08070000  1.0 0.5896818229
C  C45  1  0.79280000  0.29680000  0.06970000  1.0 -0.0980835286
C  C46  1  0.29680000  0.79280000  0.43030000  1.0 -0.0948110683
C  C47  1  0.20720000  0.70320000  0.93030000  1.0 -0.0980835286
C  C48  1  0.70320000  0.20720000  0.56970000  1.0 -0.0980835286
C  C49  1  0.82470000  0.06710000  0.03750000  1.0 -0.0407614086
C  C50  1  0.06710000  0.82470000  0.46250000  1.0 -0.0407614086
C  C51  1  0.17530000  0.93290000  0.96250000  1.0 -0.0407614086
C  C52  1  0.93290000  0.17530000  0.53750000  1.0 -0.0407614086
C  C53  1  0.78550000  0.18050000  0.02810000  1.0 0.0718253651
C  C54  1  0.18050000  0.78550000  0.47190000  1.0 0.0718253651
C  C55  1  0.21450000  0.81950000  0.97190000  1.0 0.0718253651
C  C56  1  0.81950000  0.21450000  0.52810000  1.0 0.0718253651
C  C57  1  0.83850000  0.51270000  0.68750000  1.0 0.5997139012
C  C58  1  0.51270000  0.83850000  0.81250000  1.0 0.5997139012
C  C59  1  0.16150000  0.48730000  0.31250000  1.0 0.5997139012
C  C60  1  0.48730000  0.16150000  0.18750000  1.0 0.5997139012
C  C61  1  0.88180000  0.23600000  0.16420000  1.0 -0.0795468217
C  C62  1  0.23600000  0.88180000  0.33580000  1.0 -0.0795468217
C  C63  1  0.11820000  0.76400000  0.83580000  1.0 -0.0795468217
C  C64  1  0.76400000  0.11820000  0.66420000  1.0 -0.0795468217
C  C65  1  0.89770000  0.22810000  0.98090000  1.0 -0.0407614086
C  C66  1  0.22810000  0.89770000  0.51910000  1.0 -0.0407614086
C  C67  1  0.10230000  0.77190000  0.01910000  1.0 -0.0407614086
C  C68  1  0.77190000  0.10230000  0.48090000  1.0 -0.0407614086
C  C69  1  0.87150000  0.29910000  0.92390000  1.0 0.5896818229
C  C70  1  0.29910000  0.87150000  0.57610000  1.0 0.5997139012
C  C71  1  0.12850000  0.70090000  0.07610000  1.0 0.5896818229
C  C72  1  0.70090000  0.12850000  0.42390000  1.0 0.5896818229
C  C73  1  0.85470000  0.20070000  0.08700000  1.0 0.1169264676
C  C74  1  0.20070000  0.85470000  0.41300000  1.0 0.1169264676
C  C75  1  0.14530000  0.79930000  0.91300000  1.0 0.114241025
C  C76  1  0.79930000  0.14530000  0.58700000  1.0 0.1169264676
C  C77  1  0.87760000  0.14260000  0.20850000  1.0 0.5896818229
C  C78  1  0.14260000  0.87760000  0.29150000  1.0 0.5896818229
C  C79  1  0.12240000  0.85740000  0.79150000  1.0 0.5896818229
C  C80  1  0.85740000  0.12240000  0.70850000  1.0 0.5896818229
I  I1  1  0.73017000  0.92617000  0.29248000  1.0 1.6059869589
I  I2  1  0.92617000  0.73017000  0.20752000  1.0 1.6059869589
I  I3  1  0.26983000  0.07383000  0.70752000  1.0 1.6047172608
I  I4  1  0.07383000  0.26983000  0.79248000  1.0 1.6047172608
I  I5  1  0.30841000  0.67877000  0.22493000  1.0 1.5832029642
I  I6  1  0.67877000  0.30841000  0.27507000  1.0 1.5832029642
I  I7  1  0.69159000  0.32123000  0.77507000  1.0 1.5832029642
I  I8  1  0.32123000  0.69159000  0.72493000  1.0 1.5832029642
N  N1  1  0.83160000  0.79760000  0.52580000  1.0 -0.1378139718
N  N2  1  0.79760000  0.83160000  0.97420000  1.0 -0.1378139718
N  N3  1  0.16840000  0.20240000  0.47420000  1.0 -0.1378139718
N  N4  1  0.20240000  0.16840000  0.02580000  1.0 -0.1378139718
N  N5  1  0.81460000  0.15400000  0.00000000  1.0 -0.167953038
N  N6  1  0.15400000  0.81460000  0.50000000  1.0 -0.167953038
N  N7  1  0.18540000  0.84600000  0.00000000  1.0 -0.167953038
N  N8  1  0.84600000  0.18540000  0.50000000  1.0 -0.167953038
N  N9  1  0.80800000  0.21280000  0.10960000  1.0 -0.1609709201
N  N10  1  0.21280000  0.80800000  0.39040000  1.0 -0.1609709201
N  N11  1  0.19200000  0.78720000  0.89040000  1.0 -0.1609709201
N  N12  1  0.78720000  0.19200000  0.60960000  1.0 -0.1609709201
N  N13  1  0.78170000  0.54010000  0.58420000  1.0 -0.1475463076
N  N14  1  0.54010000  0.78170000  0.91580000  1.0 -0.1475463076
N  N15  1  0.21830000  0.45990000  0.41580000  1.0 -0.1475463076
N  N16  1  0.45990000  0.21830000  0.08420000  1.0 -0.1475463076
O  O1  1  0.64430000  0.67430000  0.44040000  1.0 -0.7172853588
O  O2  1  0.67430000  0.64430000  0.05960000  1.0 -0.7172853588
O  O3  1  0.35570000  0.32570000  0.55960000  1.0 -0.7172853588
O  O4  1  0.32570000  0.35570000  0.94040000  1.0 -0.7172853588
O  O5  1  0.52030000  0.71950000  0.44360000  1.0 -0.452067071
O  O6  1  0.71950000  0.52030000  0.05640000  1.0 -0.452067071
O  O7  1  0.47970000  0.28050000  0.55640000  1.0 -0.452067071
O  O8  1  0.28050000  0.47970000  0.94360000  1.0 -0.452067071
O  O9  1  0.63600000  0.93660000  0.22750000  1.0 -0.8801292418
O  O10  1  0.93660000  0.63600000  0.27250000  1.0 -0.8801292418
O  O11  1  0.36400000  0.06340000  0.77250000  1.0 -0.8801292418
O  O12  1  0.06340000  0.36400000  0.72750000  1.0 -0.8801292418
O  O13  1  0.52000000  0.76280000  0.38230000  1.0 -0.5173409371
O  O14  1  0.76280000  0.52000000  0.11770000  1.0 -0.5173409371
O  O15  1  0.48000000  0.23720000  0.61770000  1.0 -0.5173409371
O  O16  1  0.23720000  0.48000000  0.88230000  1.0 -0.5173409371
O  O17  1  0.49210000  0.03790000  0.09170000  1.0 -0.4787037795
O  O18  1  0.03790000  0.49210000  0.40830000  1.0 -0.4787037795
O  O19  1  0.50790000  0.96210000  0.90830000  1.0 -0.4787037795
O  O20  1  0.96210000  0.50790000  0.59170000  1.0 -0.4787037795
O  O21  1  0.66040000  0.71700000  0.53620000  1.0 -0.7172853588
O  O22  1  0.71700000  0.66040000  0.96380000  1.0 -0.7172853588
O  O23  1  0.33960000  0.28300000  0.46380000  1.0 -0.7172853588
O  O24  1  0.28300000  0.33960000  0.03620000  1.0 -0.7172853588
O  O25  1  0.42570000  0.55110000  0.40210000  1.0 -0.6898192553
O  O26  1  0.55110000  0.42570000  0.09790000  1.0 -0.6898192553
O  O27  1  0.57430000  0.44890000  0.59790000  1.0 -0.6898192553
O  O28  1  0.44890000  0.57430000  0.90210000  1.0 -0.6898192553
O  O29  1  0.49410000  0.97010000  0.15000000  1.0 -0.5173409371
O  O30  1  0.97010000  0.49410000  0.35000000  1.0 -0.5173409371
O  O31  1  0.50590000  0.02990000  0.85000000  1.0 -0.5173409371
O  O32  1  0.02990000  0.50590000  0.65000000  1.0 -0.5173409371
O  O33  1  0.65370000  0.98490000  0.00470000  1.0 -0.6982969506
O  O34  1  0.98490000  0.65370000  0.49530000  1.0 -0.6982969506
O  O35  1  0.34630000  0.01510000  0.99530000  1.0 -0.6982969506
O  O36  1  0.01510000  0.34630000  0.50470000  1.0 -0.6982969506
O  O37  1  0.68430000  0.52090000  0.44170000  1.0 -0.6604754863
O  O38  1  0.52090000  0.68430000  0.05830000  1.0 -0.6604754863
O  O39  1  0.31570000  0.47910000  0.55830000  1.0 -0.6604754863
O  O40  1  0.47910000  0.31570000  0.94170000  1.0 -0.6604754863
O  O41  1  0.81510000  0.85650000  0.41320000  1.0 -0.7760550914
O  O42  1  0.85650000  0.81510000  0.08680000  1.0 -0.7760550914
O  O43  1  0.18490000  0.14350000  0.58680000  1.0 -0.7760550914
O  O44  1  0.14350000  0.18490000  0.91320000  1.0 -0.7760550914
O  O45  1  0.61640000  0.44900000  0.51150000  1.0 -0.6982969506
O  O46  1  0.44900000  0.61640000  0.98850000  1.0 -0.6982969506
O  O47  1  0.38360000  0.55100000  0.48850000  1.0 -0.6982969506
O  O48  1  0.55100000  0.38360000  0.01150000  1.0 -0.6982969506
O  O49  1  0.75500000  0.46580000  0.68520000  1.0 -0.6481714336
O  O50  1  0.46580000  0.75500000  0.81480000  1.0 -0.6481714336
O  O51  1  0.24500000  0.53420000  0.31480000  1.0 -0.6481714336
O  O52  1  0.53420000  0.24500000  0.18520000  1.0 -0.6481714336
O  O53  1  0.64940000  0.83360000  0.33620000  1.0 -0.8620641617
O  O54  1  0.83360000  0.64940000  0.16380000  1.0 -0.8620641617
O  O55  1  0.35060000  0.16640000  0.66380000  1.0 -0.8620641617
O  O56  1  0.16640000  0.35060000  0.83620000  1.0 -0.8620641617
O  O57  1  0.74980000  0.85500000  0.28130000  1.0 -0.7053645192
O  O58  1  0.85500000  0.74980000  0.21870000  1.0 -0.7053645192
O  O59  1  0.25020000  0.14500000  0.71870000  1.0 -0.7053645192
O  O60  1  0.14500000  0.25020000  0.78130000  1.0 -0.7053645192
O  O61  1  0.38930000  0.85230000  0.07080000  1.0 -0.73848536
O  O62  1  0.85230000  0.38930000  0.42920000  1.0 -0.73848536
O  O63  1  0.61070000  0.14770000  0.92920000  1.0 -0.73848536
O  O64  1  0.14770000  0.61070000  0.57080000  1.0 -0.73848536
O  O65  1  0.63180000  0.17780000  0.04500000  1.0 -0.6898192553
O  O66  1  0.17780000  0.63180000  0.45500000  1.0 -0.6898192553
O  O67  1  0.36820000  0.82220000  0.95500000  1.0 -0.6898192553
O  O68  1  0.82220000  0.36820000  0.54500000  1.0 -0.6898192553
O  O69  1  0.79960000  0.06700000  0.20230000  1.0 -0.6982969506
O  O70  1  0.06700000  0.79960000  0.29770000  1.0 -0.6982969506
O  O71  1  0.20040000  0.93300000  0.79770000  1.0 -0.6982969506
O  O72  1  0.93300000  0.20040000  0.70230000  1.0 -0.6982969506
O  O73  1  0.67610000  0.32050000  0.98230000  1.0 -0.4868337712
O  O74  1  0.32050000  0.67610000  0.51770000  1.0 -0.4868337712
O  O75  1  0.32390000  0.67950000  0.01770000  1.0 -0.4868337712
O  O76  1  0.67950000  0.32390000  0.48230000  1.0 -0.4868337712
O  O77  1  0.72300000  0.90720000  0.08610000  1.0 -0.5662841735
O  O78  1  0.90720000  0.72300000  0.41390000  1.0 -0.5662841735
O  O79  1  0.27700000  0.09280000  0.91390000  1.0 -0.5662841735
O  O80  1  0.09280000  0.27700000  0.58610000  1.0 -0.5662841735
O  O81  1  0.39430000  0.70030000  0.29270000  1.0 -0.8801292418
O  O82  1  0.70030000  0.39430000  0.20730000  1.0 -0.8801292418
O  O83  1  0.60570000  0.29970000  0.70730000  1.0 -0.8801292418
O  O84  1  0.29970000  0.60570000  0.79270000  1.0 -0.8801292418
O  O85  1  0.78580000  0.27180000  0.89590000  1.0 -0.6982969506
O  O86  1  0.27180000  0.78580000  0.60410000  1.0 -0.6982969506
O  O87  1  0.21420000  0.72820000  0.10410000  1.0 -0.6982969506
O  O88  1  0.72820000  0.21420000  0.39590000  1.0 -0.6982969506
O  O89  1  0.97280000  0.95120000  0.42680000  1.0 -0.4283313988
O  O90  1  0.95120000  0.97280000  0.07320000  1.0 -0.4283313988
O  O91  1  0.02720000  0.04880000  0.57320000  1.0 -0.4283313988
O  O92  1  0.04880000  0.02720000  0.92680000  1.0 -0.4283313988
O  O93  1  0.37010000  0.80230000  0.18650000  1.0 -0.9086105166
O  O94  1  0.80230000  0.37010000  0.31350000  1.0 -0.9086105166
O  O95  1  0.62990000  0.19770000  0.81350000  1.0 -0.9086105166
O  O96  1  0.19770000  0.62990000  0.68650000  1.0 -0.9086105166
O  O97  1  0.63060000  0.99160000  0.10650000  1.0 -0.73848536
O  O98  1  0.99160000  0.63060000  0.39350000  1.0 -0.73848536
O  O99  1  0.36940000  0.00840000  0.89350000  1.0 -0.73848536
O  O100  1  0.00840000  0.36940000  0.60650000  1.0 -0.73848536
O  O101  1  0.35130000  0.63170000  0.21140000  1.0 -0.5926652191
O  O102  1  0.63170000  0.35130000  0.28860000  1.0 -0.5926652191
O  O103  1  0.64870000  0.36830000  0.78860000  1.0 -0.5926652191
O  O104  1  0.36830000  0.64870000  0.71140000  1.0 -0.5926652191
O  O105  1  0.71760000  0.71440000  0.62610000  1.0 -0.4718440114
O  O106  1  0.71440000  0.71760000  0.87390000  1.0 -0.4718440114
O  O107  1  0.28240000  0.28560000  0.37390000  1.0 -0.4718440114
O  O108  1  0.28560000  0.28240000  0.12610000  1.0 -0.4718440114
O  O109  1  0.91060000  0.54060000  0.73150000  1.0 -0.538572499
O  O110  1  0.54060000  0.91060000  0.76850000  1.0 -0.538572499
O  O111  1  0.08940000  0.45940000  0.26850000  1.0 -0.538572499
O  O112  1  0.45940000  0.08940000  0.23150000  1.0 -0.538572499
O  O113  1  0.94050000  0.38150000  0.91230000  1.0 -0.4787037795
O  O114  1  0.38150000  0.94050000  0.58770000  1.0 -0.4787037795
O  O115  1  0.05950000  0.61850000  0.08770000  1.0 -0.4787037795
O  O116  1  0.61850000  0.05950000  0.41230000  1.0 -0.4787037795
O  O117  1  0.95120000  0.14980000  0.25540000  1.0 -0.4868337712
O  O118  1  0.14980000  0.95120000  0.24460000  1.0 -0.4868337712
O  O119  1  0.04880000  0.85020000  0.74460000  1.0 -0.4868337712
O  O120  1  0.85020000  0.04880000  0.75540000  1.0 -0.4868337712
O  O121  1  0.53310000  0.62910000  0.31600000  1.0 -0.3653411208
O  O122  1  0.62910000  0.53310000  0.18400000  1.0 -0.3653411208
O  O123  1  0.46690000  0.37090000  0.68400000  1.0 -0.3624671637
O  O124  1  0.37090000  0.46690000  0.81600000  1.0 -0.3624671637
