# DDEC6 charges by PACMAN v1.1 (https://github.com/mtap-research/PACMAN-charge/)
data_QOXKAS_FSR_pacman
_symmetry_space_group_name_H-M   'P 1'
_cell_length_a   7.03100000
_cell_length_b   7.03100000
_cell_length_c   7.85120000
_cell_angle_alpha   90.00000000
_cell_angle_beta   90.00000000
_cell_angle_gamma   90.00000000
_symmetry_Int_Tables_number   1
_chemical_formula_structural   NbNiH16C16N4(OF6)2
_chemical_formula_sum   'Nb1 Ni1 H16 C16 N4 O2 F12'
_cell_volume   388.12376580
_cell_formula_units_Z   1
loop_
 _symmetry_equiv_pos_site_id
 _symmetry_equiv_pos_as_xyz
  1  'x, y, z'
loop_
 _atom_site_type_symbol
 _atom_site_label
 _atom_site_symmetry_multiplicity
 _atom_site_fract_x
 _atom_site_fract_y
 _atom_site_fract_z
 _atom_site_occupancy
 _atom_site_charge
Nb  Nb1  1  0.00000000  0.00000000  0.00000000  1.0 1.5078433787
Ni  Ni1  1  0.00000000  0.00000000  0.50000000  1.0 0.3329039549
H  H1  1  0.33760000  0.13240000  0.28180000  1.0 0.0446577853
H  H2  1  0.66240000  0.86760000  0.28180000  1.0 0.0446577853
H  H3  1  0.86760000  0.33760000  0.28180000  1.0 0.0446577853
H  H4  1  0.13240000  0.66240000  0.28180000  1.0 0.0446577853
H  H5  1  0.66240000  0.13240000  0.71820000  1.0 0.0446577853
H  H6  1  0.33760000  0.86760000  0.71820000  1.0 0.0446577853
H  H7  1  0.13240000  0.33760000  0.71820000  1.0 0.0446577853
H  H8  1  0.86760000  0.66240000  0.71820000  1.0 0.0446577853
H  H9  1  0.66240000  0.86760000  0.71820000  1.0 0.0446577853
H  H10  1  0.33760000  0.13240000  0.71820000  1.0 0.0446577853
H  H11  1  0.13240000  0.66240000  0.71820000  1.0 0.0446577853
H  H12  1  0.86760000  0.33760000  0.71820000  1.0 0.0446577853
H  H13  1  0.33760000  0.86760000  0.28180000  1.0 0.0446577853
H  H14  1  0.66240000  0.13240000  0.28180000  1.0 0.0446577853
H  H15  1  0.86760000  0.66240000  0.28180000  1.0 0.0446577853
H  H16  1  0.13240000  0.33760000  0.28180000  1.0 0.0446577853
C  C1  1  0.40200000  0.07720000  0.37270000  1.0 -0.0198751956
C  C2  1  0.59800000  0.92280000  0.37270000  1.0 -0.0198751956
C  C3  1  0.92280000  0.40200000  0.37270000  1.0 -0.0198751956
C  C4  1  0.07720000  0.59800000  0.37270000  1.0 -0.0198751956
C  C5  1  0.59800000  0.07720000  0.62730000  1.0 -0.0198751956
C  C6  1  0.40200000  0.92280000  0.62730000  1.0 -0.0198751956
C  C7  1  0.07720000  0.40200000  0.62730000  1.0 -0.0198751956
C  C8  1  0.92280000  0.59800000  0.62730000  1.0 -0.0198751956
C  C9  1  0.59800000  0.92280000  0.62730000  1.0 -0.0198751956
C  C10  1  0.40200000  0.07720000  0.62730000  1.0 -0.0198751956
C  C11  1  0.07720000  0.59800000  0.62730000  1.0 -0.0198751956
C  C12  1  0.92280000  0.40200000  0.62730000  1.0 -0.0198751956
C  C13  1  0.40200000  0.92280000  0.37270000  1.0 -0.0198751956
C  C14  1  0.59800000  0.07720000  0.37270000  1.0 -0.0198751956
C  C15  1  0.92280000  0.59800000  0.37270000  1.0 -0.0198751956
C  C16  1  0.07720000  0.40200000  0.37270000  1.0 -0.0198751956
N  N1  1  0.30170000  0.00000000  0.50000000  1.0 -0.1545349622
N  N2  1  0.69830000  0.00000000  0.50000000  1.0 -0.1545349622
N  N3  1  0.00000000  0.30170000  0.50000000  1.0 -0.1545349622
N  N4  1  0.00000000  0.69830000  0.50000000  1.0 -0.1545349622
O  O1  1  0.00000000  0.00000000  0.24580000  1.0 -0.7372212375
O  O2  1  0.00000000  0.00000000  0.75420000  1.0 -0.7372212375
F  F1  1  0.18980000  0.18980000  0.00000000  1.0 -0.0309055012
F  F2  1  0.81020000  0.81020000  0.00000000  1.0 -0.0309055012
F  F3  1  0.81020000  0.18980000  0.00000000  1.0 -0.0309055012
F  F4  1  0.18980000  0.81020000  0.00000000  1.0 -0.0309055012
F  F5  1  0.08200000  0.25540000  0.00000000  1.0 -0.0026330551
F  F6  1  0.91800000  0.74460000  0.00000000  1.0 -0.0026330551
F  F7  1  0.74460000  0.08200000  0.00000000  1.0 -0.0026330551
F  F8  1  0.25540000  0.91800000  0.00000000  1.0 -0.0026330551
F  F9  1  0.91800000  0.25540000  0.00000000  1.0 -0.0026330551
F  F10  1  0.08200000  0.74460000  0.00000000  1.0 -0.0026330551
F  F11  1  0.25540000  0.08200000  0.00000000  1.0 -0.0026330551
F  F12  1  0.74460000  0.91800000  0.00000000  1.0 -0.0026330551
