# DDEC6 charges by PACMAN v1.1 (https://github.com/mtap-research/PACMAN-charge/)
data_QOXKIA_FSR_pacman
_symmetry_space_group_name_H-M   'P 1'
_cell_length_a   7.00190000
_cell_length_b   7.00190000
_cell_length_c   7.71130000
_cell_angle_alpha   90.00000000
_cell_angle_beta   90.00000000
_cell_angle_gamma   90.00000000
_symmetry_Int_Tables_number   1
_chemical_formula_structural   AlNiH16C16(N2F7)2
_chemical_formula_sum   'Al1 Ni1 H16 C16 N4 F14'
_cell_volume   378.05884842
_cell_formula_units_Z   1
loop_
 _symmetry_equiv_pos_site_id
 _symmetry_equiv_pos_as_xyz
  1  'x, y, z'
loop_
 _atom_site_type_symbol
 _atom_site_label
 _atom_site_symmetry_multiplicity
 _atom_site_fract_x
 _atom_site_fract_y
 _atom_site_fract_z
 _atom_site_occupancy
 _atom_site_charge
Al  Al1  1  0.50000000  0.50000000  0.00000000  1.0 0.8573109612
Ni  Ni1  1  0.50000000  0.50000000  0.50000000  1.0 0.2612193331
H  H1  1  0.41150000  0.16310000  0.26120000  1.0 0.0182426349
H  H2  1  0.58850000  0.83690000  0.26120000  1.0 0.0182426349
H  H3  1  0.83690000  0.41150000  0.26120000  1.0 0.0182426349
H  H4  1  0.16310000  0.58850000  0.26120000  1.0 0.0182426349
H  H5  1  0.58850000  0.16310000  0.73880000  1.0 0.0182426349
H  H6  1  0.41150000  0.83690000  0.73880000  1.0 0.0182426349
H  H7  1  0.16310000  0.41150000  0.73880000  1.0 0.0182426349
H  H8  1  0.83690000  0.58850000  0.73880000  1.0 0.0182426349
H  H9  1  0.58850000  0.83690000  0.73880000  1.0 0.0182426349
H  H10  1  0.41150000  0.16310000  0.73880000  1.0 0.0182426349
H  H11  1  0.16310000  0.58850000  0.73880000  1.0 0.0182426349
H  H12  1  0.83690000  0.41150000  0.73880000  1.0 0.0182426349
H  H13  1  0.41150000  0.83690000  0.26120000  1.0 0.0182426349
H  H14  1  0.58850000  0.16310000  0.26120000  1.0 0.0182426349
H  H15  1  0.83690000  0.58850000  0.26120000  1.0 0.0182426349
H  H16  1  0.16310000  0.41150000  0.26120000  1.0 0.0182426349
C  C1  1  0.44860000  0.09870000  0.36120000  1.0 0.0103825107
C  C2  1  0.55140000  0.90130000  0.36120000  1.0 0.0103825107
C  C3  1  0.90130000  0.44860000  0.36120000  1.0 0.0103825107
C  C4  1  0.09870000  0.55140000  0.36120000  1.0 0.0103825107
C  C5  1  0.55140000  0.09870000  0.63880000  1.0 0.0103825107
C  C6  1  0.44860000  0.90130000  0.63880000  1.0 0.0103825107
C  C7  1  0.09870000  0.44860000  0.63880000  1.0 0.0103825107
C  C8  1  0.90130000  0.55140000  0.63880000  1.0 0.0103825107
C  C9  1  0.55140000  0.90130000  0.63880000  1.0 0.0103825107
C  C10  1  0.44860000  0.09870000  0.63880000  1.0 0.0103825107
C  C11  1  0.09870000  0.55140000  0.63880000  1.0 0.0103825107
C  C12  1  0.90130000  0.44860000  0.63880000  1.0 0.0103825107
C  C13  1  0.44860000  0.90130000  0.36120000  1.0 0.0103825107
C  C14  1  0.55140000  0.09870000  0.36120000  1.0 0.0103825107
C  C15  1  0.90130000  0.55140000  0.36120000  1.0 0.0103825107
C  C16  1  0.09870000  0.44860000  0.36120000  1.0 0.0103825107
N  N1  1  0.50000000  0.19940000  0.50000000  1.0 -0.1728886075
N  N2  1  0.50000000  0.80060000  0.50000000  1.0 -0.1728886075
N  N3  1  0.80060000  0.50000000  0.50000000  1.0 -0.1728886075
N  N4  1  0.19940000  0.50000000  0.50000000  1.0 -0.1728886075
F  F1  1  0.50000000  0.50000000  0.23810000  1.0 -0.4941721454
F  F2  1  0.50000000  0.50000000  0.76190000  1.0 -0.4941721454
F  F3  1  0.32460000  0.32460000  0.00000000  1.0 -0.0106437458
F  F4  1  0.67540000  0.67540000  0.00000000  1.0 -0.0106437458
F  F5  1  0.67540000  0.32460000  0.00000000  1.0 -0.0106437458
F  F6  1  0.32460000  0.67540000  0.00000000  1.0 -0.0106437458
F  F7  1  0.42280000  0.27340000  0.00000000  1.0 0.0182426349
F  F8  1  0.57720000  0.72660000  0.00000000  1.0 0.0182426349
F  F9  1  0.72660000  0.42280000  0.00000000  1.0 0.0182426349
F  F10  1  0.27340000  0.57720000  0.00000000  1.0 0.0182426349
F  F11  1  0.57720000  0.27340000  0.00000000  1.0 0.0182426349
F  F12  1  0.42280000  0.72660000  0.00000000  1.0 0.0182426349
F  F13  1  0.27340000  0.42280000  0.00000000  1.0 0.0182426349
F  F14  1  0.72660000  0.57720000  0.00000000  1.0 0.0182426349
