# DDEC6 charges by PACMAN v1.1 (https://github.com/mtap-research/PACMAN-charge/)
data_QOXKEW_FSR_pacman
_symmetry_space_group_name_H-M   'P 1'
_cell_length_a   10.36740000
_cell_length_b   10.36740000
_cell_length_c   10.36740000
_cell_angle_alpha   123.15900000
_cell_angle_beta   123.15900000
_cell_angle_gamma   84.60960000
_symmetry_Int_Tables_number   1
_chemical_formula_structural   AlNiH16C16(N2F7)2
_chemical_formula_sum   'Al2 Ni2 H32 C32 N8 F28'
_cell_volume   746.71354989
_cell_formula_units_Z   2
loop_
 _symmetry_equiv_pos_site_id
 _symmetry_equiv_pos_as_xyz
  1  'x, y, z'
loop_
 _atom_site_type_symbol
 _atom_site_label
 _atom_site_symmetry_multiplicity
 _atom_site_fract_x
 _atom_site_fract_y
 _atom_site_fract_z
 _atom_site_occupancy
 _atom_site_charge
Al  Al1  1  0.00000000  0.00000000  0.00000000  1.0 0.837184
Al  Al2  1  0.50000000  0.50000000  0.00000000  1.0 0.837184
Ni  Ni1  1  0.25000000  0.25000000  0.00000000  1.0 0.2932297319
Ni  Ni2  1  0.75000000  0.75000000  0.00000000  1.0 0.2932297319
H  H1  1  0.35410000  0.24330000  0.33360000  1.0 0.0369243256
H  H2  1  0.24420000  0.35020000  0.33380000  1.0 0.0369243256
H  H3  1  0.90970000  0.02050000  0.66640000  1.0 0.0369243256
H  H4  1  0.01640000  0.91040000  0.66620000  1.0 0.0369243256
H  H5  1  0.24330000  0.90970000  0.88920000  1.0 0.0369243256
H  H6  1  0.35020000  0.01640000  0.10600000  1.0 0.0369243256
H  H7  1  0.02050000  0.35410000  0.11080000  1.0 0.0369243256
H  H8  1  0.91040000  0.24420000  0.89400000  1.0 0.0369243256
H  H9  1  0.59030000  0.25670000  0.11080000  1.0 0.0369243256
H  H10  1  0.48360000  0.14980000  0.89400000  1.0 0.0369243256
H  H11  1  0.14590000  0.47950000  0.88920000  1.0 0.0369243256
H  H12  1  0.25580000  0.58960000  0.10600000  1.0 0.0369243256
H  H13  1  0.47950000  0.59030000  0.33360000  1.0 0.0369243256
H  H14  1  0.58960000  0.48360000  0.33380000  1.0 0.0369243256
H  H15  1  0.25670000  0.14590000  0.66640000  1.0 0.0369243256
H  H16  1  0.14980000  0.25580000  0.66620000  1.0 0.0369243256
H  H17  1  0.64590000  0.75670000  0.66640000  1.0 0.0369243256
H  H18  1  0.75580000  0.64980000  0.66620000  1.0 0.0369243256
H  H19  1  0.09030000  0.97950000  0.33360000  1.0 0.0369243256
H  H20  1  0.98360000  0.08960000  0.33380000  1.0 0.0369243256
H  H21  1  0.75670000  0.09030000  0.11080000  1.0 0.0369243256
H  H22  1  0.64980000  0.98360000  0.89400000  1.0 0.0369243256
H  H23  1  0.97950000  0.64590000  0.88920000  1.0 0.0369243256
H  H24  1  0.08960000  0.75580000  0.10600000  1.0 0.0369243256
H  H25  1  0.40970000  0.74330000  0.88920000  1.0 0.0369243256
H  H26  1  0.51640000  0.85020000  0.10600000  1.0 0.0369243256
H  H27  1  0.85410000  0.52050000  0.11080000  1.0 0.0369243256
H  H28  1  0.74420000  0.41040000  0.89400000  1.0 0.0369243256
H  H29  1  0.52050000  0.40970000  0.66640000  1.0 0.0369243256
H  H30  1  0.41040000  0.51640000  0.66620000  1.0 0.0369243256
H  H31  1  0.74330000  0.85410000  0.33360000  1.0 0.0369243256
H  H32  1  0.85020000  0.74420000  0.33380000  1.0 0.0369243256
C  C1  1  0.41380000  0.34960000  0.40020000  1.0 0.0031437796
C  C2  1  0.34970000  0.41140000  0.40050000  1.0 -0.0024978108
C  C3  1  0.94940000  0.01360000  0.59980000  1.0 0.0031437796
C  C4  1  0.01090000  0.94920000  0.59950000  1.0 -0.0024978108
C  C5  1  0.34960000  0.94940000  0.93580000  1.0 0.0031437796
C  C6  1  0.41140000  0.01090000  0.06170000  1.0 -0.0024978108
C  C7  1  0.01360000  0.41380000  0.06420000  1.0 0.0031437796
C  C8  1  0.94920000  0.34970000  0.93830000  1.0 -0.0024978108
C  C9  1  0.55060000  0.15040000  0.06420000  1.0 0.0031437796
C  C10  1  0.48910000  0.08860000  0.93830000  1.0 -0.0024978108
C  C11  1  0.08620000  0.48640000  0.93580000  1.0 0.0031437796
C  C12  1  0.15030000  0.55080000  0.06170000  1.0 -0.0024978108
C  C13  1  0.48640000  0.55060000  0.40020000  1.0 0.0031437796
C  C14  1  0.55080000  0.48910000  0.40050000  1.0 -0.0024978108
C  C15  1  0.15040000  0.08620000  0.59980000  1.0 0.0031437796
C  C16  1  0.08860000  0.15030000  0.59950000  1.0 -0.0024978108
C  C17  1  0.58620000  0.65040000  0.59980000  1.0 0.0031437796
C  C18  1  0.65030000  0.58860000  0.59950000  1.0 -0.0024978108
C  C19  1  0.05060000  0.98640000  0.40020000  1.0 0.0031437796
C  C20  1  0.98910000  0.05080000  0.40050000  1.0 -0.0024978108
C  C21  1  0.65040000  0.05060000  0.06420000  1.0 0.0031437796
C  C22  1  0.58860000  0.98910000  0.93830000  1.0 -0.0024978108
C  C23  1  0.98640000  0.58620000  0.93580000  1.0 0.0031437796
C  C24  1  0.05080000  0.65030000  0.06170000  1.0 -0.0024978108
C  C25  1  0.44940000  0.84960000  0.93580000  1.0 0.0031437796
C  C26  1  0.51090000  0.91140000  0.06170000  1.0 -0.0024978108
C  C27  1  0.91380000  0.51360000  0.06420000  1.0 0.0031437796
C  C28  1  0.84970000  0.44920000  0.93830000  1.0 -0.0024978108
C  C29  1  0.51360000  0.44940000  0.59980000  1.0 0.0031437796
C  C30  1  0.44920000  0.51090000  0.59950000  1.0 -0.0024978108
C  C31  1  0.84960000  0.91380000  0.40020000  1.0 0.0031437796
C  C32  1  0.91140000  0.84970000  0.40050000  1.0 -0.0024978108
N  N1  1  0.40020000  0.40020000  0.30040000  1.0 -0.1717456511
N  N2  1  0.09980000  0.09980000  0.69960000  1.0 -0.1717456511
N  N3  1  0.40020000  0.09980000  0.00000000  1.0 -0.1717456511
N  N4  1  0.09980000  0.40020000  0.00000000  1.0 -0.1717456511
N  N5  1  0.59980000  0.59980000  0.69960000  1.0 -0.1717456511
N  N6  1  0.90020000  0.90020000  0.30040000  1.0 -0.1717456511
N  N7  1  0.59980000  0.90020000  0.00000000  1.0 -0.1717456511
N  N8  1  0.90020000  0.59980000  0.00000000  1.0 -0.1717456511
F  F1  1  0.11946000  0.11946000  0.00000000  1.0 -0.535725983
F  F2  1  0.38054000  0.38054000  0.00000000  1.0 -0.535725983
F  F3  1  0.88054000  0.88054000  0.00000000  1.0 -0.534075272
F  F4  1  0.61946000  0.61946000  0.00000000  1.0 -0.535725983
F  F5  1  0.17700000  0.99200000  0.16900000  1.0 0.0031437796
F  F6  1  0.16400000  0.06100000  0.22500000  1.0 0.0064584629
F  F7  1  0.14800000  0.91800000  0.06600000  1.0 -0.0024978108
F  F8  1  0.82300000  0.00800000  0.83100000  1.0 0.0031437796
F  F9  1  0.83600000  0.93900000  0.77500000  1.0 0.0064584629
F  F10  1  0.85200000  0.08200000  0.93400000  1.0 -0.0024978108
F  F11  1  0.99200000  0.82300000  0.81500000  1.0 0.0031437796
F  F12  1  0.06100000  0.83600000  0.89700000  1.0 0.0064584629
F  F13  1  0.91800000  0.85200000  0.77000000  1.0 -0.0024978108
F  F14  1  0.00800000  0.17700000  0.18500000  1.0 0.0031437796
F  F15  1  0.93900000  0.16400000  0.10300000  1.0 0.0064584629
F  F16  1  0.08200000  0.14800000  0.23000000  1.0 0.0031437796
F  F17  1  0.67700000  0.50800000  0.18500000  1.0 0.0031437796
F  F18  1  0.66400000  0.43900000  0.10300000  1.0 0.0064584629
F  F19  1  0.64800000  0.58200000  0.23000000  1.0 -0.0024978108
F  F20  1  0.32300000  0.49200000  0.81500000  1.0 0.0031437796
F  F21  1  0.33600000  0.56100000  0.89700000  1.0 0.0064584629
F  F22  1  0.35200000  0.41800000  0.77000000  1.0 -0.0024978108
F  F23  1  0.49200000  0.67700000  0.16900000  1.0 0.0031437796
F  F24  1  0.56100000  0.66400000  0.22500000  1.0 0.0064584629
F  F25  1  0.41800000  0.64800000  0.06600000  1.0 -0.0024978108
F  F26  1  0.50800000  0.32300000  0.83100000  1.0 0.0031437796
F  F27  1  0.43900000  0.33600000  0.77500000  1.0 0.0064584629
F  F28  1  0.58200000  0.35200000  0.93400000  1.0 -0.0024978108
