# DDEC6 charges by PACMAN v1.1 (https://github.com/mtap-research/PACMAN-charge/)
data_QOXSUT_ASR_pacman
_symmetry_space_group_name_H-M   'P 1'
_cell_length_a   15.91390000
_cell_length_b   16.03590000
_cell_length_c   18.04940000
_cell_angle_alpha   106.39300000
_cell_angle_beta   97.74700000
_cell_angle_gamma   95.35100000
_symmetry_Int_Tables_number   1
_chemical_formula_structural   Cd2H39C48N16Cl6O23
_chemical_formula_sum   'Cd4 H78 C96 N32 Cl12 O46'
_cell_volume   4336.54868482
_cell_formula_units_Z   2
loop_
 _symmetry_equiv_pos_site_id
 _symmetry_equiv_pos_as_xyz
  1  'x, y, z'
loop_
 _atom_site_type_symbol
 _atom_site_label
 _atom_site_symmetry_multiplicity
 _atom_site_fract_x
 _atom_site_fract_y
 _atom_site_fract_z
 _atom_site_occupancy
 _atom_site_charge
Cd  Cd1  1  0.62513000  0.88910000  0.63614000  1.0 0.7346514087
Cd  Cd2  1  0.37487000  0.11090000  0.36386000  1.0 0.7359467369
Cd  Cd3  1  0.60590000  0.38812000  0.13361000  1.0 0.693536542
Cd  Cd4  1  0.39410000  0.61188000  0.86639000  1.0 0.693536542
H  H1  1  0.60440000  0.07400000  0.75670000  1.0 0.0898368584
H  H2  1  0.61010000  0.22250000  0.77360000  1.0 0.129154991
H  H3  1  0.66110000  0.03500000  0.54820000  1.0 0.0898368584
H  H4  1  0.66920000  0.18120000  0.55980000  1.0 0.129154991
H  H5  1  0.63420000  0.35040000  0.72670000  1.0 0.0898368584
H  H6  1  0.62570000  0.42840000  0.54050000  1.0 0.0898368584
H  H7  1  0.69270000  0.60850000  0.71320000  1.0 0.1187786843
H  H8  1  0.68970000  0.75260000  0.72350000  1.0 0.0898368584
H  H9  1  0.58030000  0.69640000  0.50910000  1.0 0.0898368584
H  H10  1  0.58500000  0.54960000  0.49190000  1.0 0.1187786843
H  H11  1  0.46110000  0.74550000  0.60790000  1.0 0.0999354055
H  H12  1  0.31500000  0.72640000  0.60120000  1.0 0.129154991
H  H13  1  0.31960000  0.98480000  0.63510000  1.0 0.1097629019
H  H14  1  0.46460000  0.99540000  0.63600000  1.0 0.0898368584
H  H15  1  0.17590000  0.78730000  0.59460000  1.0 0.0999354055
H  H16  1  0.07870000  0.99820000  0.70170000  1.0 0.1097629019
H  H17  1  0.94240000  0.03960000  0.75480000  1.0 0.1385105919
H  H18  1  0.79390000  0.01550000  0.74110000  1.0 0.0898368584
H  H19  1  0.78080000  0.80340000  0.56610000  1.0 0.0898368584
H  H20  1  0.92750000  0.81950000  0.57570000  1.0 0.129154991
H  H21  1  0.39560000  0.92600000  0.24330000  1.0 0.0898368584
H  H22  1  0.38990000  0.77750000  0.22640000  1.0 0.129154991
H  H23  1  0.33890000  0.96500000  0.45180000  1.0 0.0898368584
H  H24  1  0.33080000  0.81880000  0.44020000  1.0 0.129154991
H  H25  1  0.36580000  0.64960000  0.27330000  1.0 0.0898368584
H  H26  1  0.37430000  0.57160000  0.45950000  1.0 0.0898368584
H  H27  1  0.30730000  0.39150000  0.28680000  1.0 0.1187786843
H  H28  1  0.31030000  0.24740000  0.27650000  1.0 0.0898368584
H  H29  1  0.41970000  0.30360000  0.49090000  1.0 0.0898368584
H  H30  1  0.41500000  0.45040000  0.50810000  1.0 0.1187786843
H  H31  1  0.53890000  0.25450000  0.39210000  1.0 0.0999354055
H  H32  1  0.68500000  0.27360000  0.39880000  1.0 0.129154991
H  H33  1  0.68040000  0.01520000  0.36490000  1.0 0.1097629019
H  H34  1  0.53540000  0.00460000  0.36400000  1.0 0.0898368584
H  H35  1  0.82410000  0.21270000  0.40540000  1.0 0.0999354055
H  H36  1  0.92130000  0.00180000  0.29830000  1.0 0.1097629019
H  H37  1  0.05760000  0.96040000  0.24520000  1.0 0.1385105919
H  H38  1  0.20610000  0.98450000  0.25890000  1.0 0.0898368584
H  H39  1  0.21920000  0.19660000  0.43390000  1.0 0.0898368584
H  H40  1  0.07250000  0.18050000  0.42430000  1.0 0.129154991
H  H41  1  0.61330000  0.24630000  0.22720000  1.0 0.0707776121
H  H42  1  0.60710000  0.09770000  0.21440000  1.0 0.129154991
H  H43  1  0.59500000  0.05270000  0.98400000  1.0 0.0999354055
H  H44  1  0.59240000  0.19990000  0.00180000  1.0 0.0999354055
H  H45  1  0.60780000  0.92680000  0.03540000  1.0 0.0821414885
H  H46  1  0.60770000  0.84820000  0.22590000  1.0 0.0898368584
H  H47  1  0.60770000  0.72220000  0.27730000  1.0 0.1097629019
H  H48  1  0.60890000  0.57520000  0.26050000  1.0 0.0821414885
H  H49  1  0.61170000  0.52970000  0.03760000  1.0 0.0898368584
H  H50  1  0.61290000  0.67670000  0.04820000  1.0 0.1187786843
H  H51  1  0.43900000  0.24180000  0.08800000  1.0 0.0898368584
H  H52  1  0.29240000  0.22260000  0.07820000  1.0 0.1187786843
H  H53  1  0.30220000  0.48510000  0.14740000  1.0 0.129154991
H  H54  1  0.44720000  0.49660000  0.15270000  1.0 0.0898368584
H  H55  1  0.15770000  0.28750000  0.08520000  1.0 0.1097629019
H  H56  1  0.05880000  0.49440000  0.20600000  1.0 0.1097629019
H  H57  1  0.90830000  0.31600000  0.07700000  1.0 0.1385105919
H  H58  1  0.77460000  0.51520000  0.23910000  1.0 0.0898368584
H  H59  1  0.92170000  0.53780000  0.25260000  1.0 0.1385105919
H  H60  1  0.38670000  0.75370000  0.77280000  1.0 0.0707776121
H  H61  1  0.39290000  0.90230000  0.78560000  1.0 0.129154991
H  H62  1  0.40500000  0.94730000  0.01600000  1.0 0.0999354055
H  H63  1  0.40760000  0.80010000  0.99820000  1.0 0.0999354055
H  H64  1  0.39220000  0.07320000  0.96460000  1.0 0.0821414885
H  H65  1  0.39230000  0.15180000  0.77410000  1.0 0.0898368584
H  H66  1  0.39230000  0.27780000  0.72270000  1.0 0.1097629019
H  H67  1  0.39110000  0.42480000  0.73950000  1.0 0.0821414885
H  H68  1  0.38830000  0.47030000  0.96240000  1.0 0.0898368584
H  H69  1  0.38710000  0.32330000  0.95180000  1.0 0.1187786843
H  H70  1  0.56100000  0.75820000  0.91200000  1.0 0.0898368584
H  H71  1  0.70760000  0.77740000  0.92180000  1.0 0.1187786843
H  H72  1  0.69780000  0.51490000  0.85260000  1.0 0.129154991
H  H73  1  0.55280000  0.50340000  0.84730000  1.0 0.0898368584
H  H74  1  0.84230000  0.71250000  0.91480000  1.0 0.1097629019
H  H75  1  0.94120000  0.50560000  0.79400000  1.0 0.1097629019
H  H76  1  0.09170000  0.68400000  0.92300000  1.0 0.1385105919
H  H77  1  0.22540000  0.48480000  0.76090000  1.0 0.0898368584
H  H78  1  0.07830000  0.46220000  0.74740000  1.0 0.1385105919
C  C1  1  0.61730000  0.09560000  0.71630000  1.0 0.0201523673
C  C2  1  0.62050000  0.18540000  0.72680000  1.0 -0.1484472699
C  C3  1  0.65070000  0.07320000  0.59440000  1.0 0.0201523673
C  C4  1  0.65520000  0.16110000  0.60080000  1.0 -0.1355969239
C  C5  1  0.63900000  0.21900000  0.66790000  1.0 0.1097629019
C  C6  1  0.64270000  0.31380000  0.67900000  1.0 0.041315685
C  C7  1  0.63940000  0.46750000  0.59080000  1.0 0.059695323
C  C8  1  0.63810000  0.56170000  0.60200000  1.0 0.0999354055
C  C9  1  0.66890000  0.62420000  0.67000000  1.0 -0.1279860937
C  C10  1  0.66530000  0.71120000  0.67610000  1.0 0.0501892042
C  C11  1  0.60260000  0.67860000  0.55160000  1.0 -0.0187359975
C  C12  1  0.60540000  0.58990000  0.54080000  1.0 -0.1608147326
C  C13  1  0.43220000  0.79400000  0.61230000  1.0 0.0201523673
C  C14  1  0.34430000  0.78190000  0.60880000  1.0 -0.1484472699
C  C15  1  0.30120000  0.85320000  0.61650000  1.0 0.1097629019
C  C16  1  0.34700000  0.93500000  0.62830000  1.0 -0.1608147326
C  C17  1  0.43410000  0.94080000  0.62950000  1.0 -0.0438586281
C  C18  1  0.20780000  0.84270000  0.61530000  1.0 0.0501892042
C  C19  1  0.04640000  0.94560000  0.67050000  1.0 0.041315685
C  C20  1  0.95070000  0.93150000  0.66460000  1.0 0.1097629019
C  C21  1  0.91080000  0.99150000  0.71620000  1.0 -0.1799969334
C  C22  1  0.82120000  0.97630000  0.70720000  1.0 0.0707776121
C  C23  1  0.81360000  0.85120000  0.60430000  1.0 0.0707776121
C  C24  1  0.90180000  0.86070000  0.60940000  1.0 -0.1484472699
C  C25  1  0.38270000  0.90440000  0.28370000  1.0 0.0201523673
C  C26  1  0.37950000  0.81460000  0.27320000  1.0 -0.1484472699
C  C27  1  0.34930000  0.92680000  0.40560000  1.0 0.0201523673
C  C28  1  0.34480000  0.83890000  0.39920000  1.0 -0.1355969239
C  C29  1  0.36100000  0.78100000  0.33210000  1.0 0.1097629019
C  C30  1  0.35730000  0.68620000  0.32100000  1.0 0.041315685
C  C31  1  0.36060000  0.53250000  0.40920000  1.0 0.059695323
C  C32  1  0.36190000  0.43830000  0.39800000  1.0 0.0999354055
C  C33  1  0.33110000  0.37580000  0.33000000  1.0 -0.1279860937
C  C34  1  0.33470000  0.28880000  0.32390000  1.0 0.0501892042
C  C35  1  0.39740000  0.32140000  0.44840000  1.0 -0.0187359975
C  C36  1  0.39460000  0.41010000  0.45920000  1.0 -0.1608147326
C  C37  1  0.56780000  0.20600000  0.38770000  1.0 0.0201523673
C  C38  1  0.65570000  0.21810000  0.39120000  1.0 -0.1484472699
C  C39  1  0.69880000  0.14680000  0.38350000  1.0 0.1187786843
C  C40  1  0.65300000  0.06500000  0.37170000  1.0 -0.1608147326
C  C41  1  0.56590000  0.05920000  0.37050000  1.0 -0.0438586281
C  C42  1  0.79220000  0.15730000  0.38470000  1.0 0.0501892042
C  C43  1  0.95360000  0.05440000  0.32950000  1.0 0.041315685
C  C44  1  0.04930000  0.06850000  0.33540000  1.0 0.1097629019
C  C45  1  0.08920000  0.00850000  0.28380000  1.0 -0.1799969334
C  C46  1  0.17880000  0.02370000  0.29280000  1.0 0.0707776121
C  C47  1  0.18640000  0.14880000  0.39570000  1.0 0.0707776121
C  C48  1  0.09820000  0.13930000  0.39060000  1.0 -0.1484472699
C  C49  1  0.60890000  0.20670000  0.17760000  1.0 0.0501892042
C  C50  1  0.60710000  0.11740000  0.17060000  1.0 -0.1484472699
C  C51  1  0.60520000  0.05870000  0.09690000  1.0 0.1097629019
C  C52  1  0.59880000  0.09070000  0.03430000  1.0 -0.1608147326
C  C53  1  0.59790000  0.17970000  0.04550000  1.0 0.059695323
C  C54  1  0.60560000  0.96390000  0.08490000  1.0 0.0323643333
C  C55  1  0.60770000  0.81060000  0.17610000  1.0 0.0323643333
C  C56  1  0.60990000  0.71620000  0.16480000  1.0 0.1187786843
C  C57  1  0.60870000  0.68430000  0.22790000  1.0 -0.1799969334
C  C58  1  0.60910000  0.59560000  0.21720000  1.0 0.041315685
C  C59  1  0.61110000  0.56910000  0.08640000  1.0 0.059695323
C  C60  1  0.61150000  0.65750000  0.09210000  1.0 -0.1657026935
C  C61  1  0.41090000  0.29100000  0.09980000  1.0 0.0201523673
C  C62  1  0.32290000  0.27880000  0.09440000  1.0 -0.1799969334
C  C63  1  0.28100000  0.35210000  0.11360000  1.0 0.0999354055
C  C64  1  0.32880000  0.43490000  0.13520000  1.0 -0.1657026935
C  C65  1  0.41570000  0.44100000  0.13820000  1.0 0.059695323
C  C66  1  0.18980000  0.34190000  0.11160000  1.0 0.0323643333
C  C67  1  0.02640000  0.44250000  0.17360000  1.0 0.0323643333
C  C68  1  0.93150000  0.42920000  0.16680000  1.0 0.0999354055
C  C69  1  0.88220000  0.35700000  0.11050000  1.0 -0.1994463864
C  C70  1  0.80180000  0.47480000  0.20610000  1.0 0.0707776121
C  C71  1  0.89050000  0.48870000  0.21470000  1.0 -0.1994463864
C  C72  1  0.79420000  0.34680000  0.10480000  1.0 0.0501892042
C  C73  1  0.39110000  0.79330000  0.82240000  1.0 0.0501892042
C  C74  1  0.39290000  0.88260000  0.82940000  1.0 -0.1484472699
C  C75  1  0.39480000  0.94130000  0.90310000  1.0 0.1097629019
C  C76  1  0.40120000  0.90930000  0.96570000  1.0 -0.1608147326
C  C77  1  0.40210000  0.82030000  0.95450000  1.0 0.059695323
C  C78  1  0.39440000  0.03610000  0.91510000  1.0 0.0323643333
C  C79  1  0.39230000  0.18940000  0.82390000  1.0 0.0323643333
C  C80  1  0.39010000  0.28380000  0.83520000  1.0 0.1187786843
C  C81  1  0.39130000  0.31570000  0.77210000  1.0 -0.1799969334
C  C82  1  0.39090000  0.40440000  0.78280000  1.0 0.041315685
C  C83  1  0.38890000  0.43090000  0.91360000  1.0 0.059695323
C  C84  1  0.38850000  0.34250000  0.90790000  1.0 -0.1657026935
C  C85  1  0.58910000  0.70900000  0.90020000  1.0 0.0201523673
C  C86  1  0.67710000  0.72120000  0.90560000  1.0 -0.1799969334
C  C87  1  0.71900000  0.64790000  0.88640000  1.0 0.0999354055
C  C88  1  0.67120000  0.56510000  0.86480000  1.0 -0.1657026935
C  C89  1  0.58430000  0.55900000  0.86180000  1.0 0.059695323
C  C90  1  0.81020000  0.65810000  0.88840000  1.0 0.0323643333
C  C91  1  0.97360000  0.55750000  0.82640000  1.0 0.0323643333
C  C92  1  0.06850000  0.57080000  0.83320000  1.0 0.0999354055
C  C93  1  0.11780000  0.64300000  0.88950000  1.0 -0.1994463864
C  C94  1  0.19820000  0.52520000  0.79390000  1.0 0.0707776121
C  C95  1  0.10950000  0.51130000  0.78530000  1.0 -0.1994463864
C  C96  1  0.20580000  0.65320000  0.89520000  1.0 0.0501892042
N  N1  1  0.47737000  0.87130000  0.62180000  1.0 -0.3379449028
N  N2  1  0.17070000  0.90900000  0.64230000  1.0 -0.2205289736
N  N3  1  0.08140000  0.88440000  0.63220000  1.0 -0.1867446729
N  N4  1  0.77320000  0.90830000  0.65250000  1.0 -0.3092618961
N  N5  1  0.63196000  0.03962000  0.65121000  1.0 -0.3329472322
N  N6  1  0.65690000  0.34670000  0.62580000  1.0 -0.1799969334
N  N7  1  0.65860000  0.43860000  0.64830000  1.0 -0.1867446729
N  N8  1  0.63045000  0.73957000  0.62046000  1.0 -0.3092618961
N  N9  1  0.52263000  0.12870000  0.37820000  1.0 -0.3379449028
N  N10  1  0.82930000  0.09100000  0.35770000  1.0 -0.2205289736
N  N11  1  0.91860000  0.11560000  0.36780000  1.0 -0.1867446729
N  N12  1  0.22680000  0.09170000  0.34750000  1.0 -0.3092618961
N  N13  1  0.36804000  0.96038000  0.34879000  1.0 -0.3329472322
N  N14  1  0.34310000  0.65330000  0.37420000  1.0 -0.1799969334
N  N15  1  0.34140000  0.56140000  0.35170000  1.0 -0.1867446729
N  N16  1  0.36955000  0.26043000  0.37954000  1.0 -0.3092618961
N  N17  1  0.75380000  0.40560000  0.15210000  1.0 -0.2874193418
N  N18  1  0.15150000  0.40500000  0.14480000  1.0 -0.1994463864
N  N19  1  0.45763000  0.37105000  0.12130000  1.0 -0.3092618961
N  N20  1  0.60981000  0.53804000  0.14790000  1.0 -0.2722183842
N  N21  1  0.60580000  0.84100000  0.11790000  1.0 -0.1994463864
N  N22  1  0.60290000  0.93280000  0.14210000  1.0 -0.1799969334
N  N23  1  0.60450000  0.23725000  0.11578000  1.0 -0.2874193418
N  N24  1  0.06230000  0.38070000  0.13360000  1.0 -0.1867446729
N  N25  1  0.24620000  0.59440000  0.84790000  1.0 -0.2874193418
N  N26  1  0.84850000  0.59500000  0.85520000  1.0 -0.1994463864
N  N27  1  0.54237000  0.62895000  0.87870000  1.0 -0.3092618961
N  N28  1  0.39019000  0.46196000  0.85210000  1.0 -0.2722183842
N  N29  1  0.39420000  0.15900000  0.88210000  1.0 -0.1994463864
N  N30  1  0.39710000  0.06720000  0.85790000  1.0 -0.1799969334
N  N31  1  0.39550000  0.76275000  0.88422000  1.0 -0.2874193418
N  N32  1  0.93770000  0.61930000  0.86640000  1.0 -0.1867446729
Cl  Cl1  1  0.58719000  0.85063000  0.43998000  1.0 0.5097089034
Cl  Cl2  1  0.66641000  0.93453000  0.84568000  1.0 0.4545641464
Cl  Cl3  1  0.63043000  0.84568000  0.43128000  1.0 0.4587780309
Cl  Cl4  1  0.62250000  0.92234000  0.82949000  1.0 0.4703420621
Cl  Cl5  1  0.41281000  0.14937000  0.56002000  1.0 0.5097089034
Cl  Cl6  1  0.33359000  0.06547000  0.15432000  1.0 0.4545641464
Cl  Cl7  1  0.36957000  0.15432000  0.56872000  1.0 0.4587780309
Cl  Cl8  1  0.37750000  0.07766000  0.17051000  1.0 0.4703420621
Cl  Cl9  1  0.57657000  0.42191000  0.32624000  1.0 0.6687799912
Cl  Cl10  1  0.63540000  0.42855000  0.34116000  1.0 0.5633990985
Cl  Cl11  1  0.42343000  0.57809000  0.67376000  1.0 0.6687799912
Cl  Cl12  1  0.36460000  0.57145000  0.65884000  1.0 0.5633990985
O  O1  1  0.63080000  0.86840000  0.38010000  1.0 0.0707776121
O  O2  1  0.52920000  0.91240000  0.46170000  1.0 -0.3092618961
O  O3  1  0.58020000  0.86190000  0.49500000  1.0 0.0323643333
O  O4  1  0.54420000  0.76230000  0.41330000  1.0 -0.1994463864
O  O5  1  0.60160000  0.90750000  0.76880000  1.0 0.0323643333
O  O6  1  0.73530000  0.88760000  0.83470000  1.0 -0.2752342302
O  O7  1  0.61250000  0.90840000  0.89840000  1.0 -0.0860781897
O  O8  1  0.68610000  0.02650000  0.86780000  1.0 -0.2341293473
O  O9  1  0.57870000  0.85530000  0.36360000  1.0 -0.1203913394
O  O10  1  0.65080000  0.75760000  0.41620000  1.0 -0.2205289736
O  O11  1  0.65290000  0.86020000  0.50900000  1.0 -0.1095085073
O  O12  1  0.70670000  0.90770000  0.45400000  1.0 -0.2205289736
O  O13  1  0.65330000  0.92030000  0.90150000  1.0 0.0039595632
O  O14  1  0.56200000  0.98920000  0.83700000  1.0 -0.2205289736
O  O15  1  0.66020000  0.92510000  0.77110000  1.0 -0.1203913394
O  O16  1  0.56030000  0.83710000  0.79460000  1.0 -0.2991064667
O  O17  1  0.36920000  0.13160000  0.61990000  1.0 0.059695323
O  O18  1  0.47080000  0.08760000  0.53830000  1.0 -0.3092618961
O  O19  1  0.41980000  0.13810000  0.50500000  1.0 0.0323643333
O  O20  1  0.45580000  0.23770000  0.58670000  1.0 -0.1994463864
O  O21  1  0.39840000  0.09250000  0.23120000  1.0 0.0323643333
O  O22  1  0.26470000  0.11240000  0.16530000  1.0 -0.2752342302
O  O23  1  0.38750000  0.09160000  0.10160000  1.0 -0.0860781897
O  O24  1  0.31390000  0.97350000  0.13220000  1.0 -0.2341293473
O  O25  1  0.42130000  0.14470000  0.63640000  1.0 -0.1203913394
O  O26  1  0.34920000  0.24240000  0.58380000  1.0 -0.2205289736
O  O27  1  0.34710000  0.13980000  0.49100000  1.0 -0.1095085073
O  O28  1  0.29330000  0.09230000  0.54600000  1.0 -0.2205289736
O  O29  1  0.34670000  0.07970000  0.09850000  1.0 0.0039595632
O  O30  1  0.43800000  0.01080000  0.16300000  1.0 -0.2205289736
O  O31  1  0.33980000  0.07490000  0.22890000  1.0 -0.1279860937
O  O32  1  0.43970000  0.16290000  0.20540000  1.0 -0.2991064667
O  O33  1  0.61740000  0.41300000  0.39780000  1.0 -0.2550257224
O  O34  1  0.64000000  0.42410000  0.27240000  1.0 -0.0341453761
O  O35  1  0.51320000  0.34830000  0.29240000  1.0 -0.387811147
O  O36  1  0.54200000  0.50230000  0.34210000  1.0 -0.3645971942
O  O37  1  0.58650000  0.41210000  0.27340000  1.0 0.0999354055
O  O38  1  0.67630000  0.52050000  0.36740000  1.0 -0.2991064667
O  O39  1  0.70760000  0.37590000  0.32950000  1.0 -0.3204263229
O  O40  1  0.38260000  0.58700000  0.60220000  1.0 -0.2550257224
O  O41  1  0.36000000  0.57590000  0.72760000  1.0 -0.0341453761
O  O42  1  0.48680000  0.65170000  0.70760000  1.0 -0.387811147
O  O43  1  0.45800000  0.49770000  0.65790000  1.0 -0.3645971942
O  O44  1  0.41350000  0.58790000  0.72660000  1.0 0.0999354055
O  O45  1  0.32370000  0.47950000  0.63260000  1.0 -0.3092618961
O  O46  1  0.29240000  0.62410000  0.67050000  1.0 -0.3204263229
