# DDEC6 charges by PACMAN v1.1 (https://github.com/mtap-research/PACMAN-charge/)
data_QOXSON_FSR_pacman
_symmetry_space_group_name_H-M   'P 1'
_cell_length_a   11.98130000
_cell_length_b   22.62900000
_cell_length_c   13.41930000
_cell_angle_alpha   90.00000000
_cell_angle_beta   103.46500000
_cell_angle_gamma   90.00000000
_symmetry_Int_Tables_number   1
_chemical_formula_structural   CdH20C24N8(ClO4)2
_chemical_formula_sum   'Cd4 H80 C96 N32 Cl8 O32'
_cell_volume   3538.29703858
_cell_formula_units_Z   4
loop_
 _symmetry_equiv_pos_site_id
 _symmetry_equiv_pos_as_xyz
  1  'x, y, z'
loop_
 _atom_site_type_symbol
 _atom_site_label
 _atom_site_symmetry_multiplicity
 _atom_site_fract_x
 _atom_site_fract_y
 _atom_site_fract_z
 _atom_site_occupancy
 _atom_site_charge
Cd  Cd1  1  0.65724000  0.86834000  0.82186000  1.0 0.7711228567
Cd  Cd2  1  0.65724000  0.63166000  0.32186000  1.0 0.7711228567
Cd  Cd3  1  0.34276000  0.36834000  0.67814000  1.0 0.7711228567
Cd  Cd4  1  0.34276000  0.13166000  0.17814000  1.0 0.7711228567
H  H1  1  0.57770000  0.91320000  0.02800000  1.0 0.1009153761
H  H2  1  0.57770000  0.58680000  0.52800000  1.0 0.1009153761
H  H3  1  0.45790000  0.88620000  0.13400000  1.0 0.1312448698
H  H4  1  0.45790000  0.61380000  0.63400000  1.0 0.1312448698
H  H5  1  0.28030000  0.78410000  0.90230000  1.0 0.1232384104
H  H6  1  0.28030000  0.71590000  0.40230000  1.0 0.1232384104
H  H7  1  0.41300000  0.80840000  0.80840000  1.0 0.1009153761
H  H8  1  0.41300000  0.69160000  0.30840000  1.0 0.1009153761
H  H9  1  0.28740000  0.82850000  0.16230000  1.0 0.1009153761
H  H10  1  0.28740000  0.67150000  0.66230000  1.0 0.1009153761
H  H11  1  0.05140000  0.71000000  0.02300000  1.0 0.0902400894
H  H12  1  0.05140000  0.79000000  0.52300000  1.0 0.0902400894
H  H13  1  0.02710000  0.74630000  0.28200000  1.0 0.1232384104
H  H14  1  0.02710000  0.75370000  0.78200000  1.0 0.1232384104
H  H15  1  0.88810000  0.64790000  0.03030000  1.0 0.137137721
H  H16  1  0.88810000  0.85210000  0.53030000  1.0 0.137137721
H  H17  1  0.75530000  0.61120000  0.11720000  1.0 0.1069653867
H  H18  1  0.75530000  0.88880000  0.61720000  1.0 0.1069653867
H  H19  1  0.88430000  0.71090000  0.35730000  1.0 0.1009153761
H  H20  1  0.88430000  0.78910000  0.85730000  1.0 0.1009153761
H  H21  1  0.88800000  0.93730000  0.91890000  1.0 0.1009153761
H  H22  1  0.88800000  0.56270000  0.41890000  1.0 0.1009153761
H  H23  1  0.02810000  0.95130000  0.06880000  1.0 0.137137721
H  H24  1  0.02810000  0.54870000  0.56880000  1.0 0.137137721
H  H25  1  0.85870000  0.83370000  0.20910000  1.0 0.1312448698
H  H26  1  0.85870000  0.66630000  0.70910000  1.0 0.1312448698
H  H27  1  0.72690000  0.82080000  0.05370000  1.0 0.1069653867
H  H28  1  0.72690000  0.67920000  0.55370000  1.0 0.1069653867
H  H29  1  0.10260000  0.93300000  0.25580000  1.0 0.1009153761
H  H30  1  0.10260000  0.56700000  0.75580000  1.0 0.1009153761
H  H31  1  0.24550000  0.83660000  0.35320000  1.0 0.1009153761
H  H32  1  0.24550000  0.66340000  0.85320000  1.0 0.1009153761
H  H33  1  0.44220000  0.81010000  0.44610000  1.0 0.1312448698
H  H34  1  0.44220000  0.68990000  0.94610000  1.0 0.1312448698
H  H35  1  0.59130000  0.81370000  0.59180000  1.0 0.1009153761
H  H36  1  0.59130000  0.68630000  0.09180000  1.0 0.1009153761
H  H37  1  0.41730000  0.92380000  0.72590000  1.0 0.1069653867
H  H38  1  0.41730000  0.57620000  0.22590000  1.0 0.1069653867
H  H39  1  0.25820000  0.91750000  0.58880000  1.0 0.1312448698
H  H40  1  0.25820000  0.58250000  0.08880000  1.0 0.1312448698
H  H41  1  0.42230000  0.41320000  0.47200000  1.0 0.1009153761
H  H42  1  0.42230000  0.08680000  0.97200000  1.0 0.1009153761
H  H43  1  0.54210000  0.38620000  0.36600000  1.0 0.1312448698
H  H44  1  0.54210000  0.11380000  0.86600000  1.0 0.1312448698
H  H45  1  0.71970000  0.28410000  0.59770000  1.0 0.1232384104
H  H46  1  0.71970000  0.21590000  0.09770000  1.0 0.1232384104
H  H47  1  0.58700000  0.30840000  0.69160000  1.0 0.1009153761
H  H48  1  0.58700000  0.19160000  0.19160000  1.0 0.1009153761
H  H49  1  0.71260000  0.32850000  0.33770000  1.0 0.1009153761
H  H50  1  0.71260000  0.17150000  0.83770000  1.0 0.1009153761
H  H51  1  0.94860000  0.21000000  0.47700000  1.0 0.0902400894
H  H52  1  0.94860000  0.29000000  0.97700000  1.0 0.0902400894
H  H53  1  0.97290000  0.24630000  0.21800000  1.0 0.1232384104
H  H54  1  0.97290000  0.25370000  0.71800000  1.0 0.1232384104
H  H55  1  0.11190000  0.14790000  0.46970000  1.0 0.137137721
H  H56  1  0.11190000  0.35210000  0.96970000  1.0 0.137137721
H  H57  1  0.24470000  0.11120000  0.38280000  1.0 0.1069653867
H  H58  1  0.24470000  0.38880000  0.88280000  1.0 0.1069653867
H  H59  1  0.11570000  0.21090000  0.14270000  1.0 0.1009153761
H  H60  1  0.11570000  0.28910000  0.64270000  1.0 0.1009153761
H  H61  1  0.11200000  0.43730000  0.58110000  1.0 0.1009153761
H  H62  1  0.11200000  0.06270000  0.08110000  1.0 0.1009153761
H  H63  1  0.97190000  0.45130000  0.43120000  1.0 0.137137721
H  H64  1  0.97190000  0.04870000  0.93120000  1.0 0.137137721
H  H65  1  0.14130000  0.33370000  0.29090000  1.0 0.1312448698
H  H66  1  0.14130000  0.16630000  0.79090000  1.0 0.1312448698
H  H67  1  0.27310000  0.32080000  0.44630000  1.0 0.1069653867
H  H68  1  0.27310000  0.17920000  0.94630000  1.0 0.1069653867
H  H69  1  0.89740000  0.43300000  0.24420000  1.0 0.1009153761
H  H70  1  0.89740000  0.06700000  0.74420000  1.0 0.1009153761
H  H71  1  0.75450000  0.33660000  0.14680000  1.0 0.1009153761
H  H72  1  0.75450000  0.16340000  0.64680000  1.0 0.1009153761
H  H73  1  0.55780000  0.31010000  0.05390000  1.0 0.1312448698
H  H74  1  0.55780000  0.18990000  0.55390000  1.0 0.1312448698
H  H75  1  0.40870000  0.31370000  0.90820000  1.0 0.1009153761
H  H76  1  0.40870000  0.18630000  0.40820000  1.0 0.1009153761
H  H77  1  0.58270000  0.42380000  0.77410000  1.0 0.1069653867
H  H78  1  0.58270000  0.07620000  0.27410000  1.0 0.1069653867
H  H79  1  0.74180000  0.41750000  0.91120000  1.0 0.1312448698
H  H80  1  0.74180000  0.08250000  0.41120000  1.0 0.1312448698
C  C1  1  0.51860000  0.88523000  0.00372000  1.0 0.0902400894
C  C2  1  0.51860000  0.61477000  0.50372000  1.0 0.0902400894
C  C3  1  0.44630000  0.87009000  0.06701000  1.0 -0.1527795357
C  C4  1  0.44630000  0.62991000  0.56701000  1.0 -0.1527795357
C  C5  1  0.35670000  0.83094000  0.03030000  1.0 0.1312448698
C  C6  1  0.35670000  0.66906000  0.53030000  1.0 0.1312448698
C  C7  1  0.34300000  0.80929000  0.93100000  1.0 -0.179885126
C  C8  1  0.34300000  0.69071000  0.43100000  1.0 -0.179885126
C  C9  1  0.42130000  0.82486000  0.87490000  1.0 0.078037003
C  C10  1  0.42130000  0.67514000  0.37490000  1.0 0.078037003
C  C11  1  0.27900000  0.81265000  0.09540000  1.0 0.063409439
C  C12  1  0.27900000  0.68735000  0.59540000  1.0 0.063409439
C  C13  1  0.05570000  0.72357000  0.09080000  1.0 0.039467408
C  C14  1  0.05570000  0.77643000  0.59080000  1.0 0.039467408
C  C15  1  0.97230000  0.70132000  0.14690000  1.0 0.1232384104
C  C16  1  0.97230000  0.79868000  0.64690000  1.0 0.1232384104
C  C17  1  0.97110000  0.71951000  0.24600000  1.0 -0.179885126
C  C18  1  0.97110000  0.78049000  0.74600000  1.0 -0.179885126
C  C19  1  0.88980000  0.66085000  0.09790000  1.0 -0.1878452388
C  C20  1  0.88980000  0.83915000  0.59790000  1.0 -0.1878452388
C  C21  1  0.80980000  0.63976000  0.14979000  1.0 0.0902400894
C  C22  1  0.80980000  0.86024000  0.64979000  1.0 0.0902400894
C  C23  1  0.88630000  0.69758000  0.29055000  1.0 0.078037003
C  C24  1  0.88630000  0.80242000  0.79055000  1.0 0.078037003
C  C25  1  0.88280000  0.91584000  0.97850000  1.0 0.078037003
C  C26  1  0.88280000  0.58416000  0.47850000  1.0 0.078037003
C  C27  1  0.96650000  0.92463000  0.06768000  1.0 -0.179885126
C  C28  1  0.96650000  0.57537000  0.56768000  1.0 -0.179885126
C  C29  1  0.95881000  0.89376000  0.15582000  1.0 0.1232384104
C  C30  1  0.95881000  0.60624000  0.65582000  1.0 0.1232384104
C  C31  1  0.86700000  0.85499000  0.15025000  1.0 -0.1620740729
C  C32  1  0.86700000  0.64501000  0.65025000  1.0 -0.1620740729
C  C33  1  0.78818000  0.84804000  0.05758000  1.0 0.078037003
C  C34  1  0.78818000  0.65196000  0.55758000  1.0 0.078037003
C  C35  1  0.04790000  0.90213000  0.25108000  1.0 0.039467408
C  C36  1  0.04790000  0.59787000  0.75108000  1.0 0.039467408
C  C37  1  0.23540000  0.85676000  0.41261000  1.0 0.04742071
C  C38  1  0.23540000  0.64324000  0.91261000  1.0 0.04742071
C  C39  1  0.33300000  0.86230000  0.50248000  1.0 0.1232384104
C  C40  1  0.33300000  0.63770000  0.00248000  1.0 0.1232384104
C  C41  1  0.43410000  0.83251000  0.50390000  1.0 -0.167648521
C  C42  1  0.43410000  0.66749000  0.00390000  1.0 -0.167648521
C  C43  1  0.52340000  0.83564000  0.59050000  1.0 0.0902400894
C  C44  1  0.52340000  0.66436000  0.09050000  1.0 0.0902400894
C  C45  1  0.42090000  0.89917000  0.66942000  1.0 0.078037003
C  C46  1  0.42090000  0.60083000  0.16942000  1.0 0.078037003
C  C47  1  0.32640000  0.89644000  0.58730000  1.0 -0.1620740729
C  C48  1  0.32640000  0.60356000  0.08730000  1.0 -0.1620740729
C  C49  1  0.48140000  0.38523000  0.49628000  1.0 0.0902400894
C  C50  1  0.48140000  0.11477000  0.99628000  1.0 0.0902400894
C  C51  1  0.55370000  0.37009000  0.43299000  1.0 -0.1527795357
C  C52  1  0.55370000  0.12991000  0.93299000  1.0 -0.1527795357
C  C53  1  0.64330000  0.33094000  0.46970000  1.0 0.1312448698
C  C54  1  0.64330000  0.16906000  0.96970000  1.0 0.1312448698
C  C55  1  0.65700000  0.30929000  0.56900000  1.0 -0.179885126
C  C56  1  0.65700000  0.19071000  0.06900000  1.0 -0.179885126
C  C57  1  0.57870000  0.32486000  0.62510000  1.0 0.078037003
C  C58  1  0.57870000  0.17514000  0.12510000  1.0 0.078037003
C  C59  1  0.72100000  0.31265000  0.40460000  1.0 0.063409439
C  C60  1  0.72100000  0.18735000  0.90460000  1.0 0.063409439
C  C61  1  0.94430000  0.22357000  0.40920000  1.0 0.039467408
C  C62  1  0.94430000  0.27643000  0.90920000  1.0 0.039467408
C  C63  1  0.02770000  0.20132000  0.35310000  1.0 0.1232384104
C  C64  1  0.02770000  0.29868000  0.85310000  1.0 0.1232384104
C  C65  1  0.02890000  0.21951000  0.25400000  1.0 -0.179885126
C  C66  1  0.02890000  0.28049000  0.75400000  1.0 -0.179885126
C  C67  1  0.11020000  0.16085000  0.40210000  1.0 -0.1878452388
C  C68  1  0.11020000  0.33915000  0.90210000  1.0 -0.1878452388
C  C69  1  0.19020000  0.13976000  0.35021000  1.0 0.0902400894
C  C70  1  0.19020000  0.36024000  0.85021000  1.0 0.0902400894
C  C71  1  0.11370000  0.19758000  0.20945000  1.0 0.078037003
C  C72  1  0.11370000  0.30242000  0.70945000  1.0 0.078037003
C  C73  1  0.11720000  0.41584000  0.52150000  1.0 0.078037003
C  C74  1  0.11720000  0.08416000  0.02150000  1.0 0.078037003
C  C75  1  0.03350000  0.42463000  0.43232000  1.0 -0.179885126
C  C76  1  0.03350000  0.07537000  0.93232000  1.0 -0.179885126
C  C77  1  0.04119000  0.39376000  0.34418000  1.0 0.1232384104
C  C78  1  0.04119000  0.10624000  0.84418000  1.0 0.1232384104
C  C79  1  0.13300000  0.35499000  0.34975000  1.0 -0.167648521
C  C80  1  0.13300000  0.14501000  0.84975000  1.0 -0.167648521
C  C81  1  0.21182000  0.34804000  0.44242000  1.0 0.078037003
C  C82  1  0.21182000  0.15196000  0.94242000  1.0 0.078037003
C  C83  1  0.95210000  0.40213000  0.24892000  1.0 0.039467408
C  C84  1  0.95210000  0.09787000  0.74892000  1.0 0.039467408
C  C85  1  0.76460000  0.35676000  0.08739000  1.0 0.04742071
C  C86  1  0.76460000  0.14324000  0.58739000  1.0 0.04742071
C  C87  1  0.66700000  0.36230000  0.99752000  1.0 0.1232384104
C  C88  1  0.66700000  0.13770000  0.49752000  1.0 0.1232384104
C  C89  1  0.56590000  0.33251000  0.99610000  1.0 -0.167648521
C  C90  1  0.56590000  0.16749000  0.49610000  1.0 -0.167648521
C  C91  1  0.47660000  0.33564000  0.90950000  1.0 0.0902400894
C  C92  1  0.47660000  0.16436000  0.40950000  1.0 0.0902400894
C  C93  1  0.57910000  0.39917000  0.83058000  1.0 0.078037003
C  C94  1  0.57910000  0.10083000  0.33058000  1.0 0.078037003
C  C95  1  0.67360000  0.39644000  0.91270000  1.0 -0.1620740729
C  C96  1  0.67360000  0.10356000  0.41270000  1.0 -0.1620740729
N  N1  1  0.50895000  0.86224000  0.91003000  1.0 -0.2405192529
N  N2  1  0.50895000  0.63776000  0.41003000  1.0 -0.2405192529
N  N3  1  0.20040000  0.77508000  0.05980000  1.0 -0.1878452388
N  N4  1  0.20040000  0.72492000  0.55980000  1.0 -0.1878452388
N  N5  1  0.13380000  0.76077000  0.13100000  1.0 -0.179885126
N  N6  1  0.13380000  0.73923000  0.63100000  1.0 -0.179885126
N  N7  1  0.80686000  0.65836000  0.24389000  1.0 -0.2405192529
N  N8  1  0.80686000  0.84164000  0.74389000  1.0 -0.2405192529
N  N9  1  0.79475000  0.87823000  0.97266000  1.0 -0.2468744584
N  N10  1  0.79475000  0.62177000  0.47266000  1.0 -0.2468744584
N  N11  1  0.05130000  0.86782000  0.32722000  1.0 -0.167648521
N  N12  1  0.05130000  0.63218000  0.82722000  1.0 -0.167648521
N  N13  1  0.13804000  0.87867000  0.41380000  1.0 -0.167648521
N  N14  1  0.13804000  0.62133000  0.91380000  1.0 -0.167648521
N  N15  1  0.51784000  0.86834000  0.67237000  1.0 -0.2468744584
N  N16  1  0.51784000  0.63166000  0.17237000  1.0 -0.2468744584
N  N17  1  0.49105000  0.36224000  0.58997000  1.0 -0.2405192529
N  N18  1  0.49105000  0.13776000  0.08997000  1.0 -0.2405192529
N  N19  1  0.79960000  0.27508000  0.44020000  1.0 -0.1878452388
N  N20  1  0.79960000  0.22492000  0.94020000  1.0 -0.1878452388
N  N21  1  0.86620000  0.26077000  0.36900000  1.0 -0.179885126
N  N22  1  0.86620000  0.23923000  0.86900000  1.0 -0.179885126
N  N23  1  0.19314000  0.15836000  0.25611000  1.0 -0.2405192529
N  N24  1  0.19314000  0.34164000  0.75611000  1.0 -0.2405192529
N  N25  1  0.20525000  0.37823000  0.52734000  1.0 -0.2468744584
N  N26  1  0.20525000  0.12177000  0.02734000  1.0 -0.2468744584
N  N27  1  0.94870000  0.36782000  0.17278000  1.0 -0.167648521
N  N28  1  0.94870000  0.13218000  0.67278000  1.0 -0.167648521
N  N29  1  0.86196000  0.37867000  0.08620000  1.0 -0.167648521
N  N30  1  0.86196000  0.12133000  0.58620000  1.0 -0.167648521
N  N31  1  0.48216000  0.36834000  0.82763000  1.0 -0.2468744584
N  N32  1  0.48216000  0.13166000  0.32763000  1.0 -0.2468744584
Cl  Cl1  1  0.62667000  0.71198000  0.80361000  1.0 1.2686451363
Cl  Cl2  1  0.62667000  0.78802000  0.30361000  1.0 1.2686451363
Cl  Cl3  1  0.67389000  0.01359000  0.79969000  1.0 1.2524458158
Cl  Cl4  1  0.67389000  0.48641000  0.29969000  1.0 1.2524458158
Cl  Cl5  1  0.37333000  0.21198000  0.69639000  1.0 1.2686451363
Cl  Cl6  1  0.37333000  0.28802000  0.19639000  1.0 1.2686451363
Cl  Cl7  1  0.32611000  0.51359000  0.70031000  1.0 1.2524458158
Cl  Cl8  1  0.32611000  0.98641000  0.20031000  1.0 1.2524458158
O  O1  1  0.66043000  0.76372000  0.86842000  1.0 -0.5367414665
O  O2  1  0.66043000  0.73628000  0.36842000  1.0 -0.5367414665
O  O3  1  0.50280000  0.70817000  0.77866000  1.0 -0.4828855556
O  O4  1  0.50280000  0.79183000  0.27866000  1.0 -0.4828855556
O  O5  1  0.66230000  0.72000000  0.70910000  1.0 -0.4906797943
O  O6  1  0.66230000  0.78000000  0.20910000  1.0 -0.4906797943
O  O7  1  0.67470000  0.66143000  0.85560000  1.0 -0.4288852897
O  O8  1  0.67470000  0.83857000  0.35560000  1.0 -0.4288852897
O  O9  1  0.59960000  0.98095000  0.84890000  1.0 -0.4906797943
O  O10  1  0.59960000  0.51905000  0.34890000  1.0 -0.4906797943
O  O11  1  0.75416000  0.04705000  0.87378000  1.0 -0.4657757891
O  O12  1  0.75416000  0.45295000  0.37378000  1.0 -0.4657757891
O  O13  1  0.60910000  0.05159000  0.72395000  1.0 -0.4471304801
O  O14  1  0.60910000  0.44841000  0.22395000  1.0 -0.4471304801
O  O15  1  0.73540000  0.97022000  0.75380000  1.0 -0.5125781161
O  O16  1  0.73540000  0.52978000  0.25380000  1.0 -0.5125781161
O  O17  1  0.33957000  0.26372000  0.63158000  1.0 -0.5367414665
O  O18  1  0.33957000  0.23628000  0.13158000  1.0 -0.5367414665
O  O19  1  0.49720000  0.20817000  0.72134000  1.0 -0.4828855556
O  O20  1  0.49720000  0.29183000  0.22134000  1.0 -0.4828855556
O  O21  1  0.33770000  0.22000000  0.79090000  1.0 -0.4906797943
O  O22  1  0.33770000  0.28000000  0.29090000  1.0 -0.4906797943
O  O23  1  0.32530000  0.16143000  0.64440000  1.0 -0.4288852897
O  O24  1  0.32530000  0.33857000  0.14440000  1.0 -0.4288852897
O  O25  1  0.40040000  0.48095000  0.65110000  1.0 -0.4906797943
O  O26  1  0.40040000  0.01905000  0.15110000  1.0 -0.4906797943
O  O27  1  0.24584000  0.54705000  0.62622000  1.0 -0.4657757891
O  O28  1  0.24584000  0.95295000  0.12622000  1.0 -0.4657757891
O  O29  1  0.39090000  0.55159000  0.77605000  1.0 -0.4471304801
O  O30  1  0.39090000  0.94841000  0.27605000  1.0 -0.4471304801
O  O31  1  0.26460000  0.47022000  0.74620000  1.0 -0.5125781161
O  O32  1  0.26460000  0.02978000  0.24620000  1.0 -0.5125781161
