# DDEC6 charges by PACMAN v1.1 (https://github.com/mtap-research/PACMAN-charge/)
data_QUCNEK_ASR_pacman
_symmetry_space_group_name_H-M   'P 1'
_cell_length_a   19.29420000
_cell_length_b   19.29420000
_cell_length_c   22.04550000
_cell_angle_alpha   90.00000000
_cell_angle_beta   90.00000000
_cell_angle_gamma   140.37700000
_symmetry_Int_Tables_number   1
_chemical_formula_structural   CuSi8H56(C15O2)2
_chemical_formula_sum   'Cu4 Si32 H224 C120 O16'
_cell_volume   5233.74502067
_cell_formula_units_Z   4
loop_
 _symmetry_equiv_pos_site_id
 _symmetry_equiv_pos_as_xyz
  1  'x, y, z'
loop_
 _atom_site_type_symbol
 _atom_site_label
 _atom_site_symmetry_multiplicity
 _atom_site_fract_x
 _atom_site_fract_y
 _atom_site_fract_z
 _atom_site_occupancy
 _atom_site_charge
Cu  Cu1  1  0.39961000  0.39961000  0.49499000  1.0 0.8890170295
Cu  Cu2  1  0.10039000  0.10039000  0.99499000  1.0 0.8890170295
Cu  Cu3  1  0.89961000  0.89961000  0.00501000  1.0 0.8890170295
Cu  Cu4  1  0.60039000  0.60039000  0.50501000  1.0 0.8890170295
Si  Si1  1  0.72505000  0.38635000  0.22230000  1.0 0.2188899068
Si  Si2  1  0.76790000  0.32070000  0.28010000  1.0 -0.0915562166
Si  Si3  1  0.68630000  0.34690000  0.22150000  1.0 0.2188899068
Si  Si4  1  0.75330000  0.30610000  0.27990000  1.0 -0.097062186
Si  Si5  1  0.77495000  0.11365000  0.72230000  1.0 0.2188899068
Si  Si6  1  0.73210000  0.17930000  0.78010000  1.0 -0.0915562166
Si  Si7  1  0.81370000  0.15310000  0.72150000  1.0 0.2188899068
Si  Si8  1  0.74670000  0.19390000  0.77990000  1.0 -0.097062186
Si  Si9  1  0.88635000  0.22505000  0.27770000  1.0 0.2188899068
Si  Si10  1  0.82070000  0.26790000  0.21990000  1.0 -0.0915562166
Si  Si11  1  0.84690000  0.18630000  0.27850000  1.0 0.2188899068
Si  Si12  1  0.80610000  0.25330000  0.22010000  1.0 -0.0915562166
Si  Si13  1  0.61365000  0.27495000  0.77770000  1.0 0.2188899068
Si  Si14  1  0.67930000  0.23210000  0.71990000  1.0 -0.0915562166
Si  Si15  1  0.65310000  0.31370000  0.77850000  1.0 0.2188899068
Si  Si16  1  0.69390000  0.24670000  0.72010000  1.0 -0.097062186
Si  Si17  1  0.27495000  0.61365000  0.77770000  1.0 0.2188899068
Si  Si18  1  0.23210000  0.67930000  0.71990000  1.0 -0.0915562166
Si  Si19  1  0.31370000  0.65310000  0.77850000  1.0 0.2188899068
Si  Si20  1  0.24670000  0.69390000  0.72010000  1.0 -0.097062186
Si  Si21  1  0.22505000  0.88635000  0.27770000  1.0 0.2188899068
Si  Si22  1  0.26790000  0.82070000  0.21990000  1.0 -0.0915562166
Si  Si23  1  0.18630000  0.84690000  0.27850000  1.0 0.2188899068
Si  Si24  1  0.25330000  0.80610000  0.22010000  1.0 -0.097062186
Si  Si25  1  0.11365000  0.77495000  0.72230000  1.0 0.2188899068
Si  Si26  1  0.17930000  0.73210000  0.78010000  1.0 -0.0915562166
Si  Si27  1  0.15310000  0.81370000  0.72150000  1.0 0.2188899068
Si  Si28  1  0.19390000  0.74670000  0.77990000  1.0 -0.097062186
Si  Si29  1  0.38635000  0.72505000  0.22230000  1.0 0.2188899068
Si  Si30  1  0.32070000  0.76790000  0.28010000  1.0 -0.0915562166
Si  Si31  1  0.34690000  0.68630000  0.22150000  1.0 0.2188899068
Si  Si32  1  0.30610000  0.75330000  0.27990000  1.0 -0.097062186
H  H1  1  0.54990000  0.21250000  0.19050000  1.0 0.0455239255
H  H2  1  0.63620000  0.26600000  0.13740000  1.0 0.0804493411
H  H3  1  0.58820000  0.30500000  0.14840000  1.0 0.0804493411
H  H4  1  0.90220000  0.57020000  0.21170000  1.0 0.1012095046
H  H5  1  0.82270000  0.54310000  0.16270000  1.0 0.0804493411
H  H6  1  0.87070000  0.50390000  0.15170000  1.0 0.0804493411
H  H7  1  0.58450000  0.13950000  0.29180000  1.0 0.0903492903
H  H8  1  0.61470000  0.21330000  0.34680000  1.0 0.0903492903
H  H9  1  0.65680000  0.16720000  0.34690000  1.0 0.0804493411
H  H10  1  0.94070000  0.49170000  0.32150000  1.0 0.0679154827
H  H11  1  0.88710000  0.39490000  0.36640000  1.0 0.0903492903
H  H12  1  0.84500000  0.44100000  0.36630000  1.0 0.0903492903
H  H13  1  0.44580000  0.28780000  0.35130000  1.0 0.1156838945
H  H14  1  0.49860000  0.24960000  0.27820000  1.0 0.1012095046
H  H15  1  0.81000000  0.55380000  0.29840000  1.0 0.1062589761
H  H16  1  0.75520000  0.58960000  0.37290000  1.0 0.1156838945
H  H17  1  0.50870000  0.16950000  0.19960000  1.0 0.1012095046
H  H18  1  0.58800000  0.21300000  0.14420000  1.0 0.0804493411
H  H19  1  0.54160000  0.25420000  0.15230000  1.0 0.0804493411
H  H20  1  0.86090000  0.52790000  0.19550000  1.0 0.0034463195
H  H21  1  0.77140000  0.48800000  0.14940000  1.0 0.0903492903
H  H22  1  0.81790000  0.44690000  0.14130000  1.0 0.0804493411
H  H23  1  0.58490000  0.13910000  0.32240000  1.0 0.0679154827
H  H24  1  0.63840000  0.23780000  0.36520000  1.0 0.1062589761
H  H25  1  0.68230000  0.19370000  0.36700000  1.0 0.0903492903
H  H26  1  0.93990000  0.49290000  0.28950000  1.0 0.1012095046
H  H27  1  0.91280000  0.42340000  0.34630000  1.0 0.0804493411
H  H28  1  0.86880000  0.46760000  0.34460000  1.0 0.0804493411
H  H29  1  0.95010000  0.28750000  0.69050000  1.0 0.0455239255
H  H30  1  0.86380000  0.23400000  0.63740000  1.0 0.0804493411
H  H31  1  0.91180000  0.19500000  0.64840000  1.0 0.0804493411
H  H32  1  0.59780000  0.92980000  0.71170000  1.0 0.1012095046
H  H33  1  0.67730000  0.95690000  0.66270000  1.0 0.0804493411
H  H34  1  0.62930000  0.99610000  0.65170000  1.0 0.0804493411
H  H35  1  0.91550000  0.36050000  0.79180000  1.0 0.0903492903
H  H36  1  0.88530000  0.28670000  0.84680000  1.0 0.0903492903
H  H37  1  0.84320000  0.33280000  0.84690000  1.0 0.0804493411
H  H38  1  0.55930000  0.00830000  0.82150000  1.0 0.0679154827
H  H39  1  0.61290000  0.10510000  0.86640000  1.0 0.0903492903
H  H40  1  0.65500000  0.05900000  0.86630000  1.0 0.0903492903
H  H41  1  0.05420000  0.21220000  0.85130000  1.0 0.1156838945
H  H42  1  0.00140000  0.25040000  0.77820000  1.0 0.1012095046
H  H43  1  0.69000000  0.94620000  0.79840000  1.0 0.1062589761
H  H44  1  0.74480000  0.91040000  0.87290000  1.0 0.1156838945
H  H45  1  0.99130000  0.33050000  0.69960000  1.0 0.1012095046
H  H46  1  0.91200000  0.28700000  0.64420000  1.0 0.0804493411
H  H47  1  0.95840000  0.24580000  0.65230000  1.0 0.0804493411
H  H48  1  0.63910000  0.97210000  0.69550000  1.0 0.0034463195
H  H49  1  0.72860000  0.01200000  0.64940000  1.0 0.0903492903
H  H50  1  0.68210000  0.05310000  0.64130000  1.0 0.0804493411
H  H51  1  0.91510000  0.36090000  0.82240000  1.0 0.0679154827
H  H52  1  0.86160000  0.26220000  0.86520000  1.0 0.1062589761
H  H53  1  0.81770000  0.30630000  0.86700000  1.0 0.0903492903
H  H54  1  0.56010000  0.00710000  0.78950000  1.0 0.1012095046
H  H55  1  0.58720000  0.07660000  0.84630000  1.0 0.0804493411
H  H56  1  0.63120000  0.03240000  0.84460000  1.0 0.0804493411
H  H57  1  0.71250000  0.04990000  0.30950000  1.0 0.044976781
H  H58  1  0.76600000  0.13620000  0.36260000  1.0 0.0804493411
H  H59  1  0.80500000  0.08820000  0.35160000  1.0 0.0804493411
H  H60  1  0.07020000  0.40220000  0.28830000  1.0 0.1012095046
H  H61  1  0.04310000  0.32270000  0.33730000  1.0 0.0804493411
H  H62  1  0.00390000  0.37070000  0.34830000  1.0 0.0804493411
H  H63  1  0.63950000  0.08450000  0.20820000  1.0 0.0903492903
H  H64  1  0.71330000  0.11470000  0.15320000  1.0 0.0903492903
H  H65  1  0.66720000  0.15680000  0.15310000  1.0 0.0804493411
H  H66  1  0.99170000  0.44070000  0.17850000  1.0 0.0679154827
H  H67  1  0.89490000  0.38710000  0.13360000  1.0 0.0903492903
H  H68  1  0.94100000  0.34500000  0.13370000  1.0 0.0903492903
H  H69  1  0.78780000  0.94580000  0.14870000  1.0 0.1156838945
H  H70  1  0.74960000  0.99860000  0.22180000  1.0 0.1012095046
H  H71  1  0.05380000  0.31000000  0.20160000  1.0 0.1062589761
H  H72  1  0.08960000  0.25520000  0.12710000  1.0 0.1156838945
H  H73  1  0.66950000  0.00870000  0.30040000  1.0 0.1012095046
H  H74  1  0.71300000  0.08800000  0.35580000  1.0 0.0804493411
H  H75  1  0.75420000  0.04160000  0.34770000  1.0 0.0804493411
H  H76  1  0.02790000  0.36090000  0.30450000  1.0 0.0034463195
H  H77  1  0.98800000  0.27140000  0.35060000  1.0 0.0903492903
H  H78  1  0.94690000  0.31790000  0.35870000  1.0 0.0804493411
H  H79  1  0.63910000  0.08490000  0.17760000  1.0 0.0679154827
H  H80  1  0.73780000  0.13840000  0.13480000  1.0 0.1062589761
H  H81  1  0.69370000  0.18230000  0.13300000  1.0 0.0903492903
H  H82  1  0.99290000  0.43990000  0.21050000  1.0 0.1012095046
H  H83  1  0.92340000  0.41280000  0.15370000  1.0 0.0804493411
H  H84  1  0.96760000  0.36880000  0.15540000  1.0 0.0804493411
H  H85  1  0.78750000  0.45010000  0.80950000  1.0 0.0455239255
H  H86  1  0.73400000  0.36380000  0.86260000  1.0 0.0804493411
H  H87  1  0.69500000  0.41180000  0.85160000  1.0 0.0804493411
H  H88  1  0.42980000  0.09780000  0.78830000  1.0 0.1012095046
H  H89  1  0.45690000  0.17730000  0.83730000  1.0 0.0804493411
H  H90  1  0.49610000  0.12930000  0.84830000  1.0 0.0804493411
H  H91  1  0.86050000  0.41550000  0.70820000  1.0 0.0903492903
H  H92  1  0.78670000  0.38530000  0.65320000  1.0 0.0903492903
H  H93  1  0.83280000  0.34320000  0.65310000  1.0 0.0804493411
H  H94  1  0.50830000  0.05930000  0.67850000  1.0 0.0679154827
H  H95  1  0.60510000  0.11290000  0.63360000  1.0 0.0903492903
H  H96  1  0.55900000  0.15500000  0.63370000  1.0 0.0903492903
H  H97  1  0.71220000  0.55420000  0.64870000  1.0 0.1156838945
H  H98  1  0.75040000  0.50140000  0.72180000  1.0 0.1012095046
H  H99  1  0.44620000  0.19000000  0.70160000  1.0 0.1062589761
H  H100  1  0.41040000  0.24480000  0.62710000  1.0 0.1156838945
H  H101  1  0.83050000  0.49130000  0.80040000  1.0 0.1012095046
H  H102  1  0.78700000  0.41200000  0.85580000  1.0 0.0804493411
H  H103  1  0.74580000  0.45840000  0.84770000  1.0 0.0804493411
H  H104  1  0.47210000  0.13910000  0.80450000  1.0 0.0034463195
H  H105  1  0.51200000  0.22860000  0.85060000  1.0 0.0903492903
H  H106  1  0.55310000  0.18210000  0.85870000  1.0 0.0804493411
H  H107  1  0.86090000  0.41510000  0.67760000  1.0 0.0679154827
H  H108  1  0.76220000  0.36160000  0.63480000  1.0 0.1062589761
H  H109  1  0.80630000  0.31770000  0.63300000  1.0 0.0903492903
H  H110  1  0.50710000  0.06010000  0.71050000  1.0 0.1012095046
H  H111  1  0.57660000  0.08720000  0.65370000  1.0 0.0804493411
H  H112  1  0.53240000  0.13120000  0.65540000  1.0 0.0804493411
H  H113  1  0.45010000  0.78750000  0.80950000  1.0 0.0455239255
H  H114  1  0.36380000  0.73400000  0.86260000  1.0 0.0804493411
H  H115  1  0.41180000  0.69500000  0.85160000  1.0 0.0804493411
H  H116  1  0.09780000  0.42980000  0.78830000  1.0 0.1012095046
H  H117  1  0.17730000  0.45690000  0.83730000  1.0 0.0804493411
H  H118  1  0.12930000  0.49610000  0.84830000  1.0 0.0804493411
H  H119  1  0.41550000  0.86050000  0.70820000  1.0 0.0903492903
H  H120  1  0.38530000  0.78670000  0.65320000  1.0 0.0903492903
H  H121  1  0.34320000  0.83280000  0.65310000  1.0 0.0804493411
H  H122  1  0.05930000  0.50830000  0.67850000  1.0 0.0679154827
H  H123  1  0.11290000  0.60510000  0.63360000  1.0 0.0903492903
H  H124  1  0.15500000  0.55900000  0.63370000  1.0 0.0903492903
H  H125  1  0.55420000  0.71220000  0.64870000  1.0 0.1156838945
H  H126  1  0.50140000  0.75040000  0.72180000  1.0 0.1012095046
H  H127  1  0.19000000  0.44620000  0.70160000  1.0 0.1062589761
H  H128  1  0.24480000  0.41040000  0.62710000  1.0 0.1156838945
H  H129  1  0.49130000  0.83050000  0.80040000  1.0 0.1012095046
H  H130  1  0.41200000  0.78700000  0.85580000  1.0 0.0804493411
H  H131  1  0.45840000  0.74580000  0.84770000  1.0 0.0804493411
H  H132  1  0.13910000  0.47210000  0.80450000  1.0 0.0034463195
H  H133  1  0.22860000  0.51200000  0.85060000  1.0 0.0903492903
H  H134  1  0.18210000  0.55310000  0.85870000  1.0 0.0804493411
H  H135  1  0.41510000  0.86090000  0.67760000  1.0 0.0679154827
H  H136  1  0.36160000  0.76220000  0.63480000  1.0 0.1062589761
H  H137  1  0.31770000  0.80630000  0.63300000  1.0 0.0903492903
H  H138  1  0.06010000  0.50710000  0.71050000  1.0 0.1012095046
H  H139  1  0.08720000  0.57660000  0.65370000  1.0 0.0804493411
H  H140  1  0.13120000  0.53240000  0.65540000  1.0 0.0804493411
H  H141  1  0.04990000  0.71250000  0.30950000  1.0 0.044976781
H  H142  1  0.13620000  0.76600000  0.36260000  1.0 0.0804493411
H  H143  1  0.08820000  0.80500000  0.35160000  1.0 0.0804493411
H  H144  1  0.40220000  0.07020000  0.28830000  1.0 0.1012095046
H  H145  1  0.32270000  0.04310000  0.33730000  1.0 0.0804493411
H  H146  1  0.37070000  0.00390000  0.34830000  1.0 0.0804493411
H  H147  1  0.08450000  0.63950000  0.20820000  1.0 0.0903492903
H  H148  1  0.11470000  0.71330000  0.15320000  1.0 0.0903492903
H  H149  1  0.15680000  0.66720000  0.15310000  1.0 0.0804493411
H  H150  1  0.44070000  0.99170000  0.17850000  1.0 0.0679154827
H  H151  1  0.38710000  0.89490000  0.13360000  1.0 0.0903492903
H  H152  1  0.34500000  0.94100000  0.13370000  1.0 0.0903492903
H  H153  1  0.94580000  0.78780000  0.14870000  1.0 0.1156838945
H  H154  1  0.99860000  0.74960000  0.22180000  1.0 0.1012095046
H  H155  1  0.31000000  0.05380000  0.20160000  1.0 0.1062589761
H  H156  1  0.25520000  0.08960000  0.12710000  1.0 0.1156838945
H  H157  1  0.00870000  0.66950000  0.30040000  1.0 0.1012095046
H  H158  1  0.08800000  0.71300000  0.35580000  1.0 0.0804493411
H  H159  1  0.04160000  0.75420000  0.34770000  1.0 0.0804493411
H  H160  1  0.36090000  0.02790000  0.30450000  1.0 0.0034463195
H  H161  1  0.27140000  0.98800000  0.35060000  1.0 0.0903492903
H  H162  1  0.31790000  0.94690000  0.35870000  1.0 0.0804493411
H  H163  1  0.08490000  0.63910000  0.17760000  1.0 0.0679154827
H  H164  1  0.13840000  0.73780000  0.13480000  1.0 0.1062589761
H  H165  1  0.18230000  0.69370000  0.13300000  1.0 0.0903492903
H  H166  1  0.43990000  0.99290000  0.21050000  1.0 0.1012095046
H  H167  1  0.41280000  0.92340000  0.15370000  1.0 0.0804493411
H  H168  1  0.36880000  0.96760000  0.15540000  1.0 0.0804493411
H  H169  1  0.28750000  0.95010000  0.69050000  1.0 0.0455239255
H  H170  1  0.23400000  0.86380000  0.63740000  1.0 0.0804493411
H  H171  1  0.19500000  0.91180000  0.64840000  1.0 0.0804493411
H  H172  1  0.92980000  0.59780000  0.71170000  1.0 0.1012095046
H  H173  1  0.95690000  0.67730000  0.66270000  1.0 0.0804493411
H  H174  1  0.99610000  0.62930000  0.65170000  1.0 0.0804493411
H  H175  1  0.36050000  0.91550000  0.79180000  1.0 0.0903492903
H  H176  1  0.28670000  0.88530000  0.84680000  1.0 0.0903492903
H  H177  1  0.33280000  0.84320000  0.84690000  1.0 0.0804493411
H  H178  1  0.00830000  0.55930000  0.82150000  1.0 0.0679154827
H  H179  1  0.10510000  0.61290000  0.86640000  1.0 0.0903492903
H  H180  1  0.05900000  0.65500000  0.86630000  1.0 0.0903492903
H  H181  1  0.21220000  0.05420000  0.85130000  1.0 0.1156838945
H  H182  1  0.25040000  0.00140000  0.77820000  1.0 0.1012095046
H  H183  1  0.94620000  0.69000000  0.79840000  1.0 0.1062589761
H  H184  1  0.91040000  0.74480000  0.87290000  1.0 0.1156838945
H  H185  1  0.33050000  0.99130000  0.69960000  1.0 0.1012095046
H  H186  1  0.28700000  0.91200000  0.64420000  1.0 0.0804493411
H  H187  1  0.24580000  0.95840000  0.65230000  1.0 0.0804493411
H  H188  1  0.97210000  0.63910000  0.69550000  1.0 0.0034463195
H  H189  1  0.01200000  0.72860000  0.64940000  1.0 0.0903492903
H  H190  1  0.05310000  0.68210000  0.64130000  1.0 0.0804493411
H  H191  1  0.36090000  0.91510000  0.82240000  1.0 0.0679154827
H  H192  1  0.26220000  0.86160000  0.86520000  1.0 0.1062589761
H  H193  1  0.30630000  0.81770000  0.86700000  1.0 0.0903492903
H  H194  1  0.00710000  0.56010000  0.78950000  1.0 0.1012095046
H  H195  1  0.07660000  0.58720000  0.84630000  1.0 0.0804493411
H  H196  1  0.03240000  0.63120000  0.84460000  1.0 0.0804493411
H  H197  1  0.21250000  0.54990000  0.19050000  1.0 0.0455239255
H  H198  1  0.26600000  0.63620000  0.13740000  1.0 0.0804493411
H  H199  1  0.30500000  0.58820000  0.14840000  1.0 0.0804493411
H  H200  1  0.57020000  0.90220000  0.21170000  1.0 0.1012095046
H  H201  1  0.54310000  0.82270000  0.16270000  1.0 0.0804493411
H  H202  1  0.50390000  0.87070000  0.15170000  1.0 0.0804493411
H  H203  1  0.13950000  0.58450000  0.29180000  1.0 0.0903492903
H  H204  1  0.21330000  0.61470000  0.34680000  1.0 0.0903492903
H  H205  1  0.16720000  0.65680000  0.34690000  1.0 0.0804493411
H  H206  1  0.49170000  0.94070000  0.32150000  1.0 0.0679154827
H  H207  1  0.39490000  0.88710000  0.36640000  1.0 0.0903492903
H  H208  1  0.44100000  0.84500000  0.36630000  1.0 0.0903492903
H  H209  1  0.28780000  0.44580000  0.35130000  1.0 0.1156838945
H  H210  1  0.24960000  0.49860000  0.27820000  1.0 0.1012095046
H  H211  1  0.55380000  0.81000000  0.29840000  1.0 0.1062589761
H  H212  1  0.58960000  0.75520000  0.37290000  1.0 0.1156838945
H  H213  1  0.16950000  0.50870000  0.19960000  1.0 0.1012095046
H  H214  1  0.21300000  0.58800000  0.14420000  1.0 0.0804493411
H  H215  1  0.25420000  0.54160000  0.15230000  1.0 0.0804493411
H  H216  1  0.52790000  0.86090000  0.19550000  1.0 0.0034463195
H  H217  1  0.48800000  0.77140000  0.14940000  1.0 0.0903492903
H  H218  1  0.44690000  0.81790000  0.14130000  1.0 0.0804493411
H  H219  1  0.13910000  0.58490000  0.32240000  1.0 0.0679154827
H  H220  1  0.23780000  0.63840000  0.36520000  1.0 0.1062589761
H  H221  1  0.19370000  0.68230000  0.36700000  1.0 0.0903492903
H  H222  1  0.49290000  0.93990000  0.28950000  1.0 0.1012095046
H  H223  1  0.42340000  0.91280000  0.34630000  1.0 0.0804493411
H  H224  1  0.46760000  0.86880000  0.34460000  1.0 0.0804493411
C  C1  1  0.61130000  0.27970000  0.16820000  1.0 -0.2526102765
C  C2  1  0.84430000  0.51630000  0.18240000  1.0 -0.2379582125
C  C3  1  0.64070000  0.19510000  0.32130000  1.0 -0.2840957355
C  C4  1  0.87300000  0.42480000  0.34100000  1.0 -0.2379582125
C  C5  1  0.55959000  0.46201000  0.42040000  1.0 0.5845209136
C  C6  1  0.59556000  0.44004000  0.37100000  1.0 0.0034463195
C  C7  1  0.52055000  0.34145000  0.34110000  1.0 -0.0673091922
C  C8  1  0.55152000  0.31908000  0.29700000  1.0 -0.097062186
C  C9  1  0.66186000  0.39914000  0.27940000  1.0 -0.2674482401
C  C10  1  0.73535000  0.49865000  0.30910000  1.0 -0.0915562166
C  C11  1  0.70334000  0.52026000  0.35410000  1.0 -0.0673091922
C  C12  1  0.56710000  0.23230000  0.17380000  1.0 -0.2229960311
C  C13  1  0.79730000  0.46670000  0.17090000  1.0 -0.2526102765
C  C14  1  0.65260000  0.20740000  0.34090000  1.0 -0.2526102765
C  C15  1  0.88500000  0.43900000  0.32010000  1.0 -0.2608433634
C  C16  1  0.88870000  0.22030000  0.66820000  1.0 -0.2526102765
C  C17  1  0.65570000  0.98370000  0.68240000  1.0 -0.2379582125
C  C18  1  0.85930000  0.30490000  0.82130000  1.0 -0.2840957355
C  C19  1  0.62700000  0.07520000  0.84100000  1.0 -0.2379582125
C  C20  1  0.94041000  0.03799000  0.92040000  1.0 0.5845209136
C  C21  1  0.90444000  0.05996000  0.87100000  1.0 0.0034463195
C  C22  1  0.97945000  0.15855000  0.84110000  1.0 -0.0673091922
C  C23  1  0.94848000  0.18092000  0.79700000  1.0 -0.097062186
C  C24  1  0.83814000  0.10086000  0.77940000  1.0 -0.2674482401
C  C25  1  0.76465000  0.00135000  0.80910000  1.0 -0.0915562166
C  C26  1  0.79666000  0.97974000  0.85410000  1.0 -0.0673091922
C  C27  1  0.93290000  0.26770000  0.67380000  1.0 -0.2229960311
C  C28  1  0.70270000  0.03330000  0.67090000  1.0 -0.2526102765
C  C29  1  0.84740000  0.29260000  0.84090000  1.0 -0.2526102765
C  C30  1  0.61500000  0.06100000  0.82010000  1.0 -0.2608433634
C  C31  1  0.77970000  0.11130000  0.33180000  1.0 -0.2526102765
C  C32  1  0.01630000  0.34430000  0.31760000  1.0 -0.2379582125
C  C33  1  0.69510000  0.14070000  0.17870000  1.0 -0.2840957355
C  C34  1  0.92480000  0.37300000  0.15900000  1.0 -0.2379582125
C  C35  1  0.96201000  0.05959000  0.07960000  1.0 0.5845209136
C  C36  1  0.94004000  0.09556000  0.12900000  1.0 0.0034463195
C  C37  1  0.84145000  0.02055000  0.15890000  1.0 -0.0673091922
C  C38  1  0.81908000  0.05152000  0.20300000  1.0 -0.097062186
C  C39  1  0.89914000  0.16186000  0.22060000  1.0 -0.2674482401
C  C40  1  0.99865000  0.23535000  0.19090000  1.0 -0.0915562166
C  C41  1  0.02026000  0.20334000  0.14590000  1.0 -0.0673091922
C  C42  1  0.73230000  0.06710000  0.32620000  1.0 -0.2229960311
C  C43  1  0.96670000  0.29730000  0.32910000  1.0 -0.2526102765
C  C44  1  0.70740000  0.15260000  0.15910000  1.0 -0.2526102765
C  C45  1  0.93900000  0.38500000  0.17990000  1.0 -0.2608433634
C  C46  1  0.72030000  0.38870000  0.83180000  1.0 -0.2526102765
C  C47  1  0.48370000  0.15570000  0.81760000  1.0 -0.2379582125
C  C48  1  0.80490000  0.35930000  0.67870000  1.0 -0.2840957355
C  C49  1  0.57520000  0.12700000  0.65900000  1.0 -0.2379582125
C  C50  1  0.53799000  0.44041000  0.57960000  1.0 0.5845209136
C  C51  1  0.55996000  0.40444000  0.62900000  1.0 0.0034463195
C  C52  1  0.65855000  0.47945000  0.65890000  1.0 -0.0673091922
C  C53  1  0.68092000  0.44848000  0.70300000  1.0 -0.097062186
C  C54  1  0.60086000  0.33814000  0.72060000  1.0 -0.2674482401
C  C55  1  0.50135000  0.26465000  0.69090000  1.0 -0.0915562166
C  C56  1  0.47974000  0.29666000  0.64590000  1.0 -0.0673091922
C  C57  1  0.76770000  0.43290000  0.82620000  1.0 -0.2229960311
C  C58  1  0.53330000  0.20270000  0.82910000  1.0 -0.2526102765
C  C59  1  0.79260000  0.34740000  0.65910000  1.0 -0.2608433634
C  C60  1  0.56100000  0.11500000  0.67990000  1.0 -0.2608433634
C  C61  1  0.38870000  0.72030000  0.83180000  1.0 -0.2526102765
C  C62  1  0.15570000  0.48370000  0.81760000  1.0 -0.2379582125
C  C63  1  0.35930000  0.80490000  0.67870000  1.0 -0.2840957355
C  C64  1  0.12700000  0.57520000  0.65900000  1.0 -0.2379582125
C  C65  1  0.44041000  0.53799000  0.57960000  1.0 0.5845209136
C  C66  1  0.40444000  0.55996000  0.62900000  1.0 0.0034463195
C  C67  1  0.47945000  0.65855000  0.65890000  1.0 -0.0673091922
C  C68  1  0.44848000  0.68092000  0.70300000  1.0 -0.097062186
C  C69  1  0.33814000  0.60086000  0.72060000  1.0 -0.2674482401
C  C70  1  0.26465000  0.50135000  0.69090000  1.0 -0.0915562166
C  C71  1  0.29666000  0.47974000  0.64590000  1.0 -0.0673091922
C  C72  1  0.43290000  0.76770000  0.82620000  1.0 -0.2229960311
C  C73  1  0.20270000  0.53330000  0.82910000  1.0 -0.2526102765
C  C74  1  0.34740000  0.79260000  0.65910000  1.0 -0.2608433634
C  C75  1  0.11500000  0.56100000  0.67990000  1.0 -0.2608433634
C  C76  1  0.11130000  0.77970000  0.33180000  1.0 -0.2526102765
C  C77  1  0.34430000  0.01630000  0.31760000  1.0 -0.2379582125
C  C78  1  0.14070000  0.69510000  0.17870000  1.0 -0.2840957355
C  C79  1  0.37300000  0.92480000  0.15900000  1.0 -0.2379582125
C  C80  1  0.05959000  0.96201000  0.07960000  1.0 0.5854901362
C  C81  1  0.09556000  0.94004000  0.12900000  1.0 0.0034463195
C  C82  1  0.02055000  0.84145000  0.15890000  1.0 -0.0673091922
C  C83  1  0.05152000  0.81908000  0.20300000  1.0 -0.097062186
C  C84  1  0.16186000  0.89914000  0.22060000  1.0 -0.2674482401
C  C85  1  0.23535000  0.99865000  0.19090000  1.0 -0.0915562166
C  C86  1  0.20334000  0.02026000  0.14590000  1.0 -0.0673091922
C  C87  1  0.06710000  0.73230000  0.32620000  1.0 -0.2229960311
C  C88  1  0.29730000  0.96670000  0.32910000  1.0 -0.2526102765
C  C89  1  0.15260000  0.70740000  0.15910000  1.0 -0.2526102765
C  C90  1  0.38500000  0.93900000  0.17990000  1.0 -0.2608433634
C  C91  1  0.22030000  0.88870000  0.66820000  1.0 -0.2526102765
C  C92  1  0.98370000  0.65570000  0.68240000  1.0 -0.2379582125
C  C93  1  0.30490000  0.85930000  0.82130000  1.0 -0.2840957355
C  C94  1  0.07520000  0.62700000  0.84100000  1.0 -0.2379582125
C  C95  1  0.03799000  0.94041000  0.92040000  1.0 0.5845209136
C  C96  1  0.05996000  0.90444000  0.87100000  1.0 0.0034463195
C  C97  1  0.15855000  0.97945000  0.84110000  1.0 -0.0673091922
C  C98  1  0.18092000  0.94848000  0.79700000  1.0 -0.097062186
C  C99  1  0.10086000  0.83814000  0.77940000  1.0 -0.2674482401
C  C100  1  0.00135000  0.76465000  0.80910000  1.0 -0.0915562166
C  C101  1  0.97974000  0.79666000  0.85410000  1.0 -0.0673091922
C  C102  1  0.26770000  0.93290000  0.67380000  1.0 -0.2229960311
C  C103  1  0.03330000  0.70270000  0.67090000  1.0 -0.2526102765
C  C104  1  0.29260000  0.84740000  0.84090000  1.0 -0.2608433634
C  C105  1  0.06100000  0.61500000  0.82010000  1.0 -0.2608433634
C  C106  1  0.27970000  0.61130000  0.16820000  1.0 -0.2526102765
C  C107  1  0.51630000  0.84430000  0.18240000  1.0 -0.2379582125
C  C108  1  0.19510000  0.64070000  0.32130000  1.0 -0.2840957355
C  C109  1  0.42480000  0.87300000  0.34100000  1.0 -0.2379582125
C  C110  1  0.46201000  0.55959000  0.42040000  1.0 0.5845209136
C  C111  1  0.44004000  0.59556000  0.37100000  1.0 0.0034463195
C  C112  1  0.34145000  0.52055000  0.34110000  1.0 -0.0673091922
C  C113  1  0.31908000  0.55152000  0.29700000  1.0 -0.097062186
C  C114  1  0.39914000  0.66186000  0.27940000  1.0 -0.2674482401
C  C115  1  0.49865000  0.73535000  0.30910000  1.0 -0.0915562166
C  C116  1  0.52026000  0.70334000  0.35410000  1.0 -0.0645411398
C  C117  1  0.23230000  0.56710000  0.17380000  1.0 -0.2229960311
C  C118  1  0.46670000  0.79730000  0.17090000  1.0 -0.2526102765
C  C119  1  0.20740000  0.65260000  0.34090000  1.0 -0.2526102765
C  C120  1  0.43900000  0.88500000  0.32010000  1.0 -0.2608433634
O  O1  1  0.46016000  0.38424000  0.43372000  1.0 -0.5307825144
O  O2  1  0.63279000  0.55621000  0.44352000  1.0 -0.536532567
O  O3  1  0.03984000  0.11576000  0.93372000  1.0 -0.5307825144
O  O4  1  0.86721000  0.94379000  0.94352000  1.0 -0.536532567
O  O5  1  0.88424000  0.96016000  0.06628000  1.0 -0.5307825144
O  O6  1  0.05621000  0.13279000  0.05648000  1.0 -0.536532567
O  O7  1  0.61576000  0.53984000  0.56628000  1.0 -0.5307825144
O  O8  1  0.44379000  0.36721000  0.55648000  1.0 -0.536532567
O  O9  1  0.53984000  0.61576000  0.56628000  1.0 -0.5307825144
O  O10  1  0.36721000  0.44379000  0.55648000  1.0 -0.536532567
O  O11  1  0.96016000  0.88424000  0.06628000  1.0 -0.5307825144
O  O12  1  0.13279000  0.05621000  0.05648000  1.0 -0.536532567
O  O13  1  0.11576000  0.03984000  0.93372000  1.0 -0.5307825144
O  O14  1  0.94379000  0.86721000  0.94352000  1.0 -0.536532567
O  O15  1  0.38424000  0.46016000  0.43372000  1.0 -0.5307825144
O  O16  1  0.55621000  0.63279000  0.44352000  1.0 -0.536532567
