# DDEC6 charges by PACMAN v1.1 (https://github.com/mtap-research/PACMAN-charge/)
data_QUFGIH_ASR_pacman
_symmetry_space_group_name_H-M   'P 1'
_cell_length_a   9.21870000
_cell_length_b   14.58110000
_cell_length_c   14.86520000
_cell_angle_alpha   90.00000000
_cell_angle_beta   90.00000000
_cell_angle_gamma   90.00000000
_symmetry_Int_Tables_number   1
_chemical_formula_structural   MgAl3(PO4)4
_chemical_formula_sum   'Mg4 Al12 P16 O64'
_cell_volume   1998.16214612
_cell_formula_units_Z   4
loop_
 _symmetry_equiv_pos_site_id
 _symmetry_equiv_pos_as_xyz
  1  'x, y, z'
loop_
 _atom_site_type_symbol
 _atom_site_label
 _atom_site_symmetry_multiplicity
 _atom_site_fract_x
 _atom_site_fract_y
 _atom_site_fract_z
 _atom_site_occupancy
 _atom_site_charge
Mg  Mg1  1  0.67090000  0.25000000  0.51900000  1.0 1.5686947486
Mg  Mg2  1  0.67090000  0.75000000  0.98100000  1.0 1.5686947486
Mg  Mg3  1  0.32910000  0.25000000  0.01900000  1.0 1.5686947486
Mg  Mg4  1  0.32910000  0.75000000  0.48100000  1.0 1.5686947486
Al  Al1  1  0.14800000  0.11450000  0.34790000  1.0 1.7318285337
Al  Al2  1  0.14800000  0.88550000  0.15210000  1.0 1.7318285337
Al  Al3  1  0.85200000  0.38550000  0.84790000  1.0 1.7318285337
Al  Al4  1  0.85200000  0.61450000  0.65210000  1.0 1.7318285337
Al  Al5  1  0.85200000  0.88550000  0.65210000  1.0 1.7318285337
Al  Al6  1  0.85200000  0.11450000  0.84790000  1.0 1.7318285337
Al  Al7  1  0.14800000  0.61450000  0.15210000  1.0 1.7318285337
Al  Al8  1  0.14800000  0.38550000  0.34790000  1.0 1.7318285337
Al  Al9  1  0.89890000  0.25000000  0.13530000  1.0 1.722228863
Al  Al10  1  0.89890000  0.75000000  0.36470000  1.0 1.722228863
Al  Al11  1  0.10110000  0.25000000  0.63530000  1.0 1.722228863
Al  Al12  1  0.10110000  0.75000000  0.86470000  1.0 1.722228863
P  P1  1  0.88900000  0.25000000  0.33470000  1.0 1.4878319176
P  P2  1  0.88900000  0.75000000  0.16530000  1.0 1.4840565703
P  P3  1  0.11100000  0.25000000  0.83470000  1.0 1.4878319176
P  P4  1  0.11100000  0.75000000  0.66530000  1.0 1.4878319176
P  P5  1  0.68510000  0.25000000  0.96380000  1.0 1.4437966129
P  P6  1  0.68510000  0.75000000  0.53620000  1.0 1.4437966129
P  P7  1  0.31490000  0.25000000  0.46380000  1.0 1.4471462152
P  P8  1  0.31490000  0.75000000  0.03620000  1.0 1.4471462152
P  P9  1  0.15480000  0.10410000  0.13560000  1.0 1.4878319176
P  P10  1  0.15480000  0.89590000  0.36440000  1.0 1.4878319176
P  P11  1  0.84520000  0.39590000  0.63560000  1.0 1.4878319176
P  P12  1  0.84520000  0.60410000  0.86440000  1.0 1.4878319176
P  P13  1  0.84520000  0.89590000  0.86440000  1.0 1.4878319176
P  P14  1  0.84520000  0.10410000  0.63560000  1.0 1.4878319176
P  P15  1  0.15480000  0.60410000  0.36440000  1.0 1.4878319176
P  P16  1  0.15480000  0.39590000  0.13560000  1.0 1.4878319176
O  O1  1  0.81440000  0.25000000  0.24300000  1.0 -0.7586005548
O  O2  1  0.81440000  0.75000000  0.25700000  1.0 -0.7586005548
O  O3  1  0.18560000  0.25000000  0.74300000  1.0 -0.7586005548
O  O4  1  0.18560000  0.75000000  0.75700000  1.0 -0.7586005548
O  O5  1  0.75720000  0.25000000  0.39460000  1.0 -0.7217253366
O  O6  1  0.75720000  0.75000000  0.10540000  1.0 -0.7217253366
O  O7  1  0.24280000  0.25000000  0.89460000  1.0 -0.7217253366
O  O8  1  0.24280000  0.75000000  0.60540000  1.0 -0.7217253366
O  O9  1  0.97250000  0.16280000  0.35970000  1.0 -0.8284197816
O  O10  1  0.97250000  0.83720000  0.14030000  1.0 -0.8284197816
O  O11  1  0.02750000  0.33720000  0.85970000  1.0 -0.8284197816
O  O12  1  0.02750000  0.66280000  0.64030000  1.0 -0.8284197816
O  O13  1  0.02750000  0.83720000  0.64030000  1.0 -0.8284197816
O  O14  1  0.02750000  0.16280000  0.85970000  1.0 -0.8284197816
O  O15  1  0.97250000  0.66280000  0.14030000  1.0 -0.8284197816
O  O16  1  0.97250000  0.33720000  0.35970000  1.0 -0.8284197816
O  O17  1  0.75630000  0.25000000  0.05370000  1.0 -0.6722280004
O  O18  1  0.75630000  0.75000000  0.44630000  1.0 -0.6722280004
O  O19  1  0.24370000  0.25000000  0.55370000  1.0 -0.6722280004
O  O20  1  0.24370000  0.75000000  0.94630000  1.0 -0.6722280004
O  O21  1  0.53150000  0.25000000  0.99390000  1.0 -0.7784431496
O  O22  1  0.53150000  0.75000000  0.50610000  1.0 -0.7784431496
O  O23  1  0.46850000  0.25000000  0.49390000  1.0 -0.7784431496
O  O24  1  0.46850000  0.75000000  0.00610000  1.0 -0.7784431496
O  O25  1  0.72800000  0.16020000  0.92630000  1.0 -0.7706436136
O  O26  1  0.72800000  0.83980000  0.57370000  1.0 -0.7706436136
O  O27  1  0.27200000  0.33980000  0.42630000  1.0 -0.7706436136
O  O28  1  0.27200000  0.66020000  0.07370000  1.0 -0.7706436136
O  O29  1  0.27200000  0.83980000  0.07370000  1.0 -0.7706436136
O  O30  1  0.27200000  0.16020000  0.42630000  1.0 -0.7706436136
O  O31  1  0.72800000  0.66020000  0.57370000  1.0 -0.7706436136
O  O32  1  0.72800000  0.33980000  0.92630000  1.0 -0.7706436136
O  O33  1  0.26740000  0.13640000  0.06950000  1.0 -0.8284197816
O  O34  1  0.26740000  0.86360000  0.43050000  1.0 -0.8284197816
O  O35  1  0.73260000  0.36360000  0.56950000  1.0 -0.8284197816
O  O36  1  0.73260000  0.63640000  0.93050000  1.0 -0.8284197816
O  O37  1  0.73260000  0.86360000  0.93050000  1.0 -0.8284197816
O  O38  1  0.73260000  0.13640000  0.56950000  1.0 -0.8284197816
O  O39  1  0.26740000  0.63640000  0.43050000  1.0 -0.8284197816
O  O40  1  0.26740000  0.36360000  0.06950000  1.0 -0.8284197816
O  O41  1  0.12690000  0.00260000  0.11160000  1.0 -0.7510663712
O  O42  1  0.12690000  0.99740000  0.38840000  1.0 -0.7510663712
O  O43  1  0.87310000  0.49740000  0.61160000  1.0 -0.7510663712
O  O44  1  0.87310000  0.50260000  0.88840000  1.0 -0.7510663712
O  O45  1  0.87310000  0.99740000  0.88840000  1.0 -0.7510663712
O  O46  1  0.87310000  0.00260000  0.61160000  1.0 -0.7510663712
O  O47  1  0.12690000  0.50260000  0.38840000  1.0 -0.7510663712
O  O48  1  0.12690000  0.49740000  0.11160000  1.0 -0.7510663712
O  O49  1  0.01340000  0.15260000  0.11910000  1.0 -0.8284197816
O  O50  1  0.01340000  0.84740000  0.38090000  1.0 -0.8284197816
O  O51  1  0.98660000  0.34740000  0.61910000  1.0 -0.8284197816
O  O52  1  0.98660000  0.65260000  0.88090000  1.0 -0.8284197816
O  O53  1  0.98660000  0.84740000  0.88090000  1.0 -0.8284197816
O  O54  1  0.98660000  0.15260000  0.61910000  1.0 -0.8284197816
O  O55  1  0.01340000  0.65260000  0.38090000  1.0 -0.8284197816
O  O56  1  0.01340000  0.34740000  0.11910000  1.0 -0.8284197816
O  O57  1  0.21020000  0.11870000  0.23280000  1.0 -0.8588341543
O  O58  1  0.21020000  0.88130000  0.26720000  1.0 -0.8588341543
O  O59  1  0.78980000  0.38130000  0.73280000  1.0 -0.8588341543
O  O60  1  0.78980000  0.61870000  0.76720000  1.0 -0.8588341543
O  O61  1  0.78980000  0.88130000  0.76720000  1.0 -0.8588341543
O  O62  1  0.78980000  0.11870000  0.73280000  1.0 -0.8588341543
O  O63  1  0.21020000  0.61870000  0.26720000  1.0 -0.8588341543
O  O64  1  0.21020000  0.38130000  0.23280000  1.0 -0.8588341543
