# DDEC6 charges by PACMAN v1.1 (https://github.com/mtap-research/PACMAN-charge/)
data_QUFXIZ_ASR_pacman
_symmetry_space_group_name_H-M   'P 1'
_cell_length_a   15.93820000
_cell_length_b   15.93820000
_cell_length_c   13.90800000
_cell_angle_alpha   70.20480000
_cell_angle_beta   109.79500000
_cell_angle_gamma   135.57700000
_symmetry_Int_Tables_number   1
_chemical_formula_structural   ZnH15C20N4O5F3
_chemical_formula_sum   'Zn4 H60 C80 N16 O20 F12'
_cell_volume   2301.52994214
_cell_formula_units_Z   4
loop_
 _symmetry_equiv_pos_site_id
 _symmetry_equiv_pos_as_xyz
  1  'x, y, z'
loop_
 _atom_site_type_symbol
 _atom_site_label
 _atom_site_symmetry_multiplicity
 _atom_site_fract_x
 _atom_site_fract_y
 _atom_site_fract_z
 _atom_site_occupancy
 _atom_site_charge
Zn  Zn1  1  0.89594000  0.19896000  0.24572000  1.0 0.7809844058
Zn  Zn2  1  0.80104000  0.10406000  0.74572000  1.0 0.7809844058
Zn  Zn3  1  0.11819000  0.80695000  0.17167000  1.0 0.7693955939
Zn  Zn4  1  0.19305000  0.88181000  0.67167000  1.0 0.7693955939
H  H1  1  0.00510000  0.77010000  0.93970000  1.0 0.1196908544
H  H2  1  0.22990000  0.99490000  0.43970000  1.0 0.1196908544
H  H3  1  0.91840000  0.51780000  0.17460000  1.0 0.1196908544
H  H4  1  0.48220000  0.08160000  0.67460000  1.0 0.1196908544
H  H5  1  0.77800000  0.41540000  0.02490000  1.0 0.1196908544
H  H6  1  0.58460000  0.22200000  0.52490000  1.0 0.1196908544
H  H7  1  0.84230000  0.65150000  0.79580000  1.0 0.137532884
H  H8  1  0.34850000  0.15770000  0.29580000  1.0 0.137532884
H  H9  1  0.72810000  0.51690000  0.82980000  1.0 0.1196908544
H  H10  1  0.48310000  0.27190000  0.32980000  1.0 0.1196908544
H  H11  1  0.93360000  0.59280000  0.78690000  1.0 0.1004732877
H  H12  1  0.40720000  0.06640000  0.28690000  1.0 0.1004732877
H  H13  1  0.80860000  0.52600000  0.71490000  1.0 0.1004732877
H  H14  1  0.47400000  0.19140000  0.21490000  1.0 0.1004732877
H  H15  1  0.64330000  0.32490000  0.83820000  1.0 0.1004732877
H  H16  1  0.67510000  0.35670000  0.33820000  1.0 0.1004732877
H  H17  1  0.66530000  0.32110000  0.73840000  1.0 0.1004732877
H  H18  1  0.67890000  0.33470000  0.23840000  1.0 0.1004732877
H  H19  1  0.71570000  0.20650000  0.84120000  1.0 0.1196908544
H  H20  1  0.79350000  0.28430000  0.34120000  1.0 0.1196908544
H  H21  1  0.58040000  0.13760000  0.83980000  1.0 0.1283929156
H  H22  1  0.86240000  0.41960000  0.33980000  1.0 0.1283929156
H  H23  1  0.85010000  0.25230000  0.01360000  1.0 0.1196908544
H  H24  1  0.74770000  0.14990000  0.51360000  1.0 0.1196908544
H  H25  1  0.63200000  0.13260000  0.19570000  1.0 0.1283929156
H  H26  1  0.86740000  0.36800000  0.69570000  1.0 0.1283929156
H  H27  1  0.52900000  0.12760000  0.01480000  1.0 0.137532884
H  H28  1  0.87240000  0.47100000  0.51480000  1.0 0.137532884
H  H29  1  0.69960000  0.80560000  0.37000000  1.0 0.1283929156
H  H30  1  0.19440000  0.30040000  0.87000000  1.0 0.1283929156
H  H31  1  0.57200000  0.59700000  0.63810000  1.0 0.1109067451
H  H32  1  0.40300000  0.42800000  0.13810000  1.0 0.1109067451
H  H33  1  0.64880000  0.76340000  0.69510000  1.0 0.1109067451
H  H34  1  0.23660000  0.35120000  0.19510000  1.0 0.1109067451
H  H35  1  0.59120000  0.53500000  0.28430000  1.0 0.1004732877
H  H36  1  0.46500000  0.40880000  0.78430000  1.0 0.1004732877
H  H37  1  0.75000000  0.58500000  0.23570000  1.0 0.1109067451
H  H38  1  0.41500000  0.25000000  0.73570000  1.0 0.1109067451
H  H39  1  0.81320000  0.70000000  0.53490000  1.0 0.1196908544
H  H40  1  0.30000000  0.18680000  0.03490000  1.0 0.1196908544
H  H41  1  0.20980000  0.79280000  0.40420000  1.0 0.1283929156
H  H42  1  0.20720000  0.79020000  0.90420000  1.0 0.1283929156
H  H43  1  0.36790000  0.86970000  0.18640000  1.0 0.1283929156
H  H44  1  0.13030000  0.63210000  0.68640000  1.0 0.1283929156
H  H45  1  0.50640000  0.90920000  0.34350000  1.0 0.137532884
H  H46  1  0.09080000  0.49360000  0.84350000  1.0 0.137532884
H  H47  1  0.50510000  0.91730000  0.53950000  1.0 0.1283929156
H  H48  1  0.08270000  0.49490000  0.03950000  1.0 0.1283929156
H  H49  1  0.37990000  0.85990000  0.55820000  1.0 0.1283929156
H  H50  1  0.14010000  0.62010000  0.05820000  1.0 0.1283929156
H  H51  1  0.41870000  0.73250000  0.65230000  1.0 0.1004732877
H  H52  1  0.26750000  0.58130000  0.15230000  1.0 0.1004732877
H  H53  1  0.42390000  0.71870000  0.54790000  1.0 0.1004732877
H  H54  1  0.28130000  0.57610000  0.04790000  1.0 0.1004732877
H  H55  1  0.98930000  0.24190000  0.48000000  1.0 0.1283929156
H  H56  1  0.75810000  0.01070000  0.98000000  1.0 0.1283929156
H  H57  1  0.07550000  0.48430000  0.23280000  1.0 0.1196908544
H  H58  1  0.51570000  0.92450000  0.73280000  1.0 0.1196908544
H  H59  1  0.19240000  0.59400000  0.38280000  1.0 0.1283929156
H  H60  1  0.40600000  0.80760000  0.88280000  1.0 0.1283929156
C  C1  1  0.96490000  0.69450000  0.98050000  1.0 0.0873029943
C  C2  1  0.30550000  0.03510000  0.48050000  1.0 0.0873029943
C  C3  1  0.91750000  0.55690000  0.10770000  1.0 -0.039851627
C  C4  1  0.44310000  0.08250000  0.60770000  1.0 -0.039851627
C  C5  1  0.83950000  0.49870000  0.02560000  1.0 -0.1112386246
C  C6  1  0.50130000  0.16050000  0.52560000  1.0 -0.1112386246
C  C7  1  0.81550000  0.57430000  0.83420000  1.0 -0.1725449521
C  C8  1  0.42570000  0.18450000  0.33420000  1.0 -0.1725449521
C  C9  1  0.84660000  0.53200000  0.78650000  1.0 -0.0722957287
C  C10  1  0.46800000  0.15340000  0.28650000  1.0 -0.0722957287
C  C11  1  0.68930000  0.32030000  0.81250000  1.0 -0.039851627
C  C12  1  0.67970000  0.31070000  0.31250000  1.0 -0.039851627
C  C13  1  0.66390000  0.20670000  0.86270000  1.0 -0.1725449521
C  C14  1  0.79330000  0.33610000  0.36270000  1.0 -0.1725449521
C  C15  1  0.78260000  0.22020000  0.03720000  1.0 0.1196908544
C  C16  1  0.77980000  0.21740000  0.53720000  1.0 0.1196908544
C  C17  1  0.66240000  0.15460000  0.13660000  1.0 -0.039851627
C  C18  1  0.84540000  0.33760000  0.63660000  1.0 -0.039851627
C  C19  1  0.60480000  0.15220000  0.03670000  1.0 -0.0989943479
C  C20  1  0.84780000  0.39520000  0.53670000  1.0 -0.0989943479
C  C21  1  0.77210000  0.00670000  0.39240000  1.0 0.5703398775
C  C22  1  0.99330000  0.22790000  0.89240000  1.0 0.5703398775
C  C23  1  0.72440000  0.89200000  0.46590000  1.0 -0.0296856553
C  C24  1  0.10800000  0.27560000  0.96590000  1.0 -0.0296856553
C  C25  1  0.68700000  0.79600000  0.43500000  1.0 -0.1509146352
C  C26  1  0.20400000  0.31300000  0.93500000  1.0 -0.1509146352
C  C27  1  0.62980000  0.68180000  0.49850000  1.0 0.067227457
C  C28  1  0.31820000  0.37020000  0.99850000  1.0 0.067227457
C  C29  1  0.61360000  0.67160000  0.59560000  1.0 -0.1725449521
C  C30  1  0.32840000  0.38640000  0.09560000  1.0 -0.1725449521
C  C31  1  0.65860000  0.77160000  0.62930000  1.0 -0.1176391501
C  C32  1  0.22840000  0.34140000  0.12930000  1.0 -0.1176391501
C  C33  1  0.71800000  0.88360000  0.56720000  1.0 -0.0101033576
C  C34  1  0.11640000  0.28200000  0.06720000  1.0 -0.0101033576
C  C35  1  0.78020000  0.99540000  0.61400000  1.0 0.5462306778
C  C36  1  0.00460000  0.21980000  0.11400000  1.0 0.5462306778
C  C37  1  0.58420000  0.57720000  0.45530000  1.0 -0.2799541575
C  C38  1  0.42280000  0.41580000  0.95530000  1.0 -0.2799541575
C  C39  1  0.68710000  0.61170000  0.41610000  1.0 0.0817029963
C  C40  1  0.38830000  0.31290000  0.91610000  1.0 0.0817029963
C  C41  1  0.66700000  0.57720000  0.32500000  1.0 -0.1604334225
C  C42  1  0.42280000  0.33300000  0.82500000  1.0 -0.1604334225
C  C43  1  0.76260000  0.60740000  0.29630000  1.0 -0.1176391501
C  C44  1  0.39260000  0.23740000  0.79630000  1.0 -0.1176391501
C  C45  1  0.87520000  0.66940000  0.35570000  1.0 -0.0296856553
C  C46  1  0.33060000  0.12480000  0.85570000  1.0 -0.0296856553
C  C47  1  0.89300000  0.70000000  0.44590000  1.0 -0.017219708
C  C48  1  0.30000000  0.10700000  0.94590000  1.0 -0.017219708
C  C49  1  0.79900000  0.67440000  0.47570000  1.0 -0.1604334225
C  C50  1  0.32560000  0.20100000  0.97570000  1.0 -0.1604334225
C  C51  1  0.96872000  0.69792000  0.31320000  1.0 0.5703398775
C  C52  1  0.30208000  0.03128000  0.81320000  1.0 0.5703398775
C  C53  1  0.01330000  0.75810000  0.51960000  1.0 0.5332220237
C  C54  1  0.24190000  0.98670000  0.01960000  1.0 0.5332220237
C  C55  1  0.53800000  0.46420000  0.54010000  1.0 0.6575954597
C  C56  1  0.53580000  0.46200000  0.04010000  1.0 0.6575954597
C  C57  1  0.47380000  0.53920000  0.37180000  1.0 0.6536301415
C  C58  1  0.46080000  0.52620000  0.87180000  1.0 0.6536301415
C  C59  1  0.26480000  0.81440000  0.36950000  1.0 0.0817029963
C  C60  1  0.18560000  0.73520000  0.86950000  1.0 0.0817029963
C  C61  1  0.35320000  0.85820000  0.25100000  1.0 -0.0466888246
C  C62  1  0.14180000  0.64680000  0.75100000  1.0 -0.0466888246
C  C63  1  0.42910000  0.87890000  0.33670000  1.0 -0.0989943479
C  C64  1  0.12110000  0.57090000  0.83670000  1.0 -0.0989943479
C  C65  1  0.41820000  0.84960000  0.52780000  1.0 -0.1784655858
C  C66  1  0.15040000  0.58180000  0.02780000  1.0 -0.1784655858
C  C67  1  0.38820000  0.73140000  0.57890000  1.0 -0.0042650961
C  C68  1  0.26860000  0.61180000  0.07890000  1.0 -0.0042650961
C  C69  1  0.21730000  0.52690000  0.61660000  1.0 0.1109067451
C  C70  1  0.47310000  0.78270000  0.11660000  1.0 0.1109067451
C  C71  1  0.19210000  0.43030000  0.57920000  1.0 0.0314096569
C  C72  1  0.56970000  0.80790000  0.07920000  1.0 0.0314096569
C  C73  1  0.02350000  0.31570000  0.43710000  1.0 0.1109067451
C  C74  1  0.68430000  0.97650000  0.93710000  1.0 0.1109067451
C  C75  1  0.07180000  0.44920000  0.30180000  1.0 -0.039851627
C  C76  1  0.55080000  0.92820000  0.80180000  1.0 -0.039851627
C  C77  1  0.13670000  0.51070000  0.38370000  1.0 -0.138643529
C  C78  1  0.48930000  0.86330000  0.88370000  1.0 -0.138643529
C  C79  1  0.10700000  0.43940000  0.58330000  1.0 -0.0989943479
C  C80  1  0.56060000  0.89300000  0.08330000  1.0 -0.0989943479
N  N1  1  0.99350000  0.67790000  0.08200000  1.0 -0.2799541575
N  N2  1  0.32210000  0.00650000  0.58200000  1.0 -0.2799541575
N  N3  1  0.87080000  0.58860000  0.94370000  1.0 0.0583872873
N  N4  1  0.41140000  0.12920000  0.44370000  1.0 0.0583872873
N  N5  1  0.68460000  0.19420000  0.97640000  1.0 0.0521168582
N  N6  1  0.80580000  0.31540000  0.47640000  1.0 0.0521168582
N  N7  1  0.77290000  0.19510000  0.13480000  1.0 -0.2998697121
N  N8  1  0.80490000  0.22710000  0.63480000  1.0 -0.2998697121
N  N9  1  0.25040000  0.81740000  0.26990000  1.0 -0.2799541575
N  N10  1  0.18260000  0.74960000  0.76990000  1.0 -0.2799541575
N  N11  1  0.37370000  0.84810000  0.41340000  1.0 0.0521168582
N  N12  1  0.15190000  0.62630000  0.91340000  1.0 0.0521168582
N  N13  1  0.10070000  0.41970000  0.47000000  1.0 0.1507200341
N  N14  1  0.58030000  0.89930000  0.97000000  1.0 0.1507200341
N  N15  1  0.99990000  0.32790000  0.33610000  1.0 -0.2799541575
N  N16  1  0.67210000  0.00010000  0.83610000  1.0 -0.2799541575
O  O1  1  0.81182000  0.41838000  0.83440000  1.0 -0.2079806734
O  O2  1  0.58162000  0.18818000  0.33440000  1.0 -0.2079806734
O  O3  1  0.84293000  0.04687000  0.33070000  1.0 -0.5320100297
O  O4  1  0.95313000  0.15707000  0.83070000  1.0 -0.5320100297
O  O5  1  0.73512000  0.05628000  0.38750000  1.0 -0.5758892853
O  O6  1  0.94372000  0.26488000  0.88750000  1.0 -0.5758892853
O  O7  1  0.88380000  0.08600000  0.60340000  1.0 -0.5195269544
O  O8  1  0.91400000  0.11620000  0.10340000  1.0 -0.5195269544
O  O9  1  0.71380000  0.97360000  0.66550000  1.0 -0.5594668348
O  O10  1  0.02640000  0.28620000  0.16550000  1.0 -0.5594668348
O  O11  1  0.03490000  0.81210000  0.58670000  1.0 -0.5396799703
O  O12  1  0.18790000  0.96510000  0.08670000  1.0 -0.5396799703
O  O13  1  0.08090000  0.75170000  0.50950000  1.0 -0.5320100297
O  O14  1  0.24830000  0.91910000  0.00950000  1.0 -0.5320100297
O  O15  1  0.97018000  0.61982000  0.32070000  1.0 -0.5594668348
O  O16  1  0.38018000  0.02982000  0.82070000  1.0 -0.5594668348
O  O17  1  0.04070000  0.80370000  0.26180000  1.0 -0.5396799703
O  O18  1  0.19630000  0.95930000  0.76180000  1.0 -0.5396799703
O  O19  1  0.26570000  0.64310000  0.56300000  1.0 -0.1604334225
O  O20  1  0.35690000  0.73430000  0.06300000  1.0 -0.1604334225
F  F1  1  0.40757000  0.43263000  0.34310000  1.0 -0.1989929896
F  F2  1  0.56737000  0.59243000  0.84310000  1.0 -0.1989929896
F  F3  1  0.50938000  0.61922000  0.28570000  1.0 -0.1989929896
F  F4  1  0.38078000  0.49062000  0.78570000  1.0 -0.1989929896
F  F5  1  0.39920000  0.53020000  0.40300000  1.0 -0.1784655858
F  F6  1  0.46980000  0.60080000  0.90300000  1.0 -0.1784655858
F  F7  1  0.43572000  0.41268000  0.56900000  1.0 -0.1989929896
F  F8  1  0.58732000  0.56428000  0.06900000  1.0 -0.1989929896
F  F9  1  0.51510000  0.37770000  0.50560000  1.0 -0.2079806734
F  F10  1  0.62230000  0.48490000  0.00560000  1.0 -0.2079806734
F  F11  1  0.62002000  0.48918000  0.62420000  1.0 -0.1989929896
F  F12  1  0.51082000  0.37998000  0.12420000  1.0 -0.1989929896
