# DDEC6 charges by PACMAN v1.1 (https://github.com/mtap-research/PACMAN-charge/)
data_QUGKEL_ASR_pacman
_symmetry_space_group_name_H-M   'P 1'
_cell_length_a   19.42670000
_cell_length_b   19.42670000
_cell_length_c   13.94800000
_cell_angle_alpha   86.28910000
_cell_angle_beta   93.71090000
_cell_angle_gamma   98.79900000
_symmetry_Int_Tables_number   1
_chemical_formula_structural   ZnH24C29NO4
_chemical_formula_sum   'Zn6 H144 C174 N6 O24'
_cell_volume   5183.04364018
_cell_formula_units_Z   6
loop_
 _symmetry_equiv_pos_site_id
 _symmetry_equiv_pos_as_xyz
  1  'x, y, z'
loop_
 _atom_site_type_symbol
 _atom_site_label
 _atom_site_symmetry_multiplicity
 _atom_site_fract_x
 _atom_site_fract_y
 _atom_site_fract_z
 _atom_site_occupancy
 _atom_site_charge
Zn  Zn1  1  0.98132000  0.18626000  0.08379000  1.0 0.8223277482
Zn  Zn2  1  0.98349000  0.17835000  0.29177000  1.0 0.8223277482
Zn  Zn3  1  0.18626000  0.98132000  0.91621000  1.0 0.8223277482
Zn  Zn4  1  0.17835000  0.98349000  0.70823000  1.0 0.8223277482
Zn  Zn5  1  0.62808000  0.62184000  0.60397000  1.0 0.8223277482
Zn  Zn6  1  0.62184000  0.62808000  0.39603000  1.0 0.8223277482
H  H1  1  0.76380000  0.16040000  0.31570000  1.0 0.1208918712
H  H2  1  0.64440000  0.16620000  0.31660000  1.0 0.1208918712
H  H3  1  0.63720000  0.20460000  0.03110000  1.0 0.1208918712
H  H4  1  0.75510000  0.19210000  0.02810000  1.0 0.1208918712
H  H5  1  0.51900000  0.02880000  0.24080000  1.0 0.1300538504
H  H6  1  0.50360000  0.03060000  0.12660000  1.0 0.1300538504
H  H7  1  0.57910000  0.06170000  0.17090000  1.0 0.1300538504
H  H8  1  0.38740000  0.04320000  0.25450000  1.0 0.1300538504
H  H9  1  0.33280000  0.08240000  0.18950000  1.0 0.1300538504
H  H10  1  0.38730000  0.04410000  0.13970000  1.0 0.1375789295
H  H11  1  0.45640000  0.36500000  0.14450000  1.0 0.1300538504
H  H12  1  0.39720000  0.33420000  0.21690000  1.0 0.1300538504
H  H13  1  0.47530000  0.35910000  0.25790000  1.0 0.1375789295
H  H14  1  0.59220000  0.34320000  0.22780000  1.0 0.1300538504
H  H15  1  0.63220000  0.30380000  0.15640000  1.0 0.1300538504
H  H16  1  0.57230000  0.34730000  0.11470000  1.0 0.1300538504
H  H17  1  0.32760000  0.18440000  0.34660000  1.0 0.1300538504
H  H18  1  0.21040000  0.18340000  0.34700000  1.0 0.1208918712
H  H19  1  0.20670000  0.25130000  0.06950000  1.0 0.1208918712
H  H20  1  0.32490000  0.24630000  0.06420000  1.0 0.1208918712
H  H21  1  0.95280000  0.27300000  0.43430000  1.0 0.1208918712
H  H22  1  0.95210000  0.28190000  0.60130000  1.0 0.1375789295
H  H23  1  0.01070000  0.09270000  0.63130000  1.0 0.1375789295
H  H24  1  0.00020000  0.08620000  0.46800000  1.0 0.1123186871
H  H25  1  0.90280000  0.24460000  0.74720000  1.0 0.1375789295
H  H26  1  0.90700000  0.24680000  0.91310000  1.0 0.1208918712
H  H27  1  0.07190000  0.15050000  0.93500000  1.0 0.1208918712
H  H28  1  0.06930000  0.14270000  0.77030000  1.0 0.1300538504
H  H29  1  0.81530000  0.60170000  0.18050000  1.0 0.1300538504
H  H30  1  0.84860000  0.77520000  0.18520000  1.0 0.1300538504
H  H31  1  0.11140000  0.58680000  0.15910000  1.0 0.1300538504
H  H32  1  0.03040000  0.85860000  0.05420000  1.0 0.1300538504
H  H33  1  0.10310000  0.82110000  0.22180000  1.0 0.1208918712
H  H34  1  0.81230000  0.70430000  0.13950000  1.0 0.1208918712
H  H35  1  0.95390000  0.94510000  0.32800000  1.0 0.1123186871
H  H36  1  0.11610000  0.60810000  0.26850000  1.0 0.1375789295
H  H37  1  0.85760000  0.54380000  0.14670000  1.0 0.1300538504
H  H38  1  0.95040000  0.82680000  0.31660000  1.0 0.1208918712
H  H39  1  0.03330000  0.97790000  0.06040000  1.0 0.1123186871
H  H40  1  0.83100000  0.60000000  0.06950000  1.0 0.1300538504
H  H41  1  0.85030000  0.76650000  0.07210000  1.0 0.1375789295
H  H42  1  0.14130000  0.75710000  0.26280000  1.0 0.1300538504
H  H43  1  0.15090000  0.66190000  0.18740000  1.0 0.1300538504
H  H44  1  0.14070000  0.77950000  0.15030000  1.0 0.1375789295
H  H45  1  0.00220000  0.40360000  0.32210000  1.0 0.1208918712
H  H46  1  0.00370000  0.52170000  0.31420000  1.0 0.1208918712
H  H47  1  0.96160000  0.52080000  0.02690000  1.0 0.1300538504
H  H48  1  0.96630000  0.40530000  0.03050000  1.0 0.1300538504
H  H49  1  0.16040000  0.76380000  0.68430000  1.0 0.1208918712
H  H50  1  0.16620000  0.64440000  0.68340000  1.0 0.1208918712
H  H51  1  0.20460000  0.63720000  0.96890000  1.0 0.1208918712
H  H52  1  0.19210000  0.75510000  0.97190000  1.0 0.1208918712
H  H53  1  0.02880000  0.51900000  0.75920000  1.0 0.1300538504
H  H54  1  0.03060000  0.50360000  0.87340000  1.0 0.1375789295
H  H55  1  0.06170000  0.57910000  0.82910000  1.0 0.1300538504
H  H56  1  0.04320000  0.38740000  0.74550000  1.0 0.1300538504
H  H57  1  0.08240000  0.33280000  0.81050000  1.0 0.1300538504
H  H58  1  0.04410000  0.38730000  0.86030000  1.0 0.1375789295
H  H59  1  0.36500000  0.45640000  0.85550000  1.0 0.1300538504
H  H60  1  0.33420000  0.39720000  0.78310000  1.0 0.1208918712
H  H61  1  0.35910000  0.47530000  0.74210000  1.0 0.1375789295
H  H62  1  0.34320000  0.59220000  0.77220000  1.0 0.1208918712
H  H63  1  0.30380000  0.63220000  0.84360000  1.0 0.1300538504
H  H64  1  0.34730000  0.57230000  0.88530000  1.0 0.1300538504
H  H65  1  0.18440000  0.32760000  0.65340000  1.0 0.1300538504
H  H66  1  0.18340000  0.21040000  0.65300000  1.0 0.1208918712
H  H67  1  0.25130000  0.20670000  0.93050000  1.0 0.1208918712
H  H68  1  0.24630000  0.32490000  0.93580000  1.0 0.1208918712
H  H69  1  0.27300000  0.95280000  0.56570000  1.0 0.1208918712
H  H70  1  0.28190000  0.95210000  0.39870000  1.0 0.1375789295
H  H71  1  0.09270000  0.01070000  0.36870000  1.0 0.1375789295
H  H72  1  0.08620000  0.00020000  0.53200000  1.0 0.1123186871
H  H73  1  0.24460000  0.90280000  0.25280000  1.0 0.1375789295
H  H74  1  0.24680000  0.90700000  0.08690000  1.0 0.1208918712
H  H75  1  0.15050000  0.07190000  0.06500000  1.0 0.1208918712
H  H76  1  0.14270000  0.06930000  0.22970000  1.0 0.1300538504
H  H77  1  0.60170000  0.81530000  0.81950000  1.0 0.1300538504
H  H78  1  0.77520000  0.84860000  0.81480000  1.0 0.1300538504
H  H79  1  0.58680000  0.11140000  0.84090000  1.0 0.1300538504
H  H80  1  0.85860000  0.03040000  0.94580000  1.0 0.1300538504
H  H81  1  0.82110000  0.10310000  0.77820000  1.0 0.1208918712
H  H82  1  0.70430000  0.81230000  0.86050000  1.0 0.1208918712
H  H83  1  0.94510000  0.95390000  0.67200000  1.0 0.1123186871
H  H84  1  0.60810000  0.11610000  0.73150000  1.0 0.1375789295
H  H85  1  0.54380000  0.85760000  0.85330000  1.0 0.1300538504
H  H86  1  0.82680000  0.95040000  0.68340000  1.0 0.1208918712
H  H87  1  0.97790000  0.03330000  0.93960000  1.0 0.1123186871
H  H88  1  0.60000000  0.83100000  0.93050000  1.0 0.1300538504
H  H89  1  0.76650000  0.85030000  0.92790000  1.0 0.1375789295
H  H90  1  0.75710000  0.14130000  0.73720000  1.0 0.1300538504
H  H91  1  0.66190000  0.15090000  0.81260000  1.0 0.1300538504
H  H92  1  0.77950000  0.14070000  0.84970000  1.0 0.1375789295
H  H93  1  0.40360000  0.00220000  0.67790000  1.0 0.1208918712
H  H94  1  0.52170000  0.00370000  0.68580000  1.0 0.1208918712
H  H95  1  0.52080000  0.96160000  0.97310000  1.0 0.1300538504
H  H96  1  0.40530000  0.96630000  0.96950000  1.0 0.1208918712
H  H97  1  0.53120000  0.56920000  0.75650000  1.0 0.1300538504
H  H98  1  0.72190000  0.66610000  0.76960000  1.0 0.1208918712
H  H99  1  0.52860000  0.56840000  0.92280000  1.0 0.1300538504
H  H100  1  0.72180000  0.67560000  0.93350000  1.0 0.1375789295
H  H101  1  0.85550000  0.62730000  0.64960000  1.0 0.1208918712
H  H102  1  0.84120000  0.64860000  0.36100000  1.0 0.1208918712
H  H103  1  0.97140000  0.62500000  0.64910000  1.0 0.1300538504
H  H104  1  0.95990000  0.65790000  0.35850000  1.0 0.1208918712
H  H105  1  0.03860000  0.48120000  0.60180000  1.0 0.1300538504
H  H106  1  0.98060000  0.50840000  0.52810000  1.0 0.1300538504
H  H107  1  0.03490000  0.46330000  0.49100000  1.0 0.1300538504
H  H108  1  0.08670000  0.78510000  0.40640000  1.0 0.1375789295
H  H109  1  0.02710000  0.75810000  0.47960000  1.0 0.1300538504
H  H110  1  0.10170000  0.79530000  0.51920000  1.0 0.1375789295
H  H111  1  0.16310000  0.46950000  0.46770000  1.0 0.1375789295
H  H112  1  0.22630000  0.50530000  0.53560000  1.0 0.1300538504
H  H113  1  0.15470000  0.47070000  0.58090000  1.0 0.1300538504
H  H114  1  0.27370000  0.74390000  0.46500000  1.0 0.1300538504
H  H115  1  0.21690000  0.77690000  0.39570000  1.0 0.1300538504
H  H116  1  0.22220000  0.78920000  0.50850000  1.0 0.1300538504
H  H117  1  0.29180000  0.63540000  0.62980000  1.0 0.1208918712
H  H118  1  0.27190000  0.60750000  0.34990000  1.0 0.1208918712
H  H119  1  0.41270000  0.63870000  0.62820000  1.0 0.1208918712
H  H120  1  0.39390000  0.60510000  0.34690000  1.0 0.1208918712
H  H121  1  0.56920000  0.53120000  0.24350000  1.0 0.1300538504
H  H122  1  0.66610000  0.72190000  0.23040000  1.0 0.1208918712
H  H123  1  0.56840000  0.52860000  0.07720000  1.0 0.1300538504
H  H124  1  0.67560000  0.72180000  0.06650000  1.0 0.1375789295
H  H125  1  0.62730000  0.85550000  0.35040000  1.0 0.1208918712
H  H126  1  0.64860000  0.84120000  0.63900000  1.0 0.1208918712
H  H127  1  0.62500000  0.97140000  0.35090000  1.0 0.1300538504
H  H128  1  0.65790000  0.95990000  0.64150000  1.0 0.1208918712
H  H129  1  0.48120000  0.03860000  0.39820000  1.0 0.1300538504
H  H130  1  0.50840000  0.98060000  0.47190000  1.0 0.1300538504
H  H131  1  0.46330000  0.03490000  0.50900000  1.0 0.1300538504
H  H132  1  0.78510000  0.08670000  0.59360000  1.0 0.1375789295
H  H133  1  0.75810000  0.02710000  0.52040000  1.0 0.1300538504
H  H134  1  0.79530000  0.10170000  0.48080000  1.0 0.1375789295
H  H135  1  0.46950000  0.16310000  0.53230000  1.0 0.1375789295
H  H136  1  0.50530000  0.22630000  0.46440000  1.0 0.1300538504
H  H137  1  0.47070000  0.15470000  0.41910000  1.0 0.1300538504
H  H138  1  0.74390000  0.27370000  0.53500000  1.0 0.1300538504
H  H139  1  0.77690000  0.21690000  0.60430000  1.0 0.1300538504
H  H140  1  0.78920000  0.22220000  0.49150000  1.0 0.1300538504
H  H141  1  0.63540000  0.29180000  0.37020000  1.0 0.1208918712
H  H142  1  0.60750000  0.27190000  0.65010000  1.0 0.1208918712
H  H143  1  0.63870000  0.41270000  0.37180000  1.0 0.1208918712
H  H144  1  0.60510000  0.39390000  0.65310000  1.0 0.1208918712
C  C1  1  0.85090000  0.17310000  0.17300000  1.0 0.5718272778
C  C2  1  0.77280000  0.17520000  0.17010000  1.0 -0.0221664258
C  C3  1  0.73810000  0.16810000  0.25660000  1.0 -0.1084502474
C  C4  1  0.66700000  0.17220000  0.25750000  1.0 -0.1414948054
C  C5  1  0.63020000  0.18460000  0.17460000  1.0 0.0900929892
C  C6  1  0.66270000  0.19390000  0.08920000  1.0 -0.1516008176
C  C7  1  0.73360000  0.18760000  0.08800000  1.0 -0.1084502474
C  C8  1  0.55420000  0.18940000  0.17740000  1.0 -0.0605036053
C  C9  1  0.50470000  0.12990000  0.18280000  1.0 0.071847878
C  C10  1  0.43220000  0.13780000  0.19390000  1.0 0.0765350606
C  C11  1  0.41560000  0.20540000  0.19970000  1.0 -0.0777594619
C  C12  1  0.46420000  0.26260000  0.19560000  1.0 0.0765350606
C  C13  1  0.53590000  0.25590000  0.18060000  1.0 0.059244264
C  C14  1  0.52890000  0.05570000  0.18000000  1.0 -0.4499050973
C  C15  1  0.38040000  0.07100000  0.19450000  1.0 -0.4659725525
C  C16  1  0.44670000  0.33710000  0.20450000  1.0 -0.431203688
C  C17  1  0.58730000  0.31750000  0.16890000  1.0 -0.4402121552
C  C18  1  0.33920000  0.21020000  0.20680000  1.0 0.1123186871
C  C19  1  0.30290000  0.19510000  0.28800000  1.0 -0.1414948054
C  C20  1  0.23370000  0.19470000  0.28890000  1.0 -0.1084502474
C  C21  1  0.19660000  0.21080000  0.20440000  1.0 -0.042492798
C  C22  1  0.23150000  0.23390000  0.12450000  1.0 -0.1023873225
C  C23  1  0.30160000  0.23260000  0.12170000  1.0 -0.1516008176
C  C24  1  0.11900000  0.20320000  0.20260000  1.0 0.5718272778
C  C25  1  0.96410000  0.23530000  0.47590000  1.0 0.071847878
C  C26  1  0.96440000  0.24160000  0.57590000  1.0 -0.1830230155
C  C27  1  0.98250000  0.18890000  0.63420000  1.0 0.0993751507
C  C28  1  0.99730000  0.13090000  0.59210000  1.0 -0.19934894
C  C29  1  0.99280000  0.12800000  0.49480000  1.0 0.0900929892
C  C30  1  0.98290000  0.19030000  0.73950000  1.0 0.1123186871
C  C31  1  0.93680000  0.22260000  0.78460000  1.0 -0.1830230155
C  C32  1  0.93930000  0.22370000  0.88380000  1.0 0.0993751507
C  C33  1  0.03530000  0.16710000  0.89620000  1.0 0.0900929892
C  C34  1  0.03460000  0.16340000  0.79810000  1.0 -0.1745910444
C  C35  1  0.84930000  0.59230000  0.13590000  1.0 -0.4402121552
C  C36  1  0.85170000  0.74230000  0.13590000  1.0 -0.4402121552
C  C37  1  0.11160000  0.62540000  0.20120000  1.0 -0.4586191175
C  C38  1  0.01310000  0.87650000  0.10810000  1.0 -0.1414948054
C  C39  1  0.01450000  0.94730000  0.11120000  1.0 -0.1023873225
C  C40  1  0.11380000  0.77520000  0.20810000  1.0 -0.4659725525
C  C41  1  0.04700000  0.72600000  0.19160000  1.0 0.059244264
C  C42  1  0.98680000  0.97520000  0.19370000  1.0 -0.0605036053
C  C43  1  0.96690000  0.92810000  0.27050000  1.0 -0.1084502474
C  C44  1  0.98690000  0.83090000  0.18140000  1.0 0.0993751507
C  C45  1  0.96570000  0.85790000  0.26420000  1.0 -0.1516008176
C  C46  1  0.98320000  0.04960000  0.19470000  1.0 0.5599375717
C  C47  1  0.04520000  0.65460000  0.18380000  1.0 0.0504607197
C  C48  1  0.98510000  0.31590000  0.17980000  1.0 0.5895922533
C  C49  1  0.99420000  0.49700000  0.25710000  1.0 -0.1414948054
C  C50  1  0.99420000  0.42780000  0.26210000  1.0 -0.1023873225
C  C51  1  0.98230000  0.39250000  0.17860000  1.0 -0.0286372438
C  C52  1  0.98080000  0.61340000  0.16790000  1.0 -0.0605036053
C  C53  1  0.91830000  0.64170000  0.15300000  1.0 0.0504607197
C  C54  1  0.91990000  0.71190000  0.15340000  1.0 0.0504607197
C  C55  1  0.97030000  0.49710000  0.08720000  1.0 -0.1304258242
C  C56  1  0.98540000  0.75320000  0.17570000  1.0 -0.0546987228
C  C57  1  0.97190000  0.42910000  0.08850000  1.0 -0.1084502474
C  C58  1  0.98020000  0.53500000  0.16680000  1.0 0.0993751507
C  C59  1  0.17310000  0.85090000  0.82700000  1.0 0.5718272778
C  C60  1  0.17520000  0.77280000  0.82990000  1.0 -0.0221664258
C  C61  1  0.16810000  0.73810000  0.74340000  1.0 -0.1084502474
C  C62  1  0.17220000  0.66700000  0.74250000  1.0 -0.1414948054
C  C63  1  0.18460000  0.63020000  0.82540000  1.0 0.0900929892
C  C64  1  0.19390000  0.66270000  0.91080000  1.0 -0.1516008176
C  C65  1  0.18760000  0.73360000  0.91200000  1.0 -0.1084502474
C  C66  1  0.18940000  0.55420000  0.82260000  1.0 -0.0605036053
C  C67  1  0.12990000  0.50470000  0.81720000  1.0 0.071847878
C  C68  1  0.13780000  0.43220000  0.80610000  1.0 0.0765350606
C  C69  1  0.20540000  0.41560000  0.80030000  1.0 -0.0777594619
C  C70  1  0.26260000  0.46420000  0.80440000  1.0 0.0765350606
C  C71  1  0.25590000  0.53590000  0.81940000  1.0 0.059244264
C  C72  1  0.05570000  0.52890000  0.82000000  1.0 -0.4499050973
C  C73  1  0.07100000  0.38040000  0.80550000  1.0 -0.4659725525
C  C74  1  0.33710000  0.44670000  0.79550000  1.0 -0.431203688
C  C75  1  0.31750000  0.58730000  0.83110000  1.0 -0.4402121552
C  C76  1  0.21020000  0.33920000  0.79320000  1.0 0.1123186871
C  C77  1  0.19510000  0.30290000  0.71200000  1.0 -0.1414948054
C  C78  1  0.19470000  0.23370000  0.71110000  1.0 -0.1084502474
C  C79  1  0.21080000  0.19660000  0.79560000  1.0 -0.042492798
C  C80  1  0.23390000  0.23150000  0.87550000  1.0 -0.1023873225
C  C81  1  0.23260000  0.30160000  0.87830000  1.0 -0.1516008176
C  C82  1  0.20320000  0.11900000  0.79740000  1.0 0.5775568537
C  C83  1  0.23530000  0.96410000  0.52410000  1.0 0.071847878
C  C84  1  0.24160000  0.96440000  0.42410000  1.0 -0.1830230155
C  C85  1  0.18890000  0.98250000  0.36580000  1.0 0.0993751507
C  C86  1  0.13090000  0.99730000  0.40790000  1.0 -0.19934894
C  C87  1  0.12800000  0.99280000  0.50520000  1.0 0.0900929892
C  C88  1  0.19030000  0.98290000  0.26050000  1.0 0.1123186871
C  C89  1  0.22260000  0.93680000  0.21540000  1.0 -0.1830230155
C  C90  1  0.22370000  0.93930000  0.11620000  1.0 0.0993751507
C  C91  1  0.16710000  0.03530000  0.10380000  1.0 0.0900929892
C  C92  1  0.16340000  0.03460000  0.20190000  1.0 -0.1745910444
C  C93  1  0.59230000  0.84930000  0.86410000  1.0 -0.4402121552
C  C94  1  0.74230000  0.85170000  0.86410000  1.0 -0.4402121552
C  C95  1  0.62540000  0.11160000  0.79880000  1.0 -0.4586191175
C  C96  1  0.87650000  0.01310000  0.89190000  1.0 -0.1414948054
C  C97  1  0.94730000  0.01450000  0.88880000  1.0 -0.1023873225
C  C98  1  0.77520000  0.11380000  0.79190000  1.0 -0.4659725525
C  C99  1  0.72600000  0.04700000  0.80840000  1.0 0.059244264
C  C100  1  0.97520000  0.98680000  0.80630000  1.0 -0.0665507761
C  C101  1  0.92810000  0.96690000  0.72950000  1.0 -0.1084502474
C  C102  1  0.83090000  0.98690000  0.81860000  1.0 0.0993751507
C  C103  1  0.85790000  0.96570000  0.73580000  1.0 -0.1516008176
C  C104  1  0.04960000  0.98320000  0.80530000  1.0 0.5599375717
C  C105  1  0.65460000  0.04520000  0.81620000  1.0 0.0504607197
C  C106  1  0.31590000  0.98510000  0.82020000  1.0 0.5895922533
C  C107  1  0.49700000  0.99420000  0.74290000  1.0 -0.1414948054
C  C108  1  0.42780000  0.99420000  0.73790000  1.0 -0.1023873225
C  C109  1  0.39250000  0.98230000  0.82140000  1.0 -0.0286372438
C  C110  1  0.61340000  0.98080000  0.83210000  1.0 -0.0605036053
C  C111  1  0.64170000  0.91830000  0.84700000  1.0 0.0504607197
C  C112  1  0.71190000  0.91990000  0.84660000  1.0 0.0504607197
C  C113  1  0.49710000  0.97030000  0.91280000  1.0 -0.1304258242
C  C114  1  0.75320000  0.98540000  0.82430000  1.0 -0.0546987228
C  C115  1  0.42910000  0.97190000  0.91150000  1.0 -0.1084502474
C  C116  1  0.53500000  0.98020000  0.83320000  1.0 0.0993751507
C  C117  1  0.75930000  0.63430000  0.50790000  1.0 0.5895922533
C  C118  1  0.57050000  0.59110000  0.79330000  1.0 0.0504607197
C  C119  1  0.68010000  0.64810000  0.80020000  1.0 0.1208918712
C  C120  1  0.83770000  0.63650000  0.50620000  1.0 -0.0221664258
C  C121  1  0.56850000  0.59130000  0.89180000  1.0 -0.19934894
C  C122  1  0.68140000  0.65300000  0.90010000  1.0 -0.1913912642
C  C123  1  0.87720000  0.63080000  0.59000000  1.0 -0.1023873225
C  C124  1  0.86880000  0.64500000  0.41940000  1.0 -0.1023873225
C  C125  1  0.62610000  0.62570000  0.94740000  1.0 0.0993751507
C  C126  1  0.94530000  0.63030000  0.58980000  1.0 -0.1304258242
C  C127  1  0.93790000  0.64830000  0.41770000  1.0 -0.1414948054
C  C128  1  0.97890000  0.63730000  0.50490000  1.0 0.0993751507
C  C129  1  0.05460000  0.63380000  0.50040000  1.0 -0.0665507761
C  C130  1  0.08090000  0.56830000  0.51220000  1.0 0.059244264
C  C131  1  0.10290000  0.69370000  0.48350000  1.0 0.059244264
C  C132  1  0.14870000  0.56410000  0.50960000  1.0 0.038234388
C  C133  1  0.02880000  0.49860000  0.53550000  1.0 -0.4499050973
C  C134  1  0.17440000  0.69080000  0.47700000  1.0 0.0504607197
C  C135  1  0.07730000  0.76430000  0.47110000  1.0 -0.4586191175
C  C136  1  0.19610000  0.62650000  0.49100000  1.0 -0.0605036053
C  C137  1  0.17550000  0.49670000  0.52470000  1.0 -0.4499050973
C  C138  1  0.22630000  0.75590000  0.46010000  1.0 -0.4586191175
C  C139  1  0.27200000  0.62400000  0.48940000  1.0 0.0900929892
C  C140  1  0.31220000  0.63040000  0.57110000  1.0 -0.1516008176
C  C141  1  0.30060000  0.61340000  0.40750000  1.0 -0.1516008176
C  C142  1  0.38460000  0.62980000  0.57070000  1.0 -0.1084502474
C  C143  1  0.37430000  0.61090000  0.40600000  1.0 -0.1023873225
C  C144  1  0.41650000  0.61670000  0.48790000  1.0 -0.042492798
C  C145  1  0.49320000  0.61760000  0.48980000  1.0 0.5775568537
C  C146  1  0.63430000  0.75930000  0.49210000  1.0 0.5895922533
C  C147  1  0.59110000  0.57050000  0.20670000  1.0 0.0504607197
C  C148  1  0.64810000  0.68010000  0.19980000  1.0 0.1208918712
C  C149  1  0.63650000  0.83770000  0.49380000  1.0 -0.0221664258
C  C150  1  0.59130000  0.56850000  0.10820000  1.0 -0.19934894
C  C151  1  0.65300000  0.68140000  0.09990000  1.0 -0.1913912642
C  C152  1  0.63080000  0.87720000  0.41000000  1.0 -0.1023873225
C  C153  1  0.64500000  0.86880000  0.58060000  1.0 -0.1023873225
C  C154  1  0.62570000  0.62610000  0.05260000  1.0 0.0993751507
C  C155  1  0.63030000  0.94530000  0.41020000  1.0 -0.1304258242
C  C156  1  0.64830000  0.93790000  0.58230000  1.0 -0.1414948054
C  C157  1  0.63730000  0.97890000  0.49510000  1.0 0.0993751507
C  C158  1  0.63380000  0.05460000  0.49960000  1.0 -0.0665507761
C  C159  1  0.56830000  0.08090000  0.48780000  1.0 0.059244264
C  C160  1  0.69370000  0.10290000  0.51650000  1.0 0.059244264
C  C161  1  0.56410000  0.14870000  0.49040000  1.0 0.038234388
C  C162  1  0.49860000  0.02880000  0.46450000  1.0 -0.4499050973
C  C163  1  0.69080000  0.17440000  0.52300000  1.0 0.0504607197
C  C164  1  0.76430000  0.07730000  0.52890000  1.0 -0.4586191175
C  C165  1  0.62650000  0.19610000  0.50900000  1.0 -0.0605036053
C  C166  1  0.49670000  0.17550000  0.47530000  1.0 -0.4499050973
C  C167  1  0.75590000  0.22630000  0.53990000  1.0 -0.4586191175
C  C168  1  0.62400000  0.27200000  0.51060000  1.0 0.0900929892
C  C169  1  0.63040000  0.31220000  0.42890000  1.0 -0.1516008176
C  C170  1  0.61340000  0.30060000  0.59250000  1.0 -0.1516008176
C  C171  1  0.62980000  0.38460000  0.42930000  1.0 -0.1084502474
C  C172  1  0.61090000  0.37430000  0.59400000  1.0 -0.1023873225
C  C173  1  0.61670000  0.41650000  0.51210000  1.0 -0.042492798
C  C174  1  0.61760000  0.49320000  0.51020000  1.0 0.5775568537
N  N1  1  0.97900000  0.17920000  0.43690000  1.0 -0.1913912642
N  N2  1  0.98580000  0.19340000  0.93940000  1.0 -0.2138705649
N  N3  1  0.17920000  0.97900000  0.56310000  1.0 -0.1913912642
N  N4  1  0.19340000  0.98580000  0.06060000  1.0 -0.2138705649
N  N5  1  0.62850000  0.62230000  0.74810000  1.0 -0.1913912642
N  N6  1  0.62230000  0.62850000  0.25190000  1.0 -0.1913912642
O  O1  1  0.88170000  0.17470000  0.25110000  1.0 -0.5102174529
O  O2  1  0.87690000  0.16990000  0.09440000  1.0 -0.52905185
O  O3  1  0.08860000  0.18800000  0.28050000  1.0 -0.5495942302
O  O4  1  0.08730000  0.21470000  0.12240000  1.0 -0.5495942302
O  O5  1  0.99350000  0.28370000  0.26240000  1.0 -0.5634825774
O  O6  1  0.97790000  0.07410000  0.27320000  1.0 -0.5363528677
O  O7  1  0.99360000  0.08620000  0.11670000  1.0 -0.5495942302
O  O8  1  0.97450000  0.28630000  0.10240000  1.0 -0.52905185
O  O9  1  0.17470000  0.88170000  0.74890000  1.0 -0.5102174529
O  O10  1  0.16990000  0.87690000  0.90560000  1.0 -0.52905185
O  O11  1  0.18800000  0.08860000  0.71950000  1.0 -0.5495942302
O  O12  1  0.21470000  0.08730000  0.87760000  1.0 -0.5495942302
O  O13  1  0.28370000  0.99350000  0.73760000  1.0 -0.5634825774
O  O14  1  0.07410000  0.97790000  0.72680000  1.0 -0.5363528677
O  O15  1  0.08620000  0.99360000  0.88330000  1.0 -0.5495942302
O  O16  1  0.28630000  0.97450000  0.89760000  1.0 -0.52905185
O  O17  1  0.73070000  0.62390000  0.58720000  1.0 -0.5495942302
O  O18  1  0.64450000  0.72710000  0.57410000  1.0 -0.5695593305
O  O19  1  0.61510000  0.51870000  0.58830000  1.0 -0.521099145
O  O20  1  0.52650000  0.62430000  0.56860000  1.0 -0.5495942302
O  O21  1  0.62390000  0.73070000  0.41280000  1.0 -0.5495942302
O  O22  1  0.72710000  0.64450000  0.42590000  1.0 -0.5695593305
O  O23  1  0.51870000  0.61510000  0.41170000  1.0 -0.521099145
O  O24  1  0.62430000  0.52650000  0.43140000  1.0 -0.5495942302
