# DDEC6 charges by PACMAN v1.1 (https://github.com/mtap-research/PACMAN-charge/)
data_QUHYIB01_FSR_pacman
_symmetry_space_group_name_H-M   'P 1'
_cell_length_a   11.72790000
_cell_length_b   11.72790000
_cell_length_c   6.65500000
_cell_angle_alpha   75.60290000
_cell_angle_beta   104.39700000
_cell_angle_gamma   141.28800000
_symmetry_Int_Tables_number   1
_chemical_formula_structural   LaC5O12
_chemical_formula_sum   'La2 C10 O24'
_cell_volume   552.23036499
_cell_formula_units_Z   2
loop_
 _symmetry_equiv_pos_site_id
 _symmetry_equiv_pos_as_xyz
  1  'x, y, z'
loop_
 _atom_site_type_symbol
 _atom_site_label
 _atom_site_symmetry_multiplicity
 _atom_site_fract_x
 _atom_site_fract_y
 _atom_site_fract_z
 _atom_site_occupancy
 _atom_site_charge
La  La1  1  0.15310000  0.84690000  0.15350000  1.0 1.4474915785
La  La2  1  0.84690000  0.15310000  0.84650000  1.0 1.4474915785
C  C1  1  0.22650000  0.97050000  0.68100000  1.0 0.4329443274
C  C2  1  0.97050000  0.22650000  0.31900000  1.0 0.4329443274
C  C3  1  0.77350000  0.02950000  0.31900000  1.0 0.4329443274
C  C4  1  0.02950000  0.77350000  0.68100000  1.0 0.4329443274
C  C5  1  0.51560000  0.10560000  0.42700000  1.0 0.1959936318
C  C6  1  0.10560000  0.51560000  0.57300000  1.0 0.1959936318
C  C7  1  0.48440000  0.89440000  0.57300000  1.0 0.19435852
C  C8  1  0.89440000  0.48440000  0.42700000  1.0 0.19435852
C  C9  1  0.09850000  0.09850000  0.00000000  1.0 0.518838696
C  C10  1  0.90150000  0.90150000  0.00000000  1.0 0.518838696
O  O1  1  0.27590000  0.97810000  0.52400000  1.0 -0.3865999656
O  O2  1  0.97810000  0.27590000  0.47600000  1.0 -0.3846474366
O  O3  1  0.72410000  0.02190000  0.47600000  1.0 -0.3846474366
O  O4  1  0.02190000  0.72410000  0.52400000  1.0 -0.3865999656
O  O5  1  0.33800000  0.03200000  0.83500000  1.0 -0.4164221662
O  O6  1  0.03200000  0.33800000  0.16500000  1.0 -0.4164221662
O  O7  1  0.66200000  0.96800000  0.16500000  1.0 -0.4164221662
O  O8  1  0.96800000  0.66200000  0.83500000  1.0 -0.4164221662
O  O9  1  0.73100000  0.26900000  0.49500000  1.0 -0.364717819
O  O10  1  0.26900000  0.73100000  0.50500000  1.0 -0.3661285119
O  O11  1  0.51400000  0.12200000  0.25000000  1.0 -0.0774166567
O  O12  1  0.12200000  0.51400000  0.75000000  1.0 -0.0774166567
O  O13  1  0.48600000  0.87800000  0.75000000  1.0 -0.0774166567
O  O14  1  0.87800000  0.48600000  0.25000000  1.0 -0.0774166567
O  O15  1  0.21900000  0.11300000  0.05200000  1.0 -0.5482449757
O  O16  1  0.11300000  0.21900000  0.94800000  1.0 -0.5482449757
O  O17  1  0.78100000  0.88700000  0.94800000  1.0 -0.5482449757
O  O18  1  0.88700000  0.78100000  0.05200000  1.0 -0.5482449757
O  O19  1  0.25500000  0.74500000  0.01400000  1.0 0.2079696579
O  O20  1  0.74500000  0.25500000  0.98600000  1.0 0.2079696579
O  O21  1  0.45900000  0.11900000  0.14300000  1.0 -0.1039253252
O  O22  1  0.11900000  0.45900000  0.85700000  1.0 -0.1057772489
O  O23  1  0.54100000  0.88100000  0.85700000  1.0 -0.1057772489
O  O24  1  0.88100000  0.54100000  0.14300000  1.0 -0.1039253252
