# DDEC6 charges by PACMAN v1.1 (https://github.com/mtap-research/PACMAN-charge/)
data_QUJWEZ_FSR_pacman
_symmetry_space_group_name_H-M   'P 1'
_cell_length_a   15.41860000
_cell_length_b   15.41860000
_cell_length_c   22.19240000
_cell_angle_alpha   58.28340000
_cell_angle_beta   121.71700000
_cell_angle_gamma   151.26600000
_symmetry_Int_Tables_number   1
_chemical_formula_structural   UH4C12(SO5)2
_chemical_formula_sum   'U4 H16 C48 S8 O40'
_cell_volume   2130.35305727
_cell_formula_units_Z   4
loop_
 _symmetry_equiv_pos_site_id
 _symmetry_equiv_pos_as_xyz
  1  'x, y, z'
loop_
 _atom_site_type_symbol
 _atom_site_label
 _atom_site_symmetry_multiplicity
 _atom_site_fract_x
 _atom_site_fract_y
 _atom_site_fract_z
 _atom_site_occupancy
 _atom_site_charge
U  U1  1  0.79703000  0.97723000  0.76085000  1.0 2.2530683766
U  U2  1  0.97723000  0.79703000  0.73915000  1.0 2.2530683766
U  U3  1  0.20297000  0.02277000  0.23915000  1.0 2.2530683766
U  U4  1  0.02277000  0.20297000  0.26085000  1.0 2.2530683766
H  H1  1  0.67090000  0.98630000  0.52070000  1.0 0.0690969156
H  H2  1  0.98630000  0.67090000  0.97930000  1.0 0.0690969156
H  H3  1  0.32910000  0.01370000  0.47930000  1.0 0.0690969156
H  H4  1  0.01370000  0.32910000  0.02070000  1.0 0.0690969156
H  H5  1  0.72900000  0.09960000  0.39840000  1.0 0.1229153911
H  H6  1  0.09960000  0.72900000  0.10160000  1.0 0.1229153911
H  H7  1  0.27100000  0.90040000  0.60160000  1.0 0.1229153911
H  H8  1  0.90040000  0.27100000  0.89840000  1.0 0.1229153911
H  H9  1  0.42840000  0.82460000  0.63280000  1.0 0.1006402413
H  H10  1  0.82460000  0.42840000  0.86720000  1.0 0.1006402413
H  H11  1  0.57160000  0.17540000  0.36720000  1.0 0.1006402413
H  H12  1  0.17540000  0.57160000  0.13280000  1.0 0.1006402413
H  H13  1  0.17950000  0.65090000  0.53320000  1.0 0.0690969156
H  H14  1  0.65090000  0.17950000  0.96680000  1.0 0.0690969156
H  H15  1  0.82050000  0.34910000  0.46680000  1.0 0.0690969156
H  H16  1  0.34910000  0.82050000  0.03320000  1.0 0.0690969156
C  C1  1  0.81989000  0.92331000  0.63674000  1.0 0.6692448149
C  C2  1  0.92331000  0.81989000  0.86326000  1.0 0.6692448149
C  C3  1  0.18011000  0.07669000  0.36326000  1.0 0.6692448149
C  C4  1  0.07669000  0.18011000  0.13674000  1.0 0.6692448149
C  C5  1  0.82166000  0.98374000  0.55808000  1.0 -0.1305210824
C  C6  1  0.98374000  0.82166000  0.94192000  1.0 -0.1305210824
C  C7  1  0.17834000  0.01626000  0.44192000  1.0 -0.1305210824
C  C8  1  0.01626000  0.17834000  0.05808000  1.0 -0.1305210824
C  C9  1  0.74184000  0.00976000  0.50887000  1.0 -0.1621403207
C  C10  1  0.00976000  0.74184000  0.99113000  1.0 -0.1621403207
C  C11  1  0.25816000  0.99024000  0.49113000  1.0 -0.1621403207
C  C12  1  0.99024000  0.25816000  0.00887000  1.0 -0.1621403207
C  C13  1  0.77505000  0.07475000  0.43892000  1.0 -0.1407053431
C  C14  1  0.07475000  0.77505000  0.06108000  1.0 -0.1407053431
C  C15  1  0.22495000  0.92525000  0.56108000  1.0 -0.1407053431
C  C16  1  0.92525000  0.22495000  0.93892000  1.0 -0.1407053431
C  C17  1  0.88088000  0.09812000  0.43600000  1.0 -0.0931768974
C  C18  1  0.09812000  0.88088000  0.06400000  1.0 -0.0931768974
C  C19  1  0.11912000  0.90188000  0.56400000  1.0 -0.0931768974
C  C20  1  0.90188000  0.11912000  0.93600000  1.0 -0.0931768974
C  C21  1  0.94711000  0.16229000  0.37395000  1.0 0.5870936403
C  C22  1  0.16229000  0.94711000  0.12605000  1.0 0.5870936403
C  C23  1  0.05289000  0.83771000  0.62605000  1.0 0.5870936403
C  C24  1  0.83771000  0.05289000  0.87395000  1.0 0.5870936403
C  C25  1  0.78290000  0.20530000  0.60520000  1.0 0.3850436995
C  C26  1  0.20530000  0.78290000  0.89480000  1.0 0.384169806
C  C27  1  0.21710000  0.79470000  0.39480000  1.0 0.3850436995
C  C28  1  0.79470000  0.21710000  0.10520000  1.0 0.3850436995
C  C29  1  0.60152000  0.05908000  0.56020000  1.0 -0.037111318
C  C30  1  0.05908000  0.60152000  0.93980000  1.0 -0.037111318
C  C31  1  0.39848000  0.94092000  0.43980000  1.0 -0.037111318
C  C32  1  0.94092000  0.39848000  0.06020000  1.0 -0.037111318
C  C33  1  0.44133000  0.87687000  0.58364000  1.0 -0.1202443612
C  C34  1  0.87687000  0.44133000  0.91636000  1.0 -0.1202443612
C  C35  1  0.55867000  0.12313000  0.41636000  1.0 -0.1202443612
C  C36  1  0.12313000  0.55867000  0.08364000  1.0 -0.1202443612
C  C37  1  0.29959000  0.77721000  0.52690000  1.0 -0.1488024106
C  C38  1  0.77721000  0.29959000  0.97310000  1.0 -0.1488024106
C  C39  1  0.70041000  0.22279000  0.47310000  1.0 -0.1488024106
C  C40  1  0.22279000  0.70041000  0.02690000  1.0 -0.1488024106
C  C41  1  0.35495000  0.88365000  0.46140000  1.0 -0.0237743678
C  C42  1  0.88365000  0.35495000  0.03860000  1.0 -0.0237743678
C  C43  1  0.64505000  0.11635000  0.53860000  1.0 -0.0251190381
C  C44  1  0.11635000  0.64505000  0.96140000  1.0 -0.0237743678
C  C45  1  0.23900000  0.82300000  0.39060000  1.0 0.3157633731
C  C46  1  0.82300000  0.23900000  0.10940000  1.0 0.3157633731
C  C47  1  0.76100000  0.17700000  0.60940000  1.0 0.3157633731
C  C48  1  0.17700000  0.76100000  0.89060000  1.0 0.3145539055
S  S1  1  0.93473000  0.03437000  0.51816000  1.0 0.2990898678
S  S2  1  0.03437000  0.93473000  0.98184000  1.0 0.2990898678
S  S3  1  0.06527000  0.96563000  0.48184000  1.0 0.2990898678
S  S4  1  0.96563000  0.06527000  0.01816000  1.0 0.2990898678
S  S5  1  0.57436000  0.10670000  0.46721000  1.0 0.1006402413
S  S6  1  0.10670000  0.57436000  0.03279000  1.0 0.1006402413
S  S7  1  0.42564000  0.89330000  0.53279000  1.0 0.1006402413
S  S8  1  0.89330000  0.42564000  0.96721000  1.0 0.1006402413
O  O1  1  0.03405000  0.19195000  0.76342000  1.0 -0.6644774785
O  O2  1  0.19195000  0.03405000  0.73658000  1.0 -0.6667454153
O  O3  1  0.96595000  0.80805000  0.23658000  1.0 -0.6667454153
O  O4  1  0.80805000  0.96595000  0.26342000  1.0 -0.6667454153
O  O5  1  0.56167000  0.75793000  0.75967000  1.0 -0.6516855468
O  O6  1  0.75793000  0.56167000  0.74033000  1.0 -0.6516855468
O  O7  1  0.43833000  0.24207000  0.24033000  1.0 -0.6516855468
O  O8  1  0.24207000  0.43833000  0.25967000  1.0 -0.6516855468
O  O9  1  0.77807000  0.93633000  0.66357000  1.0 -0.6516855468
O  O10  1  0.93633000  0.77807000  0.83643000  1.0 -0.6516855468
O  O11  1  0.22193000  0.06367000  0.33643000  1.0 -0.6516855468
O  O12  1  0.06367000  0.22193000  0.16357000  1.0 -0.6516855468
O  O13  1  0.85604000  0.86076000  0.67117000  1.0 -0.5984690776
O  O14  1  0.86076000  0.85604000  0.82883000  1.0 -0.5984690776
O  O15  1  0.14396000  0.13924000  0.32883000  1.0 -0.5984690776
O  O16  1  0.13924000  0.14396000  0.17117000  1.0 -0.5984690776
O  O17  1  0.90258000  0.19902000  0.31118000  1.0 -0.5984690776
O  O18  1  0.19902000  0.90258000  0.18882000  1.0 -0.6089274754
O  O19  1  0.09742000  0.80098000  0.68882000  1.0 -0.6089274754
O  O20  1  0.80098000  0.09742000  0.81118000  1.0 -0.6089274754
O  O21  1  0.04701000  0.17459000  0.38545000  1.0 -0.6173753251
O  O22  1  0.17459000  0.04701000  0.11455000  1.0 -0.6089274754
O  O23  1  0.95299000  0.82541000  0.61455000  1.0 -0.6089274754
O  O24  1  0.82541000  0.95299000  0.88545000  1.0 -0.6173753251
O  O25  1  0.79793000  0.14467000  0.66972000  1.0 -0.1305210824
O  O26  1  0.14467000  0.79793000  0.83028000  1.0 -0.1305210824
O  O27  1  0.20207000  0.85533000  0.33028000  1.0 -0.1305210824
O  O28  1  0.85533000  0.20207000  0.16972000  1.0 -0.1305210824
O  O29  1  0.89940000  0.36520000  0.57768000  1.0 -0.1082960886
O  O30  1  0.36520000  0.89940000  0.92232000  1.0 -0.1082960886
O  O31  1  0.10060000  0.63480000  0.42232000  1.0 -0.1082960886
O  O32  1  0.63480000  0.10060000  0.07768000  1.0 -0.1082960886
O  O33  1  0.30363000  0.94957000  0.33587000  1.0 -0.1305210824
O  O34  1  0.94957000  0.30363000  0.16413000  1.0 -0.1305210824
O  O35  1  0.69637000  0.05043000  0.66413000  1.0 -0.1305210824
O  O36  1  0.05043000  0.69637000  0.83587000  1.0 -0.1305210824
O  O37  1  0.09034000  0.65586000  0.38706000  1.0 0.042460764
O  O38  1  0.65586000  0.09034000  0.11294000  1.0 0.042460764
O  O39  1  0.90966000  0.34414000  0.61294000  1.0 0.042460764
O  O40  1  0.34414000  0.90966000  0.88706000  1.0 0.042460764
