# DDEC6 charges by PACMAN v1.1 (https://github.com/mtap-research/PACMAN-charge/)
data_QULMOA_FSR_pacman
_symmetry_space_group_name_H-M   'P 1'
_cell_length_a   17.30450000
_cell_length_b   17.30450000
_cell_length_c   17.30450000
_cell_angle_alpha   106.06600000
_cell_angle_beta   106.06600000
_cell_angle_gamma   106.06600000
_symmetry_Int_Tables_number   1
_chemical_formula_structural   In2H12C16S3O22
_chemical_formula_sum   'In12 H72 C96 S18 O132'
_cell_volume   4420.76331406
_cell_formula_units_Z   6
loop_
 _symmetry_equiv_pos_site_id
 _symmetry_equiv_pos_as_xyz
  1  'x, y, z'
loop_
 _atom_site_type_symbol
 _atom_site_label
 _atom_site_symmetry_multiplicity
 _atom_site_fract_x
 _atom_site_fract_y
 _atom_site_fract_z
 _atom_site_occupancy
 _atom_site_charge
In  In1  1  0.18892000  0.81108000  0.50000000  1.0 1.3804561089
In  In2  1  0.81108000  0.50000000  0.18892000  1.0 1.3804561089
In  In3  1  0.50000000  0.18892000  0.81108000  1.0 1.3804561089
In  In4  1  0.81108000  0.18892000  0.50000000  1.0 1.3804561089
In  In5  1  0.18892000  0.50000000  0.81108000  1.0 1.3804561089
In  In6  1  0.50000000  0.81108000  0.18892000  1.0 1.3804561089
In  In7  1  0.29763000  0.00000000  0.70237000  1.0 1.3697984408
In  In8  1  0.00000000  0.70237000  0.29763000  1.0 1.3697984408
In  In9  1  0.70237000  0.29763000  0.00000000  1.0 1.3697984408
In  In10  1  0.70237000  0.00000000  0.29763000  1.0 1.3697984408
In  In11  1  0.00000000  0.29763000  0.70237000  1.0 1.3697984408
In  In12  1  0.29763000  0.70237000  0.00000000  1.0 1.3697984408
H  H1  1  0.01130000  0.46150000  0.31890000  1.0 0.13233519
H  H2  1  0.46150000  0.31890000  0.01130000  1.0 0.13233519
H  H3  1  0.98870000  0.68110000  0.53850000  1.0 0.13233519
H  H4  1  0.31890000  0.01130000  0.46150000  1.0 0.13233519
H  H5  1  0.68110000  0.53850000  0.98870000  1.0 0.13233519
H  H6  1  0.53850000  0.98870000  0.68110000  1.0 0.13233519
H  H7  1  0.98870000  0.53850000  0.68110000  1.0 0.13233519
H  H8  1  0.53850000  0.68110000  0.98870000  1.0 0.13233519
H  H9  1  0.01130000  0.31890000  0.46150000  1.0 0.13233519
H  H10  1  0.68110000  0.98870000  0.53850000  1.0 0.13233519
H  H11  1  0.31890000  0.46150000  0.01130000  1.0 0.13233519
H  H12  1  0.46150000  0.01130000  0.31890000  1.0 0.13233519
H  H13  1  0.12020000  0.97430000  0.36920000  1.0 0.1211729984
H  H14  1  0.97430000  0.36920000  0.12020000  1.0 0.1211729984
H  H15  1  0.87980000  0.63080000  0.02570000  1.0 0.1211729984
H  H16  1  0.36920000  0.12020000  0.97430000  1.0 0.1211729984
H  H17  1  0.63080000  0.02570000  0.87980000  1.0 0.1211729984
H  H18  1  0.02570000  0.87980000  0.63080000  1.0 0.1211729984
H  H19  1  0.87980000  0.02570000  0.63080000  1.0 0.1211729984
H  H20  1  0.02570000  0.63080000  0.87980000  1.0 0.1211729984
H  H21  1  0.12020000  0.36920000  0.97430000  1.0 0.1211729984
H  H22  1  0.63080000  0.87980000  0.02570000  1.0 0.1211729984
H  H23  1  0.36920000  0.97430000  0.12020000  1.0 0.1211729984
H  H24  1  0.97430000  0.12020000  0.36920000  1.0 0.1211729984
H  H25  1  0.10930000  0.10930000  0.59280000  1.0 0.137282691
H  H26  1  0.10930000  0.59280000  0.10930000  1.0 0.137282691
H  H27  1  0.89070000  0.40720000  0.89070000  1.0 0.137282691
H  H28  1  0.59280000  0.10930000  0.10930000  1.0 0.137282691
H  H29  1  0.40720000  0.89070000  0.89070000  1.0 0.137282691
H  H30  1  0.89070000  0.89070000  0.40720000  1.0 0.137282691
H  H31  1  0.15820000  0.57145000  0.57145000  1.0 0.1517153125
H  H32  1  0.57145000  0.57145000  0.15820000  1.0 0.1517153125
H  H33  1  0.84180000  0.42855000  0.42855000  1.0 0.1517153125
H  H34  1  0.57145000  0.15820000  0.57145000  1.0 0.1517153125
H  H35  1  0.42855000  0.42855000  0.84180000  1.0 0.1517153125
H  H36  1  0.42855000  0.84180000  0.42855000  1.0 0.1517153125
H  H37  1  0.19690000  0.83720000  0.65070000  1.0 0.3815737333
H  H38  1  0.83720000  0.65070000  0.19690000  1.0 0.3815737333
H  H39  1  0.80310000  0.34930000  0.16280000  1.0 0.3815737333
H  H40  1  0.65070000  0.19690000  0.83720000  1.0 0.3815737333
H  H41  1  0.34930000  0.16280000  0.80310000  1.0 0.3815737333
H  H42  1  0.16280000  0.80310000  0.34930000  1.0 0.3815737333
H  H43  1  0.80310000  0.16280000  0.34930000  1.0 0.3815737333
H  H44  1  0.16280000  0.34930000  0.80310000  1.0 0.3815737333
H  H45  1  0.19690000  0.65070000  0.83720000  1.0 0.3815737333
H  H46  1  0.34930000  0.80310000  0.16280000  1.0 0.3815737333
H  H47  1  0.65070000  0.83720000  0.19690000  1.0 0.3815737333
H  H48  1  0.83720000  0.19690000  0.65070000  1.0 0.3815737333
H  H49  1  0.95280000  0.76250000  0.17930000  1.0 0.1600461071
H  H50  1  0.76250000  0.17930000  0.95280000  1.0 0.1600461071
H  H51  1  0.04720000  0.82070000  0.23750000  1.0 0.1600461071
H  H52  1  0.17930000  0.95280000  0.76250000  1.0 0.1600461071
H  H53  1  0.82070000  0.23750000  0.04720000  1.0 0.1600461071
H  H54  1  0.23750000  0.04720000  0.82070000  1.0 0.1600461071
H  H55  1  0.04720000  0.23750000  0.82070000  1.0 0.1600461071
H  H56  1  0.23750000  0.82070000  0.04720000  1.0 0.1600461071
H  H57  1  0.95280000  0.17930000  0.76250000  1.0 0.1600461071
H  H58  1  0.82070000  0.04720000  0.23750000  1.0 0.1600461071
H  H59  1  0.17930000  0.76250000  0.95280000  1.0 0.1600461071
H  H60  1  0.76250000  0.95280000  0.17930000  1.0 0.1600461071
H  H61  1  0.03970000  0.77850000  0.18710000  1.0 0.2117312106
H  H62  1  0.77850000  0.18710000  0.03970000  1.0 0.2117312106
H  H63  1  0.96030000  0.81290000  0.22150000  1.0 0.2117312106
H  H64  1  0.18710000  0.03970000  0.77850000  1.0 0.2117312106
H  H65  1  0.81290000  0.22150000  0.96030000  1.0 0.2117312106
H  H66  1  0.22150000  0.96030000  0.81290000  1.0 0.2117312106
H  H67  1  0.96030000  0.22150000  0.81290000  1.0 0.2117312106
H  H68  1  0.22150000  0.81290000  0.96030000  1.0 0.2117312106
H  H69  1  0.03970000  0.18710000  0.77850000  1.0 0.2117312106
H  H70  1  0.81290000  0.96030000  0.22150000  1.0 0.2117312106
H  H71  1  0.18710000  0.77850000  0.03970000  1.0 0.2117312106
H  H72  1  0.77850000  0.03970000  0.18710000  1.0 0.2117312106
C  C1  1  0.02910000  0.45750000  0.37290000  1.0 -0.1691650633
C  C2  1  0.45750000  0.37290000  0.02910000  1.0 -0.1691650633
C  C3  1  0.97090000  0.62710000  0.54250000  1.0 -0.1691650633
C  C4  1  0.37290000  0.02910000  0.45750000  1.0 -0.1691650633
C  C5  1  0.62710000  0.54250000  0.97090000  1.0 -0.1691650633
C  C6  1  0.54250000  0.97090000  0.62710000  1.0 -0.1691650633
C  C7  1  0.97090000  0.54250000  0.62710000  1.0 -0.1691650633
C  C8  1  0.54250000  0.62710000  0.97090000  1.0 -0.1691650633
C  C9  1  0.02910000  0.37290000  0.45750000  1.0 -0.1691650633
C  C10  1  0.62710000  0.97090000  0.54250000  1.0 -0.1691650633
C  C11  1  0.37290000  0.45750000  0.02910000  1.0 -0.1691650633
C  C12  1  0.45750000  0.02910000  0.37290000  1.0 -0.1691650633
C  C13  1  0.99770000  0.37915000  0.37915000  1.0 -0.0596031581
C  C14  1  0.37915000  0.37915000  0.99770000  1.0 -0.0596031581
C  C15  1  0.00230000  0.62085000  0.62085000  1.0 -0.0596031581
C  C16  1  0.37915000  0.99770000  0.37915000  1.0 -0.0596031581
C  C17  1  0.62085000  0.62085000  0.00230000  1.0 -0.0596031581
C  C18  1  0.62085000  0.00230000  0.62085000  1.0 -0.0596031581
C  C19  1  0.09820000  0.01040000  0.39890000  1.0 -0.1114098471
C  C20  1  0.01040000  0.39890000  0.09820000  1.0 -0.1114098471
C  C21  1  0.90180000  0.60110000  0.98960000  1.0 -0.1114098471
C  C22  1  0.39890000  0.09820000  0.01040000  1.0 -0.1114098471
C  C23  1  0.60110000  0.98960000  0.90180000  1.0 -0.1114098471
C  C24  1  0.98960000  0.90180000  0.60110000  1.0 -0.1114098471
C  C25  1  0.90180000  0.98960000  0.60110000  1.0 -0.1114098471
C  C26  1  0.98960000  0.60110000  0.90180000  1.0 -0.1114098471
C  C27  1  0.09820000  0.39890000  0.01040000  1.0 -0.1114098471
C  C28  1  0.60110000  0.90180000  0.98960000  1.0 -0.1114098471
C  C29  1  0.39890000  0.01040000  0.09820000  1.0 -0.1114098471
C  C30  1  0.01040000  0.09820000  0.39890000  1.0 -0.1114098471
C  C31  1  0.17830000  0.99860000  0.53640000  1.0 0.5895536334
C  C32  1  0.99860000  0.53640000  0.17830000  1.0 0.5895536334
C  C33  1  0.82170000  0.46360000  0.00140000  1.0 0.5895536334
C  C34  1  0.53640000  0.17830000  0.99860000  1.0 0.5895536334
C  C35  1  0.46360000  0.00140000  0.82170000  1.0 0.5895536334
C  C36  1  0.00140000  0.82170000  0.46360000  1.0 0.5895536334
C  C37  1  0.82170000  0.00140000  0.46360000  1.0 0.5895536334
C  C38  1  0.00140000  0.46360000  0.82170000  1.0 0.5895536334
C  C39  1  0.17830000  0.53640000  0.99860000  1.0 0.5895536334
C  C40  1  0.46360000  0.82170000  0.00140000  1.0 0.5895536334
C  C41  1  0.53640000  0.99860000  0.17830000  1.0 0.5895536334
C  C42  1  0.99860000  0.17830000  0.53640000  1.0 0.5895536334
C  C43  1  0.12280000  0.03610000  0.48840000  1.0 -0.0124874795
C  C44  1  0.03610000  0.48840000  0.12280000  1.0 -0.0124874795
C  C45  1  0.87720000  0.51160000  0.96390000  1.0 -0.0124874795
C  C46  1  0.48840000  0.12280000  0.03610000  1.0 -0.0124874795
C  C47  1  0.51160000  0.96390000  0.87720000  1.0 -0.0124874795
C  C48  1  0.96390000  0.87720000  0.51160000  1.0 -0.0124874795
C  C49  1  0.87720000  0.96390000  0.51160000  1.0 -0.0124874795
C  C50  1  0.96390000  0.51160000  0.87720000  1.0 -0.0124874795
C  C51  1  0.12280000  0.48840000  0.03610000  1.0 -0.0124874795
C  C52  1  0.51160000  0.87720000  0.96390000  1.0 -0.0124874795
C  C53  1  0.48840000  0.03610000  0.12280000  1.0 -0.0124874795
C  C54  1  0.03610000  0.12280000  0.48840000  1.0 -0.0124874795
C  C55  1  0.09219000  0.09219000  0.53282000  1.0 -0.095407734
C  C56  1  0.09219000  0.53282000  0.09219000  1.0 -0.095407734
C  C57  1  0.90781000  0.46718000  0.90781000  1.0 -0.095407734
C  C58  1  0.53282000  0.09219000  0.09219000  1.0 -0.095407734
C  C59  1  0.46718000  0.90781000  0.90781000  1.0 -0.095407734
C  C60  1  0.90781000  0.90781000  0.46718000  1.0 -0.095407734
C  C61  1  0.08660000  0.53100000  0.44500000  1.0 0.0645187897
C  C62  1  0.53100000  0.44500000  0.08660000  1.0 0.0645187897
C  C63  1  0.91340000  0.55500000  0.46900000  1.0 0.0645187897
C  C64  1  0.44500000  0.08660000  0.53100000  1.0 0.0645187897
C  C65  1  0.55500000  0.46900000  0.91340000  1.0 0.0645187897
C  C66  1  0.46900000  0.91340000  0.55500000  1.0 0.0645187897
C  C67  1  0.91340000  0.46900000  0.55500000  1.0 0.0645187897
C  C68  1  0.46900000  0.55500000  0.91340000  1.0 0.0645187897
C  C69  1  0.08660000  0.44500000  0.53100000  1.0 0.0645187897
C  C70  1  0.55500000  0.91340000  0.46900000  1.0 0.0645187897
C  C71  1  0.44500000  0.53100000  0.08660000  1.0 0.0645187897
C  C72  1  0.53100000  0.08660000  0.44500000  1.0 0.0645187897
C  C73  1  0.03980000  0.03980000  0.35500000  1.0 -0.1114098471
C  C74  1  0.03980000  0.35500000  0.03980000  1.0 -0.1114098471
C  C75  1  0.96020000  0.64500000  0.96020000  1.0 -0.1114098471
C  C76  1  0.35500000  0.03980000  0.03980000  1.0 -0.1114098471
C  C77  1  0.64500000  0.96020000  0.96020000  1.0 -0.1114098471
C  C78  1  0.96020000  0.96020000  0.64500000  1.0 -0.1114098471
C  C79  1  0.11670000  0.52305000  0.52305000  1.0 -0.1554604431
C  C80  1  0.52305000  0.52305000  0.11670000  1.0 -0.1547275741
C  C81  1  0.88330000  0.47695000  0.47695000  1.0 -0.1547275741
C  C82  1  0.52305000  0.11670000  0.52305000  1.0 -0.1547275741
C  C83  1  0.47695000  0.47695000  0.88330000  1.0 -0.1554604431
C  C84  1  0.47695000  0.88330000  0.47695000  1.0 -0.1547275741
C  C85  1  0.08770000  0.61860000  0.43490000  1.0 0.4384044995
C  C86  1  0.61860000  0.43490000  0.08770000  1.0 0.4384044995
C  C87  1  0.91230000  0.56510000  0.38140000  1.0 0.4384044995
C  C88  1  0.43490000  0.08770000  0.61860000  1.0 0.4384044995
C  C89  1  0.56510000  0.38140000  0.91230000  1.0 0.4384044995
C  C90  1  0.38140000  0.91230000  0.56510000  1.0 0.4384044995
C  C91  1  0.91230000  0.38140000  0.56510000  1.0 0.4384044995
C  C92  1  0.38140000  0.56510000  0.91230000  1.0 0.4384044995
C  C93  1  0.08770000  0.43490000  0.61860000  1.0 0.4384044995
C  C94  1  0.56510000  0.91230000  0.38140000  1.0 0.4384044995
C  C95  1  0.43490000  0.61860000  0.08770000  1.0 0.4384044995
C  C96  1  0.61860000  0.08770000  0.43490000  1.0 0.4384044995
S  S1  1  0.91168000  0.28752000  0.28752000  1.0 1.158366401
S  S2  1  0.28752000  0.28752000  0.91168000  1.0 1.158366401
S  S3  1  0.08832000  0.71248000  0.71248000  1.0 1.158366401
S  S4  1  0.28752000  0.91168000  0.28752000  1.0 1.158366401
S  S5  1  0.71248000  0.71248000  0.08832000  1.0 1.158366401
S  S6  1  0.71248000  0.08832000  0.71248000  1.0 1.158366401
S  S7  1  0.99946000  0.99946000  0.24047000  1.0 0.3214118819
S  S8  1  0.99946000  0.24047000  0.99946000  1.0 0.3214118819
S  S9  1  0.00054000  0.75953000  0.00054000  1.0 0.3214118819
S  S10  1  0.24047000  0.99946000  0.99946000  1.0 0.3257804702
S  S11  1  0.75953000  0.00054000  0.00054000  1.0 0.3214118819
S  S12  1  0.00054000  0.00054000  0.75953000  1.0 0.3257804702
S  S13  1  0.24550000  0.05480000  0.05480000  1.0 0.2701661776
S  S14  1  0.05480000  0.05480000  0.24550000  1.0 0.2701661776
S  S15  1  0.75450000  0.94520000  0.94520000  1.0 0.2701661776
S  S16  1  0.05480000  0.24550000  0.05480000  1.0 0.2701661776
S  S17  1  0.94520000  0.94520000  0.75450000  1.0 0.2701661776
S  S18  1  0.94520000  0.75450000  0.94520000  1.0 0.2701661776
O  O1  1  0.21885000  0.00000000  0.78115000  1.0 -0.54016322
O  O2  1  0.00000000  0.78115000  0.21885000  1.0 -0.54016322
O  O3  1  0.78115000  0.21885000  0.00000000  1.0 -0.54016322
O  O4  1  0.78115000  0.00000000  0.21885000  1.0 -0.54016322
O  O5  1  0.00000000  0.21885000  0.78115000  1.0 -0.54016322
O  O6  1  0.21885000  0.78115000  0.00000000  1.0 -0.54016322
O  O7  1  0.16250000  0.68130000  0.49630000  1.0 -0.3345473517
O  O8  1  0.68130000  0.49630000  0.16250000  1.0 -0.3345473517
O  O9  1  0.83750000  0.50370000  0.31870000  1.0 -0.3354008605
O  O10  1  0.49630000  0.16250000  0.68130000  1.0 -0.3345473517
O  O11  1  0.50370000  0.31870000  0.83750000  1.0 -0.3345473517
O  O12  1  0.31870000  0.83750000  0.50370000  1.0 -0.3345473517
O  O13  1  0.83750000  0.31870000  0.50370000  1.0 -0.3345473517
O  O14  1  0.31870000  0.50370000  0.83750000  1.0 -0.3345473517
O  O15  1  0.16250000  0.49630000  0.68130000  1.0 -0.3345473517
O  O16  1  0.50370000  0.83750000  0.31870000  1.0 -0.3354008605
O  O17  1  0.49630000  0.68130000  0.16250000  1.0 -0.3345473517
O  O18  1  0.68130000  0.16250000  0.49630000  1.0 -0.3345473517
O  O19  1  0.20340000  0.02870000  0.61800000  1.0 -0.5628999283
O  O20  1  0.02870000  0.61800000  0.20340000  1.0 -0.5628999283
O  O21  1  0.79660000  0.38200000  0.97130000  1.0 -0.5628999283
O  O22  1  0.61800000  0.20340000  0.02870000  1.0 -0.5628999283
O  O23  1  0.38200000  0.97130000  0.79660000  1.0 -0.5628999283
O  O24  1  0.97130000  0.79660000  0.38200000  1.0 -0.5628999283
O  O25  1  0.79660000  0.97130000  0.38200000  1.0 -0.5628999283
O  O26  1  0.97130000  0.38200000  0.79660000  1.0 -0.5628999283
O  O27  1  0.20340000  0.61800000  0.02870000  1.0 -0.5628999283
O  O28  1  0.38200000  0.79660000  0.97130000  1.0 -0.5628999283
O  O29  1  0.61800000  0.02870000  0.20340000  1.0 -0.5628999283
O  O30  1  0.02870000  0.20340000  0.61800000  1.0 -0.5628999283
O  O31  1  0.23200000  0.86550000  0.63560000  1.0 -0.854404212
O  O32  1  0.86550000  0.63560000  0.23200000  1.0 -0.854404212
O  O33  1  0.76800000  0.36440000  0.13450000  1.0 -0.854404212
O  O34  1  0.63560000  0.23200000  0.86550000  1.0 -0.854404212
O  O35  1  0.36440000  0.13450000  0.76800000  1.0 -0.854404212
O  O36  1  0.13450000  0.76800000  0.36440000  1.0 -0.854404212
O  O37  1  0.76800000  0.13450000  0.36440000  1.0 -0.854404212
O  O38  1  0.13450000  0.36440000  0.76800000  1.0 -0.854404212
O  O39  1  0.23200000  0.63560000  0.86550000  1.0 -0.854404212
O  O40  1  0.36440000  0.76800000  0.13450000  1.0 -0.854404212
O  O41  1  0.63560000  0.86550000  0.23200000  1.0 -0.854404212
O  O42  1  0.86550000  0.23200000  0.63560000  1.0 -0.854404212
O  O43  1  0.06124000  0.80481000  0.50735000  1.0 -0.6001318714
O  O44  1  0.80481000  0.50735000  0.06124000  1.0 -0.6001318714
O  O45  1  0.93876000  0.49265000  0.19519000  1.0 -0.6001318714
O  O46  1  0.50735000  0.06124000  0.80481000  1.0 -0.6001318714
O  O47  1  0.49265000  0.19519000  0.93876000  1.0 -0.6001318714
O  O48  1  0.19519000  0.93876000  0.49265000  1.0 -0.6001318714
O  O49  1  0.93876000  0.19519000  0.49265000  1.0 -0.6001318714
O  O50  1  0.19519000  0.49265000  0.93876000  1.0 -0.6001318714
O  O51  1  0.06124000  0.50735000  0.80481000  1.0 -0.6001318714
O  O52  1  0.49265000  0.93876000  0.19519000  1.0 -0.6001318714
O  O53  1  0.50735000  0.80481000  0.06124000  1.0 -0.6001318714
O  O54  1  0.80481000  0.06124000  0.50735000  1.0 -0.6001318714
O  O55  1  0.15460000  0.60760000  0.40810000  1.0 -0.1114098471
O  O56  1  0.60760000  0.40810000  0.15460000  1.0 -0.1114098471
O  O57  1  0.84540000  0.59190000  0.39240000  1.0 -0.1114098471
O  O58  1  0.40810000  0.15460000  0.60760000  1.0 -0.1114098471
O  O59  1  0.59190000  0.39240000  0.84540000  1.0 -0.1114098471
O  O60  1  0.39240000  0.84540000  0.59190000  1.0 -0.1114098471
O  O61  1  0.84540000  0.39240000  0.59190000  1.0 -0.1114098471
O  O62  1  0.39240000  0.59190000  0.84540000  1.0 -0.1114098471
O  O63  1  0.15460000  0.40810000  0.60760000  1.0 -0.1114098471
O  O64  1  0.59190000  0.84540000  0.39240000  1.0 -0.1114098471
O  O65  1  0.40810000  0.60760000  0.15460000  1.0 -0.1114098471
O  O66  1  0.60760000  0.15460000  0.40810000  1.0 -0.1114098471
O  O67  1  0.94870000  0.04750000  0.21520000  1.0 -0.1114098471
O  O68  1  0.04750000  0.21520000  0.94870000  1.0 -0.1114098471
O  O69  1  0.05130000  0.78480000  0.95250000  1.0 -0.1114098471
O  O70  1  0.21520000  0.94870000  0.04750000  1.0 -0.1114098471
O  O71  1  0.78480000  0.95250000  0.05130000  1.0 -0.1114098471
O  O72  1  0.95250000  0.05130000  0.78480000  1.0 -0.1114098471
O  O73  1  0.05130000  0.95250000  0.78480000  1.0 -0.1114098471
O  O74  1  0.95250000  0.78480000  0.05130000  1.0 -0.1114098471
O  O75  1  0.94870000  0.21520000  0.04750000  1.0 -0.1114098471
O  O76  1  0.78480000  0.05130000  0.95250000  1.0 -0.1114098471
O  O77  1  0.21520000  0.04750000  0.94870000  1.0 -0.1114098471
O  O78  1  0.04750000  0.94870000  0.21520000  1.0 -0.1114098471
O  O79  1  0.07490000  0.00550000  0.21560000  1.0 -0.0713713818
O  O80  1  0.00550000  0.21560000  0.07490000  1.0 -0.0713713818
O  O81  1  0.92510000  0.78440000  0.99450000  1.0 -0.0713713818
O  O82  1  0.21560000  0.07490000  0.00550000  1.0 -0.0713713818
O  O83  1  0.78440000  0.99450000  0.92510000  1.0 -0.0713713818
O  O84  1  0.99450000  0.92510000  0.78440000  1.0 -0.0713713818
O  O85  1  0.92510000  0.99450000  0.78440000  1.0 -0.0713713818
O  O86  1  0.99450000  0.78440000  0.92510000  1.0 -0.0713713818
O  O87  1  0.07490000  0.21560000  0.00550000  1.0 -0.0713713818
O  O88  1  0.78440000  0.92510000  0.99450000  1.0 -0.0713713818
O  O89  1  0.21560000  0.00550000  0.07490000  1.0 -0.0713713818
O  O90  1  0.00550000  0.07490000  0.21560000  1.0 -0.0713713818
O  O91  1  0.94670000  0.91010000  0.20640000  1.0 -0.1211637351
O  O92  1  0.91010000  0.20640000  0.94670000  1.0 -0.1211637351
O  O93  1  0.05330000  0.79360000  0.08990000  1.0 -0.1211637351
O  O94  1  0.20640000  0.94670000  0.91010000  1.0 -0.1211637351
O  O95  1  0.79360000  0.08990000  0.05330000  1.0 -0.1114098471
O  O96  1  0.08990000  0.05330000  0.79360000  1.0 -0.1211637351
O  O97  1  0.05330000  0.08990000  0.79360000  1.0 -0.1211637351
O  O98  1  0.08990000  0.79360000  0.05330000  1.0 -0.1211637351
O  O99  1  0.94670000  0.20640000  0.91010000  1.0 -0.1211637351
O  O100  1  0.79360000  0.05330000  0.08990000  1.0 -0.1211637351
O  O101  1  0.20640000  0.91010000  0.94670000  1.0 -0.1211637351
O  O102  1  0.91010000  0.94670000  0.20640000  1.0 -0.1211637351
O  O103  1  0.82710000  0.29300000  0.29300000  1.0 -0.6001318714
O  O104  1  0.29300000  0.29300000  0.82710000  1.0 -0.6001318714
O  O105  1  0.17290000  0.70700000  0.70700000  1.0 -0.6054293324
O  O106  1  0.29300000  0.82710000  0.29300000  1.0 -0.6001318714
O  O107  1  0.70700000  0.70700000  0.17290000  1.0 -0.6001318714
O  O108  1  0.70700000  0.17290000  0.70700000  1.0 -0.6001318714
O  O109  1  0.90870000  0.21270000  0.30190000  1.0 -0.5324837376
O  O110  1  0.21270000  0.30190000  0.90870000  1.0 -0.5324837376
O  O111  1  0.09130000  0.69810000  0.78730000  1.0 -0.5324837376
O  O112  1  0.30190000  0.90870000  0.21270000  1.0 -0.5324837376
O  O113  1  0.69810000  0.78730000  0.09130000  1.0 -0.5324837376
O  O114  1  0.78730000  0.09130000  0.69810000  1.0 -0.5324837376
O  O115  1  0.09130000  0.78730000  0.69810000  1.0 -0.5324837376
O  O116  1  0.78730000  0.69810000  0.09130000  1.0 -0.5324837376
O  O117  1  0.90870000  0.30190000  0.21270000  1.0 -0.5324837376
O  O118  1  0.69810000  0.09130000  0.78730000  1.0 -0.5324837376
O  O119  1  0.30190000  0.21270000  0.90870000  1.0 -0.5324837376
O  O120  1  0.21270000  0.90870000  0.30190000  1.0 -0.5324837376
O  O121  1  0.62160000  0.37440000  0.97530000  1.0 -0.1211637351
O  O122  1  0.37440000  0.97530000  0.62160000  1.0 -0.1211637351
O  O123  1  0.37840000  0.02470000  0.62560000  1.0 -0.1211637351
O  O124  1  0.97530000  0.62160000  0.37440000  1.0 -0.1211637351
O  O125  1  0.02470000  0.62560000  0.37840000  1.0 -0.1211637351
O  O126  1  0.62560000  0.37840000  0.02470000  1.0 -0.1211637351
O  O127  1  0.37840000  0.62560000  0.02470000  1.0 -0.1211637351
O  O128  1  0.62560000  0.02470000  0.37840000  1.0 -0.1211637351
O  O129  1  0.62160000  0.97530000  0.37440000  1.0 -0.1211637351
O  O130  1  0.02470000  0.37840000  0.62560000  1.0 -0.1211637351
O  O131  1  0.97530000  0.37440000  0.62160000  1.0 -0.1211637351
O  O132  1  0.37440000  0.62160000  0.97530000  1.0 -0.1211637351
