# DDEC6 charges by PACMAN v1.1 (https://github.com/mtap-research/PACMAN-charge/)
data_QUQFOA_FSR_pacman
_symmetry_space_group_name_H-M   'P 1'
_cell_length_a   14.86180000
_cell_length_b   14.86180000
_cell_length_c   9.33640000
_cell_angle_alpha   85.04710000
_cell_angle_beta   94.95290000
_cell_angle_gamma   93.75990000
_symmetry_Int_Tables_number   1
_chemical_formula_structural   Ni3H22C42(N3O11)2
_chemical_formula_sum   'Ni6 H44 C84 N12 O44'
_cell_volume   2043.27590845
_cell_formula_units_Z   2
loop_
 _symmetry_equiv_pos_site_id
 _symmetry_equiv_pos_as_xyz
  1  'x, y, z'
loop_
 _atom_site_type_symbol
 _atom_site_label
 _atom_site_symmetry_multiplicity
 _atom_site_fract_x
 _atom_site_fract_y
 _atom_site_fract_z
 _atom_site_occupancy
 _atom_site_charge
Ni  Ni1  1  0.20688000  0.61032000  0.56063000  1.0 0.9160236839
Ni  Ni2  1  0.61032000  0.20688000  0.93937000  1.0 0.9160236839
Ni  Ni3  1  0.79312000  0.38968000  0.43937000  1.0 0.9160236839
Ni  Ni4  1  0.38968000  0.79312000  0.06063000  1.0 0.9160236839
Ni  Ni5  1  0.00000000  0.50000000  0.50000000  1.0 1.0175658587
Ni  Ni6  1  0.50000000  0.00000000  0.00000000  1.0 1.0175658587
H  H1  1  0.37220000  0.64700000  0.58220000  1.0 0.3327300969
H  H2  1  0.34500000  0.68280000  0.69900000  1.0 0.359765065
H  H3  1  0.16830000  0.58690000  0.04230000  1.0 0.1276855591
H  H4  1  0.92880000  0.64240000  0.83030000  1.0 0.1276855591
H  H5  1  0.97190000  0.67550000  0.25240000  1.0 0.1276855591
H  H6  1  0.77510000  0.59350000  0.03060000  1.0 0.1073278937
H  H7  1  0.63360000  0.64960000  0.00990000  1.0 0.0777880672
H  H8  1  0.74510000  0.89850000  0.04990000  1.0 0.0993696425
H  H9  1  0.78790000  0.59710000  0.14650000  1.0 0.11866589
H  H10  1  0.64470000  0.64530000  0.14050000  1.0 0.0993696425
H  H11  1  0.73570000  0.88410000  0.96150000  1.0 0.11866589
H  H12  1  0.64700000  0.37220000  0.91780000  1.0 0.3327300969
H  H13  1  0.68280000  0.34500000  0.80100000  1.0 0.359765065
H  H14  1  0.58690000  0.16830000  0.45770000  1.0 0.1276855591
H  H15  1  0.64240000  0.92880000  0.66970000  1.0 0.1276855591
H  H16  1  0.67550000  0.97190000  0.24760000  1.0 0.1276855591
H  H17  1  0.59350000  0.77510000  0.46940000  1.0 0.1073278937
H  H18  1  0.64960000  0.63360000  0.49010000  1.0 0.0777880672
H  H19  1  0.89850000  0.74510000  0.45010000  1.0 0.0993696425
H  H20  1  0.59710000  0.78790000  0.35350000  1.0 0.11866589
H  H21  1  0.64530000  0.64470000  0.35950000  1.0 0.0993696425
H  H22  1  0.88410000  0.73570000  0.53850000  1.0 0.11866589
H  H23  1  0.62780000  0.35300000  0.41780000  1.0 0.3327300969
H  H24  1  0.65500000  0.31720000  0.30100000  1.0 0.359765065
H  H25  1  0.83170000  0.41310000  0.95770000  1.0 0.1276855591
H  H26  1  0.07120000  0.35760000  0.16970000  1.0 0.1276855591
H  H27  1  0.02810000  0.32450000  0.74760000  1.0 0.1276855591
H  H28  1  0.22490000  0.40650000  0.96940000  1.0 0.1073278937
H  H29  1  0.36640000  0.35040000  0.99010000  1.0 0.0777880672
H  H30  1  0.25490000  0.10150000  0.95010000  1.0 0.0993696425
H  H31  1  0.21210000  0.40290000  0.85350000  1.0 0.11866589
H  H32  1  0.35530000  0.35470000  0.85950000  1.0 0.0993696425
H  H33  1  0.26430000  0.11590000  0.03850000  1.0 0.11866589
H  H34  1  0.35300000  0.62780000  0.08220000  1.0 0.3327300969
H  H35  1  0.31720000  0.65500000  0.19900000  1.0 0.359765065
H  H36  1  0.41310000  0.83170000  0.54230000  1.0 0.1276855591
H  H37  1  0.35760000  0.07120000  0.33030000  1.0 0.1276855591
H  H38  1  0.32450000  0.02810000  0.75240000  1.0 0.1276855591
H  H39  1  0.40650000  0.22490000  0.53060000  1.0 0.1073278937
H  H40  1  0.35040000  0.36640000  0.50990000  1.0 0.0777880672
H  H41  1  0.10150000  0.25490000  0.54990000  1.0 0.0993696425
H  H42  1  0.40290000  0.21210000  0.64650000  1.0 0.11866589
H  H43  1  0.35470000  0.35530000  0.64050000  1.0 0.0993696425
H  H44  1  0.11590000  0.26430000  0.46150000  1.0 0.11866589
C  C1  1  0.13270000  0.61970000  0.30960000  1.0 0.5908210698
C  C2  1  0.07660000  0.62700000  0.16880000  1.0 0.0224423863
C  C3  1  0.10930000  0.60430000  0.04230000  1.0 -0.0964520079
C  C4  1  0.05180000  0.60800000  0.91440000  1.0 0.0224423863
C  C5  1  0.96650000  0.64010000  0.91520000  1.0 -0.1795197198
C  C6  1  0.93590000  0.66870000  0.03760000  1.0 -0.0791104525
C  C7  1  0.99220000  0.65940000  0.16730000  1.0 -0.1744487014
C  C8  1  0.07900000  0.57780000  0.77680000  1.0 0.5908210698
C  C9  1  0.84620000  0.70720000  0.03780000  1.0 -0.0278212706
C  C10  1  0.77080000  0.65560000  0.03100000  1.0 -0.0412996536
C  C11  1  0.68440000  0.68860000  0.02500000  1.0 -0.0412996536
C  C12  1  0.67500000  0.77520000  0.03920000  1.0 -0.0131236197
C  C13  1  0.75100000  0.83700000  0.04600000  1.0 -0.0791104525
C  C14  1  0.83200000  0.80280000  0.04600000  1.0 0.0667310479
C  C15  1  0.58420000  0.81380000  0.04410000  1.0 0.4853389982
C  C16  1  0.14870000  0.79990000  0.64230000  1.0 0.348730934
C  C17  1  0.11800000  0.86860000  0.73100000  1.0 -0.4633426544
C  C18  1  0.77560000  0.65400000  0.10200000  1.0 -0.0412996536
C  C19  1  0.69090000  0.68250000  0.10200000  1.0 -0.0412996536
C  C20  1  0.74300000  0.82380000  0.99300000  1.0 -0.0791104525
C  C21  1  0.82600000  0.78900000  0.99000000  1.0 0.0536313105
C  C22  1  0.61970000  0.13270000  0.19040000  1.0 0.5908210698
C  C23  1  0.62700000  0.07660000  0.33120000  1.0 0.0224423863
C  C24  1  0.60430000  0.10930000  0.45770000  1.0 -0.0964520079
C  C25  1  0.60800000  0.05180000  0.58560000  1.0 0.0224423863
C  C26  1  0.64010000  0.96650000  0.58480000  1.0 -0.1795197198
C  C27  1  0.66870000  0.93590000  0.46240000  1.0 -0.0791104525
C  C28  1  0.65940000  0.99220000  0.33270000  1.0 -0.1795197198
C  C29  1  0.57780000  0.07900000  0.72320000  1.0 0.5908210698
C  C30  1  0.70720000  0.84620000  0.46220000  1.0 -0.0278212706
C  C31  1  0.65560000  0.77080000  0.46900000  1.0 -0.0412996536
C  C32  1  0.68860000  0.68440000  0.47500000  1.0 -0.0412996536
C  C33  1  0.77520000  0.67500000  0.46080000  1.0 -0.0131236197
C  C34  1  0.83700000  0.75100000  0.45400000  1.0 -0.0791104525
C  C35  1  0.80280000  0.83200000  0.45400000  1.0 0.0667310479
C  C36  1  0.81380000  0.58420000  0.45590000  1.0 0.4839472595
C  C37  1  0.79990000  0.14870000  0.85770000  1.0 0.348730934
C  C38  1  0.86860000  0.11800000  0.76900000  1.0 -0.4655976769
C  C39  1  0.65400000  0.77560000  0.39800000  1.0 -0.0412996536
C  C40  1  0.68250000  0.69090000  0.39800000  1.0 -0.0412996536
C  C41  1  0.82380000  0.74300000  0.50700000  1.0 -0.0791104525
C  C42  1  0.78900000  0.82600000  0.51000000  1.0 0.0536313105
C  C43  1  0.86730000  0.38030000  0.69040000  1.0 0.5908210698
C  C44  1  0.92340000  0.37300000  0.83120000  1.0 0.0224423863
C  C45  1  0.89070000  0.39570000  0.95770000  1.0 -0.0964520079
C  C46  1  0.94820000  0.39200000  0.08560000  1.0 0.0224423863
C  C47  1  0.03350000  0.35990000  0.08480000  1.0 -0.1795197198
C  C48  1  0.06410000  0.33130000  0.96240000  1.0 -0.0791104525
C  C49  1  0.00780000  0.34060000  0.83270000  1.0 -0.1795197198
C  C50  1  0.92100000  0.42220000  0.22320000  1.0 0.5908210698
C  C51  1  0.15380000  0.29280000  0.96220000  1.0 -0.0278212706
C  C52  1  0.22920000  0.34440000  0.96900000  1.0 -0.0412996536
C  C53  1  0.31560000  0.31140000  0.97500000  1.0 -0.0412996536
C  C54  1  0.32500000  0.22480000  0.96080000  1.0 -0.0131236197
C  C55  1  0.24900000  0.16300000  0.95400000  1.0 -0.0791104525
C  C56  1  0.16800000  0.19720000  0.95400000  1.0 0.0667310479
C  C57  1  0.41580000  0.18620000  0.95590000  1.0 0.4839472595
C  C58  1  0.85130000  0.20010000  0.35770000  1.0 0.348730934
C  C59  1  0.88200000  0.13140000  0.26900000  1.0 -0.4655976769
C  C60  1  0.22440000  0.34600000  0.89800000  1.0 -0.0412996536
C  C61  1  0.30910000  0.31750000  0.89800000  1.0 -0.0412996536
C  C62  1  0.25700000  0.17620000  0.00700000  1.0 -0.0791104525
C  C63  1  0.17400000  0.21100000  0.01000000  1.0 0.0536313105
C  C64  1  0.38030000  0.86730000  0.80960000  1.0 0.5908210698
C  C65  1  0.37300000  0.92340000  0.66880000  1.0 0.0224423863
C  C66  1  0.39570000  0.89070000  0.54230000  1.0 -0.0964520079
C  C67  1  0.39200000  0.94820000  0.41440000  1.0 0.0224423863
C  C68  1  0.35990000  0.03350000  0.41520000  1.0 -0.1795197198
C  C69  1  0.33130000  0.06410000  0.53760000  1.0 -0.0791104525
C  C70  1  0.34060000  0.00780000  0.66730000  1.0 -0.1795197198
C  C71  1  0.42220000  0.92100000  0.27680000  1.0 0.5908210698
C  C72  1  0.29280000  0.15380000  0.53780000  1.0 -0.0278212706
C  C73  1  0.34440000  0.22920000  0.53100000  1.0 -0.0412996536
C  C74  1  0.31140000  0.31560000  0.52500000  1.0 -0.0412996536
C  C75  1  0.22480000  0.32500000  0.53920000  1.0 -0.0131236197
C  C76  1  0.16300000  0.24900000  0.54600000  1.0 -0.0791104525
C  C77  1  0.19720000  0.16800000  0.54600000  1.0 0.0667310479
C  C78  1  0.18620000  0.41580000  0.54410000  1.0 0.4853389982
C  C79  1  0.20010000  0.85130000  0.14230000  1.0 0.348730934
C  C80  1  0.13140000  0.88200000  0.23100000  1.0 -0.4633426544
C  C81  1  0.34600000  0.22440000  0.60200000  1.0 -0.0412996536
C  C82  1  0.31750000  0.30910000  0.60200000  1.0 -0.0412996536
C  C83  1  0.17620000  0.25700000  0.49300000  1.0 -0.0791104525
C  C84  1  0.21100000  0.17400000  0.49000000  1.0 0.0536313105
N  N1  1  0.91200000  0.86800000  0.04900000  1.0 0.2020666647
N  N2  1  0.17450000  0.74430000  0.58410000  1.0 -0.4101836559
N  N3  1  0.89700000  0.84620000  0.91600000  1.0 0.1698591794
N  N4  1  0.86800000  0.91200000  0.45100000  1.0 0.2020666647
N  N5  1  0.74430000  0.17450000  0.91590000  1.0 -0.4101836559
N  N6  1  0.84620000  0.89700000  0.58400000  1.0 0.1698591794
N  N7  1  0.08800000  0.13200000  0.95100000  1.0 0.2020666647
N  N8  1  0.82550000  0.25570000  0.41590000  1.0 -0.4101836559
N  N9  1  0.10300000  0.15380000  0.08400000  1.0 0.1698591794
N  N10  1  0.13200000  0.08800000  0.54900000  1.0 0.2020666647
N  N11  1  0.25570000  0.82550000  0.08410000  1.0 -0.4101836559
N  N12  1  0.15380000  0.10300000  0.41600000  1.0 0.1698591794
O  O1  1  0.09220000  0.60000000  0.42320000  1.0 -0.5387948629
O  O2  1  0.21560000  0.63480000  0.31820000  1.0 -0.4903264817
O  O3  1  0.16280000  0.57960000  0.75950000  1.0 -0.5387948629
O  O4  1  0.01510000  0.55570000  0.68810000  1.0 -0.5387948629
O  O5  1  0.58440000  0.89800000  0.04780000  1.0 -0.5050520775
O  O6  1  0.51520000  0.75820000  0.04110000  1.0 -0.502929241
O  O7  1  0.98230000  0.85690000  0.01300000  1.0 0.1546331766
O  O8  1  0.90670000  0.93290000  0.10900000  1.0 -0.3101235059
O  O9  1  0.33350000  0.64150000  0.64320000  1.0 -0.6235412833
O  O10  1  0.96800000  0.84980000  0.94100000  1.0 0.0993696425
O  O11  1  0.86470000  0.88710000  0.79700000  1.0 -0.1106096104
O  O12  1  0.60000000  0.09220000  0.07680000  1.0 -0.5387948629
O  O13  1  0.63480000  0.21560000  0.18180000  1.0 -0.4903264817
O  O14  1  0.57960000  0.16280000  0.74050000  1.0 -0.5387948629
O  O15  1  0.55570000  0.01510000  0.81190000  1.0 -0.5387948629
O  O16  1  0.89800000  0.58440000  0.45220000  1.0 -0.502929241
O  O17  1  0.75820000  0.51520000  0.45890000  1.0 -0.502929241
O  O18  1  0.85690000  0.98230000  0.48700000  1.0 0.1546331766
O  O19  1  0.93290000  0.90670000  0.39100000  1.0 -0.3101235059
O  O20  1  0.64150000  0.33350000  0.85680000  1.0 -0.6235412833
O  O21  1  0.84980000  0.96800000  0.55900000  1.0 0.0993696425
O  O22  1  0.88710000  0.86470000  0.70300000  1.0 -0.1106096104
O  O23  1  0.90780000  0.40000000  0.57680000  1.0 -0.5387948629
O  O24  1  0.78440000  0.36520000  0.68180000  1.0 -0.4903264817
O  O25  1  0.83720000  0.42040000  0.24050000  1.0 -0.5387948629
O  O26  1  0.98490000  0.44430000  0.31190000  1.0 -0.5387948629
O  O27  1  0.41560000  0.10200000  0.95220000  1.0 -0.502929241
O  O28  1  0.48480000  0.24180000  0.95890000  1.0 -0.502929241
O  O29  1  0.01770000  0.14310000  0.98700000  1.0 0.1546331766
O  O30  1  0.09330000  0.06710000  0.89100000  1.0 -0.3101235059
O  O31  1  0.66650000  0.35850000  0.35680000  1.0 -0.6235412833
O  O32  1  0.03200000  0.15020000  0.05900000  1.0 0.1073278937
O  O33  1  0.13530000  0.11290000  0.20300000  1.0 -0.1106096104
O  O34  1  0.40000000  0.90780000  0.92320000  1.0 -0.5387948629
O  O35  1  0.36520000  0.78440000  0.81820000  1.0 -0.4903264817
O  O36  1  0.42040000  0.83720000  0.25950000  1.0 -0.5387948629
O  O37  1  0.44430000  0.98490000  0.18810000  1.0 -0.5387948629
O  O38  1  0.10200000  0.41560000  0.54780000  1.0 -0.502929241
O  O39  1  0.24180000  0.48480000  0.54110000  1.0 -0.502929241
O  O40  1  0.14310000  0.01770000  0.51300000  1.0 0.1546331766
O  O41  1  0.06710000  0.09330000  0.60900000  1.0 -0.3101235059
O  O42  1  0.35850000  0.66650000  0.14320000  1.0 -0.6235412833
O  O43  1  0.15020000  0.03200000  0.44100000  1.0 0.0993696425
O  O44  1  0.11290000  0.13530000  0.29700000  1.0 -0.1106096104
