# DDEC6 charges by PACMAN v1.1 (https://github.com/mtap-research/PACMAN-charge/)
data_QUQFOY_ASR_pacman
_symmetry_space_group_name_H-M   'P 1'
_cell_length_a   19.93690000
_cell_length_b   19.93690000
_cell_length_c   18.16300000
_cell_angle_alpha   71.99690000
_cell_angle_beta   108.00300000
_cell_angle_gamma   109.07000000
_symmetry_Int_Tables_number   1
_chemical_formula_structural   CdH4(C5O2)2
_chemical_formula_sum   'Cd12 H48 C120 O48'
_cell_volume   6312.87538703
_cell_formula_units_Z   12
loop_
 _symmetry_equiv_pos_site_id
 _symmetry_equiv_pos_as_xyz
  1  'x, y, z'
loop_
 _atom_site_type_symbol
 _atom_site_label
 _atom_site_symmetry_multiplicity
 _atom_site_fract_x
 _atom_site_fract_y
 _atom_site_fract_z
 _atom_site_occupancy
 _atom_site_charge
Cd  Cd1  1  0.73751000  0.05485000  0.89968000  1.0 0.9863803411
Cd  Cd2  1  0.05485000  0.73751000  0.60032000  1.0 0.9863803411
Cd  Cd3  1  0.26249000  0.94515000  0.10032000  1.0 0.9863803411
Cd  Cd4  1  0.94515000  0.26249000  0.39968000  1.0 0.9863803411
Cd  Cd5  1  0.84254000  0.22914000  0.93489000  1.0 1.1209216888
Cd  Cd6  1  0.22914000  0.84254000  0.56511000  1.0 1.1209216888
Cd  Cd7  1  0.15746000  0.77086000  0.06511000  1.0 1.1209216888
Cd  Cd8  1  0.77086000  0.15746000  0.43489000  1.0 1.1209216888
Cd  Cd9  1  0.53167000  0.65321000  0.66522000  1.0 1.0325714523
Cd  Cd10  1  0.65321000  0.53167000  0.83478000  1.0 1.0325714523
Cd  Cd11  1  0.46833000  0.34679000  0.33478000  1.0 1.0325714523
Cd  Cd12  1  0.34679000  0.46833000  0.16522000  1.0 1.0325714523
H  H1  1  0.84060000  0.15720000  0.67450000  1.0 0.1316561332
H  H2  1  0.15720000  0.84060000  0.82550000  1.0 0.1316561332
H  H3  1  0.15940000  0.84280000  0.32550000  1.0 0.1316561332
H  H4  1  0.84280000  0.15940000  0.17450000  1.0 0.1316561332
H  H5  1  0.03840000  0.29320000  0.65740000  1.0 0.1200573042
H  H6  1  0.29320000  0.03840000  0.84260000  1.0 0.1200573042
H  H7  1  0.96160000  0.70680000  0.34260000  1.0 0.1200573042
H  H8  1  0.70680000  0.96160000  0.15740000  1.0 0.1200573042
H  H9  1  0.98070000  0.21990000  0.86420000  1.0 0.109410054
H  H10  1  0.21990000  0.98070000  0.63580000  1.0 0.109410054
H  H11  1  0.01930000  0.78010000  0.13580000  1.0 0.109410054
H  H12  1  0.78010000  0.01930000  0.36420000  1.0 0.109410054
H  H13  1  0.10120000  0.39740000  0.72370000  1.0 0.1200573042
H  H14  1  0.39740000  0.10120000  0.77630000  1.0 0.1200573042
H  H15  1  0.89880000  0.60260000  0.27630000  1.0 0.109410054
H  H16  1  0.60260000  0.89880000  0.22370000  1.0 0.109410054
H  H17  1  0.27280000  0.40340000  0.90500000  1.0 0.1200573042
H  H18  1  0.40340000  0.27280000  0.59500000  1.0 0.1200573042
H  H19  1  0.72720000  0.59660000  0.09500000  1.0 0.1200573042
H  H20  1  0.59660000  0.72720000  0.40500000  1.0 0.1200573042
H  H21  1  0.10710000  0.22610000  0.90690000  1.0 0.109410054
H  H22  1  0.22610000  0.10710000  0.59310000  1.0 0.109410054
H  H23  1  0.89290000  0.77390000  0.09310000  1.0 0.109410054
H  H24  1  0.77390000  0.89290000  0.40690000  1.0 0.109410054
H  H25  1  0.13370000  0.52050000  0.73720000  1.0 0.1200573042
H  H26  1  0.52050000  0.13370000  0.76280000  1.0 0.1200573042
H  H27  1  0.86630000  0.47950000  0.26280000  1.0 0.1200573042
H  H28  1  0.47950000  0.86630000  0.23720000  1.0 0.1200573042
H  H29  1  0.30020000  0.67740000  0.66340000  1.0 0.1200573042
H  H30  1  0.67740000  0.30020000  0.83660000  1.0 0.1200573042
H  H31  1  0.69980000  0.32260000  0.33660000  1.0 0.1200573042
H  H32  1  0.32260000  0.69980000  0.16340000  1.0 0.1200573042
H  H33  1  0.32880000  0.47640000  0.78510000  1.0 0.1200573042
H  H34  1  0.47640000  0.32880000  0.71490000  1.0 0.1200573042
H  H35  1  0.67120000  0.52360000  0.21490000  1.0 0.1200573042
H  H36  1  0.52360000  0.67120000  0.28510000  1.0 0.1200573042
H  H37  1  0.28280000  0.35420000  0.04960000  1.0 0.109410054
H  H38  1  0.35420000  0.28280000  0.45040000  1.0 0.109410054
H  H39  1  0.71720000  0.64580000  0.95040000  1.0 0.1046912695
H  H40  1  0.64580000  0.71720000  0.54960000  1.0 0.109410054
H  H41  1  0.34460000  0.17460000  0.18520000  1.0 0.1316561332
H  H42  1  0.17460000  0.34460000  0.31480000  1.0 0.1316561332
H  H43  1  0.65540000  0.82540000  0.81480000  1.0 0.1316561332
H  H44  1  0.82540000  0.65540000  0.68520000  1.0 0.1316561332
H  H45  1  0.20210000  0.17150000  0.97340000  1.0 0.1200573042
H  H46  1  0.17150000  0.20210000  0.52660000  1.0 0.1200573042
H  H47  1  0.79790000  0.82850000  0.02660000  1.0 0.1200573042
H  H48  1  0.82850000  0.79790000  0.47340000  1.0 0.1200573042
C  C1  1  0.84490000  0.13390000  0.81950000  1.0 0.5601869101
C  C2  1  0.13390000  0.84490000  0.68050000  1.0 0.5601869101
C  C3  1  0.15510000  0.86610000  0.18050000  1.0 0.5601869101
C  C4  1  0.86610000  0.15510000  0.31950000  1.0 0.5601869101
C  C5  1  0.90190000  0.17850000  0.77790000  1.0 -0.059487536
C  C6  1  0.17850000  0.90190000  0.72210000  1.0 -0.059487536
C  C7  1  0.09810000  0.82150000  0.22210000  1.0 -0.059487536
C  C8  1  0.82150000  0.09810000  0.27790000  1.0 -0.059487536
C  C9  1  0.88610000  0.18270000  0.69870000  1.0 -0.0889652859
C  C10  1  0.18270000  0.88610000  0.80130000  1.0 -0.0889652859
C  C11  1  0.11390000  0.81730000  0.30130000  1.0 -0.0889652859
C  C12  1  0.81730000  0.11390000  0.19870000  1.0 -0.0889652859
C  C13  1  0.93700000  0.22500000  0.65250000  1.0 0.0009284454
C  C14  1  0.22500000  0.93700000  0.84750000  1.0 0.0009284454
C  C15  1  0.06300000  0.77500000  0.34750000  1.0 -0.0006378492
C  C16  1  0.77500000  0.06300000  0.15250000  1.0 0.0009284454
C  C17  1  0.00470000  0.26470000  0.68790000  1.0 -0.1426045833
C  C18  1  0.26470000  0.00470000  0.81210000  1.0 -0.1426045833
C  C19  1  0.99530000  0.73530000  0.31210000  1.0 -0.1426045833
C  C20  1  0.73530000  0.99530000  0.18790000  1.0 -0.1426045833
C  C21  1  0.02170000  0.26150000  0.76890000  1.0 0.0579624325
C  C22  1  0.26150000  0.02170000  0.73110000  1.0 0.0579624325
C  C23  1  0.97830000  0.73850000  0.23110000  1.0 0.0579624325
C  C24  1  0.73850000  0.97830000  0.26890000  1.0 0.0579624325
C  C25  1  0.97000000  0.22020000  0.81050000  1.0 -0.157299151
C  C26  1  0.22020000  0.97000000  0.68950000  1.0 -0.157299151
C  C27  1  0.03000000  0.77980000  0.18950000  1.0 -0.157299151
C  C28  1  0.77980000  0.03000000  0.31050000  1.0 -0.157299151
C  C29  1  0.92060000  0.23020000  0.56140000  1.0 0.5785395379
C  C30  1  0.23020000  0.92060000  0.93860000  1.0 0.5785395379
C  C31  1  0.07940000  0.76980000  0.43860000  1.0 0.5785395379
C  C32  1  0.76980000  0.07940000  0.06140000  1.0 0.5785395379
C  C33  1  0.09110000  0.30310000  0.80840000  1.0 0.0797449272
C  C34  1  0.30310000  0.09110000  0.69160000  1.0 0.0797449272
C  C35  1  0.90890000  0.69690000  0.19160000  1.0 0.0797449272
C  C36  1  0.69690000  0.90890000  0.30840000  1.0 0.0797449272
C  C37  1  0.12580000  0.37480000  0.77280000  1.0 -0.2010758085
C  C38  1  0.37480000  0.12580000  0.72720000  1.0 -0.2010758085
C  C39  1  0.87420000  0.62520000  0.22720000  1.0 -0.2010758085
C  C40  1  0.62520000  0.87420000  0.27280000  1.0 -0.2010758085
C  C41  1  0.19250000  0.41270000  0.80560000  1.0 0.0797449272
C  C42  1  0.41270000  0.19250000  0.69440000  1.0 0.0797449272
C  C43  1  0.80750000  0.58730000  0.19440000  1.0 0.0797449272
C  C44  1  0.58730000  0.80750000  0.30560000  1.0 0.0797449272
C  C45  1  0.22730000  0.37790000  0.88100000  1.0 -0.2010758085
C  C46  1  0.37790000  0.22730000  0.61900000  1.0 -0.2010758085
C  C47  1  0.77270000  0.62210000  0.11900000  1.0 -0.2010758085
C  C48  1  0.62210000  0.77270000  0.38100000  1.0 -0.2010758085
C  C49  1  0.19890000  0.30930000  0.92130000  1.0 0.088613792
C  C50  1  0.30930000  0.19890000  0.57870000  1.0 0.088613792
C  C51  1  0.80110000  0.69070000  0.07870000  1.0 0.088613792
C  C52  1  0.69070000  0.80110000  0.42130000  1.0 0.088613792
C  C53  1  0.12860000  0.27300000  0.88150000  1.0 -0.2084724729
C  C54  1  0.27300000  0.12860000  0.61850000  1.0 -0.2084724729
C  C55  1  0.87140000  0.72700000  0.11850000  1.0 -0.2084724729
C  C56  1  0.72700000  0.87140000  0.38150000  1.0 -0.2084724729
C  C57  1  0.22480000  0.48640000  0.76480000  1.0 0.0579624325
C  C58  1  0.48640000  0.22480000  0.73520000  1.0 0.0579624325
C  C59  1  0.77520000  0.51360000  0.23520000  1.0 0.0528225737
C  C60  1  0.51360000  0.77520000  0.26480000  1.0 0.0528225737
C  C61  1  0.18200000  0.53580000  0.73300000  1.0 -0.1426045833
C  C62  1  0.53580000  0.18200000  0.76700000  1.0 -0.1426045833
C  C63  1  0.81800000  0.46420000  0.26700000  1.0 -0.1426045833
C  C64  1  0.46420000  0.81800000  0.23300000  1.0 -0.1426045833
C  C65  1  0.20960000  0.60740000  0.69500000  1.0 -0.0305411935
C  C66  1  0.60740000  0.20960000  0.80500000  1.0 -0.0305411935
C  C67  1  0.79040000  0.39260000  0.30500000  1.0 -0.0305411935
C  C68  1  0.39260000  0.79040000  0.19500000  1.0 -0.0305411935
C  C69  1  0.28120000  0.62960000  0.68890000  1.0 -0.1011849301
C  C70  1  0.62960000  0.28120000  0.81110000  1.0 -0.1011849301
C  C71  1  0.71880000  0.37040000  0.31110000  1.0 -0.1011849301
C  C72  1  0.37040000  0.71880000  0.18890000  1.0 -0.1011849301
C  C73  1  0.32610000  0.58070000  0.72080000  1.0 0.0130229813
C  C74  1  0.58070000  0.32610000  0.77920000  1.0 0.0130229813
C  C75  1  0.67390000  0.41930000  0.27920000  1.0 0.0130229813
C  C76  1  0.41930000  0.67390000  0.22080000  1.0 0.0130229813
C  C77  1  0.29890000  0.50830000  0.76140000  1.0 -0.1524174189
C  C78  1  0.50830000  0.29890000  0.73860000  1.0 -0.1524174189
C  C79  1  0.70110000  0.49170000  0.23860000  1.0 -0.1524174189
C  C80  1  0.49170000  0.70110000  0.26140000  1.0 -0.1524174189
C  C81  1  0.16390000  0.66110000  0.65690000  1.0 0.5785395379
C  C82  1  0.66110000  0.16390000  0.84310000  1.0 0.5785395379
C  C83  1  0.83610000  0.33890000  0.34310000  1.0 0.5785395379
C  C84  1  0.33890000  0.83610000  0.15690000  1.0 0.5785395379
C  C85  1  0.40450000  0.60370000  0.70970000  1.0 0.5245309348
C  C86  1  0.60370000  0.40450000  0.79030000  1.0 0.5245309348
C  C87  1  0.59550000  0.39630000  0.29030000  1.0 0.5245309348
C  C88  1  0.39630000  0.59550000  0.20970000  1.0 0.5245309348
C  C89  1  0.23840000  0.26880000  0.99630000  1.0 0.0528225737
C  C90  1  0.26880000  0.23840000  0.50370000  1.0 0.0528225737
C  C91  1  0.76160000  0.73120000  0.00370000  1.0 0.0528225737
C  C92  1  0.73120000  0.76160000  0.49630000  1.0 0.0528225737
C  C93  1  0.28170000  0.30570000  0.05660000  1.0 -0.157299151
C  C94  1  0.30570000  0.28170000  0.44340000  1.0 -0.157299151
C  C95  1  0.71830000  0.69430000  0.94340000  1.0 -0.157299151
C  C96  1  0.69430000  0.71830000  0.55660000  1.0 -0.157299151
C  C97  1  0.32230000  0.27150000  0.12590000  1.0 -0.0192837504
C  C98  1  0.27150000  0.32230000  0.37410000  1.0 -0.0192837504
C  C99  1  0.67770000  0.72850000  0.87410000  1.0 -0.0192837504
C  C100  1  0.72850000  0.67770000  0.62590000  1.0 -0.0192837504
C  C101  1  0.31810000  0.19890000  0.13880000  1.0 -0.0889652859
C  C102  1  0.19890000  0.31810000  0.36120000  1.0 -0.0889652859
C  C103  1  0.68190000  0.80110000  0.86120000  1.0 -0.0889652859
C  C104  1  0.80110000  0.68190000  0.63880000  1.0 -0.0889652859
C  C105  1  0.27160000  0.16200000  0.07860000  1.0 -0.0192837504
C  C106  1  0.16200000  0.27160000  0.42140000  1.0 -0.0192837504
C  C107  1  0.72840000  0.83800000  0.92140000  1.0 -0.0143608356
C  C108  1  0.83800000  0.72840000  0.57860000  1.0 -0.0192837504
C  C109  1  0.23310000  0.19750000  0.01100000  1.0 -0.1177055681
C  C110  1  0.19750000  0.23310000  0.48900000  1.0 -0.1177055681
C  C111  1  0.76690000  0.80250000  0.98900000  1.0 -0.1177055681
C  C112  1  0.80250000  0.76690000  0.51100000  1.0 -0.1177055681
C  C113  1  0.26800000  0.08240000  0.08970000  1.0 0.5466048593
C  C114  1  0.08240000  0.26800000  0.41030000  1.0 0.5466048593
C  C115  1  0.73200000  0.91760000  0.91030000  1.0 0.5466048593
C  C116  1  0.91760000  0.73200000  0.58970000  1.0 0.5466048593
C  C117  1  0.37150000  0.31150000  0.18840000  1.0 0.5875295872
C  C118  1  0.31150000  0.37150000  0.31160000  1.0 0.5875295872
C  C119  1  0.62850000  0.68850000  0.81160000  1.0 0.5875295872
C  C120  1  0.68850000  0.62850000  0.68840000  1.0 0.5875295872
O  O1  1  0.85550000  0.13850000  0.89340000  1.0 -0.6260710881
O  O2  1  0.13850000  0.85550000  0.60660000  1.0 -0.6260710881
O  O3  1  0.14450000  0.86150000  0.10660000  1.0 -0.6260710881
O  O4  1  0.86150000  0.14450000  0.39340000  1.0 -0.624988926
O  O5  1  0.78860000  0.09520000  0.78920000  1.0 -0.4403418203
O  O6  1  0.09520000  0.78860000  0.71080000  1.0 -0.4403418203
O  O7  1  0.21140000  0.90480000  0.21080000  1.0 -0.4403418203
O  O8  1  0.90480000  0.21140000  0.28920000  1.0 -0.4403418203
O  O9  1  0.86080000  0.18160000  0.53970000  1.0 -0.6025618737
O  O10  1  0.18160000  0.86080000  0.96030000  1.0 -0.6025618737
O  O11  1  0.13920000  0.81840000  0.46030000  1.0 -0.6025618737
O  O12  1  0.81840000  0.13920000  0.03970000  1.0 -0.6025618737
O  O13  1  0.95880000  0.27160000  0.52160000  1.0 -0.4706984585
O  O14  1  0.27160000  0.95880000  0.97840000  1.0 -0.4706984585
O  O15  1  0.04120000  0.72840000  0.47840000  1.0 -0.4706984585
O  O16  1  0.72840000  0.04120000  0.02160000  1.0 -0.4706984585
O  O17  1  0.09960000  0.63740000  0.66010000  1.0 -0.4793829744
O  O18  1  0.63740000  0.09960000  0.83990000  1.0 -0.4793829744
O  O19  1  0.90040000  0.36260000  0.33990000  1.0 -0.4793829744
O  O20  1  0.36260000  0.90040000  0.16010000  1.0 -0.4793829744
O  O21  1  0.19210000  0.72370000  0.62860000  1.0 -0.5611668651
O  O22  1  0.72370000  0.19210000  0.87140000  1.0 -0.5611668651
O  O23  1  0.80790000  0.27630000  0.37140000  1.0 -0.5611668651
O  O24  1  0.27630000  0.80790000  0.12860000  1.0 -0.5611668651
O  O25  1  0.42940000  0.67000000  0.68260000  1.0 -0.5506322136
O  O26  1  0.67000000  0.42940000  0.81740000  1.0 -0.5506322136
O  O27  1  0.57060000  0.33000000  0.31740000  1.0 -0.5506322136
O  O28  1  0.33000000  0.57060000  0.18260000  1.0 -0.5506322136
O  O29  1  0.43790000  0.55830000  0.72550000  1.0 -0.5116843706
O  O30  1  0.55830000  0.43790000  0.77450000  1.0 -0.5116843706
O  O31  1  0.56210000  0.44170000  0.27450000  1.0 -0.5116843706
O  O32  1  0.44170000  0.56210000  0.22550000  1.0 -0.5116843706
O  O33  1  0.21150000  0.04590000  0.05100000  1.0 -0.5432936673
O  O34  1  0.04590000  0.21150000  0.44900000  1.0 -0.5432936673
O  O35  1  0.78850000  0.95410000  0.94900000  1.0 -0.5432936673
O  O36  1  0.95410000  0.78850000  0.55100000  1.0 -0.5432936673
O  O37  1  0.32100000  0.05700000  0.13800000  1.0 -0.5432936673
O  O38  1  0.05700000  0.32100000  0.36200000  1.0 -0.5432936673
O  O39  1  0.67900000  0.94300000  0.86200000  1.0 -0.5432936673
O  O40  1  0.94300000  0.67900000  0.63800000  1.0 -0.5432936673
O  O41  1  0.39110000  0.27130000  0.25990000  1.0 -0.5506322136
O  O42  1  0.27130000  0.39110000  0.24010000  1.0 -0.5506322136
O  O43  1  0.60890000  0.72870000  0.74010000  1.0 -0.5506322136
O  O44  1  0.72870000  0.60890000  0.75990000  1.0 -0.5506322136
O  O45  1  0.39640000  0.38080000  0.16980000  1.0 -0.6025618737
O  O46  1  0.38080000  0.39640000  0.33020000  1.0 -0.6025618737
O  O47  1  0.60360000  0.61920000  0.83020000  1.0 -0.6025618737
O  O48  1  0.61920000  0.60360000  0.66980000  1.0 -0.6025618737
