# DDEC6 charges by PACMAN v1.1 (https://github.com/mtap-research/PACMAN-charge/)
data_QUQFIU_FSR_pacman
_symmetry_space_group_name_H-M   'P 1'
_cell_length_a   14.94970000
_cell_length_b   14.94970000
_cell_length_c   9.41170000
_cell_angle_alpha   84.09400000
_cell_angle_beta   95.90600000
_cell_angle_gamma   93.71340000
_symmetry_Int_Tables_number   1
_chemical_formula_structural   Co3H28C42(N3O11)2
_chemical_formula_sum   'Co6 H56 C84 N12 O44'
_cell_volume   2078.06079040
_cell_formula_units_Z   2
loop_
 _symmetry_equiv_pos_site_id
 _symmetry_equiv_pos_as_xyz
  1  'x, y, z'
loop_
 _atom_site_type_symbol
 _atom_site_label
 _atom_site_symmetry_multiplicity
 _atom_site_fract_x
 _atom_site_fract_y
 _atom_site_fract_z
 _atom_site_occupancy
 _atom_site_charge
Co  Co1  1  0.20610000  0.60804000  0.56856000  1.0 0.9757069504
Co  Co2  1  0.60804000  0.20610000  0.93144000  1.0 0.9757069504
Co  Co3  1  0.79390000  0.39196000  0.43144000  1.0 0.9757069504
Co  Co4  1  0.39196000  0.79390000  0.06856000  1.0 0.9757069504
Co  Co5  1  0.00000000  0.50000000  0.50000000  1.0 1.0667050039
Co  Co6  1  0.50000000  0.00000000  0.00000000  1.0 1.0667050039
H  H1  1  0.37110000  0.65610000  0.57340000  1.0 0.3449499761
H  H2  1  0.34390000  0.69190000  0.69020000  1.0 0.3640843337
H  H3  1  0.16450000  0.58390000  0.04310000  1.0 0.1214162743
H  H4  1  0.92510000  0.64210000  0.83020000  1.0 0.1296659229
H  H5  1  0.97260000  0.67840000  0.24770000  1.0 0.1214162743
H  H6  1  0.77640000  0.59360000  0.00710000  1.0 0.0979944381
H  H7  1  0.63520000  0.64840000  0.00910000  1.0 0.0819662721
H  H8  1  0.74430000  0.89490000  0.05900000  1.0 0.0949682747
H  H9  1  0.07020000  0.90000000  0.70620000  1.0 0.1119503297
H  H10  1  0.17200000  0.91080000  0.76470000  1.0 0.1442096536
H  H11  1  0.10770000  0.83850000  0.84140000  1.0 0.1456217324
H  H12  1  0.78610000  0.59090000  0.12650000  1.0 0.1214162743
H  H13  1  0.64740000  0.64460000  0.13680000  1.0 0.0979944381
H  H14  1  0.73230000  0.88690000  0.96700000  1.0 0.1119503297
H  H15  1  0.65610000  0.37110000  0.92660000  1.0 0.3449499761
H  H16  1  0.69190000  0.34390000  0.80980000  1.0 0.3640843337
H  H17  1  0.58390000  0.16450000  0.45690000  1.0 0.1214162743
H  H18  1  0.64210000  0.92510000  0.66980000  1.0 0.1296659229
H  H19  1  0.67840000  0.97260000  0.25230000  1.0 0.1214162743
H  H20  1  0.59360000  0.77640000  0.49290000  1.0 0.0979944381
H  H21  1  0.64840000  0.63520000  0.49090000  1.0 0.0819662721
H  H22  1  0.89490000  0.74430000  0.44100000  1.0 0.0949682747
H  H23  1  0.90000000  0.07020000  0.79380000  1.0 0.1119503297
H  H24  1  0.91080000  0.17200000  0.73530000  1.0 0.1442096536
H  H25  1  0.83850000  0.10770000  0.65860000  1.0 0.1456217324
H  H26  1  0.59090000  0.78610000  0.37350000  1.0 0.1214162743
H  H27  1  0.64460000  0.64740000  0.36320000  1.0 0.0979944381
H  H28  1  0.88690000  0.73230000  0.53300000  1.0 0.1119503297
H  H29  1  0.62890000  0.34390000  0.42660000  1.0 0.3449499761
H  H30  1  0.65610000  0.30810000  0.30980000  1.0 0.3640843337
H  H31  1  0.83550000  0.41610000  0.95690000  1.0 0.1214162743
H  H32  1  0.07490000  0.35790000  0.16980000  1.0 0.1296659229
H  H33  1  0.02740000  0.32160000  0.75230000  1.0 0.1214162743
H  H34  1  0.22360000  0.40640000  0.99290000  1.0 0.0979944381
H  H35  1  0.36480000  0.35160000  0.99090000  1.0 0.0819662721
H  H36  1  0.25570000  0.10510000  0.94100000  1.0 0.0949682747
H  H37  1  0.92980000  0.10000000  0.29380000  1.0 0.1119503297
H  H38  1  0.82800000  0.08920000  0.23530000  1.0 0.1442096536
H  H39  1  0.89230000  0.16150000  0.15860000  1.0 0.1456217324
H  H40  1  0.21390000  0.40910000  0.87350000  1.0 0.1214162743
H  H41  1  0.35260000  0.35540000  0.86320000  1.0 0.0979944381
H  H42  1  0.26770000  0.11310000  0.03300000  1.0 0.1119503297
H  H43  1  0.34390000  0.62890000  0.07340000  1.0 0.3449499761
H  H44  1  0.30810000  0.65610000  0.19020000  1.0 0.3640843337
H  H45  1  0.41610000  0.83550000  0.54310000  1.0 0.1214162743
H  H46  1  0.35790000  0.07490000  0.33020000  1.0 0.1296659229
H  H47  1  0.32160000  0.02740000  0.74770000  1.0 0.1214162743
H  H48  1  0.40640000  0.22360000  0.50710000  1.0 0.0979944381
H  H49  1  0.35160000  0.36480000  0.50910000  1.0 0.0819662721
H  H50  1  0.10510000  0.25570000  0.55900000  1.0 0.0979944381
H  H51  1  0.10000000  0.92980000  0.20620000  1.0 0.1119503297
H  H52  1  0.08920000  0.82800000  0.26470000  1.0 0.1442096536
H  H53  1  0.16150000  0.89230000  0.34140000  1.0 0.1456217324
H  H54  1  0.40910000  0.21390000  0.62650000  1.0 0.1214162743
H  H55  1  0.35540000  0.35260000  0.63680000  1.0 0.0979944381
H  H56  1  0.11310000  0.26770000  0.46700000  1.0 0.1119503297
C  C1  1  0.13360000  0.61980000  0.30630000  1.0 0.5888917451
C  C2  1  0.07620000  0.62780000  0.16710000  1.0 0.0064720755
C  C3  1  0.10650000  0.60310000  0.04200000  1.0 -0.1159094865
C  C4  1  0.04910000  0.60750000  0.91560000  1.0 0.0226977047
C  C5  1  0.96380000  0.64020000  0.91430000  1.0 -0.2010676707
C  C6  1  0.93580000  0.66980000  0.03610000  1.0 -0.0804556659
C  C7  1  0.99190000  0.66130000  0.16410000  1.0 -0.2010676707
C  C8  1  0.07650000  0.57690000  0.77950000  1.0 0.5888917451
C  C9  1  0.84570000  0.70750000  0.03510000  1.0 -0.0301602267
C  C10  1  0.77160000  0.65400000  0.01970000  1.0 -0.0301602267
C  C11  1  0.68590000  0.68730000  0.02230000  1.0 -0.0400998434
C  C12  1  0.67490000  0.77410000  0.04350000  1.0 -0.0031367908
C  C13  1  0.75020000  0.83400000  0.05200000  1.0 -0.0701260068
C  C14  1  0.83370000  0.80070000  0.04990000  1.0 0.0663670902
C  C15  1  0.58390000  0.81030000  0.05040000  1.0 0.4464351987
C  C16  1  0.14390000  0.80030000  0.65500000  1.0 0.3201841643
C  C17  1  0.12140000  0.86860000  0.75040000  1.0 -0.5070935184
C  C18  1  0.77530000  0.65030000  0.09250000  1.0 -0.0301602267
C  C19  1  0.69270000  0.68210000  0.09800000  1.0 -0.0400998434
C  C20  1  0.74120000  0.82640000  0.99530000  1.0 -0.0701260068
C  C21  1  0.82590000  0.79170000  0.98600000  1.0 0.0528115151
C  C22  1  0.61980000  0.13360000  0.19370000  1.0 0.5888917451
C  C23  1  0.62780000  0.07620000  0.33290000  1.0 0.0064720755
C  C24  1  0.60310000  0.10650000  0.45800000  1.0 -0.1148942406
C  C25  1  0.60750000  0.04910000  0.58440000  1.0 0.0226977047
C  C26  1  0.64020000  0.96380000  0.58570000  1.0 -0.2010676707
C  C27  1  0.66980000  0.93580000  0.46390000  1.0 -0.0804556659
C  C28  1  0.66130000  0.99190000  0.33590000  1.0 -0.2010676707
C  C29  1  0.57690000  0.07650000  0.72050000  1.0 0.5888917451
C  C30  1  0.70750000  0.84570000  0.46490000  1.0 -0.0301602267
C  C31  1  0.65400000  0.77160000  0.48030000  1.0 -0.0301602267
C  C32  1  0.68730000  0.68590000  0.47770000  1.0 -0.0400998434
C  C33  1  0.77410000  0.67490000  0.45650000  1.0 -0.0031367908
C  C34  1  0.83400000  0.75020000  0.44800000  1.0 -0.0701260068
C  C35  1  0.80070000  0.83370000  0.45010000  1.0 0.0663670902
C  C36  1  0.81030000  0.58390000  0.44960000  1.0 0.4464351987
C  C37  1  0.80030000  0.14390000  0.84500000  1.0 0.3201841643
C  C38  1  0.86860000  0.12140000  0.74960000  1.0 -0.5070935184
C  C39  1  0.65030000  0.77530000  0.40750000  1.0 -0.0301602267
C  C40  1  0.68210000  0.69270000  0.40200000  1.0 -0.0400998434
C  C41  1  0.82640000  0.74120000  0.50470000  1.0 -0.0701260068
C  C42  1  0.79170000  0.82590000  0.51400000  1.0 0.0528115151
C  C43  1  0.86640000  0.38020000  0.69370000  1.0 0.5888917451
C  C44  1  0.92380000  0.37220000  0.83290000  1.0 0.0064720755
C  C45  1  0.89350000  0.39690000  0.95800000  1.0 -0.1148942406
C  C46  1  0.95090000  0.39250000  0.08440000  1.0 0.0226977047
C  C47  1  0.03620000  0.35980000  0.08570000  1.0 -0.2010676707
C  C48  1  0.06420000  0.33020000  0.96390000  1.0 -0.0804556659
C  C49  1  0.00810000  0.33870000  0.83590000  1.0 -0.2010676707
C  C50  1  0.92350000  0.42310000  0.22050000  1.0 0.5888917451
C  C51  1  0.15430000  0.29250000  0.96490000  1.0 -0.0301602267
C  C52  1  0.22840000  0.34600000  0.98030000  1.0 -0.0301602267
C  C53  1  0.31410000  0.31270000  0.97770000  1.0 -0.0400998434
C  C54  1  0.32510000  0.22590000  0.95650000  1.0 -0.0031367908
C  C55  1  0.24980000  0.16600000  0.94800000  1.0 -0.0701260068
C  C56  1  0.16630000  0.19930000  0.95010000  1.0 0.0663670902
C  C57  1  0.41610000  0.18970000  0.94960000  1.0 0.4464351987
C  C58  1  0.85610000  0.19970000  0.34500000  1.0 0.3201841643
C  C59  1  0.87860000  0.13140000  0.24960000  1.0 -0.5070935184
C  C60  1  0.22470000  0.34970000  0.90750000  1.0 -0.0301602267
C  C61  1  0.30730000  0.31790000  0.90200000  1.0 -0.0400998434
C  C62  1  0.25880000  0.17360000  0.00470000  1.0 -0.0701260068
C  C63  1  0.17410000  0.20830000  0.01400000  1.0 0.0528115151
C  C64  1  0.38020000  0.86640000  0.80630000  1.0 0.5888917451
C  C65  1  0.37220000  0.92380000  0.66710000  1.0 0.0064720755
C  C66  1  0.39690000  0.89350000  0.54200000  1.0 -0.1148942406
C  C67  1  0.39250000  0.95090000  0.41560000  1.0 0.0226977047
C  C68  1  0.35980000  0.03620000  0.41430000  1.0 -0.2010676707
C  C69  1  0.33020000  0.06420000  0.53610000  1.0 -0.0804556659
C  C70  1  0.33870000  0.00810000  0.66410000  1.0 -0.2010676707
C  C71  1  0.42310000  0.92350000  0.27950000  1.0 0.5888917451
C  C72  1  0.29250000  0.15430000  0.53510000  1.0 -0.0301602267
C  C73  1  0.34600000  0.22840000  0.51970000  1.0 -0.0301602267
C  C74  1  0.31270000  0.31410000  0.52230000  1.0 -0.0400998434
C  C75  1  0.22590000  0.32510000  0.54350000  1.0 -0.0031367908
C  C76  1  0.16600000  0.24980000  0.55200000  1.0 -0.0701260068
C  C77  1  0.19930000  0.16630000  0.54990000  1.0 0.0663670902
C  C78  1  0.18970000  0.41610000  0.55040000  1.0 0.4464351987
C  C79  1  0.19970000  0.85610000  0.15500000  1.0 0.3201841643
C  C80  1  0.13140000  0.87860000  0.25040000  1.0 -0.5070935184
C  C81  1  0.34970000  0.22470000  0.59250000  1.0 -0.0301602267
C  C82  1  0.31790000  0.30730000  0.59800000  1.0 -0.0400998434
C  C83  1  0.17360000  0.25880000  0.49530000  1.0 -0.0701260068
C  C84  1  0.20830000  0.17410000  0.48600000  1.0 0.0528115151
N  N1  1  0.90940000  0.86840000  0.04870000  1.0 0.2620864888
N  N2  1  0.16900000  0.74560000  0.59340000  1.0 -0.4183722133
N  N3  1  0.89350000  0.85330000  0.92560000  1.0 0.2534745713
N  N4  1  0.86840000  0.90940000  0.45130000  1.0 0.2620864888
N  N5  1  0.74560000  0.16900000  0.90660000  1.0 -0.4183722133
N  N6  1  0.85330000  0.89350000  0.57440000  1.0 0.2534745713
N  N7  1  0.09060000  0.13160000  0.95130000  1.0 0.2620864888
N  N8  1  0.83100000  0.25440000  0.40660000  1.0 -0.4183722133
N  N9  1  0.10650000  0.14670000  0.07440000  1.0 0.2534745713
N  N10  1  0.13160000  0.09060000  0.54870000  1.0 0.2620864888
N  N11  1  0.25440000  0.83100000  0.09340000  1.0 -0.4183722133
N  N12  1  0.14670000  0.10650000  0.42560000  1.0 0.2534745713
O  O1  1  0.09410000  0.60390000  0.42130000  1.0 -0.5705873216
O  O2  1  0.21680000  0.63120000  0.31490000  1.0 -0.5202437187
O  O3  1  0.15950000  0.57670000  0.76590000  1.0 -0.5497307794
O  O4  1  0.01386000  0.55714000  0.68900000  1.0 -0.5497307794
O  O5  1  0.58221000  0.89279000  0.05500000  1.0 -0.5013673747
O  O6  1  0.51730000  0.75450000  0.04970000  1.0 -0.4941096152
O  O7  1  0.97960000  0.85720000  0.01670000  1.0 0.0819662721
O  O8  1  0.90300000  0.92760000  0.13400000  1.0 -0.4504454578
O  O9  1  0.33240000  0.65060000  0.63430000  1.0 -0.6442125136
O  O10  1  0.96520000  0.85020000  0.94600000  1.0 0.1119503297
O  O11  1  0.86380000  0.90040000  0.81100000  1.0 -0.2825471456
O  O12  1  0.60390000  0.09410000  0.07870000  1.0 -0.5705873216
O  O13  1  0.63120000  0.21680000  0.18510000  1.0 -0.5202437187
O  O14  1  0.57670000  0.15950000  0.73410000  1.0 -0.5497307794
O  O15  1  0.55714000  0.01386000  0.81100000  1.0 -0.5497307794
O  O16  1  0.89279000  0.58221000  0.44500000  1.0 -0.5013673747
O  O17  1  0.75450000  0.51730000  0.45030000  1.0 -0.4941096152
O  O18  1  0.85720000  0.97960000  0.48330000  1.0 0.0819662721
O  O19  1  0.92760000  0.90300000  0.36600000  1.0 -0.4504454578
O  O20  1  0.65060000  0.33240000  0.86570000  1.0 -0.6442125136
O  O21  1  0.85020000  0.96520000  0.55400000  1.0 0.1119503297
O  O22  1  0.90040000  0.86380000  0.68900000  1.0 -0.2825471456
O  O23  1  0.90590000  0.39610000  0.57870000  1.0 -0.5705873216
O  O24  1  0.78320000  0.36880000  0.68510000  1.0 -0.5202437187
O  O25  1  0.84050000  0.42330000  0.23410000  1.0 -0.5497307794
O  O26  1  0.98614000  0.44286000  0.31100000  1.0 -0.5497307794
O  O27  1  0.41779000  0.10721000  0.94500000  1.0 -0.5013673747
O  O28  1  0.48270000  0.24550000  0.95030000  1.0 -0.4941096152
O  O29  1  0.02040000  0.14280000  0.98330000  1.0 0.0819662721
O  O30  1  0.09700000  0.07240000  0.86600000  1.0 -0.4504454578
O  O31  1  0.66760000  0.34940000  0.36570000  1.0 -0.6442125136
O  O32  1  0.03480000  0.14980000  0.05400000  1.0 0.1119503297
O  O33  1  0.13620000  0.09960000  0.18900000  1.0 -0.2825471456
O  O34  1  0.39610000  0.90590000  0.92130000  1.0 -0.5705873216
O  O35  1  0.36880000  0.78320000  0.81490000  1.0 -0.5202437187
O  O36  1  0.42330000  0.84050000  0.26590000  1.0 -0.5553337778
O  O37  1  0.44286000  0.98614000  0.18900000  1.0 -0.5497307794
O  O38  1  0.10721000  0.41779000  0.55500000  1.0 -0.5013673747
O  O39  1  0.24550000  0.48270000  0.54970000  1.0 -0.4941096152
O  O40  1  0.14280000  0.02040000  0.51670000  1.0 0.0819662721
O  O41  1  0.07240000  0.09700000  0.63400000  1.0 -0.4504454578
O  O42  1  0.34940000  0.66760000  0.13430000  1.0 -0.6442125136
O  O43  1  0.14980000  0.03480000  0.44600000  1.0 0.1119503297
O  O44  1  0.09960000  0.13620000  0.31100000  1.0 -0.2825471456
