# DDEC6 charges by PACMAN v1.1 (https://github.com/mtap-research/PACMAN-charge/)
data_QUQFIS_ASR_pacman
_symmetry_space_group_name_H-M   'P 1'
_cell_length_a   18.59000000
_cell_length_b   18.59000000
_cell_length_c   18.59000000
_cell_angle_alpha   74.87650000
_cell_angle_beta   74.87650000
_cell_angle_gamma   74.87650000
_symmetry_Int_Tables_number   1
_chemical_formula_structural   ZnH4(C5O2)2
_chemical_formula_sum   'Zn12 H48 C120 O48'
_cell_volume   5857.60412177
_cell_formula_units_Z   12
loop_
 _symmetry_equiv_pos_site_id
 _symmetry_equiv_pos_as_xyz
  1  'x, y, z'
loop_
 _atom_site_type_symbol
 _atom_site_label
 _atom_site_symmetry_multiplicity
 _atom_site_fract_x
 _atom_site_fract_y
 _atom_site_fract_z
 _atom_site_occupancy
 _atom_site_charge
Zn  Zn1  1  0.70158000  0.49758000  0.91943000  1.0 1.0121990907
Zn  Zn2  1  0.49758000  0.91943000  0.70158000  1.0 1.0121990907
Zn  Zn3  1  0.91943000  0.70158000  0.49758000  1.0 1.0121990907
Zn  Zn4  1  0.20158000  0.41943000  0.99758000  1.0 1.0121990907
Zn  Zn5  1  0.99758000  0.20158000  0.41943000  1.0 1.0121990907
Zn  Zn6  1  0.41943000  0.99758000  0.20158000  1.0 1.0121990907
Zn  Zn7  1  0.73227000  0.40111000  0.09030000  1.0 0.9221565294
Zn  Zn8  1  0.40111000  0.09030000  0.73227000  1.0 0.9221565294
Zn  Zn9  1  0.09030000  0.73227000  0.40111000  1.0 0.9221565294
Zn  Zn10  1  0.23227000  0.59030000  0.90111000  1.0 0.9221565294
Zn  Zn11  1  0.90111000  0.23227000  0.59030000  1.0 0.9221565294
Zn  Zn12  1  0.59030000  0.90111000  0.23227000  1.0 0.9221565294
H  H1  1  0.47140000  0.50140000  0.97800000  1.0 0.1293394023
H  H2  1  0.50140000  0.97800000  0.47140000  1.0 0.1293394023
H  H3  1  0.97800000  0.47140000  0.50140000  1.0 0.1293394023
H  H4  1  0.97140000  0.47800000  0.00140000  1.0 0.1293394023
H  H5  1  0.00140000  0.97140000  0.47800000  1.0 0.1293394023
H  H6  1  0.47800000  0.00140000  0.97140000  1.0 0.1293394023
H  H7  1  0.28930000  0.43350000  0.13140000  1.0 0.1113120943
H  H8  1  0.43350000  0.13140000  0.28930000  1.0 0.1113120943
H  H9  1  0.13140000  0.28930000  0.43350000  1.0 0.1113120943
H  H10  1  0.78930000  0.63140000  0.93350000  1.0 0.1113120943
H  H11  1  0.93350000  0.78930000  0.63140000  1.0 0.1113120943
H  H12  1  0.63140000  0.93350000  0.78930000  1.0 0.1113120943
H  H13  1  0.49700000  0.37000000  0.18430000  1.0 0.1203116578
H  H14  1  0.37000000  0.18430000  0.49700000  1.0 0.1203116578
H  H15  1  0.18430000  0.49700000  0.37000000  1.0 0.1203116578
H  H16  1  0.99700000  0.68430000  0.87000000  1.0 0.1203116578
H  H17  1  0.87000000  0.99700000  0.68430000  1.0 0.1203116578
H  H18  1  0.68430000  0.87000000  0.99700000  1.0 0.1203116578
H  H19  1  0.25550000  0.43840000  0.26230000  1.0 0.1203116578
H  H20  1  0.43840000  0.26230000  0.25550000  1.0 0.1203116578
H  H21  1  0.26230000  0.25550000  0.43840000  1.0 0.1203116578
H  H22  1  0.75550000  0.76230000  0.93840000  1.0 0.1203116578
H  H23  1  0.93840000  0.75550000  0.76230000  1.0 0.1203116578
H  H24  1  0.76230000  0.93840000  0.75550000  1.0 0.1203116578
H  H25  1  0.80650000  0.31380000  0.81820000  1.0 0.1354504195
H  H26  1  0.31380000  0.81820000  0.80650000  1.0 0.1354504195
H  H27  1  0.81820000  0.80650000  0.31380000  1.0 0.1354504195
H  H28  1  0.30650000  0.31820000  0.81380000  1.0 0.1354504195
H  H29  1  0.81380000  0.30650000  0.31820000  1.0 0.1293394023
H  H30  1  0.31820000  0.81380000  0.30650000  1.0 0.1354504195
H  H31  1  0.97170000  0.12410000  0.82290000  1.0 0.1203116578
H  H32  1  0.12410000  0.82290000  0.97170000  1.0 0.1203116578
H  H33  1  0.82290000  0.97170000  0.12410000  1.0 0.1203116578
H  H34  1  0.47170000  0.32290000  0.62410000  1.0 0.1203116578
H  H35  1  0.62410000  0.47170000  0.32290000  1.0 0.1203116578
H  H36  1  0.32290000  0.62410000  0.47170000  1.0 0.1203116578
H  H37  1  0.86640000  0.19730000  0.01910000  1.0 0.1203116578
H  H38  1  0.19730000  0.01910000  0.86640000  1.0 0.1203116578
H  H39  1  0.01910000  0.86640000  0.19730000  1.0 0.1203116578
H  H40  1  0.36640000  0.51910000  0.69730000  1.0 0.1203116578
H  H41  1  0.69730000  0.36640000  0.51910000  1.0 0.1203116578
H  H42  1  0.51910000  0.69730000  0.36640000  1.0 0.1203116578
H  H43  1  0.88780000  0.06640000  0.06830000  1.0 0.1203116578
H  H44  1  0.06640000  0.06830000  0.88780000  1.0 0.1203116578
H  H45  1  0.06830000  0.88780000  0.06640000  1.0 0.1203116578
H  H46  1  0.38780000  0.56830000  0.56640000  1.0 0.1203116578
H  H47  1  0.56640000  0.38780000  0.56830000  1.0 0.1203116578
H  H48  1  0.56830000  0.56640000  0.38780000  1.0 0.1203116578
C  C1  1  0.58034000  0.44084000  0.05745000  1.0 0.5999749867
C  C2  1  0.44084000  0.05745000  0.58034000  1.0 0.5999749867
C  C3  1  0.05745000  0.58034000  0.44084000  1.0 0.5999749867
C  C4  1  0.08034000  0.55745000  0.94084000  1.0 0.5999749867
C  C5  1  0.94084000  0.08034000  0.55745000  1.0 0.5999749867
C  C6  1  0.55745000  0.94084000  0.08034000  1.0 0.5999749867
C  C7  1  0.49600000  0.43678000  0.07835000  1.0 -0.0140453155
C  C8  1  0.43678000  0.07835000  0.49600000  1.0 -0.0140453155
C  C9  1  0.07835000  0.49600000  0.43678000  1.0 -0.0140453155
C  C10  1  0.99600000  0.57835000  0.93678000  1.0 -0.0140453155
C  C11  1  0.93678000  0.99600000  0.57835000  1.0 -0.0140453155
C  C12  1  0.57835000  0.93678000  0.99600000  1.0 -0.0140453155
C  C13  1  0.45003000  0.47452000  0.02652000  1.0 -0.093657847
C  C14  1  0.47452000  0.02652000  0.45003000  1.0 -0.093657847
C  C15  1  0.02652000  0.45003000  0.47452000  1.0 -0.093657847
C  C16  1  0.95003000  0.52652000  0.97452000  1.0 -0.093657847
C  C17  1  0.97452000  0.95003000  0.52652000  1.0 -0.093657847
C  C18  1  0.52652000  0.97452000  0.95003000  1.0 -0.093657847
C  C19  1  0.37199000  0.47350000  0.04516000  1.0 -0.017144366
C  C20  1  0.47350000  0.04516000  0.37199000  1.0 -0.017144366
C  C21  1  0.04516000  0.37199000  0.47350000  1.0 -0.017144366
C  C22  1  0.87199000  0.54516000  0.97350000  1.0 -0.017144366
C  C23  1  0.97350000  0.87199000  0.54516000  1.0 -0.017144366
C  C24  1  0.54516000  0.97350000  0.87199000  1.0 -0.017144366
C  C25  1  0.34206000  0.43427000  0.11777000  1.0 -0.1602723929
C  C26  1  0.43427000  0.11777000  0.34206000  1.0 -0.1602723929
C  C27  1  0.11777000  0.34206000  0.43427000  1.0 -0.1602723929
C  C28  1  0.84206000  0.61777000  0.93427000  1.0 -0.1602723929
C  C29  1  0.93427000  0.84206000  0.61777000  1.0 -0.1602723929
C  C30  1  0.61777000  0.93427000  0.84206000  1.0 -0.1602723929
C  C31  1  0.38736000  0.39694000  0.16974000  1.0 0.0620219675
C  C32  1  0.39694000  0.16974000  0.38736000  1.0 0.0620219675
C  C33  1  0.16974000  0.38736000  0.39694000  1.0 0.0620219675
C  C34  1  0.88736000  0.66974000  0.89694000  1.0 0.0620219675
C  C35  1  0.89694000  0.88736000  0.66974000  1.0 0.0654072431
C  C36  1  0.66974000  0.89694000  0.88736000  1.0 0.0654072431
C  C37  1  0.46497000  0.39711000  0.14941000  1.0 -0.1409617695
C  C38  1  0.39711000  0.14941000  0.46497000  1.0 -0.1409617695
C  C39  1  0.14941000  0.46497000  0.39711000  1.0 -0.1409617695
C  C40  1  0.96497000  0.64941000  0.89711000  1.0 -0.1409617695
C  C41  1  0.89711000  0.96497000  0.64941000  1.0 -0.1409617695
C  C42  1  0.64941000  0.89711000  0.96497000  1.0 -0.1409617695
C  C43  1  0.32378000  0.51554000  0.98821000  1.0 0.5798469451
C  C44  1  0.51554000  0.98821000  0.32378000  1.0 0.5798469451
C  C45  1  0.98821000  0.32378000  0.51554000  1.0 0.5798469451
C  C46  1  0.82378000  0.48821000  0.01554000  1.0 0.5798469451
C  C47  1  0.01554000  0.82378000  0.48821000  1.0 0.5798469451
C  C48  1  0.48821000  0.01554000  0.82378000  1.0 0.5798469451
C  C49  1  0.35233000  0.35717000  0.24742000  1.0 0.0914794864
C  C50  1  0.35717000  0.24742000  0.35233000  1.0 0.0914794864
C  C51  1  0.24742000  0.35233000  0.35717000  1.0 0.0914794864
C  C52  1  0.85233000  0.74742000  0.85717000  1.0 0.0914794864
C  C53  1  0.85717000  0.85233000  0.74742000  1.0 0.0914794864
C  C54  1  0.74742000  0.85717000  0.85233000  1.0 0.0914794864
C  C55  1  0.28139000  0.38998000  0.28522000  1.0 -0.2096891125
C  C56  1  0.38998000  0.28522000  0.28139000  1.0 -0.2096891125
C  C57  1  0.28522000  0.28139000  0.38998000  1.0 -0.2096891125
C  C58  1  0.78139000  0.78522000  0.88998000  1.0 -0.2096891125
C  C59  1  0.88998000  0.78139000  0.78522000  1.0 -0.2096891125
C  C60  1  0.78522000  0.88998000  0.78139000  1.0 -0.2096891125
C  C61  1  0.77899000  0.32608000  0.96447000  1.0 0.5930175053
C  C62  1  0.32608000  0.96447000  0.77899000  1.0 0.5930175053
C  C63  1  0.96447000  0.77899000  0.32608000  1.0 0.5930175053
C  C64  1  0.27899000  0.46447000  0.82608000  1.0 0.5930175053
C  C65  1  0.82608000  0.27899000  0.46447000  1.0 0.5930175053
C  C66  1  0.46447000  0.82608000  0.27899000  1.0 0.5930175053
C  C67  1  0.83186000  0.26474000  0.92539000  1.0 -0.0140453155
C  C68  1  0.26474000  0.92539000  0.83186000  1.0 -0.0140453155
C  C69  1  0.92539000  0.83186000  0.26474000  1.0 -0.0140453155
C  C70  1  0.33186000  0.42539000  0.76474000  1.0 -0.0140453155
C  C71  1  0.76474000  0.33186000  0.42539000  1.0 -0.0140453155
C  C72  1  0.42539000  0.76474000  0.33186000  1.0 -0.0140453155
C  C73  1  0.83777000  0.27265000  0.84563000  1.0 -0.096718096
C  C74  1  0.27265000  0.84563000  0.83777000  1.0 -0.096718096
C  C75  1  0.84563000  0.83777000  0.27265000  1.0 -0.096718096
C  C76  1  0.33777000  0.34563000  0.77265000  1.0 -0.096718096
C  C77  1  0.77265000  0.33777000  0.34563000  1.0 -0.096718096
C  C78  1  0.34563000  0.77265000  0.33777000  1.0 -0.096718096
C  C79  1  0.88956000  0.21942000  0.80999000  1.0 -0.0031894808
C  C80  1  0.21942000  0.80999000  0.88956000  1.0 -0.0031894808
C  C81  1  0.80999000  0.88956000  0.21942000  1.0 -0.0031894808
C  C82  1  0.38956000  0.30999000  0.71942000  1.0 -0.0031894808
C  C83  1  0.71942000  0.38956000  0.30999000  1.0 -0.0031894808
C  C84  1  0.30999000  0.71942000  0.38956000  1.0 -0.0031894808
C  C85  1  0.93431000  0.15881000  0.84991000  1.0 -0.1409617695
C  C86  1  0.15881000  0.84991000  0.93431000  1.0 -0.1409617695
C  C87  1  0.84991000  0.93431000  0.15881000  1.0 -0.1409617695
C  C88  1  0.43431000  0.34991000  0.65881000  1.0 -0.1409617695
C  C89  1  0.65881000  0.43431000  0.34991000  1.0 -0.1409617695
C  C90  1  0.34991000  0.65881000  0.43431000  1.0 -0.1409617695
C  C91  1  0.92638000  0.14704000  0.92826000  1.0 0.0620219675
C  C92  1  0.14704000  0.92826000  0.92638000  1.0 0.0620219675
C  C93  1  0.92826000  0.92638000  0.14704000  1.0 0.0620219675
C  C94  1  0.42638000  0.42826000  0.64704000  1.0 0.0620219675
C  C95  1  0.64704000  0.42638000  0.42826000  1.0 0.0620219675
C  C96  1  0.42826000  0.64704000  0.42638000  1.0 0.0620219675
C  C97  1  0.87316000  0.20302000  0.96558000  1.0 -0.1409617695
C  C98  1  0.20302000  0.96558000  0.87316000  1.0 -0.1409617695
C  C99  1  0.96558000  0.87316000  0.20302000  1.0 -0.1409617695
C  C100  1  0.37316000  0.46558000  0.70302000  1.0 -0.1409617695
C  C101  1  0.70302000  0.37316000  0.46558000  1.0 -0.1409617695
C  C102  1  0.46558000  0.70302000  0.37316000  1.0 -0.1409617695
C  C103  1  0.96890000  0.07762000  0.97013000  1.0 0.0845353869
C  C104  1  0.07762000  0.97013000  0.96890000  1.0 0.0914794864
C  C105  1  0.97013000  0.96890000  0.07762000  1.0 0.0845353869
C  C106  1  0.46890000  0.47013000  0.57762000  1.0 0.0845353869
C  C107  1  0.57762000  0.46890000  0.47013000  1.0 0.0845353869
C  C108  1  0.47013000  0.57762000  0.46890000  1.0 0.0914794864
C  C109  1  0.93506000  0.04146000  0.04256000  1.0 -0.2096891125
C  C110  1  0.04146000  0.04256000  0.93506000  1.0 -0.2096891125
C  C111  1  0.04256000  0.93506000  0.04146000  1.0 -0.2096891125
C  C112  1  0.43506000  0.54256000  0.54146000  1.0 -0.2096891125
C  C113  1  0.54146000  0.43506000  0.54256000  1.0 -0.2096891125
C  C114  1  0.54256000  0.54146000  0.43506000  1.0 -0.2096891125
C  C115  1  0.89969000  0.22479000  0.72519000  1.0 0.5509701041
C  C116  1  0.22479000  0.72519000  0.89969000  1.0 0.5509701041
C  C117  1  0.72519000  0.89969000  0.22479000  1.0 0.5509701041
C  C118  1  0.39969000  0.22519000  0.72479000  1.0 0.5509701041
C  C119  1  0.72479000  0.39969000  0.22519000  1.0 0.5509701041
C  C120  1  0.22519000  0.72479000  0.39969000  1.0 0.5509701041
O  O1  1  0.62092000  0.40087000  0.10364000  1.0 -0.5335207018
O  O2  1  0.40087000  0.10364000  0.62092000  1.0 -0.5335207018
O  O3  1  0.10364000  0.62092000  0.40087000  1.0 -0.5335207018
O  O4  1  0.12092000  0.60364000  0.90087000  1.0 -0.5335207018
O  O5  1  0.90087000  0.12092000  0.60364000  1.0 -0.5335207018
O  O6  1  0.60364000  0.90087000  0.12092000  1.0 -0.5335207018
O  O7  1  0.60107000  0.48590000  0.99691000  1.0 -0.5606683923
O  O8  1  0.48590000  0.99691000  0.60107000  1.0 -0.5606683923
O  O9  1  0.99691000  0.60107000  0.48590000  1.0 -0.5606683923
O  O10  1  0.10107000  0.49691000  0.98590000  1.0 -0.5606683923
O  O11  1  0.98590000  0.10107000  0.49691000  1.0 -0.5606683923
O  O12  1  0.49691000  0.98590000  0.10107000  1.0 -0.5606683923
O  O13  1  0.35130000  0.55861000  0.92926000  1.0 -0.479819758
O  O14  1  0.55861000  0.92926000  0.35130000  1.0 -0.479819758
O  O15  1  0.92926000  0.35130000  0.55861000  1.0 -0.479819758
O  O16  1  0.85130000  0.42926000  0.05861000  1.0 -0.479819758
O  O17  1  0.05861000  0.85130000  0.42926000  1.0 -0.479819758
O  O18  1  0.42926000  0.05861000  0.85130000  1.0 -0.479819758
O  O19  1  0.25510000  0.50838000  0.99982000  1.0 -0.6073540382
O  O20  1  0.50838000  0.99982000  0.25510000  1.0 -0.6073540382
O  O21  1  0.99982000  0.25510000  0.50838000  1.0 -0.6073540382
O  O22  1  0.75510000  0.49982000  0.00838000  1.0 -0.6073540382
O  O23  1  0.00838000  0.75510000  0.49982000  1.0 -0.6073540382
O  O24  1  0.49982000  0.00838000  0.75510000  1.0 -0.6073540382
O  O25  1  0.84209000  0.25547000  0.69508000  1.0 -0.5096539688
O  O26  1  0.25547000  0.69508000  0.84209000  1.0 -0.5096539688
O  O27  1  0.69508000  0.84209000  0.25547000  1.0 -0.5096539688
O  O28  1  0.34209000  0.19508000  0.75547000  1.0 -0.5096539688
O  O29  1  0.75547000  0.34209000  0.19508000  1.0 -0.5096539688
O  O30  1  0.19508000  0.75547000  0.34209000  1.0 -0.5096539688
O  O31  1  0.96261000  0.19783000  0.68839000  1.0 -0.5188269846
O  O32  1  0.19783000  0.68839000  0.96261000  1.0 -0.5188269846
O  O33  1  0.68839000  0.96261000  0.19783000  1.0 -0.5188269846
O  O34  1  0.46261000  0.18839000  0.69783000  1.0 -0.5188269846
O  O35  1  0.69783000  0.46261000  0.18839000  1.0 -0.5188269846
O  O36  1  0.18839000  0.69783000  0.46261000  1.0 -0.5188269846
O  O37  1  0.77895000  0.31738000  0.03387000  1.0 -0.5188269846
O  O38  1  0.31738000  0.03387000  0.77895000  1.0 -0.5188269846
O  O39  1  0.03387000  0.77895000  0.31738000  1.0 -0.5188269846
O  O40  1  0.27895000  0.53387000  0.81738000  1.0 -0.5188269846
O  O41  1  0.81738000  0.27895000  0.53387000  1.0 -0.5188269846
O  O42  1  0.53387000  0.81738000  0.27895000  1.0 -0.5188269846
O  O43  1  0.74047000  0.38036000  0.92579000  1.0 -0.5683016213
O  O44  1  0.38036000  0.92579000  0.74047000  1.0 -0.5683016213
O  O45  1  0.92579000  0.74047000  0.38036000  1.0 -0.5683016213
O  O46  1  0.24047000  0.42579000  0.88036000  1.0 -0.5683016213
O  O47  1  0.88036000  0.24047000  0.42579000  1.0 -0.5683016213
O  O48  1  0.42579000  0.88036000  0.24047000  1.0 -0.5683016213
