# DDEC6 charges by PACMAN v1.1 (https://github.com/mtap-research/PACMAN-charge/)
data_QUQMOG_ASR_pacman
_symmetry_space_group_name_H-M   'P 1'
_cell_length_a   13.84900000
_cell_length_b   14.72400000
_cell_length_c   22.98700000
_cell_angle_alpha   88.25000000
_cell_angle_beta   74.38000000
_cell_angle_gamma   87.86000000
_symmetry_Int_Tables_number   1
_chemical_formula_structural   Cd2H76C102N4O9
_chemical_formula_sum   'Cd4 H152 C204 N8 O18'
_cell_volume   4510.06049396
_cell_formula_units_Z   2
loop_
 _symmetry_equiv_pos_site_id
 _symmetry_equiv_pos_as_xyz
  1  'x, y, z'
loop_
 _atom_site_type_symbol
 _atom_site_label
 _atom_site_symmetry_multiplicity
 _atom_site_fract_x
 _atom_site_fract_y
 _atom_site_fract_z
 _atom_site_occupancy
 _atom_site_charge
Cd  Cd1  1  0.68321000  0.93911000  0.90148000  1.0 0.8254494382
Cd  Cd2  1  0.79428000  0.04518000  0.55239000  1.0 0.7385154082
Cd  Cd3  1  0.31679000  0.06089000  0.09852000  1.0 0.8254494382
Cd  Cd4  1  0.20572000  0.95482000  0.44761000  1.0 0.7385154082
H  H1  1  0.04530000  0.47120000  0.81980000  1.0 0.1090486015
H  H2  1  0.81970000  0.63890000  0.84590000  1.0 0.128395759
H  H3  1  0.82940000  0.50070000  0.79990000  1.0 0.1183357252
H  H4  1  0.73720000  0.61230000  0.66790000  1.0 0.1183357252
H  H5  1  0.71790000  0.75310000  0.71370000  1.0 0.1090486015
H  H6  1  0.87180000  0.98460000  0.66530000  1.0 0.0993375418
H  H7  1  0.94600000  0.86960000  0.70570000  1.0 0.128395759
H  H8  1  0.04190000  0.76840000  0.54060000  1.0 0.128395759
H  H9  1  0.96630000  0.89000000  0.50580000  1.0 0.1090486015
H  H10  1  0.80430000  0.10020000  0.93640000  1.0 0.1090486015
H  H11  1  0.91630000  0.21160000  0.89950000  1.0 0.128395759
H  H12  1  0.94230000  0.12450000  0.73510000  1.0 0.1090486015
H  H13  1  0.83770000  0.01260000  0.77680000  1.0 0.0993375418
H  H14  1  0.93250000  0.35420000  0.85630000  1.0 0.1090486015
H  H15  1  0.79620000  0.87090000  0.07970000  1.0 0.1183357252
H  H16  1  0.81760000  0.88050000  0.17540000  1.0 0.0993375418
H  H17  1  0.63460000  0.09970000  0.09900000  1.0 0.1183357252
H  H18  1  0.66470000  0.12070000  0.19150000  1.0 0.0993375418
H  H19  1  0.33600000  0.57920000  0.61760000  1.0 0.0875361436
H  H20  1  0.44340000  0.69690000  0.58240000  1.0 0.0993375418
H  H21  1  0.38190000  0.60140000  0.77920000  1.0 0.0993375418
H  H22  1  0.48660000  0.72250000  0.74530000  1.0 0.0993375418
H  H23  1  0.23830000  0.41050000  0.83050000  1.0 0.0806409483
H  H24  1  0.53750000  0.11280000  0.93820000  1.0 0.1183357252
H  H25  1  0.61200000  0.99940000  0.78350000  1.0 0.0993375418
H  H26  1  0.53080000  0.11110000  0.74150000  1.0 0.1090486015
H  H27  1  0.44920000  0.22410000  0.90410000  1.0 0.1358609808
H  H28  1  0.31710000  0.29870000  0.87210000  1.0 0.1090486015
H  H29  1  0.51600000  0.26700000  0.70780000  1.0 0.1090486015
H  H30  1  0.44300000  0.39130000  0.67560000  1.0 0.1090486015
H  H31  1  0.08690000  0.20600000  0.71260000  1.0 0.0806409483
H  H32  1  0.19400000  0.32840000  0.68010000  1.0 0.0875361436
H  H33  1  0.08020000  0.50940000  0.64550000  1.0 0.0993375418
H  H34  1  0.00740000  0.62590000  0.60690000  1.0 0.1090486015
H  H35  1  0.15390000  0.66780000  0.76260000  1.0 0.0993375418
H  H36  1  0.07520000  0.78670000  0.72480000  1.0 0.0993375418
H  H37  1  0.64050000  0.73340000  0.56410000  1.0 0.1090486015
H  H38  1  0.75550000  0.84610000  0.53050000  1.0 0.0993375418
H  H39  1  0.60290000  0.99590000  0.66430000  1.0 0.0603191953
H  H40  1  0.48290000  0.88010000  0.69840000  1.0 0.0603191953
H  H41  1  0.88980000  0.34200000  0.58560000  1.0 0.0993375418
H  H42  1  0.71380000  0.23720000  0.73460000  1.0 0.0993375418
H  H43  1  0.71150000  0.37620000  0.78380000  1.0 0.0993375418
H  H44  1  0.89170000  0.47550000  0.62960000  1.0 0.0993375418
H  H45  1  0.87470000  0.91570000  0.25030000  1.0 0.0993375418
H  H46  1  0.89680000  0.94310000  0.33820000  1.0 0.0993375418
H  H47  1  0.70300000  0.12890000  0.27310000  1.0 0.0993375418
H  H48  1  0.67360000  0.12910000  0.37420000  1.0 0.0685933888
H  H49  1  0.63820000  0.46260000  0.69740000  1.0 0.0993375418
H  H50  1  0.91610000  0.43710000  0.67910000  1.0 0.0806409483
H  H51  1  0.63370000  0.30870000  0.65540000  1.0 0.0806409483
H  H52  1  0.92130000  0.28310000  0.65120000  1.0 0.0875361436
H  H53  1  0.66640000  0.95970000  0.67450000  1.0 0.0603191953
H  H54  1  0.55550000  0.85290000  0.71430000  1.0 0.0685933888
H  H55  1  0.53470000  0.79460000  0.55110000  1.0 0.0993375418
H  H56  1  0.66430000  0.89860000  0.51260000  1.0 0.0875361436
H  H57  1  0.75880000  0.87590000  0.27540000  1.0 0.0993375418
H  H58  1  0.72060000  0.15350000  0.26460000  1.0 0.0685933888
H  H59  1  0.78810000  0.88600000  0.37210000  1.0 0.0993375418
H  H60  1  0.77430000  0.15830000  0.35570000  1.0 0.0875361436
H  H61  1  0.17580000  0.69530000  0.57220000  1.0 0.1090486015
H  H62  1  0.95220000  0.69380000  0.72690000  1.0 0.1090486015
H  H63  1  0.03620000  0.58380000  0.76640000  1.0 0.1090486015
H  H64  1  0.24980000  0.57250000  0.60580000  1.0 0.0685933888
H  H65  1  0.40840000  0.18900000  0.72290000  1.0 0.0993375418
H  H66  1  0.32010000  0.30970000  0.68640000  1.0 0.0993375418
H  H67  1  0.46270000  0.35700000  0.84000000  1.0 0.1090486015
H  H68  1  0.39930000  0.47650000  0.79560000  1.0 0.0993375418
H  H69  1  0.45250000  0.50350000  0.62720000  1.0 0.1090486015
H  H70  1  0.55600000  0.62400000  0.59070000  1.0 0.0993375418
H  H71  1  0.38790000  0.77020000  0.72620000  1.0 0.0806409483
H  H72  1  0.28730000  0.65140000  0.75650000  1.0 0.0993375418
H  H73  1  0.98480000  0.26810000  0.70500000  1.0 0.0806409483
H  H74  1  0.11080000  0.37240000  0.66340000  1.0 0.0875361436
H  H75  1  0.04080000  0.29030000  0.86470000  1.0 0.1090486015
H  H76  1  0.17290000  0.39810000  0.82080000  1.0 0.0875361436
H  H77  1  0.95470000  0.52880000  0.18020000  1.0 0.1090486015
H  H78  1  0.18030000  0.36110000  0.15410000  1.0 0.128395759
H  H79  1  0.17060000  0.49930000  0.20010000  1.0 0.1183357252
H  H80  1  0.26280000  0.38770000  0.33210000  1.0 0.1183357252
H  H81  1  0.28210000  0.24690000  0.28630000  1.0 0.1090486015
H  H82  1  0.12820000  0.01540000  0.33470000  1.0 0.0993375418
H  H83  1  0.05400000  0.13040000  0.29430000  1.0 0.128395759
H  H84  1  0.95810000  0.23160000  0.45940000  1.0 0.128395759
H  H85  1  0.03370000  0.11000000  0.49420000  1.0 0.1090486015
H  H86  1  0.19570000  0.89980000  0.06360000  1.0 0.1090486015
H  H87  1  0.08370000  0.78840000  0.10050000  1.0 0.128395759
H  H88  1  0.05770000  0.87550000  0.26490000  1.0 0.1090486015
H  H89  1  0.16230000  0.98740000  0.22320000  1.0 0.0993375418
H  H90  1  0.06750000  0.64580000  0.14370000  1.0 0.1090486015
H  H91  1  0.20380000  0.12910000  0.92030000  1.0 0.1183357252
H  H92  1  0.18240000  0.11950000  0.82460000  1.0 0.0993375418
H  H93  1  0.36540000  0.90030000  0.90100000  1.0 0.128395759
H  H94  1  0.33530000  0.87930000  0.80850000  1.0 0.0993375418
H  H95  1  0.66400000  0.42080000  0.38240000  1.0 0.0875361436
H  H96  1  0.55660000  0.30310000  0.41760000  1.0 0.0993375418
H  H97  1  0.61810000  0.39860000  0.22080000  1.0 0.0993375418
H  H98  1  0.51340000  0.27750000  0.25470000  1.0 0.0993375418
H  H99  1  0.76170000  0.58950000  0.16950000  1.0 0.0806409483
H  H100  1  0.46250000  0.88720000  0.06180000  1.0 0.1183357252
H  H101  1  0.38800000  0.00060000  0.21650000  1.0 0.0993375418
H  H102  1  0.46920000  0.88890000  0.25850000  1.0 0.1090486015
H  H103  1  0.55080000  0.77590000  0.09590000  1.0 0.1358609808
H  H104  1  0.68290000  0.70130000  0.12790000  1.0 0.1090486015
H  H105  1  0.48400000  0.73300000  0.29220000  1.0 0.1090486015
H  H106  1  0.55700000  0.60870000  0.32440000  1.0 0.1090486015
H  H107  1  0.91310000  0.79400000  0.28740000  1.0 0.0806409483
H  H108  1  0.80600000  0.67160000  0.31990000  1.0 0.0875361436
H  H109  1  0.91980000  0.49060000  0.35450000  1.0 0.0993375418
H  H110  1  0.99260000  0.37410000  0.39310000  1.0 0.1090486015
H  H111  1  0.84610000  0.33220000  0.23740000  1.0 0.0993375418
H  H112  1  0.92480000  0.21330000  0.27520000  1.0 0.0993375418
H  H113  1  0.35950000  0.26660000  0.43590000  1.0 0.1090486015
H  H114  1  0.24450000  0.15390000  0.46950000  1.0 0.0993375418
H  H115  1  0.39710000  0.00410000  0.33570000  1.0 0.0603191953
H  H116  1  0.51710000  0.11990000  0.30160000  1.0 0.0603191953
H  H117  1  0.11020000  0.65800000  0.41440000  1.0 0.0993375418
H  H118  1  0.28620000  0.76280000  0.26540000  1.0 0.0993375418
H  H119  1  0.28850000  0.62380000  0.21620000  1.0 0.0993375418
H  H120  1  0.10830000  0.52450000  0.37040000  1.0 0.0993375418
H  H121  1  0.12530000  0.08430000  0.74970000  1.0 0.0993375418
H  H122  1  0.10320000  0.05690000  0.66180000  1.0 0.0993375418
H  H123  1  0.29700000  0.87110000  0.72690000  1.0 0.0993375418
H  H124  1  0.32640000  0.87090000  0.62580000  1.0 0.0685933888
H  H125  1  0.36180000  0.53740000  0.30260000  1.0 0.0993375418
H  H126  1  0.08390000  0.56290000  0.32090000  1.0 0.0806409483
H  H127  1  0.36630000  0.69130000  0.34460000  1.0 0.0806409483
H  H128  1  0.07870000  0.71690000  0.34880000  1.0 0.0875361436
H  H129  1  0.33360000  0.04030000  0.32550000  1.0 0.0603191953
H  H130  1  0.44450000  0.14710000  0.28570000  1.0 0.0685933888
H  H131  1  0.46530000  0.20540000  0.44890000  1.0 0.0993375418
H  H132  1  0.33570000  0.10140000  0.48740000  1.0 0.0875361436
H  H133  1  0.24120000  0.12410000  0.72460000  1.0 0.0993375418
H  H134  1  0.27940000  0.84650000  0.73540000  1.0 0.0685933888
H  H135  1  0.21190000  0.11400000  0.62790000  1.0 0.0993375418
H  H136  1  0.22570000  0.84170000  0.64430000  1.0 0.0875361436
H  H137  1  0.82420000  0.30470000  0.42780000  1.0 0.1090486015
H  H138  1  0.04780000  0.30620000  0.27310000  1.0 0.1090486015
H  H139  1  0.96380000  0.41620000  0.23360000  1.0 0.1090486015
H  H140  1  0.75020000  0.42750000  0.39420000  1.0 0.0685933888
H  H141  1  0.59160000  0.81100000  0.27710000  1.0 0.0993375418
H  H142  1  0.67990000  0.69030000  0.31360000  1.0 0.0993375418
H  H143  1  0.53730000  0.64300000  0.16000000  1.0 0.1090486015
H  H144  1  0.60070000  0.52350000  0.20440000  1.0 0.0993375418
H  H145  1  0.54750000  0.49650000  0.37280000  1.0 0.1090486015
H  H146  1  0.44400000  0.37600000  0.40930000  1.0 0.0993375418
H  H147  1  0.61210000  0.22980000  0.27380000  1.0 0.0806409483
H  H148  1  0.71270000  0.34860000  0.24350000  1.0 0.0993375418
H  H149  1  0.01520000  0.73190000  0.29500000  1.0 0.0806409483
H  H150  1  0.88920000  0.62760000  0.33660000  1.0 0.0875361436
H  H151  1  0.95920000  0.70970000  0.13530000  1.0 0.1090486015
H  H152  1  0.82710000  0.60190000  0.17920000  1.0 0.0875361436
C  C1  1  0.05160000  0.41810000  0.79800000  1.0 -0.0789998198
C  C2  1  0.79700000  0.63390000  0.81160000  1.0 -0.1010842064
C  C3  1  0.80260000  0.55090000  0.78340000  1.0 -0.1505222159
C  C4  1  0.74760000  0.61670000  0.70600000  1.0 -0.2396282739
C  C5  1  0.77260000  0.53900000  0.73490000  1.0 0.0299416491
C  C6  1  0.77910000  0.44970000  0.70510000  1.0 0.0685933888
C  C7  1  0.75680000  0.70870000  0.78750000  1.0 -0.0027509091
C  C8  1  0.73750000  0.70190000  0.73290000  1.0 -0.1781613441
C  C9  1  0.78720000  0.28160000  0.65090000  1.0 -0.0027509091
C  C10  1  0.90500000  0.93880000  0.63980000  1.0 0.0094001008
C  C11  1  0.94960000  0.86980000  0.66470000  1.0 -0.2396282739
C  C12  1  0.00020000  0.79970000  0.62900000  1.0 0.0421959219
C  C13  1  0.00590000  0.81100000  0.56780000  1.0 -0.1781613441
C  C14  1  0.95960000  0.88370000  0.54710000  1.0 0.0482193806
C  C15  1  0.04930000  0.72020000  0.65340000  1.0 0.0482193806
C  C16  1  0.54680000  0.79390000  0.63420000  1.0 0.0040411757
C  C17  1  0.83400000  0.10380000  0.89500000  1.0 0.0806409483
C  C18  1  0.89930000  0.17320000  0.87260000  1.0 -0.2003485349
C  C19  1  0.93910000  0.18670000  0.81250000  1.0 0.0421959219
C  C20  1  0.91540000  0.12180000  0.77680000  1.0 -0.280521101
C  C21  1  0.85260000  0.05410000  0.80260000  1.0 0.0603191953
C  C22  1  0.00340000  0.26510000  0.78930000  1.0 0.0299416491
C  C23  1  0.98520000  0.34730000  0.82160000  1.0 -0.1056970345
C  C24  1  0.69610000  0.97390000  0.01690000  1.0 0.5302546037
C  C25  1  0.76720000  0.92030000  0.10310000  1.0 -0.1010842064
C  C26  1  0.78210000  0.92610000  0.16040000  1.0 -0.2003485349
C  C27  1  0.71210000  0.98310000  0.07940000  1.0 -0.0130494802
C  C28  1  0.67320000  0.05640000  0.11370000  1.0 -0.0906278948
C  C29  1  0.68920000  0.06850000  0.16990000  1.0 -0.1781613441
C  C30  1  0.74320000  0.00080000  0.19410000  1.0 -0.0393525357
C  C31  1  0.75610000  0.01010000  0.25530000  1.0 0.0482193806
C  C32  1  0.48300000  0.71510000  0.65770000  1.0 -0.0319066033
C  C33  1  0.37000000  0.60340000  0.64300000  1.0 -0.0505496836
C  C34  1  0.35650000  0.56880000  0.69870000  1.0 0.0421959219
C  C35  1  0.43410000  0.67560000  0.62200000  1.0 -0.0505496836
C  C36  1  0.39770000  0.61840000  0.73850000  1.0 -0.0505496836
C  C37  1  0.46060000  0.69110000  0.71870000  1.0 -0.0789998198
C  C38  1  0.29000000  0.48950000  0.72090000  1.0 -0.2488060059
C  C39  1  0.19330000  0.49230000  0.72030000  1.0 -0.280521101
C  C40  1  0.14240000  0.57160000  0.69600000  1.0 0.0603191953
C  C41  1  0.12800000  0.41190000  0.74230000  1.0 0.0482193806
C  C42  1  0.29670000  0.38210000  0.80760000  1.0 -0.138793741
C  C43  1  0.34080000  0.41120000  0.74480000  1.0 0.0482193806
C  C44  1  0.79080000  0.03260000  0.43680000  1.0 0.4958819462
C  C45  1  0.77820000  0.02650000  0.37360000  1.0 -0.0319066033
C  C46  1  0.78730000  0.19360000  0.61960000  1.0 0.4391970051
C  C47  1  0.53690000  0.11290000  0.89780000  1.0 0.0806409483
C  C48  1  0.58090000  0.04740000  0.80760000  1.0 0.0189447378
C  C49  1  0.53210000  0.11420000  0.78170000  1.0 -0.2648814308
C  C50  1  0.48500000  0.18090000  0.87740000  1.0 -0.1890744442
C  C51  1  0.48460000  0.18670000  0.81750000  1.0 0.0603191953
C  C52  1  0.43270000  0.26410000  0.79020000  1.0 0.0482193806
C  C53  1  0.34080000  0.31500000  0.83140000  1.0 -0.0906278948
C  C54  1  0.46200000  0.29570000  0.73470000  1.0 -0.0130494802
C  C55  1  0.74180000  0.80100000  0.81990000  1.0 0.5302546037
C  C56  1  0.41540000  0.37040000  0.71490000  1.0 -0.0319066033
C  C57  1  0.07810000  0.25860000  0.73510000  1.0 -0.0505496836
C  C58  1  0.14100000  0.33460000  0.71480000  1.0 -0.0702997675
C  C59  1  0.08850000  0.56720000  0.65830000  1.0 -0.0505496836
C  C60  1  0.04270000  0.63650000  0.63510000  1.0 -0.0702997675
C  C61  1  0.13050000  0.66110000  0.72860000  1.0 -0.1056970345
C  C62  1  0.08430000  0.73080000  0.70590000  1.0 -0.1289529862
C  C63  1  0.63000000  0.78810000  0.58440000  1.0 -0.0613867656
C  C64  1  0.69800000  0.85550000  0.56190000  1.0 -0.0702997675
C  C65  1  0.60600000  0.94500000  0.64100000  1.0 0.0299416491
C  C66  1  0.53500000  0.87200000  0.66370000  1.0 -0.0613867656
C  C67  1  0.84680000  0.35120000  0.62380000  1.0 -0.0505496836
C  C68  1  0.74200000  0.28820000  0.71260000  1.0 -0.1056970345
C  C69  1  0.73860000  0.37170000  0.74230000  1.0 -0.138793741
C  C70  1  0.84700000  0.43170000  0.64910000  1.0 -0.0906278948
C  C71  1  0.83300000  0.95800000  0.27530000  1.0 -0.0613867656
C  C72  1  0.84200000  0.97200000  0.32830000  1.0 -0.0613867656
C  C73  1  0.72400000  0.07770000  0.29140000  1.0 -0.1010842064
C  C74  1  0.71700000  0.08600000  0.35050000  1.0 -0.0393525357
C  C75  1  0.69400000  0.42340000  0.69050000  1.0 -0.1505222159
C  C76  1  0.85600000  0.40900000  0.68240000  1.0 -0.0393525357
C  C77  1  0.69100000  0.33110000  0.66320000  1.0 -0.1613652022
C  C78  1  0.86100000  0.31620000  0.65940000  1.0 -0.0027509091
C  C79  1  0.64200000  0.92500000  0.64880000  1.0 -0.0027509091
C  C80  1  0.57900000  0.85850000  0.67250000  1.0 -0.0789998198
C  C81  1  0.56700000  0.82100000  0.57680000  1.0 -0.1010842064
C  C82  1  0.63900000  0.89000000  0.55410000  1.0 0.0299416491
C  C83  1  0.76400000  0.93280000  0.29070000  1.0 -0.0789998198
C  C84  1  0.74200000  0.10200000  0.28260000  1.0 -0.1010842064
C  C85  1  0.77900000  0.93810000  0.35010000  1.0 -0.0505496836
C  C86  1  0.76600000  0.10200000  0.34030000  1.0 -0.0393525357
C  C87  1  0.14900000  0.67220000  0.61110000  1.0 -0.0789998198
C  C88  1  0.01580000  0.67610000  0.70370000  1.0 -0.0130494802
C  C89  1  0.06360000  0.60550000  0.72720000  1.0 -0.0319066033
C  C90  1  0.19300000  0.60190000  0.62990000  1.0 -0.138793741
C  C91  1  0.39880000  0.24580000  0.74050000  1.0 -0.0906278948
C  C92  1  0.34840000  0.31910000  0.71800000  1.0 -0.1010842064
C  C93  1  0.43300000  0.34630000  0.80900000  1.0 -0.0789998198
C  C94  1  0.39080000  0.41830000  0.78350000  1.0 -0.0505496836
C  C95  1  0.44000000  0.55880000  0.64670000  1.0 -0.0789998198
C  C96  1  0.50260000  0.63000000  0.62510000  1.0 -0.0702997675
C  C97  1  0.40360000  0.71680000  0.70450000  1.0 -0.0613867656
C  C98  1  0.34250000  0.64390000  0.72330000  1.0 -0.0505496836
C  C99  1  0.02000000  0.29380000  0.72930000  1.0 -0.0906278948
C  C100  1  0.09000000  0.36180000  0.70500000  1.0 -0.0613867656
C  C101  1  0.05400000  0.30700000  0.82400000  1.0 -0.0393525357
C  C102  1  0.12900000  0.37810000  0.79980000  1.0 -0.138793741
C  C103  1  0.94840000  0.58190000  0.20200000  1.0 -0.0789998198
C  C104  1  0.20300000  0.36610000  0.18840000  1.0 -0.1010842064
C  C105  1  0.19740000  0.44910000  0.21660000  1.0 -0.1505222159
C  C106  1  0.25240000  0.38330000  0.29400000  1.0 -0.2396282739
C  C107  1  0.22740000  0.46100000  0.26510000  1.0 0.0299416491
C  C108  1  0.22090000  0.55030000  0.29490000  1.0 0.0685933888
C  C109  1  0.24320000  0.29130000  0.21250000  1.0 -0.0027509091
C  C110  1  0.26250000  0.29810000  0.26710000  1.0 -0.1781613441
C  C111  1  0.21280000  0.71840000  0.34910000  1.0 -0.0027509091
C  C112  1  0.09500000  0.06120000  0.36020000  1.0 0.0094001008
C  C113  1  0.05040000  0.13020000  0.33530000  1.0 -0.2279368874
C  C114  1  0.99980000  0.20030000  0.37100000  1.0 0.0482193806
C  C115  1  0.99410000  0.18900000  0.43220000  1.0 -0.1781613441
C  C116  1  0.04040000  0.11630000  0.45290000  1.0 0.0482193806
C  C117  1  0.95070000  0.27980000  0.34660000  1.0 0.0482193806
C  C118  1  0.45320000  0.20610000  0.36580000  1.0 0.0040411757
C  C119  1  0.16600000  0.89620000  0.10500000  1.0 0.0806409483
C  C120  1  0.10070000  0.82680000  0.12740000  1.0 -0.2003485349
C  C121  1  0.06090000  0.81330000  0.18750000  1.0 0.0421959219
C  C122  1  0.08460000  0.87820000  0.22320000  1.0 -0.280521101
C  C123  1  0.14740000  0.94590000  0.19740000  1.0 0.0603191953
C  C124  1  0.99660000  0.73490000  0.21070000  1.0 0.0299416491
C  C125  1  0.01480000  0.65270000  0.17840000  1.0 -0.1010842064
C  C126  1  0.30390000  0.02610000  0.98310000  1.0 0.5302546037
C  C127  1  0.23280000  0.07970000  0.89690000  1.0 -0.1010842064
C  C128  1  0.21790000  0.07390000  0.83960000  1.0 -0.2003485349
C  C129  1  0.28790000  0.01690000  0.92060000  1.0 -0.0130494802
C  C130  1  0.32680000  0.94360000  0.88630000  1.0 -0.0906278948
C  C131  1  0.31080000  0.93150000  0.83010000  1.0 -0.1781613441
C  C132  1  0.25680000  0.99920000  0.80590000  1.0 -0.0393525357
C  C133  1  0.24390000  0.98990000  0.74470000  1.0 0.0482193806
C  C134  1  0.51700000  0.28490000  0.34230000  1.0 -0.0319066033
C  C135  1  0.63000000  0.39660000  0.35700000  1.0 -0.0505496836
C  C136  1  0.64350000  0.43120000  0.30130000  1.0 0.0421959219
C  C137  1  0.56590000  0.32440000  0.37800000  1.0 -0.0613867656
C  C138  1  0.60230000  0.38160000  0.26150000  1.0 -0.0505496836
C  C139  1  0.53940000  0.30890000  0.28130000  1.0 -0.0789998198
C  C140  1  0.71000000  0.51050000  0.27910000  1.0 -0.2488060059
C  C141  1  0.80670000  0.50770000  0.27970000  1.0 -0.280521101
C  C142  1  0.85760000  0.42840000  0.30400000  1.0 0.0603191953
C  C143  1  0.87200000  0.58810000  0.25770000  1.0 0.0482193806
C  C144  1  0.70330000  0.61790000  0.19240000  1.0 -0.138793741
C  C145  1  0.65920000  0.58880000  0.25520000  1.0 0.0482193806
C  C146  1  0.20920000  0.96740000  0.56320000  1.0 0.4958819462
C  C147  1  0.22180000  0.97350000  0.62640000  1.0 -0.0319066033
C  C148  1  0.21270000  0.80640000  0.38040000  1.0 0.4391970051
C  C149  1  0.46310000  0.88710000  0.10220000  1.0 0.0806409483
C  C150  1  0.41910000  0.95260000  0.19240000  1.0 0.0189447378
C  C151  1  0.46790000  0.88580000  0.21830000  1.0 -0.2648814308
C  C152  1  0.51500000  0.81910000  0.12260000  1.0 -0.1890744442
C  C153  1  0.51540000  0.81330000  0.18250000  1.0 0.0685933888
C  C154  1  0.56730000  0.73590000  0.20980000  1.0 0.0482193806
C  C155  1  0.65920000  0.68500000  0.16860000  1.0 -0.0906278948
C  C156  1  0.53800000  0.70430000  0.26530000  1.0 -0.0130494802
C  C157  1  0.25820000  0.19900000  0.18010000  1.0 0.5302546037
C  C158  1  0.58460000  0.62960000  0.28510000  1.0 -0.0319066033
C  C159  1  0.92190000  0.74140000  0.26490000  1.0 -0.0505496836
C  C160  1  0.85900000  0.66540000  0.28520000  1.0 -0.0702997675
C  C161  1  0.91150000  0.43280000  0.34170000  1.0 -0.0505496836
C  C162  1  0.95730000  0.36350000  0.36490000  1.0 -0.0702997675
C  C163  1  0.86950000  0.33890000  0.27140000  1.0 -0.1056970345
C  C164  1  0.91570000  0.26920000  0.29410000  1.0 -0.1289529862
C  C165  1  0.37000000  0.21190000  0.41560000  1.0 -0.0613867656
C  C166  1  0.30200000  0.14450000  0.43810000  1.0 -0.0702997675
C  C167  1  0.39400000  0.05500000  0.35900000  1.0 0.0299416491
C  C168  1  0.46500000  0.12800000  0.33630000  1.0 -0.0613867656
C  C169  1  0.15320000  0.64880000  0.37620000  1.0 -0.0505496836
C  C170  1  0.25800000  0.71180000  0.28740000  1.0 -0.1056970345
C  C171  1  0.26140000  0.62830000  0.25770000  1.0 -0.138793741
C  C172  1  0.15300000  0.56830000  0.35090000  1.0 -0.0906278948
C  C173  1  0.16700000  0.04200000  0.72470000  1.0 -0.0613867656
C  C174  1  0.15800000  0.02800000  0.67170000  1.0 -0.0613867656
C  C175  1  0.27600000  0.92230000  0.70860000  1.0 -0.1010842064
C  C176  1  0.28300000  0.91400000  0.64950000  1.0 -0.0393525357
C  C177  1  0.30600000  0.57660000  0.30950000  1.0 -0.1505222159
C  C178  1  0.14400000  0.59100000  0.31760000  1.0 -0.0393525357
C  C179  1  0.30900000  0.66890000  0.33680000  1.0 -0.1613652022
C  C180  1  0.13900000  0.68380000  0.34060000  1.0 -0.0027509091
C  C181  1  0.35800000  0.07500000  0.35120000  1.0 -0.0027509091
C  C182  1  0.42100000  0.14150000  0.32750000  1.0 -0.0789998198
C  C183  1  0.43300000  0.17900000  0.42320000  1.0 -0.1010842064
C  C184  1  0.36100000  0.11000000  0.44590000  1.0 0.0299416491
C  C185  1  0.23600000  0.06720000  0.70930000  1.0 -0.0789998198
C  C186  1  0.25800000  0.89800000  0.71740000  1.0 -0.1010842064
C  C187  1  0.22100000  0.06190000  0.64990000  1.0 -0.0505496836
C  C188  1  0.23400000  0.89800000  0.65970000  1.0 -0.0393525357
C  C189  1  0.85100000  0.32780000  0.38890000  1.0 -0.0789998198
C  C190  1  0.98420000  0.32390000  0.29630000  1.0 -0.0130494802
C  C191  1  0.93640000  0.39450000  0.27280000  1.0 -0.0319066033
C  C192  1  0.80700000  0.39810000  0.37010000  1.0 -0.138793741
C  C193  1  0.60120000  0.75420000  0.25950000  1.0 -0.0906278948
C  C194  1  0.65160000  0.68090000  0.28200000  1.0 -0.1010842064
C  C195  1  0.56700000  0.65370000  0.19100000  1.0 -0.0789998198
C  C196  1  0.60920000  0.58170000  0.21650000  1.0 -0.0505496836
C  C197  1  0.56000000  0.44120000  0.35330000  1.0 -0.0789998198
C  C198  1  0.49740000  0.37000000  0.37490000  1.0 -0.0702997675
C  C199  1  0.59640000  0.28320000  0.29550000  1.0 -0.0613867656
C  C200  1  0.65750000  0.35610000  0.27670000  1.0 -0.0505496836
C  C201  1  0.98000000  0.70620000  0.27070000  1.0 -0.0906278948
C  C202  1  0.91000000  0.63820000  0.29500000  1.0 -0.0613867656
C  C203  1  0.94600000  0.69300000  0.17600000  1.0 -0.0393525357
C  C204  1  0.87100000  0.62190000  0.20020000  1.0 -0.138793741
N  N1  1  0.90520000  0.94570000  0.58370000  1.0 -0.2488060059
N  N2  1  0.67080000  0.94180000  0.59150000  1.0 -0.1781613441
N  N3  1  0.81190000  0.04220000  0.86000000  1.0 -0.2148899274
N  N4  1  0.58660000  0.04690000  0.86390000  1.0 -0.2279368874
N  N5  1  0.09480000  0.05430000  0.41630000  1.0 -0.2488060059
N  N6  1  0.32920000  0.05820000  0.40850000  1.0 -0.1781613441
N  N7  1  0.18810000  0.95780000  0.14000000  1.0 -0.2148899274
N  N8  1  0.41340000  0.95310000  0.13610000  1.0 -0.2279368874
O  O1  1  0.74150000  0.91200000  0.98550000  1.0 -0.507695614
O  O2  1  0.63870000  0.02980000  0.99924000  1.0 -0.5800729977
O  O3  1  0.84050000  0.97530000  0.45600000  1.0 -0.486780225
O  O4  1  0.74690000  0.09950000  0.46790000  1.0 -0.5177032339
O  O5  1  0.75430000  0.80050000  0.87140000  1.0 -0.5034303056
O  O6  1  0.71570000  0.86800000  0.79550000  1.0 -0.5498659598
O  O7  1  0.85720000  0.17460000  0.57580000  1.0 -0.4524460869
O  O8  1  0.74900000  0.12530000  0.65050000  1.0 -0.2003485349
O  O9  1  0.70400000  0.15500000  0.62000000  1.0 -0.1890744442
O  O10  1  0.25850000  0.08800000  0.01450000  1.0 -0.507695614
O  O11  1  0.36130000  0.97020000  0.00076000  1.0 -0.5800729977
O  O12  1  0.15950000  0.02470000  0.54400000  1.0 -0.486780225
O  O13  1  0.25310000  0.90050000  0.53210000  1.0 -0.5177032339
O  O14  1  0.24570000  0.19950000  0.12860000  1.0 -0.5034303056
O  O15  1  0.28430000  0.13200000  0.20450000  1.0 -0.5498659598
O  O16  1  0.14280000  0.82540000  0.42420000  1.0 -0.4524460869
O  O17  1  0.25100000  0.87470000  0.34950000  1.0 -0.2003485349
O  O18  1  0.29600000  0.84500000  0.38000000  1.0 -0.1890744442
