# DDEC6 charges by PACMAN v1.1 (https://github.com/mtap-research/PACMAN-charge/)
data_QUSBEO_FSR_pacman
_symmetry_space_group_name_H-M   'P 1'
_cell_length_a   13.84680000
_cell_length_b   13.84680000
_cell_length_c   13.86200000
_cell_angle_alpha   76.14490000
_cell_angle_beta   103.85500000
_cell_angle_gamma   132.82700000
_symmetry_Int_Tables_number   1
_chemical_formula_structural   CdH12C18N4O5
_chemical_formula_sum   'Cd4 H48 C72 N16 O20'
_cell_volume   1881.54703456
_cell_formula_units_Z   4
loop_
 _symmetry_equiv_pos_site_id
 _symmetry_equiv_pos_as_xyz
  1  'x, y, z'
loop_
 _atom_site_type_symbol
 _atom_site_label
 _atom_site_symmetry_multiplicity
 _atom_site_fract_x
 _atom_site_fract_y
 _atom_site_fract_z
 _atom_site_occupancy
 _atom_site_charge
Cd  Cd1  1  0.53867000  0.09687000  0.36504000  1.0 0.7893152859
Cd  Cd2  1  0.09687000  0.53867000  0.13496000  1.0 0.7893152859
Cd  Cd3  1  0.46133000  0.90313000  0.63496000  1.0 0.7893152859
Cd  Cd4  1  0.90313000  0.46133000  0.86504000  1.0 0.7893152859
H  H1  1  0.48441000  0.29603000  0.35080000  1.0 0.100051428
H  H2  1  0.32908000  0.29258000  0.38511000  1.0 0.1381954801
H  H3  1  0.05543000  0.91073000  0.37560000  1.0 0.1242516663
H  H4  1  0.21343000  0.89967000  0.36114000  1.0 0.100051428
H  H5  1  0.54792000  0.88000000  0.35852000  1.0 0.0913051394
H  H6  1  0.68755000  0.83831000  0.37475000  1.0 0.1299500405
H  H7  1  0.00260000  0.23284000  0.38007000  1.0 0.1299500405
H  H8  1  0.84694000  0.25256000  0.36670000  1.0 0.1063756299
H  H9  1  0.90962000  0.91264000  0.38727000  1.0 0.0913051394
H  H10  1  0.10399000  0.16693000  0.44541000  1.0 0.100051428
H  H11  1  0.58710000  0.24314000  0.77982000  1.0 0.100051428
H  H12  1  0.37589000  0.05127000  0.83699000  1.0 0.1063756299
H  H13  1  0.29603000  0.48441000  0.14920000  1.0 0.100051428
H  H14  1  0.29258000  0.32908000  0.11489000  1.0 0.1381954801
H  H15  1  0.91073000  0.05543000  0.12440000  1.0 0.1242516663
H  H16  1  0.89967000  0.21343000  0.13886000  1.0 0.100051428
H  H17  1  0.88000000  0.54792000  0.14148000  1.0 0.0913051394
H  H18  1  0.83831000  0.68755000  0.12525000  1.0 0.1299500405
H  H19  1  0.23284000  0.00260000  0.11993000  1.0 0.1299500405
H  H20  1  0.25256000  0.84694000  0.13330000  1.0 0.1063756299
H  H21  1  0.91264000  0.90962000  0.11273000  1.0 0.0913051394
H  H22  1  0.16693000  0.10399000  0.05459000  1.0 0.100051428
H  H23  1  0.24314000  0.58710000  0.72018000  1.0 0.100051428
H  H24  1  0.05127000  0.37589000  0.66301000  1.0 0.1063756299
H  H25  1  0.51559000  0.70397000  0.64920000  1.0 0.100051428
H  H26  1  0.67092000  0.70742000  0.61489000  1.0 0.1381954801
H  H27  1  0.94457000  0.08927000  0.62440000  1.0 0.1242516663
H  H28  1  0.78657000  0.10033000  0.63886000  1.0 0.100051428
H  H29  1  0.45208000  0.12000000  0.64148000  1.0 0.0913051394
H  H30  1  0.31245000  0.16169000  0.62525000  1.0 0.1299500405
H  H31  1  0.99740000  0.76716000  0.61993000  1.0 0.1299500405
H  H32  1  0.15306000  0.74744000  0.63330000  1.0 0.1063756299
H  H33  1  0.09038000  0.08736000  0.61273000  1.0 0.0913051394
H  H34  1  0.89601000  0.83307000  0.55459000  1.0 0.100051428
H  H35  1  0.41290000  0.75686000  0.22018000  1.0 0.100051428
H  H36  1  0.62411000  0.94873000  0.16301000  1.0 0.1063756299
H  H37  1  0.70397000  0.51559000  0.85080000  1.0 0.100051428
H  H38  1  0.70742000  0.67092000  0.88511000  1.0 0.1381954801
H  H39  1  0.08927000  0.94457000  0.87560000  1.0 0.1242516663
H  H40  1  0.10033000  0.78657000  0.86114000  1.0 0.100051428
H  H41  1  0.12000000  0.45208000  0.85852000  1.0 0.0913051394
H  H42  1  0.16169000  0.31245000  0.87475000  1.0 0.1299500405
H  H43  1  0.76716000  0.99740000  0.88007000  1.0 0.1299500405
H  H44  1  0.74744000  0.15306000  0.86670000  1.0 0.1063756299
H  H45  1  0.08736000  0.09038000  0.88727000  1.0 0.0913051394
H  H46  1  0.83307000  0.89601000  0.94541000  1.0 0.100051428
H  H47  1  0.75686000  0.41290000  0.27982000  1.0 0.100051428
H  H48  1  0.94873000  0.62411000  0.33699000  1.0 0.1063756299
C  C1  1  0.39850000  0.21350000  0.36320000  1.0 0.0783210218
C  C2  1  0.30540000  0.21060000  0.38330000  1.0 -0.2312404723
C  C3  1  0.18130000  0.09870000  0.40090000  1.0 0.1299500405
C  C4  1  0.14620000  0.98780000  0.38070000  1.0 -0.1994724918
C  C5  1  0.23860000  0.98140000  0.36660000  1.0 0.0337290083
C  C6  1  0.64090000  0.95110000  0.36590000  1.0 0.0733953983
C  C7  1  0.72410000  0.92590000  0.37620000  1.0 -0.2132773671
C  C8  1  0.86040000  0.02760000  0.38850000  1.0 0.1381954801
C  C9  1  0.91070000  0.15730000  0.37970000  1.0 -0.2132773671
C  C10  1  0.81570000  0.16630000  0.37040000  1.0 0.0733953983
C  C11  1  0.93440000  0.97760000  0.42910000  1.0 -0.0968201581
C  C12  1  0.08030000  0.07970000  0.45300000  1.0 -0.1053646404
C  C13  1  0.78750000  0.32650000  0.07800000  1.0 0.4970327195
C  C14  1  0.66230000  0.25970000  0.00800000  1.0 0.0487120309
C  C15  1  0.57810000  0.21990000  0.84900000  1.0 0.0557443414
C  C16  1  0.44770000  0.11030000  0.88300000  1.0 0.0080666978
C  C17  1  0.54040000  0.16760000  0.04400000  1.0 -0.00336434
C  C18  1  0.51800000  0.15200000  0.14790000  1.0 0.439863528
C  C19  1  0.21350000  0.39850000  0.13680000  1.0 0.0783210218
C  C20  1  0.21060000  0.30540000  0.11670000  1.0 -0.2312404723
C  C21  1  0.09870000  0.18130000  0.09910000  1.0 0.1299500405
C  C22  1  0.98780000  0.14620000  0.11930000  1.0 -0.1994724918
C  C23  1  0.98140000  0.23860000  0.13340000  1.0 0.0337290083
C  C24  1  0.95110000  0.64090000  0.13410000  1.0 0.0733953983
C  C25  1  0.92590000  0.72410000  0.12380000  1.0 -0.2132773671
C  C26  1  0.02760000  0.86040000  0.11150000  1.0 0.1381954801
C  C27  1  0.15730000  0.91070000  0.12030000  1.0 -0.2132773671
C  C28  1  0.16630000  0.81570000  0.12960000  1.0 0.0733953983
C  C29  1  0.97760000  0.93440000  0.07090000  1.0 -0.0968201581
C  C30  1  0.07970000  0.08030000  0.04700000  1.0 -0.1053646404
C  C31  1  0.32650000  0.78750000  0.42200000  1.0 0.4970327195
C  C32  1  0.25970000  0.66230000  0.49200000  1.0 0.0487120309
C  C33  1  0.21990000  0.57810000  0.65100000  1.0 0.0557443414
C  C34  1  0.11030000  0.44770000  0.61700000  1.0 0.0080666978
C  C35  1  0.16760000  0.54040000  0.45600000  1.0 -0.00336434
C  C36  1  0.15200000  0.51800000  0.35210000  1.0 0.439863528
C  C37  1  0.60150000  0.78650000  0.63680000  1.0 0.0783210218
C  C38  1  0.69460000  0.78940000  0.61670000  1.0 -0.2312404723
C  C39  1  0.81870000  0.90130000  0.59910000  1.0 0.1299500405
C  C40  1  0.85380000  0.01220000  0.61930000  1.0 -0.1994724918
C  C41  1  0.76140000  0.01860000  0.63340000  1.0 0.0337290083
C  C42  1  0.35910000  0.04890000  0.63410000  1.0 0.0733953983
C  C43  1  0.27590000  0.07410000  0.62380000  1.0 -0.2132773671
C  C44  1  0.13960000  0.97240000  0.61150000  1.0 0.1381954801
C  C45  1  0.08930000  0.84270000  0.62030000  1.0 -0.2132773671
C  C46  1  0.18430000  0.83370000  0.62960000  1.0 0.0733953983
C  C47  1  0.06560000  0.02240000  0.57090000  1.0 -0.0968201581
C  C48  1  0.91970000  0.92030000  0.54700000  1.0 -0.1053646404
C  C49  1  0.21250000  0.67350000  0.92200000  1.0 0.4970327195
C  C50  1  0.33770000  0.74030000  0.99200000  1.0 0.0487120309
C  C51  1  0.42190000  0.78010000  0.15100000  1.0 0.0557443414
C  C52  1  0.55230000  0.88970000  0.11700000  1.0 0.0080666978
C  C53  1  0.45960000  0.83240000  0.95600000  1.0 -0.00336434
C  C54  1  0.48200000  0.84800000  0.85210000  1.0 0.439863528
C  C55  1  0.78650000  0.60150000  0.86320000  1.0 0.0783210218
C  C56  1  0.78940000  0.69460000  0.88330000  1.0 -0.2312404723
C  C57  1  0.90130000  0.81870000  0.90090000  1.0 0.1299500405
C  C58  1  0.01220000  0.85380000  0.88070000  1.0 -0.1994724918
C  C59  1  0.01860000  0.76140000  0.86660000  1.0 0.0337290083
C  C60  1  0.04890000  0.35910000  0.86590000  1.0 0.0733953983
C  C61  1  0.07410000  0.27590000  0.87620000  1.0 -0.2132773671
C  C62  1  0.97240000  0.13960000  0.88850000  1.0 0.1381954801
C  C63  1  0.84270000  0.08930000  0.87970000  1.0 -0.2132773671
C  C64  1  0.83370000  0.18430000  0.87040000  1.0 0.0733953983
C  C65  1  0.02240000  0.06560000  0.92910000  1.0 -0.0968201581
C  C66  1  0.92030000  0.91970000  0.95300000  1.0 -0.1053646404
C  C67  1  0.67350000  0.21250000  0.57800000  1.0 0.4970327195
C  C68  1  0.74030000  0.33770000  0.50800000  1.0 0.0487120309
C  C69  1  0.78010000  0.42190000  0.34900000  1.0 0.0557443414
C  C70  1  0.88970000  0.55230000  0.38300000  1.0 0.0080666978
C  C71  1  0.83240000  0.45960000  0.54400000  1.0 -0.00336434
C  C72  1  0.84800000  0.48200000  0.64790000  1.0 0.439863528
N  N1  1  0.36960000  0.10120000  0.36100000  1.0 -0.2709818605
N  N2  1  0.68720000  0.07000000  0.36610000  1.0 -0.2312404723
N  N3  1  0.68110000  0.28530000  0.91330000  1.0 -0.2312404723
N  N4  1  0.42790000  0.09210000  0.98100000  1.0 -0.2373657796
N  N5  1  0.10120000  0.36960000  0.13900000  1.0 -0.2709818605
N  N6  1  0.07000000  0.68720000  0.13390000  1.0 -0.2312404723
N  N7  1  0.28530000  0.68110000  0.58670000  1.0 -0.2312404723
N  N8  1  0.09210000  0.42790000  0.51900000  1.0 -0.2373657796
N  N9  1  0.63040000  0.89880000  0.63900000  1.0 -0.2709818605
N  N10  1  0.31280000  0.93000000  0.63390000  1.0 -0.2312404723
N  N11  1  0.31890000  0.71470000  0.08670000  1.0 -0.2312404723
N  N12  1  0.57210000  0.90790000  0.01900000  1.0 -0.2373657796
N  N13  1  0.89880000  0.63040000  0.86100000  1.0 -0.2709818605
N  N14  1  0.93000000  0.31280000  0.86610000  1.0 -0.2312404723
N  N15  1  0.71470000  0.31890000  0.41330000  1.0 -0.2312404723
N  N16  1  0.90790000  0.57210000  0.48100000  1.0 -0.2373657796
O  O1  1  0.89210000  0.41490000  0.04180000  1.0 -0.4703114975
O  O2  1  0.77920000  0.30280000  0.16590000  1.0 -0.4526476237
O  O3  1  0.56440000  0.25360000  0.18540000  1.0 -0.1678215425
O  O4  1  0.49120000  0.05880000  0.20600000  1.0 -0.4703114975
O  O5  1  0.46290000  0.19710000  0.14100000  1.0 -0.0888978458
O  O6  1  0.41490000  0.89210000  0.45820000  1.0 -0.4703114975
O  O7  1  0.30280000  0.77920000  0.33410000  1.0 -0.4526476237
O  O8  1  0.25360000  0.56440000  0.31460000  1.0 -0.1678215425
O  O9  1  0.05880000  0.49120000  0.29400000  1.0 -0.4703114975
O  O10  1  0.19710000  0.46290000  0.35900000  1.0 -0.0888978458
O  O11  1  0.10790000  0.58510000  0.95820000  1.0 -0.4703114975
O  O12  1  0.22080000  0.69720000  0.83410000  1.0 -0.4526476237
O  O13  1  0.43560000  0.74640000  0.81460000  1.0 -0.1678215425
O  O14  1  0.50880000  0.94120000  0.79400000  1.0 -0.4703114975
O  O15  1  0.53710000  0.80290000  0.85900000  1.0 -0.0888978458
O  O16  1  0.58510000  0.10790000  0.54180000  1.0 -0.4703114975
O  O17  1  0.69720000  0.22080000  0.66590000  1.0 -0.4526476237
O  O18  1  0.74640000  0.43560000  0.68540000  1.0 -0.1678215425
O  O19  1  0.94120000  0.50880000  0.70600000  1.0 -0.4703114975
O  O20  1  0.80290000  0.53710000  0.64100000  1.0 -0.0888978458
