# DDEC6 charges by PACMAN v1.1 (https://github.com/mtap-research/PACMAN-charge/)
data_QUSBIS_ASR_pacman
_symmetry_space_group_name_H-M   'P 1'
_cell_length_a   13.40940000
_cell_length_b   13.40940000
_cell_length_c   14.30330000
_cell_angle_alpha   73.07430000
_cell_angle_beta   106.92600000
_cell_angle_gamma   133.24100000
_symmetry_Int_Tables_number   1
_chemical_formula_structural   CdH12C18(N2O3)2
_chemical_formula_sum   'Cd4 H48 C72 N16 O24'
_cell_volume   1776.83942612
_cell_formula_units_Z   4
loop_
 _symmetry_equiv_pos_site_id
 _symmetry_equiv_pos_as_xyz
  1  'x, y, z'
loop_
 _atom_site_type_symbol
 _atom_site_label
 _atom_site_symmetry_multiplicity
 _atom_site_fract_x
 _atom_site_fract_y
 _atom_site_fract_z
 _atom_site_occupancy
 _atom_site_charge
Cd  Cd1  1  0.45006000  0.90336000  0.12882000  1.0 0.7474413753
Cd  Cd2  1  0.90336000  0.45006000  0.37118000  1.0 0.7474413753
Cd  Cd3  1  0.54994000  0.09664000  0.87118000  1.0 0.7474413753
Cd  Cd4  1  0.09664000  0.54994000  0.62882000  1.0 0.7474413753
H  H1  1  0.76276000  0.08228000  0.13098000  1.0 0.1002288685
H  H2  1  0.92569000  0.08211000  0.12398000  1.0 0.1309235533
H  H3  1  0.64453000  0.68493000  0.12694000  1.0 0.1309235533
H  H4  1  0.49395000  0.70899000  0.13611000  1.0 0.1002288685
H  H5  1  0.41674000  0.10410000  0.13828000  1.0 0.1114341655
H  H6  1  0.26522000  0.12566000  0.13268000  1.0 0.1406048962
H  H7  1  0.97820000  0.74596000  0.11315000  1.0 0.1230421901
H  H8  1  0.14989000  0.75313000  0.10670000  1.0 0.1406048962
H  H9  1  0.06831000  0.06933000  0.12852000  1.0 0.1002288685
H  H10  1  0.83048000  0.75310000  0.12443000  1.0 0.1002288685
H  H11  1  0.61745000  0.94789000  0.64573000  1.0 0.1114341655
H  H12  1  0.40690000  0.79540000  0.70177000  1.0 0.1002288685
H  H13  1  0.08228000  0.76276000  0.36902000  1.0 0.1002288685
H  H14  1  0.08211000  0.92569000  0.37602000  1.0 0.1309235533
H  H15  1  0.68493000  0.64453000  0.37306000  1.0 0.1309235533
H  H16  1  0.70899000  0.49395000  0.36389000  1.0 0.1002288685
H  H17  1  0.10410000  0.41674000  0.36172000  1.0 0.1114341655
H  H18  1  0.12566000  0.26522000  0.36732000  1.0 0.1406048962
H  H19  1  0.74596000  0.97820000  0.38685000  1.0 0.1230421901
H  H20  1  0.75313000  0.14989000  0.39330000  1.0 0.1406048962
H  H21  1  0.06933000  0.06831000  0.37148000  1.0 0.1002288685
H  H22  1  0.75310000  0.83048000  0.37557000  1.0 0.1002288685
H  H23  1  0.94789000  0.61745000  0.85427000  1.0 0.1114341655
H  H24  1  0.79540000  0.40690000  0.79823000  1.0 0.1002288685
H  H25  1  0.23724000  0.91772000  0.86902000  1.0 0.1002288685
H  H26  1  0.07431000  0.91789000  0.87602000  1.0 0.1309235533
H  H27  1  0.35547000  0.31507000  0.87306000  1.0 0.1309235533
H  H28  1  0.50605000  0.29101000  0.86389000  1.0 0.1002288685
H  H29  1  0.58326000  0.89590000  0.86172000  1.0 0.1114341655
H  H30  1  0.73478000  0.87434000  0.86732000  1.0 0.1406048962
H  H31  1  0.02180000  0.25404000  0.88685000  1.0 0.1230421901
H  H32  1  0.85011000  0.24687000  0.89330000  1.0 0.1406048962
H  H33  1  0.93169000  0.93067000  0.87148000  1.0 0.1002288685
H  H34  1  0.16952000  0.24690000  0.87557000  1.0 0.1002288685
H  H35  1  0.38255000  0.05211000  0.35427000  1.0 0.1114341655
H  H36  1  0.59310000  0.20460000  0.29823000  1.0 0.1002288685
H  H37  1  0.91772000  0.23724000  0.63098000  1.0 0.1002288685
H  H38  1  0.91789000  0.07431000  0.62398000  1.0 0.1309235533
H  H39  1  0.31507000  0.35547000  0.62694000  1.0 0.1309235533
H  H40  1  0.29101000  0.50605000  0.63611000  1.0 0.1002288685
H  H41  1  0.89590000  0.58326000  0.63828000  1.0 0.1114341655
H  H42  1  0.87434000  0.73478000  0.63268000  1.0 0.1406048962
H  H43  1  0.25404000  0.02180000  0.61315000  1.0 0.1230421901
H  H44  1  0.24687000  0.85011000  0.60670000  1.0 0.1406048962
H  H45  1  0.93067000  0.93169000  0.62852000  1.0 0.1002288685
H  H46  1  0.24690000  0.16952000  0.62443000  1.0 0.1002288685
H  H47  1  0.05211000  0.38255000  0.14573000  1.0 0.1114341655
H  H48  1  0.20460000  0.59310000  0.20177000  1.0 0.1002288685
C  C1  1  0.73650000  0.99790000  0.13010000  1.0 0.0586826401
C  C2  1  0.83490000  0.99950000  0.12590000  1.0 -0.2214635504
C  C3  1  0.80290000  0.88610000  0.12470000  1.0 0.1309235533
C  C4  1  0.67370000  0.77070000  0.12780000  1.0 -0.2414625942
C  C5  1  0.58600000  0.78840000  0.13260000  1.0 0.0586826401
C  C6  1  0.32320000  0.02660000  0.13130000  1.0 0.0426300678
C  C7  1  0.23460000  0.03980000  0.12990000  1.0 -0.2111429035
C  C8  1  0.10570000  0.93390000  0.12460000  1.0 0.1114341655
C  C9  1  0.07110000  0.82530000  0.11830000  1.0 -0.2111429035
C  C10  1  0.16620000  0.82040000  0.11890000  1.0 0.0586826401
C  C11  1  0.01850000  0.96450000  0.12400000  1.0 -0.1220419038
C  C12  1  0.88990000  0.86170000  0.12380000  1.0 -0.1408119857
C  C13  1  0.47000000  0.84000000  0.34780000  1.0 0.3797715844
C  C14  1  0.44900000  0.82640000  0.44750000  1.0 0.0499927178
C  C15  1  0.53830000  0.89190000  0.60270000  1.0 -0.0588211402
C  C16  1  0.41550000  0.79910000  0.63840000  1.0 0.0426300678
C  C17  1  0.20480000  0.65540000  0.41650000  1.0 0.4526782275
C  C18  1  0.32580000  0.73300000  0.48520000  1.0 -0.0358840075
C  C19  1  0.99790000  0.73650000  0.36990000  1.0 0.0586826401
C  C20  1  0.99950000  0.83490000  0.37410000  1.0 -0.2214635504
C  C21  1  0.88610000  0.80290000  0.37530000  1.0 0.1309235533
C  C22  1  0.77070000  0.67370000  0.37220000  1.0 -0.2414625942
C  C23  1  0.78840000  0.58600000  0.36740000  1.0 0.0586826401
C  C24  1  0.02660000  0.32320000  0.36870000  1.0 0.0426300678
C  C25  1  0.03980000  0.23460000  0.37010000  1.0 -0.2111429035
C  C26  1  0.93390000  0.10570000  0.37540000  1.0 0.1114341655
C  C27  1  0.82530000  0.07110000  0.38170000  1.0 -0.2111429035
C  C28  1  0.82040000  0.16620000  0.38110000  1.0 0.0586826401
C  C29  1  0.96450000  0.01850000  0.37600000  1.0 -0.1220419038
C  C30  1  0.86170000  0.88990000  0.37620000  1.0 -0.1408119857
C  C31  1  0.84000000  0.47000000  0.15220000  1.0 0.3797715844
C  C32  1  0.82640000  0.44900000  0.05250000  1.0 0.0499927178
C  C33  1  0.89190000  0.53830000  0.89730000  1.0 -0.0588211402
C  C34  1  0.79910000  0.41550000  0.86160000  1.0 0.0426300678
C  C35  1  0.65540000  0.20480000  0.08350000  1.0 0.4526782275
C  C36  1  0.73300000  0.32580000  0.01480000  1.0 -0.0348561596
C  C37  1  0.26350000  0.00210000  0.86990000  1.0 0.0586826401
C  C38  1  0.16510000  0.00050000  0.87410000  1.0 -0.2214635504
C  C39  1  0.19710000  0.11390000  0.87530000  1.0 0.1309235533
C  C40  1  0.32630000  0.22930000  0.87220000  1.0 -0.2414625942
C  C41  1  0.41400000  0.21160000  0.86740000  1.0 0.0586826401
C  C42  1  0.67680000  0.97340000  0.86870000  1.0 0.0426300678
C  C43  1  0.76540000  0.96020000  0.87010000  1.0 -0.2111429035
C  C44  1  0.89430000  0.06610000  0.87540000  1.0 0.1114341655
C  C45  1  0.92890000  0.17470000  0.88170000  1.0 -0.2111429035
C  C46  1  0.83380000  0.17960000  0.88110000  1.0 0.0586826401
C  C47  1  0.98150000  0.03550000  0.87600000  1.0 -0.1220419038
C  C48  1  0.11010000  0.13830000  0.87620000  1.0 -0.1408119857
C  C49  1  0.53000000  0.16000000  0.65220000  1.0 0.3797715844
C  C50  1  0.55100000  0.17360000  0.55250000  1.0 0.0499927178
C  C51  1  0.46170000  0.10810000  0.39730000  1.0 -0.0588211402
C  C52  1  0.58450000  0.20090000  0.36160000  1.0 0.0426300678
C  C53  1  0.79520000  0.34460000  0.58350000  1.0 0.4526782275
C  C54  1  0.67420000  0.26700000  0.51480000  1.0 -0.0358840075
C  C55  1  0.00210000  0.26350000  0.63010000  1.0 0.0586826401
C  C56  1  0.00050000  0.16510000  0.62590000  1.0 -0.2214635504
C  C57  1  0.11390000  0.19710000  0.62470000  1.0 0.1309235533
C  C58  1  0.22930000  0.32630000  0.62780000  1.0 -0.2414625942
C  C59  1  0.21160000  0.41400000  0.63260000  1.0 0.0586826401
C  C60  1  0.97340000  0.67680000  0.63130000  1.0 0.0499927178
C  C61  1  0.96020000  0.76540000  0.62990000  1.0 -0.2111429035
C  C62  1  0.06610000  0.89430000  0.62460000  1.0 0.1114341655
C  C63  1  0.17470000  0.92890000  0.61830000  1.0 -0.2111429035
C  C64  1  0.17960000  0.83380000  0.61890000  1.0 0.0586826401
C  C65  1  0.03550000  0.98150000  0.62400000  1.0 -0.1220419038
C  C66  1  0.13830000  0.11010000  0.62380000  1.0 -0.1408119857
C  C67  1  0.16000000  0.53000000  0.84780000  1.0 0.3797715844
C  C68  1  0.17360000  0.55100000  0.94750000  1.0 0.0499927178
C  C69  1  0.10810000  0.46170000  0.10270000  1.0 -0.0588211402
C  C70  1  0.20090000  0.58450000  0.13840000  1.0 0.0426300678
C  C71  1  0.34460000  0.79520000  0.91650000  1.0 0.4526782275
C  C72  1  0.26700000  0.67420000  0.98520000  1.0 -0.0358840075
N  N1  1  0.55340000  0.90860000  0.50700000  1.0 -0.2026673913
N  N2  1  0.61590000  0.89730000  0.13280000  1.0 -0.2214635504
N  N3  1  0.28970000  0.91630000  0.12390000  1.0 -0.2285054811
N  N4  1  0.31360000  0.71780000  0.57910000  1.0 -0.2572779416
N  N5  1  0.90860000  0.55340000  0.99300000  1.0 -0.2026673913
N  N6  1  0.89730000  0.61590000  0.36720000  1.0 -0.2214635504
N  N7  1  0.91630000  0.28970000  0.37610000  1.0 -0.2285054811
N  N8  1  0.71780000  0.31360000  0.92090000  1.0 -0.2572779416
N  N9  1  0.44660000  0.09140000  0.49300000  1.0 -0.2026673913
N  N10  1  0.38410000  0.10270000  0.86720000  1.0 -0.2214635504
N  N11  1  0.71030000  0.08370000  0.87610000  1.0 -0.2285054811
N  N12  1  0.68640000  0.28220000  0.42090000  1.0 -0.2572779416
N  N13  1  0.09140000  0.44660000  0.00700000  1.0 -0.2026673913
N  N14  1  0.10270000  0.38410000  0.63280000  1.0 -0.2214635504
N  N15  1  0.08370000  0.71030000  0.62390000  1.0 -0.2214635504
N  N16  1  0.28220000  0.68640000  0.07910000  1.0 -0.2572779416
O  O1  1  0.47460000  0.92180000  0.28890000  1.0 -0.3739910408
O  O2  1  0.51960000  0.78040000  0.34540000  1.0 -0.1792859643
O  O3  1  0.10680000  0.57660000  0.45410000  1.0 -0.4326561749
O  O4  1  0.20100000  0.69600000  0.32640000  1.0 -0.2285054811
O  O5  1  0.44110000  0.76090000  0.30450000  1.0 0.1114341655
O  O6  1  0.22730000  0.61470000  0.34670000  1.0 -0.2718297004
O  O7  1  0.92180000  0.47460000  0.21110000  1.0 -0.3739910408
O  O8  1  0.78040000  0.51960000  0.15460000  1.0 -0.1792859643
O  O9  1  0.57660000  0.10680000  0.04590000  1.0 -0.4326561749
O  O10  1  0.69600000  0.20100000  0.17360000  1.0 -0.2285054811
O  O11  1  0.76090000  0.44110000  0.19550000  1.0 0.1114341655
O  O12  1  0.61470000  0.22730000  0.15330000  1.0 -0.2718297004
O  O13  1  0.52540000  0.07820000  0.71110000  1.0 -0.3739910408
O  O14  1  0.48040000  0.21960000  0.65460000  1.0 -0.1792859643
O  O15  1  0.89320000  0.42340000  0.54590000  1.0 -0.4326561749
O  O16  1  0.79900000  0.30400000  0.67360000  1.0 -0.2285054811
O  O17  1  0.55890000  0.23910000  0.69550000  1.0 0.1114341655
O  O18  1  0.77270000  0.38530000  0.65330000  1.0 -0.2718297004
O  O19  1  0.07820000  0.52540000  0.78890000  1.0 -0.3739910408
O  O20  1  0.21960000  0.48040000  0.84540000  1.0 -0.1792859643
O  O21  1  0.42340000  0.89320000  0.95410000  1.0 -0.4326561749
O  O22  1  0.30400000  0.79900000  0.82640000  1.0 -0.2285054811
O  O23  1  0.23910000  0.55890000  0.80450000  1.0 0.1114341655
O  O24  1  0.38530000  0.77270000  0.84670000  1.0 -0.2718297004
