# DDEC6 charges by PACMAN v1.1 (https://github.com/mtap-research/PACMAN-charge/)
data_QUSFEP_FSR_pacman
_symmetry_space_group_name_H-M   'P 1'
_cell_length_a   10.94900000
_cell_length_b   13.37100000
_cell_length_c   14.45300000
_cell_angle_alpha   64.42700000
_cell_angle_beta   71.90500000
_cell_angle_gamma   74.32700000
_symmetry_Int_Tables_number   1
_chemical_formula_structural   LaCu2H20C22N4O15
_chemical_formula_sum   'La2 Cu4 H40 C44 N8 O30'
_cell_volume   1791.23541756
_cell_formula_units_Z   2
loop_
 _symmetry_equiv_pos_site_id
 _symmetry_equiv_pos_as_xyz
  1  'x, y, z'
loop_
 _atom_site_type_symbol
 _atom_site_label
 _atom_site_symmetry_multiplicity
 _atom_site_fract_x
 _atom_site_fract_y
 _atom_site_fract_z
 _atom_site_occupancy
 _atom_site_charge
La  La1  1  0.77644000  0.17983000  0.23157000  1.0 1.8584592472
La  La2  1  0.22356000  0.82017000  0.76843000  1.0 1.8584592472
Cu  Cu1  1  0.31872000  0.39745000  0.06274000  1.0 0.6996719222
Cu  Cu2  1  0.68128000  0.60255000  0.93726000  1.0 0.6996719222
Cu  Cu3  1  0.80963000  0.87675000  0.56144000  1.0 0.6996719222
Cu  Cu4  1  0.19037000  0.12325000  0.43856000  1.0 0.6996719222
H  H1  1  0.60510000  0.35660000  0.93920000  1.0 0.1585644483
H  H2  1  0.39490000  0.64340000  0.06080000  1.0 0.1585644483
H  H3  1  0.59380000  0.24170000  0.93980000  1.0 0.1504696302
H  H4  1  0.40620000  0.75830000  0.06020000  1.0 0.1504696302
H  H5  1  0.38590000  0.18710000  0.00370000  1.0 0.1376149374
H  H6  1  0.61410000  0.81290000  0.99630000  1.0 0.1376149374
H  H7  1  0.37910000  0.25300000  0.88510000  1.0 0.1283270213
H  H8  1  0.62090000  0.74700000  0.11490000  1.0 0.1283270213
H  H9  1  0.36290000  0.43860000  0.81030000  1.0 0.1585644483
H  H10  1  0.63710000  0.56140000  0.18970000  1.0 0.1585644483
H  H11  1  0.50860000  0.44190000  0.80050000  1.0 0.1504696302
H  H12  1  0.49140000  0.55810000  0.19950000  1.0 0.1504696302
H  H13  1  0.08690000  0.55100000  0.09000000  1.0 0.1245505865
H  H14  1  0.91310000  0.44900000  0.91000000  1.0 0.1245505865
H  H15  1  0.97070000  0.64270000  0.20080000  1.0 0.1376149374
H  H16  1  0.02930000  0.35730000  0.79920000  1.0 0.1376149374
H  H17  1  0.22120000  0.46710000  0.38850000  1.0 0.1283270213
H  H18  1  0.77880000  0.53290000  0.61150000  1.0 0.1283270213
H  H19  1  0.32780000  0.37630000  0.27550000  1.0 0.1245505865
H  H20  1  0.67220000  0.62370000  0.72450000  1.0 0.1245505865
H  H21  1  0.84350000  0.09080000  0.58310000  1.0 0.1504696302
H  H22  1  0.15650000  0.90920000  0.41690000  1.0 0.1504696302
H  H23  1  0.69740000  0.14860000  0.59320000  1.0 0.1504696302
H  H24  1  0.30260000  0.85140000  0.40680000  1.0 0.1504696302
H  H25  1  0.53920000  0.06140000  0.61520000  1.0 0.1585644483
H  H26  1  0.46080000  0.93860000  0.38480000  1.0 0.1585644483
H  H27  1  0.53700000  0.97240000  0.73000000  1.0 0.1585644483
H  H28  1  0.46300000  0.02760000  0.27000000  1.0 0.1585644483
H  H29  1  0.72250000  0.86810000  0.78730000  1.0 0.1504696302
H  H30  1  0.27750000  0.13190000  0.21270000  1.0 0.1504696302
H  H31  1  0.75820000  0.98390000  0.76510000  1.0 0.1504696302
H  H32  1  0.24180000  0.01610000  0.23490000  1.0 0.1504696302
H  H33  1  0.05050000  0.70820000  0.55000000  1.0 0.1283270213
H  H34  1  0.94950000  0.29180000  0.45000000  1.0 0.1283270213
H  H35  1  0.15200000  0.59180000  0.45890000  1.0 0.1376149374
H  H36  1  0.84800000  0.40820000  0.54110000  1.0 0.1376149374
H  H37  1  0.85370000  0.69940000  0.31760000  1.0 0.1376149374
H  H38  1  0.14630000  0.30060000  0.68240000  1.0 0.1376149374
H  H39  1  0.76080000  0.81400000  0.41010000  1.0 0.1283270213
H  H40  1  0.23920000  0.18600000  0.58990000  1.0 0.1283270213
C  C1  1  0.55190000  0.29770000  0.97040000  1.0 -0.2966360917
C  C2  1  0.44810000  0.70230000  0.02960000  1.0 -0.2966360917
C  C3  1  0.54180000  0.24410000  0.08840000  1.0 0.612302346
C  C4  1  0.45820000  0.75590000  0.91160000  1.0 0.612302346
C  C5  1  0.35610000  0.25920000  0.95310000  1.0 -0.2912886411
C  C6  1  0.64390000  0.74080000  0.04690000  1.0 -0.2912886411
C  C7  1  0.20930000  0.28750000  0.98560000  1.0 0.5925362836
C  C8  1  0.79070000  0.71250000  0.01440000  1.0 0.5925362836
C  C9  1  0.42200000  0.44370000  0.84550000  1.0 -0.2912886411
C  C10  1  0.57800000  0.55630000  0.15450000  1.0 -0.2912886411
C  C11  1  0.38180000  0.55320000  0.86080000  1.0 0.599361075
C  C12  1  0.61820000  0.44680000  0.13920000  1.0 0.599361075
C  C13  1  0.11360000  0.53390000  0.15100000  1.0 0.1076331889
C  C14  1  0.88640000  0.46610000  0.84900000  1.0 0.1076331889
C  C15  1  0.04450000  0.59030000  0.21660000  1.0 -0.1705061366
C  C16  1  0.95550000  0.40970000  0.78340000  1.0 -0.1705061366
C  C17  1  0.08570000  0.56870000  0.30640000  1.0 0.0961262973
C  C18  1  0.91430000  0.43130000  0.69360000  1.0 0.0961262973
C  C19  1  0.19240000  0.48590000  0.32800000  1.0 -0.2020321418
C  C20  1  0.80760000  0.51410000  0.67200000  1.0 -0.2020321418
C  C21  1  0.25600000  0.43140000  0.25990000  1.0 0.0818978491
C  C22  1  0.74400000  0.56860000  0.74010000  1.0 0.0818978491
C  C23  1  0.76020000  0.09130000  0.57220000  1.0 -0.2812393327
C  C24  1  0.23980000  0.90870000  0.42780000  1.0 -0.2812393327
C  C25  1  0.77240000  0.11930000  0.45640000  1.0 0.612302346
C  C26  1  0.22760000  0.88070000  0.54360000  1.0 0.612302346
C  C27  1  0.57620000  0.98630000  0.65630000  1.0 -0.2912886411
C  C28  1  0.42380000  0.01370000  0.34370000  1.0 -0.2912886411
C  C29  1  0.54270000  0.90290000  0.62750000  1.0 0.6397809516
C  C30  1  0.45730000  0.09710000  0.37250000  1.0 0.6397809516
C  C31  1  0.76960000  0.92840000  0.73540000  1.0 -0.2966360917
C  C32  1  0.23040000  0.07160000  0.26460000  1.0 -0.2966360917
C  C33  1  0.91370000  0.88260000  0.70730000  1.0 0.6190279852
C  C34  1  0.08630000  0.11740000  0.29270000  1.0 0.6190279852
C  C35  1  0.01140000  0.70740000  0.50170000  1.0 0.0961262973
C  C36  1  0.98860000  0.29260000  0.49830000  1.0 0.0961262973
C  C37  1  0.07330000  0.63760000  0.44660000  1.0 -0.2020321418
C  C38  1  0.92670000  0.36240000  0.55340000  1.0 -0.2020321418
C  C39  1  0.01760000  0.63630000  0.37310000  1.0 0.1076331889
C  C40  1  0.98240000  0.36370000  0.62690000  1.0 0.1076331889
C  C41  1  0.89690000  0.70140000  0.36280000  1.0 -0.1705061366
C  C42  1  0.10310000  0.29860000  0.63720000  1.0 -0.1705061366
C  C43  1  0.84080000  0.76930000  0.41940000  1.0 0.1076331889
C  C44  1  0.15920000  0.23070000  0.58060000  1.0 0.1076331889
N  N1  1  0.42210000  0.34550000  0.94650000  1.0 0.0017967663
N  N2  1  0.57790000  0.65450000  0.05350000  1.0 0.0017967663
N  N3  1  0.21800000  0.45510000  0.17240000  1.0 -0.2251594831
N  N4  1  0.78200000  0.54490000  0.82760000  1.0 -0.2251594831
N  N5  1  0.71850000  0.98060000  0.63800000  1.0 0.0017967663
N  N6  1  0.28150000  0.01940000  0.36200000  1.0 0.0017967663
N  N7  1  0.89760000  0.77320000  0.48760000  1.0 -0.2196958234
N  N8  1  0.10240000  0.22680000  0.51240000  1.0 -0.2196958234
O  O1  1  0.63830000  0.18140000  0.12090000  1.0 -0.5369329323
O  O2  1  0.36170000  0.81860000  0.87910000  1.0 -0.5369329323
O  O3  1  0.43360000  0.26900000  0.14680000  1.0 -0.5369329323
O  O4  1  0.56640000  0.73100000  0.85320000  1.0 -0.5369329323
O  O5  1  0.14270000  0.24740000  0.95830000  1.0 -0.4938063194
O  O6  1  0.85730000  0.75260000  0.04170000  1.0 -0.4938063194
O  O7  1  0.16430000  0.34650000  0.04130000  1.0 -0.5203462114
O  O8  1  0.83570000  0.65350000  0.95870000  1.0 -0.5203462114
O  O9  1  0.38500000  0.64140000  0.78000000  1.0 -0.5693032612
O  O10  1  0.61500000  0.35860000  0.22000000  1.0 -0.5693032612
O  O11  1  0.34410000  0.55070000  0.95330000  1.0 -0.5323985983
O  O12  1  0.65590000  0.44930000  0.04670000  1.0 -0.5323985983
O  O13  1  0.75250000  0.21990000  0.39620000  1.0 -0.5693032612
O  O14  1  0.24750000  0.78010000  0.60380000  1.0 -0.5693032612
O  O15  1  0.80400000  0.03920000  0.42550000  1.0 -0.5814624598
O  O16  1  0.19600000  0.96080000  0.57450000  1.0 -0.5814624598
O  O17  1  0.42640000  0.89480000  0.64660000  1.0 -0.5693032612
O  O18  1  0.57360000  0.10520000  0.35340000  1.0 -0.5693032612
O  O19  1  0.63490000  0.84750000  0.58170000  1.0 -0.5203462114
O  O20  1  0.36510000  0.15250000  0.41830000  1.0 -0.5203462114
O  O21  1  0.98500000  0.87620000  0.76230000  1.0 -0.5130033364
O  O22  1  0.01500000  0.12380000  0.23770000  1.0 -0.5130033364
O  O23  1  0.95040000  0.85270000  0.62970000  1.0 -0.5323985983
O  O24  1  0.04960000  0.14730000  0.37030000  1.0 -0.5323985983
O  O25  1  0.84820000  0.98950000  0.21620000  1.0 -0.4986389746
O  O26  1  0.15180000  0.01050000  0.78380000  1.0 -0.4986389746
O  O27  1  0.89820000  0.21900000  0.04310000  1.0 -0.2664745172
O  O28  1  0.10180000  0.78100000  0.95690000  1.0 -0.2664745172
O  O29  1  0.89540000  0.35690000  0.16130000  1.0 -0.2020321418
O  O30  1  0.10460000  0.64310000  0.83870000  1.0 -0.2074519117
