# DDEC6 charges by PACMAN v1.1 (https://github.com/mtap-research/PACMAN-charge/)
data_QUSSOO_FSR_pacman
_symmetry_space_group_name_H-M   'P 1'
_cell_length_a   11.09200000
_cell_length_b   12.19900000
_cell_length_c   28.76700000
_cell_angle_alpha   97.64000000
_cell_angle_beta   92.01000000
_cell_angle_gamma   115.93600000
_symmetry_Int_Tables_number   1
_chemical_formula_structural   Zn5H55C73N4O23
_chemical_formula_sum   'Zn10 H110 C146 N8 O46'
_cell_volume   3450.35819295
_cell_formula_units_Z   2
loop_
 _symmetry_equiv_pos_site_id
 _symmetry_equiv_pos_as_xyz
  1  'x, y, z'
loop_
 _atom_site_type_symbol
 _atom_site_label
 _atom_site_symmetry_multiplicity
 _atom_site_fract_x
 _atom_site_fract_y
 _atom_site_fract_z
 _atom_site_occupancy
 _atom_site_charge
Zn  Zn1  1  0.68440000  0.68858000  0.83989000  1.0 0.9324319341
Zn  Zn2  1  0.31560000  0.31142000  0.16011000  1.0 0.9324319341
Zn  Zn3  1  0.74020000  0.43871000  0.82140000  1.0 0.9480956026
Zn  Zn4  1  0.25980000  0.56129000  0.17860000  1.0 0.9480956026
Zn  Zn5  1  0.99922000  0.71540000  0.83516000  1.0 0.9196565129
Zn  Zn6  1  0.00078000  0.28460000  0.16484000  1.0 0.9196565129
Zn  Zn7  1  0.29018000  0.09178000  0.59387000  1.0 0.8512774088
Zn  Zn8  1  0.70982000  0.90822000  0.40613000  1.0 0.8512774088
Zn  Zn9  1  0.58611000  0.30869000  0.64770000  1.0 0.9480956026
Zn  Zn10  1  0.41389000  0.69131000  0.35230000  1.0 0.9480956026
H  H1  1  0.21560000  0.98330000  0.84510000  1.0 0.1033754364
H  H2  1  0.78440000  0.01670000  0.15490000  1.0 0.1033754364
H  H3  1  0.44390000  0.09990000  0.85400000  1.0 0.1394023314
H  H4  1  0.55610000  0.90010000  0.14600000  1.0 0.1394023314
H  H5  1  0.48540000  0.80950000  0.88560000  1.0 0.1497238703
H  H6  1  0.51460000  0.19050000  0.11440000  1.0 0.1497238703
H  H7  1  0.25490000  0.69640000  0.87330000  1.0 0.1033754364
H  H8  1  0.74510000  0.30360000  0.12670000  1.0 0.1033754364
H  H9  1  0.63430000  0.12040000  0.81530000  1.0 0.1394023314
H  H10  1  0.36570000  0.87960000  0.18470000  1.0 0.1394023314
H  H11  1  0.86260000  0.23340000  0.81560000  1.0 0.1194517194
H  H12  1  0.13740000  0.76660000  0.18440000  1.0 0.1194517194
H  H13  1  0.69920000  0.98460000  0.92710000  1.0 0.1394023314
H  H14  1  0.30080000  0.01540000  0.07290000  1.0 0.1394023314
H  H15  1  0.92710000  0.10430000  0.92660000  1.0 0.1033754364
H  H16  1  0.07290000  0.89570000  0.07340000  1.0 0.1033754364
H  H17  1  0.09380000  0.38060000  0.92350000  1.0 0.1113523365
H  H18  1  0.90620000  0.61940000  0.07650000  1.0 0.1113523365
H  H19  1  0.31150000  0.50890000  0.90900000  1.0 0.1113523365
H  H20  1  0.68850000  0.49110000  0.09100000  1.0 0.1113523365
H  H21  1  0.30580000  0.23680000  0.81570000  1.0 0.1113523365
H  H22  1  0.69420000  0.76320000  0.18430000  1.0 0.1113523365
H  H23  1  0.07340000  0.12820000  0.81490000  1.0 0.1284519092
H  H24  1  0.92660000  0.87180000  0.18510000  1.0 0.1284519092
H  H25  1  0.07570000  0.82610000  0.57570000  1.0 0.1284519092
H  H26  1  0.92430000  0.17390000  0.42430000  1.0 0.1284519092
H  H27  1  0.84880000  0.71430000  0.58220000  1.0 0.1113523365
H  H28  1  0.15120000  0.28570000  0.41780000  1.0 0.1113523365
H  H29  1  0.80750000  0.02100000  0.57890000  1.0 0.1194517194
H  H30  1  0.19250000  0.97900000  0.42110000  1.0 0.1194517194
H  H31  1  0.03670000  0.12510000  0.57480000  1.0 0.1113523365
H  H32  1  0.96330000  0.87490000  0.42520000  1.0 0.1113523365
H  H33  1  0.67120000  0.67050000  0.63220000  1.0 0.1497238703
H  H34  1  0.32880000  0.32950000  0.36780000  1.0 0.1497238703
H  H35  1  0.44530000  0.56550000  0.64000000  1.0 0.1284519092
H  H36  1  0.55470000  0.43450000  0.36000000  1.0 0.1284519092
H  H37  1  0.36410000  0.76750000  0.56060000  1.0 0.1284519092
H  H38  1  0.63590000  0.23250000  0.43940000  1.0 0.1284519092
H  H39  1  0.58930000  0.87900000  0.55240000  1.0 0.1284519092
H  H40  1  0.41070000  0.12100000  0.44760000  1.0 0.1284519092
H  H41  1  0.22980000  0.42290000  0.59930000  1.0 0.1284519092
H  H42  1  0.77020000  0.57710000  0.40070000  1.0 0.1284519092
H  H43  1  0.00290000  0.32600000  0.61250000  1.0 0.1194517194
H  H44  1  0.99710000  0.67400000  0.38750000  1.0 0.1194517194
H  H45  1  0.99670000  0.65300000  0.63660000  1.0 0.1194517194
H  H46  1  0.00330000  0.34700000  0.36340000  1.0 0.1194517194
H  H47  1  0.22160000  0.74980000  0.62240000  1.0 0.1284519092
H  H48  1  0.77840000  0.25020000  0.37760000  1.0 0.1284519092
H  H49  1  0.45130000  0.79020000  0.75540000  1.0 0.1113523365
H  H50  1  0.54870000  0.20980000  0.24460000  1.0 0.1113523365
H  H51  1  0.33780000  0.85160000  0.70380000  1.0 0.1194517194
H  H52  1  0.66220000  0.14840000  0.29620000  1.0 0.1194517194
H  H53  1  0.69170000  0.09490000  0.66750000  1.0 0.1284519092
H  H54  1  0.30830000  0.90510000  0.33250000  1.0 0.1284519092
H  H55  1  0.80530000  0.02820000  0.71810000  1.0 0.1194517194
H  H56  1  0.19470000  0.97180000  0.28190000  1.0 0.1194517194
H  H57  1  0.07370000  0.19510000  0.68840000  1.0 0.1194517194
H  H58  1  0.92630000  0.80490000  0.31160000  1.0 0.1194517194
H  H59  1  0.94170000  0.26990000  0.72890000  1.0 0.1194517194
H  H60  1  0.05830000  0.73010000  0.27110000  1.0 0.1194517194
H  H61  1  0.26490000  0.59960000  0.76540000  1.0 0.1194517194
H  H62  1  0.73510000  0.40040000  0.23460000  1.0 0.1194517194
H  H63  1  0.39660000  0.52380000  0.72640000  1.0 0.1194517194
H  H64  1  0.60340000  0.47620000  0.27360000  1.0 0.1194517194
H  H65  1  0.67250000  0.46670000  0.53330000  1.0 0.1194517194
H  H66  1  0.32750000  0.53330000  0.46670000  1.0 0.1194517194
H  H67  1  0.72230000  0.62330000  0.48860000  1.0 0.1113523365
H  H68  1  0.27770000  0.37670000  0.51140000  1.0 0.1113523365
H  H69  1  0.11830000  0.68190000  0.97080000  1.0 0.1194517194
H  H70  1  0.88170000  0.31810000  0.02920000  1.0 0.1194517194
H  H71  1  0.19100000  0.65900000  0.04380000  1.0 0.1194517194
H  H72  1  0.80900000  0.34100000  0.95620000  1.0 0.1194517194
H  H73  1  0.14080000  0.99310000  0.94320000  1.0 0.1194517194
H  H74  1  0.85920000  0.00690000  0.05680000  1.0 0.1194517194
H  H75  1  0.23170000  0.12790000  0.01420000  1.0 0.1284519092
H  H76  1  0.76830000  0.87210000  0.98580000  1.0 0.1284519092
H  H77  1  0.49620000  0.18800000  0.73250000  1.0 0.1194517194
H  H78  1  0.50380000  0.81200000  0.26750000  1.0 0.1194517194
H  H79  1  0.77980000  0.59780000  0.77670000  1.0 0.393718002
H  H80  1  0.22020000  0.40220000  0.22330000  1.0 0.393718002
H  H81  1  0.42080000  0.00560000  0.52480000  1.0 0.335517285
H  H82  1  0.57920000  0.99440000  0.47520000  1.0 0.335517285
H  H83  1  0.98060000  0.78600000  0.71580000  1.0 0.0904066317
H  H84  1  0.01940000  0.21400000  0.28420000  1.0 0.0904066317
H  H85  1  0.12010000  0.79910000  0.73670000  1.0 0.0904066317
H  H86  1  0.87990000  0.20090000  0.26330000  1.0 0.0904066317
H  H87  1  0.06650000  0.00450000  0.73770000  1.0 0.1284519092
H  H88  1  0.93350000  0.99550000  0.26230000  1.0 0.1284519092
H  H89  1  0.14130000  0.96690000  0.69810000  1.0 0.1033754364
H  H90  1  0.85870000  0.03310000  0.30190000  1.0 0.1033754364
H  H91  1  0.20800000  0.01030000  0.75040000  1.0 0.1194517194
H  H92  1  0.79200000  0.98970000  0.24960000  1.0 0.1194517194
H  H93  1  0.95520000  0.87980000  0.78490000  1.0 0.3454234578
H  H94  1  0.04480000  0.12020000  0.21510000  1.0 0.3454234578
H  H95  1  0.85250000  0.83500000  0.65690000  1.0 0.1194517194
H  H96  1  0.14750000  0.16500000  0.34310000  1.0 0.1194517194
H  H97  1  0.02570000  0.03550000  0.53480000  1.0 0.078218212
H  H98  1  0.97430000  0.96450000  0.46520000  1.0 0.078218212
H  H99  1  0.80520000  0.92030000  0.53030000  1.0 0.1194517194
H  H100  1  0.19480000  0.07970000  0.46970000  1.0 0.1194517194
H  H101  1  0.33790000  0.23050000  0.86690000  1.0 0.1113523365
H  H102  1  0.66210000  0.76950000  0.13310000  1.0 0.1113523365
H  H103  1  0.10810000  0.11030000  0.87100000  1.0 0.1194517194
H  H104  1  0.89190000  0.88970000  0.12900000  1.0 0.1194517194
H  H105  1  0.27020000  0.52540000  0.86300000  1.0 0.1113523365
H  H106  1  0.72980000  0.47460000  0.13700000  1.0 0.1113523365
H  H107  1  0.04410000  0.40700000  0.86980000  1.0 0.1194517194
H  H108  1  0.95590000  0.59300000  0.13020000  1.0 0.1194517194
H  H109  1  0.08100000  0.96890000  0.65770000  1.0 0.078218212
H  H110  1  0.91900000  0.03110000  0.34230000  1.0 0.078218212
C  C1  1  0.27030000  0.94680000  0.85240000  1.0 0.078218212
C  C2  1  0.72970000  0.05320000  0.14760000  1.0 0.078218212
C  C3  1  0.40740000  0.01750000  0.85790000  1.0 -0.1961532257
C  C4  1  0.59260000  0.98250000  0.14210000  1.0 -0.1961532257
C  C5  1  0.49080000  0.96610000  0.86914000  1.0 0.1194517194
C  C6  1  0.50920000  0.03390000  0.13086000  1.0 0.1113523365
C  C7  1  0.43230000  0.84590000  0.87620000  1.0 -0.1816286049
C  C8  1  0.56770000  0.15410000  0.12380000  1.0 -0.1816286049
C  C9  1  0.29330000  0.77880000  0.86930000  1.0 0.0904066317
C  C10  1  0.70670000  0.22120000  0.13070000  1.0 0.0904066317
C  C11  1  0.63930000  0.03990000  0.87087000  1.0 0.1113523365
C  C12  1  0.36070000  0.96010000  0.12913000  1.0 0.1113523365
C  C13  1  0.69220000  0.11500000  0.83808000  1.0 -0.1816286049
C  C14  1  0.30780000  0.88500000  0.16192000  1.0 -0.1816286049
C  C15  1  0.82890000  0.18250000  0.83806000  1.0 0.0675704867
C  C16  1  0.17110000  0.81750000  0.16194000  1.0 0.0675704867
C  C17  1  0.73050000  0.03520000  0.90440000  1.0 -0.1879572443
C  C18  1  0.26950000  0.96480000  0.09560000  1.0 -0.1879572443
C  C19  1  0.86660000  0.10530000  0.90370000  1.0 0.0251658928
C  C20  1  0.13340000  0.89470000  0.09630000  1.0 0.0247713045
C  C21  1  0.05760000  0.24730000  0.86818000  1.0 0.0627591811
C  C22  1  0.94240000  0.75270000  0.13182000  1.0 0.0627591811
C  C23  1  0.13210000  0.35630000  0.89840000  1.0 -0.0597285424
C  C24  1  0.86790000  0.64370000  0.10160000  1.0 -0.0597285424
C  C25  1  0.26510000  0.43020000  0.89140000  1.0 -0.0597285424
C  C26  1  0.73490000  0.56980000  0.10860000  1.0 -0.0597285424
C  C27  1  0.32520000  0.38980000  0.86030000  1.0 -0.0174539939
C  C28  1  0.67480000  0.61020000  0.13970000  1.0 -0.0174539939
C  C29  1  0.25830000  0.27000000  0.83390000  1.0 -0.0597285424
C  C30  1  0.74170000  0.73000000  0.16610000  1.0 -0.0597285424
C  C31  1  0.12190000  0.20240000  0.83530000  1.0 -0.0696134006
C  C32  1  0.87810000  0.79760000  0.16470000  1.0 -0.0696134006
C  C33  1  0.47220000  0.47040000  0.85300000  1.0 0.5404909827
C  C34  1  0.52780000  0.52960000  0.14700000  1.0 0.5404909827
C  C35  1  0.02220000  0.86700000  0.58020000  1.0 -0.0174539939
C  C36  1  0.97780000  0.13300000  0.41980000  1.0 -0.0174539939
C  C37  1  0.88540000  0.79940000  0.58320000  1.0 -0.1038551501
C  C38  1  0.11460000  0.20060000  0.41680000  1.0 -0.1038551501
C  C39  1  0.80270000  0.85840000  0.58768000  1.0 0.0627591811
C  C40  1  0.19730000  0.14160000  0.41232000  1.0 0.0627591811
C  C41  1  0.86090000  0.98040000  0.58160000  1.0 -0.0823944084
C  C42  1  0.13910000  0.01960000  0.41840000  1.0 -0.0823944084
C  C43  1  0.99970000  0.04330000  0.57950000  1.0 -0.0174539939
C  C44  1  0.00030000  0.95670000  0.42050000  1.0 -0.0174539939
C  C45  1  0.65590000  0.78770000  0.59146000  1.0 0.0904066317
C  C46  1  0.34410000  0.21230000  0.40854000  1.0 0.0904066317
C  C47  1  0.61020000  0.69190000  0.61773000  1.0 -0.1816286049
C  C48  1  0.38980000  0.30810000  0.38227000  1.0 -0.1816286049
C  C49  1  0.47510000  0.62910000  0.62230000  1.0 0.0396009606
C  C50  1  0.52490000  0.37090000  0.37770000  1.0 0.0396009606
C  C51  1  0.42720000  0.74910000  0.57544000  1.0 0.0396009606
C  C52  1  0.57280000  0.25090000  0.42456000  1.0 0.0396009606
C  C53  1  0.56200000  0.81550000  0.57025000  1.0 -0.1816286049
C  C54  1  0.43800000  0.18450000  0.42975000  1.0 -0.1816286049
C  C55  1  0.24310000  0.59490000  0.60909000  1.0 0.1394023314
C  C56  1  0.75690000  0.40510000  0.39091000  1.0 0.1394023314
C  C57  1  0.18240000  0.46870000  0.60638000  1.0 -0.1816286049
C  C58  1  0.81760000  0.53130000  0.39362000  1.0 -0.1816286049
C  C59  1  0.04720000  0.41140000  0.61465000  1.0 -0.0894333035
C  C60  1  0.95280000  0.58860000  0.38535000  1.0 -0.0894333035
C  C61  1  0.97900000  0.48050000  0.62598000  1.0 0.0013009535
C  C62  1  0.02100000  0.51950000  0.37402000  1.0 0.0013009535
C  C63  1  0.04300000  0.60650000  0.62889000  1.0 -0.0894333035
C  C64  1  0.95700000  0.39350000  0.37111000  1.0 -0.0894333035
C  C65  1  0.17730000  0.66440000  0.62036000  1.0 -0.1748061947
C  C66  1  0.82270000  0.33560000  0.37964000  1.0 -0.1748061947
C  C67  1  0.83140000  0.41720000  0.63500000  1.0 0.5487366595
C  C68  1  0.16860000  0.58280000  0.36500000  1.0 0.5487366595
C  C69  1  0.71270000  0.86670000  0.77728000  1.0 0.5701130209
C  C70  1  0.28730000  0.13330000  0.22272000  1.0 0.5701130209
C  C71  1  0.63950000  0.90470000  0.74258000  1.0 -0.0290213307
C  C72  1  0.36050000  0.09530000  0.25742000  1.0 -0.0290213307
C  C73  1  0.49950000  0.85100000  0.73782000  1.0 -0.1225755236
C  C74  1  0.50050000  0.14900000  0.26218000  1.0 -0.1225755236
C  C75  1  0.43150000  0.88790000  0.70691000  1.0 -0.1392721183
C  C76  1  0.56850000  0.11210000  0.29309000  1.0 -0.1392721183
C  C77  1  0.50300000  0.97950000  0.68027000  1.0 -0.0396665208
C  C78  1  0.49700000  0.02050000  0.31973000  1.0 -0.0396665208
C  C79  1  0.64350000  0.03340000  0.68479000  1.0 -0.1392721183
C  C80  1  0.35650000  0.96660000  0.31521000  1.0 -0.1392721183
C  C81  1  0.71180000  0.99430000  0.71564000  1.0 -0.1225755236
C  C82  1  0.28820000  0.00570000  0.28436000  1.0 -0.1225755236
C  C83  1  0.42660000  0.02050000  0.64818000  1.0 0.5487366595
C  C84  1  0.57340000  0.97950000  0.35182000  1.0 0.5487366595
C  C85  1  0.33100000  0.30200000  0.67358000  1.0 0.5639735438
C  C86  1  0.66900000  0.69800000  0.32642000  1.0 0.5639735438
C  C87  1  0.24920000  0.35190000  0.70183000  1.0 -0.0396665208
C  C88  1  0.75080000  0.64810000  0.29817000  1.0 -0.0396665208
C  C89  1  0.11230000  0.27650000  0.70376000  1.0 -0.1296108834
C  C90  1  0.88770000  0.72350000  0.29624000  1.0 -0.1296108834
C  C91  1  0.03280000  0.32100000  0.72820000  1.0 -0.1225755236
C  C92  1  0.96720000  0.67900000  0.27180000  1.0 -0.1225755236
C  C93  1  0.09050000  0.44260000  0.75163000  1.0 -0.0290213307
C  C94  1  0.90950000  0.55740000  0.24837000  1.0 -0.0290213307
C  C95  1  0.22650000  0.51800000  0.75020000  1.0 -0.1225755236
C  C96  1  0.77350000  0.48200000  0.24980000  1.0 -0.1225755236
C  C97  1  0.30500000  0.47300000  0.72630000  1.0 -0.1115219019
C  C98  1  0.69500000  0.52700000  0.27370000  1.0 -0.1115219019
C  C99  1  0.00510000  0.49190000  0.77873000  1.0 0.5790404655
C  C100  1  0.99490000  0.50810000  0.22127000  1.0 0.5790404655
C  C101  1  0.44140000  0.31020000  0.55788000  1.0 0.5639735438
C  C102  1  0.55860000  0.68980000  0.44212000  1.0 0.5639735438
C  C103  1  0.46960000  0.40790000  0.52741000  1.0 -0.0290213307
C  C104  1  0.53040000  0.59210000  0.47259000  1.0 -0.0290213307
C  C105  1  0.60370000  0.48050000  0.52013000  1.0 -0.1225755236
C  C106  1  0.39630000  0.51950000  0.47987000  1.0 -0.1225755236
C  C107  1  0.63330000  0.57350000  0.49304000  1.0 -0.1392721183
C  C108  1  0.36670000  0.42650000  0.50696000  1.0 -0.1392721183
C  C109  1  0.91260000  0.52740000  0.90751000  1.0 0.5701130209
C  C110  1  0.08740000  0.47260000  0.09249000  1.0 0.5701130209
C  C111  1  0.95780000  0.51420000  0.95581000  1.0 -0.0290213307
C  C112  1  0.04220000  0.48580000  0.04419000  1.0 -0.0290213307
C  C113  1  0.07090000  0.60880000  0.98242000  1.0 -0.1296108834
C  C114  1  0.92910000  0.39120000  0.01758000  1.0 -0.1296108834
C  C115  1  0.11440000  0.59550000  0.02636000  1.0 -0.1392721183
C  C116  1  0.88560000  0.40450000  0.97364000  1.0 -0.1392721183
C  C117  1  0.88910000  0.84190000  0.90988000  1.0 0.5701130209
C  C118  1  0.11090000  0.15810000  0.09012000  1.0 0.5701130209
C  C119  1  0.94650000  0.92050000  0.95744000  1.0 -0.0290213307
C  C120  1  0.05350000  0.07950000  0.04256000  1.0 -0.0290213307
C  C121  1  0.08460000  0.99630000  0.96609000  1.0 -0.1392721183
C  C122  1  0.91540000  0.00370000  0.03391000  1.0 -0.1392721183
C  C123  1  0.13950000  0.07680000  0.00852000  1.0 -0.1296108834
C  C124  1  0.86050000  0.92320000  0.99148000  1.0 -0.1296108834
C  C125  1  0.57120000  0.26050000  0.74579000  1.0 0.4675624945
C  C126  1  0.42880000  0.73950000  0.25421000  1.0 0.4675624945
C  C127  1  0.05710000  0.83470000  0.73930000  1.0 0.078218212
C  C128  1  0.94290000  0.16530000  0.26070000  1.0 0.078218212
C  C129  1  0.12430000  0.96590000  0.73060000  1.0 -0.4601180426
C  C130  1  0.87570000  0.03410000  0.26940000  1.0 -0.4601180426
C  C131  1  0.02250000  0.94590000  0.63030000  1.0 -0.0597285424
C  C132  1  0.97750000  0.05410000  0.36970000  1.0 -0.0597285424
C  C133  1  0.88780000  0.87270000  0.63120000  1.0 -0.1598225556
C  C134  1  0.11220000  0.12730000  0.36880000  1.0 -0.1598225556
C  C135  1  0.99600000  0.98600000  0.55800000  1.0 0.0396009606
C  C136  1  0.00400000  0.01400000  0.44200000  1.0 0.0396009606
C  C137  1  0.85870000  0.92000000  0.55590000  1.0 -0.0597285424
C  C138  1  0.14130000  0.08000000  0.44410000  1.0 -0.0597285424
C  C139  1  0.27820000  0.26500000  0.86550000  1.0 -0.0597285424
C  C140  1  0.72180000  0.73500000  0.13450000  1.0 -0.0597285424
C  C141  1  0.14120000  0.19360000  0.86860000  1.0 -0.0696134006
C  C142  1  0.85880000  0.80640000  0.13140000  1.0 -0.0696134006
C  C143  1  0.23800000  0.44120000  0.86350000  1.0 -0.0597285424
C  C144  1  0.76200000  0.55880000  0.13650000  1.0 -0.0597285424
C  C145  1  0.10290000  0.37110000  0.86760000  1.0 -0.0696134006
C  C146  1  0.89710000  0.62890000  0.13240000  1.0 -0.0696134006
N  N1  1  0.91270000  0.17520000  0.86995000  1.0 -0.0597285424
N  N2  1  0.08730000  0.82480000  0.13005000  1.0 -0.0546669684
N  N3  1  0.21180000  0.82720000  0.85720000  1.0 -0.213919165
N  N4  1  0.78820000  0.17280000  0.14280000  1.0 -0.213919165
N  N5  1  0.07910000  0.99120000  0.58377000  1.0 0.0396009606
N  N6  1  0.92090000  0.00880000  0.41623000  1.0 0.0396009606
N  N7  1  0.38580000  0.65850000  0.60148000  1.0 0.0538719964
N  N8  1  0.61420000  0.34150000  0.39852000  1.0 0.0538719964
O  O1  1  0.50240000  0.57680000  0.85013000  1.0 -0.475171762
O  O2  1  0.49760000  0.42320000  0.14987000  1.0 -0.475171762
O  O3  1  0.55420000  0.42580000  0.85610000  1.0 -0.5093275182
O  O4  1  0.44580000  0.57420000  0.14390000  1.0 -0.5093275182
O  O5  1  0.77300000  0.48370000  0.64578000  1.0 -0.5501235745
O  O6  1  0.22700000  0.51630000  0.35422000  1.0 -0.5501235745
O  O7  1  0.77360000  0.30190000  0.63055000  1.0 -0.538302841
O  O8  1  0.22640000  0.69810000  0.36945000  1.0 -0.538302841
O  O9  1  0.63810000  0.78110000  0.79881000  1.0 -0.5840657971
O  O10  1  0.36190000  0.21890000  0.20119000  1.0 -0.5840657971
O  O11  1  0.83780000  0.92330000  0.78410000  1.0 -0.5501235745
O  O12  1  0.16220000  0.07670000  0.21590000  1.0 -0.5501235745
O  O13  1  0.30310000  0.95640000  0.63769000  1.0 -0.5197080992
O  O14  1  0.69690000  0.04360000  0.36231000  1.0 -0.5197080992
O  O15  1  0.48830000  0.11880000  0.63173000  1.0 -0.5501235745
O  O16  1  0.51170000  0.88120000  0.36827000  1.0 -0.5501235745
O  O17  1  0.27520000  0.18890000  0.65713000  1.0 -0.5603249244
O  O18  1  0.72480000  0.81110000  0.34287000  1.0 -0.5603249244
O  O19  1  0.44930000  0.37740000  0.66720000  1.0 -0.5681914262
O  O20  1  0.55070000  0.62260000  0.33280000  1.0 -0.5681914262
O  O21  1  0.89360000  0.41480000  0.78894000  1.0 -0.5681914262
O  O22  1  0.10640000  0.58520000  0.21106000  1.0 -0.5681914262
O  O23  1  0.05410000  0.60710000  0.78973000  1.0 -0.5501235745
O  O24  1  0.94590000  0.39290000  0.21027000  1.0 -0.5501235745
O  O25  1  0.32020000  0.23840000  0.56086000  1.0 -0.5603249244
O  O26  1  0.67980000  0.76160000  0.43914000  1.0 -0.5603249244
O  O27  1  0.54200000  0.30630000  0.57820000  1.0 -0.5501235745
O  O28  1  0.45800000  0.69370000  0.42180000  1.0 -0.5501235745
O  O29  1  0.80900000  0.43780000  0.88542000  1.0 -0.538302841
O  O30  1  0.19100000  0.56220000  0.11458000  1.0 -0.538302841
O  O31  1  0.98310000  0.62520000  0.89280000  1.0 -0.5681914262
O  O32  1  0.01690000  0.37480000  0.10720000  1.0 -0.5681914262
O  O33  1  0.76280000  0.77210000  0.90397000  1.0 -0.5501235745
O  O34  1  0.23720000  0.22790000  0.09603000  1.0 -0.5501235745
O  O35  1  0.96690000  0.85150000  0.87844000  1.0 -0.5681914262
O  O36  1  0.03310000  0.14850000  0.12156000  1.0 -0.5681914262
O  O37  1  0.79030000  0.60980000  0.81060000  1.0 -0.8682703398
O  O38  1  0.20970000  0.39020000  0.18940000  1.0 -0.8682703398
O  O39  1  0.63280000  0.32820000  0.71913000  1.0 -0.4530645929
O  O40  1  0.36720000  0.67180000  0.28087000  1.0 -0.4530645929
O  O41  1  0.59820000  0.27810000  0.78978000  1.0 -0.4951764069
O  O42  1  0.40180000  0.72190000  0.21022000  1.0 -0.4951764069
O  O43  1  0.32320000  0.99830000  0.53583000  1.0 -0.8539646886
O  O44  1  0.67680000  0.00170000  0.46417000  1.0 -0.8556312941
O  O45  1  0.01310000  0.83260000  0.78531000  1.0 -0.5093275182
O  O46  1  0.98690000  0.16740000  0.21469000  1.0 -0.5093275182
