# DDEC6 charges by PACMAN v1.1 (https://github.com/mtap-research/PACMAN-charge/)
data_QUTDAM_ASR_pacman
_symmetry_space_group_name_H-M   'P 1'
_cell_length_a   16.71450000
_cell_length_b   16.71450000
_cell_length_c   16.71450000
_cell_angle_alpha   68.06420000
_cell_angle_beta   68.06420000
_cell_angle_gamma   68.06420000
_symmetry_Int_Tables_number   1
_chemical_formula_structural   CuH7C11(NO2)2
_chemical_formula_sum   'Cu6 H42 C66 N12 O24'
_cell_volume   3866.49724674
_cell_formula_units_Z   6
loop_
 _symmetry_equiv_pos_site_id
 _symmetry_equiv_pos_as_xyz
  1  'x, y, z'
loop_
 _atom_site_type_symbol
 _atom_site_label
 _atom_site_symmetry_multiplicity
 _atom_site_fract_x
 _atom_site_fract_y
 _atom_site_fract_z
 _atom_site_occupancy
 _atom_site_charge
Cu  Cu1  1  0.50514000  0.50514000  0.07544000  1.0 0.8500484394
Cu  Cu2  1  0.50514000  0.07544000  0.50514000  1.0 0.8500484394
Cu  Cu3  1  0.07544000  0.50514000  0.50514000  1.0 0.8500484394
Cu  Cu4  1  0.49486000  0.49486000  0.92456000  1.0 0.8500484394
Cu  Cu5  1  0.92456000  0.49486000  0.49486000  1.0 0.8500484394
Cu  Cu6  1  0.49486000  0.92456000  0.49486000  1.0 0.8500484394
H  H1  1  0.52790000  0.22950000  0.22950000  1.0 0.1368644503
H  H2  1  0.22950000  0.22950000  0.52790000  1.0 0.1368644503
H  H3  1  0.22950000  0.52790000  0.22950000  1.0 0.1368644503
H  H4  1  0.77050000  0.47210000  0.77050000  1.0 0.1368644503
H  H5  1  0.77050000  0.77050000  0.47210000  1.0 0.1368644503
H  H6  1  0.47210000  0.77050000  0.77050000  1.0 0.1368644503
H  H7  1  0.51780000  0.21370000  0.99950000  1.0 0.1067099837
H  H8  1  0.21370000  0.99950000  0.51780000  1.0 0.1067099837
H  H9  1  0.99950000  0.51780000  0.21370000  1.0 0.1067099837
H  H10  1  0.78630000  0.48220000  0.00050000  1.0 0.1067099837
H  H11  1  0.00050000  0.78630000  0.48220000  1.0 0.1067099837
H  H12  1  0.48220000  0.00050000  0.78630000  1.0 0.1067099837
H  H13  1  0.48220000  0.78630000  0.00050000  1.0 0.1067099837
H  H14  1  0.78630000  0.00050000  0.48220000  1.0 0.1067099837
H  H15  1  0.00050000  0.48220000  0.78630000  1.0 0.1067099837
H  H16  1  0.21370000  0.51780000  0.99950000  1.0 0.1067099837
H  H17  1  0.99950000  0.21370000  0.51780000  1.0 0.1067099837
H  H18  1  0.51780000  0.99950000  0.21370000  1.0 0.1067099837
H  H19  1  0.59060000  0.09250000  0.91890000  1.0 0.0867465758
H  H20  1  0.09250000  0.91890000  0.59060000  1.0 0.0867465758
H  H21  1  0.91890000  0.59060000  0.09250000  1.0 0.0867465758
H  H22  1  0.90750000  0.40940000  0.08110000  1.0 0.0834729192
H  H23  1  0.08110000  0.90750000  0.40940000  1.0 0.0867465758
H  H24  1  0.40940000  0.08110000  0.90750000  1.0 0.0867465758
H  H25  1  0.40940000  0.90750000  0.08110000  1.0 0.0867465758
H  H26  1  0.90750000  0.08110000  0.40940000  1.0 0.0867465758
H  H27  1  0.08110000  0.40940000  0.90750000  1.0 0.0867465758
H  H28  1  0.09250000  0.59060000  0.91890000  1.0 0.0867465758
H  H29  1  0.91890000  0.09250000  0.59060000  1.0 0.0867465758
H  H30  1  0.59060000  0.91890000  0.09250000  1.0 0.0867465758
H  H31  1  0.42140000  0.14700000  0.97150000  1.0 0.2069130818
H  H32  1  0.14700000  0.97150000  0.42140000  1.0 0.2069130818
H  H33  1  0.97150000  0.42140000  0.14700000  1.0 0.2069130818
H  H34  1  0.85300000  0.57860000  0.02850000  1.0 0.2069130818
H  H35  1  0.02850000  0.85300000  0.57860000  1.0 0.2069130818
H  H36  1  0.57860000  0.02850000  0.85300000  1.0 0.2069130818
H  H37  1  0.57860000  0.85300000  0.02850000  1.0 0.2069130818
H  H38  1  0.85300000  0.02850000  0.57860000  1.0 0.2069130818
H  H39  1  0.02850000  0.57860000  0.85300000  1.0 0.2069130818
H  H40  1  0.14700000  0.42140000  0.97150000  1.0 0.2069130818
H  H41  1  0.97150000  0.14700000  0.42140000  1.0 0.2069130818
H  H42  1  0.42140000  0.97150000  0.14700000  1.0 0.2069130818
C  C1  1  0.52502000  0.19671000  0.19671000  1.0 -0.1242355364
C  C2  1  0.19671000  0.19671000  0.52502000  1.0 -0.1242355364
C  C3  1  0.19671000  0.52502000  0.19671000  1.0 -0.1242355364
C  C4  1  0.80329000  0.47498000  0.80329000  1.0 -0.1242355364
C  C5  1  0.80329000  0.80329000  0.47498000  1.0 -0.1253748569
C  C6  1  0.47498000  0.80329000  0.80329000  1.0 -0.1253748569
C  C7  1  0.51944000  0.33392000  0.06637000  1.0 0.5778011598
C  C8  1  0.33392000  0.06637000  0.51944000  1.0 0.5778011598
C  C9  1  0.06637000  0.51944000  0.33392000  1.0 0.5778011598
C  C10  1  0.66608000  0.48056000  0.93363000  1.0 0.5778011598
C  C11  1  0.93363000  0.66608000  0.48056000  1.0 0.5778011598
C  C12  1  0.48056000  0.93363000  0.66608000  1.0 0.5778011598
C  C13  1  0.48056000  0.66608000  0.93363000  1.0 0.5778011598
C  C14  1  0.66608000  0.93363000  0.48056000  1.0 0.5778011598
C  C15  1  0.93363000  0.48056000  0.66608000  1.0 0.5778011598
C  C16  1  0.33392000  0.51944000  0.06637000  1.0 0.5778011598
C  C17  1  0.06637000  0.33392000  0.51944000  1.0 0.5778011598
C  C18  1  0.51944000  0.06637000  0.33392000  1.0 0.5778011598
C  C19  1  0.52286000  0.23670000  0.10794000  1.0 -0.0239534759
C  C20  1  0.23670000  0.10794000  0.52286000  1.0 -0.0239534759
C  C21  1  0.10794000  0.52286000  0.23670000  1.0 -0.0239534759
C  C22  1  0.76330000  0.47714000  0.89206000  1.0 -0.0239534759
C  C23  1  0.89206000  0.76330000  0.47714000  1.0 -0.0251114587
C  C24  1  0.47714000  0.89206000  0.76330000  1.0 -0.0251114587
C  C25  1  0.47714000  0.76330000  0.89206000  1.0 -0.0239534759
C  C26  1  0.76330000  0.89206000  0.47714000  1.0 -0.0251114587
C  C27  1  0.89206000  0.47714000  0.76330000  1.0 -0.0239534759
C  C28  1  0.23670000  0.52286000  0.10794000  1.0 -0.0239534759
C  C29  1  0.10794000  0.23670000  0.52286000  1.0 -0.0239534759
C  C30  1  0.52286000  0.10794000  0.23670000  1.0 -0.0239534759
C  C31  1  0.51591000  0.09850000  0.09850000  1.0 -0.0462427656
C  C32  1  0.09850000  0.09850000  0.51591000  1.0 -0.0462427656
C  C33  1  0.09850000  0.51591000  0.09850000  1.0 -0.0462427656
C  C34  1  0.90150000  0.48409000  0.90150000  1.0 -0.0462427656
C  C35  1  0.90150000  0.90150000  0.48409000  1.0 -0.0393964299
C  C36  1  0.48409000  0.90150000  0.90150000  1.0 -0.0393964299
C  C37  1  0.51871000  0.18707000  0.05909000  1.0 -0.1785111969
C  C38  1  0.18707000  0.05909000  0.51871000  1.0 -0.1785111969
C  C39  1  0.05909000  0.51871000  0.18707000  1.0 -0.1785111969
C  C40  1  0.81293000  0.48129000  0.94091000  1.0 -0.1785111969
C  C41  1  0.94091000  0.81293000  0.48129000  1.0 -0.1785111969
C  C42  1  0.48129000  0.94091000  0.81293000  1.0 -0.1785111969
C  C43  1  0.48129000  0.81293000  0.94091000  1.0 -0.1785111969
C  C44  1  0.81293000  0.94091000  0.48129000  1.0 -0.1785111969
C  C45  1  0.94091000  0.48129000  0.81293000  1.0 -0.1785111969
C  C46  1  0.18707000  0.51871000  0.05909000  1.0 -0.1785111969
C  C47  1  0.05909000  0.18707000  0.51871000  1.0 -0.1785111969
C  C48  1  0.51871000  0.05909000  0.18707000  1.0 -0.1785111969
C  C49  1  0.50785000  0.04718000  0.04718000  1.0 0.0867465758
C  C50  1  0.04718000  0.04718000  0.50785000  1.0 0.0834729192
C  C51  1  0.04718000  0.50785000  0.04718000  1.0 0.0834729192
C  C52  1  0.95282000  0.49215000  0.95282000  1.0 0.0834729192
C  C53  1  0.95282000  0.95282000  0.49215000  1.0 0.0834729192
C  C54  1  0.49215000  0.95282000  0.95282000  1.0 0.0834729192
C  C55  1  0.54475000  0.06325000  0.95815000  1.0 -0.0084604674
C  C56  1  0.06325000  0.95815000  0.54475000  1.0 -0.0084604674
C  C57  1  0.95815000  0.54475000  0.06325000  1.0 -0.0033602775
C  C58  1  0.93675000  0.45525000  0.04185000  1.0 0.000569724
C  C59  1  0.04185000  0.93675000  0.45525000  1.0 -0.0033602775
C  C60  1  0.45525000  0.04185000  0.93675000  1.0 -0.0084604674
C  C61  1  0.45525000  0.93675000  0.04185000  1.0 0.000569724
C  C62  1  0.93675000  0.04185000  0.45525000  1.0 -0.0084604674
C  C63  1  0.04185000  0.45525000  0.93675000  1.0 -0.0084604674
C  C64  1  0.06325000  0.54475000  0.95815000  1.0 -0.0084604674
C  C65  1  0.95815000  0.06325000  0.54475000  1.0 -0.0084604674
C  C66  1  0.54475000  0.95815000  0.06325000  1.0 0.000569724
N  N1  1  0.46435000  0.08955000  0.98255000  1.0 -0.1613143268
N  N2  1  0.08955000  0.98255000  0.46435000  1.0 -0.1613143268
N  N3  1  0.98255000  0.46435000  0.08955000  1.0 -0.1654438509
N  N4  1  0.91045000  0.53565000  0.01745000  1.0 -0.1506821397
N  N5  1  0.01745000  0.91045000  0.53565000  1.0 -0.1613143268
N  N6  1  0.53565000  0.01745000  0.91045000  1.0 -0.1613143268
N  N7  1  0.53565000  0.91045000  0.01745000  1.0 -0.1654438509
N  N8  1  0.91045000  0.01745000  0.53565000  1.0 -0.1613143268
N  N9  1  0.01745000  0.53565000  0.91045000  1.0 -0.1613143268
N  N10  1  0.08955000  0.46435000  0.98255000  1.0 -0.1506821397
N  N11  1  0.98255000  0.08955000  0.46435000  1.0 -0.1613143268
N  N12  1  0.46435000  0.98255000  0.08955000  1.0 -0.1654438509
O  O1  1  0.52154000  0.37551000  0.11421000  1.0 -0.5305250916
O  O2  1  0.37551000  0.11421000  0.52154000  1.0 -0.5243453267
O  O3  1  0.11421000  0.52154000  0.37551000  1.0 -0.5243453267
O  O4  1  0.62449000  0.47846000  0.88579000  1.0 -0.5305250916
O  O5  1  0.88579000  0.62449000  0.47846000  1.0 -0.5243453267
O  O6  1  0.47846000  0.88579000  0.62449000  1.0 -0.5243453267
O  O7  1  0.47846000  0.62449000  0.88579000  1.0 -0.5305250916
O  O8  1  0.62449000  0.88579000  0.47846000  1.0 -0.5243453267
O  O9  1  0.88579000  0.47846000  0.62449000  1.0 -0.5305250916
O  O10  1  0.37551000  0.52154000  0.11421000  1.0 -0.5243453267
O  O11  1  0.11421000  0.37551000  0.52154000  1.0 -0.5243453267
O  O12  1  0.52154000  0.11421000  0.37551000  1.0 -0.5243453267
O  O13  1  0.51373000  0.36654000  0.98729000  1.0 -0.5305250916
O  O14  1  0.36654000  0.98729000  0.51373000  1.0 -0.5357205677
O  O15  1  0.98729000  0.51373000  0.36654000  1.0 -0.5305250916
O  O16  1  0.63346000  0.48627000  0.01271000  1.0 -0.5357205677
O  O17  1  0.01271000  0.63346000  0.48627000  1.0 -0.5357205677
O  O18  1  0.48627000  0.01271000  0.63346000  1.0 -0.5357205677
O  O19  1  0.48627000  0.63346000  0.01271000  1.0 -0.5357205677
O  O20  1  0.63346000  0.01271000  0.48627000  1.0 -0.5305250916
O  O21  1  0.01271000  0.48627000  0.63346000  1.0 -0.5357205677
O  O22  1  0.36654000  0.51373000  0.98729000  1.0 -0.5357205677
O  O23  1  0.98729000  0.36654000  0.51373000  1.0 -0.5305250916
O  O24  1  0.51373000  0.98729000  0.36654000  1.0 -0.5357205677
