# DDEC6 charges by PACMAN v1.1 (https://github.com/mtap-research/PACMAN-charge/)
data_QUTTII_FSR_pacman
_symmetry_space_group_name_H-M   'P 1'
_cell_length_a   7.45200000
_cell_length_b   16.47200000
_cell_length_c   15.73530000
_cell_angle_alpha   90.00000000
_cell_angle_beta   112.66800000
_cell_angle_gamma   90.00000000
_symmetry_Int_Tables_number   1
_chemical_formula_structural   Co5H14(C10O11)2
_chemical_formula_sum   'Co10 H28 C40 O44'
_cell_volume   1782.29626544
_cell_formula_units_Z   2
loop_
 _symmetry_equiv_pos_site_id
 _symmetry_equiv_pos_as_xyz
  1  'x, y, z'
loop_
 _atom_site_type_symbol
 _atom_site_label
 _atom_site_symmetry_multiplicity
 _atom_site_fract_x
 _atom_site_fract_y
 _atom_site_fract_z
 _atom_site_occupancy
 _atom_site_charge
Co  Co1  1  0.00000000  0.50000000  0.50000000  1.0 1.062840154
Co  Co2  1  0.00000000  0.00000000  0.00000000  1.0 1.062840154
Co  Co3  1  0.46711000  0.51353000  0.67611000  1.0 1.0429398519
Co  Co4  1  0.53289000  0.01353000  0.82389000  1.0 1.0429398519
Co  Co5  1  0.53289000  0.48647000  0.32389000  1.0 1.0429398519
Co  Co6  1  0.46711000  0.98647000  0.17611000  1.0 1.0429398519
Co  Co7  1  0.28380000  0.62784000  0.47251000  1.0 1.062840154
Co  Co8  1  0.71620000  0.12784000  0.02749000  1.0 1.062840154
Co  Co9  1  0.71620000  0.37216000  0.52749000  1.0 1.062840154
Co  Co10  1  0.28380000  0.87216000  0.97251000  1.0 1.062840154
H  H1  1  0.65320000  0.52410000  0.49020000  1.0 0.3960962695
H  H2  1  0.34680000  0.02410000  0.00980000  1.0 0.3960962695
H  H3  1  0.34680000  0.47590000  0.50980000  1.0 0.3960962695
H  H4  1  0.65320000  0.97590000  0.99020000  1.0 0.3960962695
H  H5  1  0.35500000  0.80250000  0.44310000  1.0 0.4124702094
H  H6  1  0.64500000  0.30250000  0.05690000  1.0 0.4124702094
H  H7  1  0.64500000  0.19750000  0.55690000  1.0 0.4124702094
H  H8  1  0.35500000  0.69750000  0.94310000  1.0 0.4124702094
H  H9  1  0.15150000  0.76820000  0.39570000  1.0 0.3888010335
H  H10  1  0.84850000  0.26820000  0.10430000  1.0 0.3888010335
H  H11  1  0.84850000  0.23180000  0.60430000  1.0 0.3888010335
H  H12  1  0.15150000  0.73180000  0.89570000  1.0 0.3888010335
H  H13  1  0.29450000  0.56660000  0.78060000  1.0 0.3028538925
H  H14  1  0.70550000  0.06660000  0.71940000  1.0 0.3028538925
H  H15  1  0.70550000  0.43340000  0.21940000  1.0 0.3028538925
H  H16  1  0.29450000  0.93340000  0.28060000  1.0 0.3028538925
H  H17  1  0.26450000  0.60980000  0.73130000  1.0 0.3028538925
H  H18  1  0.73550000  0.10980000  0.76870000  1.0 0.3028538925
H  H19  1  0.73550000  0.39020000  0.26870000  1.0 0.3028538925
H  H20  1  0.26450000  0.89020000  0.23130000  1.0 0.3028538925
H  H21  1  0.23750000  0.79490000  0.66960000  1.0 0.1418605884
H  H22  1  0.76250000  0.29490000  0.83040000  1.0 0.1418605884
H  H23  1  0.76250000  0.20510000  0.33040000  1.0 0.1418605884
H  H24  1  0.23750000  0.70510000  0.16960000  1.0 0.1418605884
H  H25  1  0.67540000  0.77500000  0.72590000  1.0 0.1464499337
H  H26  1  0.32460000  0.27500000  0.77410000  1.0 0.1464499337
H  H27  1  0.32460000  0.22500000  0.27410000  1.0 0.1464499337
H  H28  1  0.67540000  0.72500000  0.22590000  1.0 0.1464499337
C  C1  1  0.83050000  0.71950000  0.66320000  1.0 -0.0082345605
C  C2  1  0.16950000  0.21950000  0.83680000  1.0 -0.0082345605
C  C3  1  0.16950000  0.28050000  0.33680000  1.0 -0.0082345605
C  C4  1  0.83050000  0.78050000  0.16320000  1.0 -0.0082345605
C  C5  1  0.99910000  0.72440000  0.64580000  1.0 -0.0559659033
C  C6  1  0.00090000  0.22440000  0.85420000  1.0 -0.0559659033
C  C7  1  0.00090000  0.27560000  0.35420000  1.0 -0.0559659033
C  C8  1  0.99910000  0.77560000  0.14580000  1.0 -0.0559659033
C  C9  1  0.12720000  0.78990000  0.68330000  1.0 -0.1348291683
C  C10  1  0.87280000  0.28990000  0.81670000  1.0 -0.1348291683
C  C11  1  0.87280000  0.21010000  0.31670000  1.0 -0.1348291683
C  C12  1  0.12720000  0.71010000  0.18330000  1.0 -0.1348291683
C  C13  1  0.09280000  0.84730000  0.74020000  1.0 -0.0332419789
C  C14  1  0.90720000  0.34730000  0.75980000  1.0 -0.0332419789
C  C15  1  0.90720000  0.15270000  0.25980000  1.0 -0.0332419789
C  C16  1  0.09280000  0.65270000  0.24020000  1.0 -0.0332419789
C  C17  1  0.92050000  0.84130000  0.75600000  1.0 -0.0559659033
C  C18  1  0.07950000  0.34130000  0.74400000  1.0 -0.0559659033
C  C19  1  0.07950000  0.15870000  0.24400000  1.0 -0.0559659033
C  C20  1  0.92050000  0.65870000  0.25600000  1.0 -0.0559659033
C  C21  1  0.79080000  0.77790000  0.71630000  1.0 -0.1517828005
C  C22  1  0.20920000  0.27790000  0.78370000  1.0 -0.1517828005
C  C23  1  0.20920000  0.22210000  0.28370000  1.0 -0.1517828005
C  C24  1  0.79080000  0.72210000  0.21630000  1.0 -0.1517828005
C  C25  1  0.68210000  0.65340000  0.62580000  1.0 0.613040748
C  C26  1  0.31790000  0.15340000  0.87420000  1.0 0.613040748
C  C27  1  0.31790000  0.34660000  0.37420000  1.0 0.613040748
C  C28  1  0.68210000  0.84660000  0.12580000  1.0 0.613040748
C  C29  1  0.05950000  0.66280000  0.59160000  1.0 0.582002188
C  C30  1  0.94050000  0.16280000  0.90840000  1.0 0.582002188
C  C31  1  0.94050000  0.33720000  0.40840000  1.0 0.582002188
C  C32  1  0.05950000  0.83720000  0.09160000  1.0 0.582002188
C  C33  1  0.24800000  0.91130000  0.77850000  1.0 0.582002188
C  C34  1  0.75200000  0.41130000  0.72150000  1.0 0.582002188
C  C35  1  0.75200000  0.08870000  0.22150000  1.0 0.582002188
C  C36  1  0.24800000  0.58870000  0.27850000  1.0 0.582002188
C  C37  1  0.86540000  0.89810000  0.81680000  1.0 0.613040748
C  C38  1  0.13460000  0.39810000  0.68320000  1.0 0.613040748
C  C39  1  0.13460000  0.10190000  0.18320000  1.0 0.613040748
C  C40  1  0.86540000  0.60190000  0.31680000  1.0 0.613040748
O  O1  1  0.57720000  0.65650000  0.53940000  1.0 -0.5699806708
O  O2  1  0.42280000  0.15650000  0.96060000  1.0 -0.5699806708
O  O3  1  0.42280000  0.34350000  0.46060000  1.0 -0.5699806708
O  O4  1  0.57720000  0.84350000  0.03940000  1.0 -0.5699806708
O  O5  1  0.66560000  0.60330000  0.67980000  1.0 -0.5200768309
O  O6  1  0.33440000  0.10330000  0.82020000  1.0 -0.5200768309
O  O7  1  0.33440000  0.39670000  0.32020000  1.0 -0.5200768309
O  O8  1  0.66560000  0.89670000  0.17980000  1.0 -0.5200768309
O  O9  1  0.18830000  0.68240000  0.56200000  1.0 -0.5620632964
O  O10  1  0.81170000  0.18240000  0.93800000  1.0 -0.5620632964
O  O11  1  0.81170000  0.31760000  0.43800000  1.0 -0.5620632964
O  O12  1  0.18830000  0.81760000  0.06200000  1.0 -0.5620632964
O  O13  1  0.97920000  0.59440000  0.58210000  1.0 -0.5486825603
O  O14  1  0.02080000  0.09440000  0.91790000  1.0 -0.5486825603
O  O15  1  0.02080000  0.40560000  0.41790000  1.0 -0.5486825603
O  O16  1  0.97920000  0.90560000  0.08210000  1.0 -0.5486825603
O  O17  1  0.34290000  0.91730000  0.86320000  1.0 -0.5620632964
O  O18  1  0.65710000  0.41730000  0.63680000  1.0 -0.5620632964
O  O19  1  0.65710000  0.08270000  0.13680000  1.0 -0.5620632964
O  O20  1  0.34290000  0.58270000  0.36320000  1.0 -0.5620632964
O  O21  1  0.29030000  0.95310000  0.72320000  1.0 -0.4860900539
O  O22  1  0.70970000  0.45310000  0.77680000  1.0 -0.4860900539
O  O23  1  0.70970000  0.04690000  0.27680000  1.0 -0.4860900539
O  O24  1  0.29030000  0.54690000  0.22320000  1.0 -0.4860900539
O  O25  1  0.69460000  0.92420000  0.78850000  1.0 -0.5433618921
O  O26  1  0.30540000  0.42420000  0.71150000  1.0 -0.5433618921
O  O27  1  0.30540000  0.07580000  0.21150000  1.0 -0.5433618921
O  O28  1  0.69460000  0.57580000  0.28850000  1.0 -0.5433618921
O  O29  1  0.99670000  0.91570000  0.89640000  1.0 -0.6113211113
O  O30  1  0.00330000  0.41570000  0.60360000  1.0 -0.6113211113
O  O31  1  0.00330000  0.08430000  0.10360000  1.0 -0.6113211113
O  O32  1  0.99670000  0.58430000  0.39640000  1.0 -0.6113211113
O  O33  1  0.70130000  0.48280000  0.45930000  1.0 -0.916982879
O  O34  1  0.29870000  0.98280000  0.04070000  1.0 -0.916982879
O  O35  1  0.29870000  0.51720000  0.54070000  1.0 -0.916982879
O  O36  1  0.70130000  0.01720000  0.95930000  1.0 -0.916982879
O  O37  1  0.26580000  0.75340000  0.42180000  1.0 -0.7028226751
O  O38  1  0.73420000  0.25340000  0.07820000  1.0 -0.7028226751
O  O39  1  0.73420000  0.24660000  0.57820000  1.0 -0.7028226751
O  O40  1  0.26580000  0.74660000  0.92180000  1.0 -0.7028226751
O  O41  1  0.39160000  0.58830000  0.76190000  1.0 -0.6554715532
O  O42  1  0.60840000  0.08830000  0.73810000  1.0 -0.6549408334
O  O43  1  0.60840000  0.41170000  0.23810000  1.0 -0.6549408334
O  O44  1  0.39160000  0.91170000  0.26190000  1.0 -0.6554715532
