# DDEC6 charges by PACMAN v1.1 (https://github.com/mtap-research/PACMAN-charge/)
data_QUWYEO_ASR_pacman
_symmetry_space_group_name_H-M   'P 1'
_cell_length_a   11.68840000
_cell_length_b   5.56430000
_cell_length_c   23.62710000
_cell_angle_alpha   90.00000000
_cell_angle_beta   108.39500000
_cell_angle_gamma   90.00000000
_symmetry_Int_Tables_number   1
_chemical_formula_structural   CaH8C14SO6
_chemical_formula_sum   'Ca4 H32 C56 S4 O24'
_cell_volume   1458.13621034
_cell_formula_units_Z   4
loop_
 _symmetry_equiv_pos_site_id
 _symmetry_equiv_pos_as_xyz
  1  'x, y, z'
loop_
 _atom_site_type_symbol
 _atom_site_label
 _atom_site_symmetry_multiplicity
 _atom_site_fract_x
 _atom_site_fract_y
 _atom_site_fract_z
 _atom_site_occupancy
 _atom_site_charge
Ca  Ca1  1  0.58440000  0.75633000  0.72182000  1.0 1.4074372114
Ca  Ca2  1  0.41560000  0.25633000  0.77818000  1.0 1.4074372114
Ca  Ca3  1  0.41560000  0.24367000  0.27818000  1.0 1.4074372114
Ca  Ca4  1  0.58440000  0.74367000  0.22182000  1.0 1.4074372114
H  H1  1  0.73500000  0.21110000  0.50720000  1.0 0.1206170096
H  H2  1  0.26500000  0.71110000  0.99280000  1.0 0.1206170096
H  H3  1  0.26500000  0.78890000  0.49280000  1.0 0.1206170096
H  H4  1  0.73500000  0.28890000  0.00720000  1.0 0.1206170096
H  H5  1  0.67690000  0.12830000  0.40470000  1.0 0.1299472419
H  H6  1  0.32310000  0.62830000  0.09530000  1.0 0.1299472419
H  H7  1  0.32310000  0.87170000  0.59530000  1.0 0.1299472419
H  H8  1  0.67690000  0.37170000  0.90470000  1.0 0.1299472419
H  H9  1  0.56380000  0.46630000  0.43510000  1.0 0.1206170096
H  H10  1  0.43620000  0.96630000  0.06490000  1.0 0.1206170096
H  H11  1  0.43620000  0.53370000  0.56490000  1.0 0.1206170096
H  H12  1  0.56380000  0.03370000  0.93510000  1.0 0.1206170096
H  H13  1  0.61700000  0.54990000  0.53740000  1.0 0.1299472419
H  H14  1  0.38300000  0.04990000  0.96260000  1.0 0.1299472419
H  H15  1  0.38300000  0.45010000  0.46260000  1.0 0.1299472419
H  H16  1  0.61700000  0.95010000  0.03740000  1.0 0.1299472419
H  H17  1  0.92600000  0.20510000  0.61890000  1.0 0.1206170096
H  H18  1  0.07400000  0.70510000  0.88110000  1.0 0.1206170096
H  H19  1  0.07400000  0.79490000  0.38110000  1.0 0.1206170096
H  H20  1  0.92600000  0.29490000  0.11890000  1.0 0.1206170096
H  H21  1  0.12910000  0.12450000  0.67150000  1.0 0.1299472419
H  H22  1  0.87090000  0.62450000  0.82850000  1.0 0.1299472419
H  H23  1  0.87090000  0.87550000  0.32850000  1.0 0.1299472419
H  H24  1  0.12910000  0.37550000  0.17150000  1.0 0.1299472419
H  H25  1  0.03450000  0.47320000  0.71990000  1.0 0.1124750213
H  H26  1  0.96550000  0.97320000  0.78010000  1.0 0.1124750213
H  H27  1  0.96550000  0.52680000  0.28010000  1.0 0.1124750213
H  H28  1  0.03450000  0.02680000  0.21990000  1.0 0.1124750213
H  H29  1  0.82990000  0.55880000  0.67130000  1.0 0.1299472419
H  H30  1  0.17010000  0.05880000  0.82870000  1.0 0.1299472419
H  H31  1  0.17010000  0.44120000  0.32870000  1.0 0.1299472419
H  H32  1  0.82990000  0.94120000  0.17130000  1.0 0.1299472419
C  C1  1  0.67741000  0.89090000  0.53071000  1.0 -0.0814494513
C  C2  1  0.32259000  0.39090000  0.96929000  1.0 -0.0814494513
C  C3  1  0.32259000  0.10910000  0.46929000  1.0 -0.0814494513
C  C4  1  0.67741000  0.60910000  0.03071000  1.0 -0.0814494513
C  C5  1  0.69820000  0.06200000  0.49225000  1.0 -0.1078772028
C  C6  1  0.30180000  0.56200000  0.00775000  1.0 -0.1078772028
C  C7  1  0.30180000  0.93800000  0.50775000  1.0 -0.1078772028
C  C8  1  0.69820000  0.43800000  0.99225000  1.0 -0.1078772028
C  C9  1  0.66439000  0.01220000  0.43163000  1.0 -0.0915175255
C  C10  1  0.33561000  0.51220000  0.06837000  1.0 -0.0915175255
C  C11  1  0.33561000  0.98780000  0.56837000  1.0 -0.0915175255
C  C12  1  0.66439000  0.48780000  0.93163000  1.0 -0.0915175255
C  C13  1  0.61210000  0.79140000  0.41040000  1.0 -0.0134906922
C  C14  1  0.38790000  0.29140000  0.08960000  1.0 -0.0134906922
C  C15  1  0.38790000  0.20860000  0.58960000  1.0 -0.0134906922
C  C16  1  0.61210000  0.70860000  0.91040000  1.0 -0.0134906922
C  C17  1  0.59652000  0.61880000  0.44975000  1.0 -0.0915175255
C  C18  1  0.40348000  0.11880000  0.05025000  1.0 -0.0915175255
C  C19  1  0.40348000  0.38120000  0.55025000  1.0 -0.0915175255
C  C20  1  0.59652000  0.88120000  0.94975000  1.0 -0.0915175255
C  C21  1  0.62840000  0.66700000  0.51038000  1.0 -0.0986544665
C  C22  1  0.37160000  0.16700000  0.98962000  1.0 -0.0986544665
C  C23  1  0.37160000  0.33300000  0.48962000  1.0 -0.0986544665
C  C24  1  0.62840000  0.83300000  0.01038000  1.0 -0.0986544665
C  C25  1  0.57094000  0.73840000  0.34475000  1.0 0.6190359281
C  C26  1  0.42906000  0.23840000  0.15525000  1.0 0.6190359281
C  C27  1  0.42906000  0.26160000  0.65525000  1.0 0.6190359281
C  C28  1  0.57094000  0.76160000  0.84475000  1.0 0.6190359281
C  C29  1  0.86062000  0.89080000  0.64189000  1.0 -0.0814494513
C  C30  1  0.13938000  0.39080000  0.85811000  1.0 -0.0814494513
C  C31  1  0.13938000  0.10920000  0.35811000  1.0 -0.0814494513
C  C32  1  0.86062000  0.60920000  0.14189000  1.0 -0.0814494513
C  C33  1  0.94824000  0.05910000  0.64045000  1.0 -0.1078772028
C  C34  1  0.05176000  0.55910000  0.85955000  1.0 -0.1078772028
C  C35  1  0.05176000  0.94090000  0.35955000  1.0 -0.1078772028
C  C36  1  0.94824000  0.44090000  0.14045000  1.0 -0.1078772028
C  C37  1  0.06866000  0.00980000  0.67103000  1.0 -0.0986544665
C  C38  1  0.93134000  0.50980000  0.82897000  1.0 -0.0986544665
C  C39  1  0.93134000  0.99020000  0.32897000  1.0 -0.0986544665
C  C40  1  0.06866000  0.49020000  0.17103000  1.0 -0.0986544665
C  C41  1  0.10050000  0.79180000  0.70098000  1.0 -0.0185627956
C  C42  1  0.89950000  0.29180000  0.79902000  1.0 -0.0185627956
C  C43  1  0.89950000  0.20820000  0.29902000  1.0 -0.0185627956
C  C44  1  0.10050000  0.70820000  0.20098000  1.0 -0.0185627956
C  C45  1  0.01191000  0.62320000  0.70028000  1.0 -0.0986544665
C  C46  1  0.98809000  0.12320000  0.79972000  1.0 -0.0986544665
C  C47  1  0.98809000  0.37680000  0.29972000  1.0 -0.0986544665
C  C48  1  0.01191000  0.87680000  0.20028000  1.0 -0.0986544665
C  C49  1  0.89056000  0.67210000  0.67116000  1.0 -0.0915175255
C  C50  1  0.10944000  0.17210000  0.82884000  1.0 -0.0915175255
C  C51  1  0.10944000  0.32790000  0.32884000  1.0 -0.0915175255
C  C52  1  0.89056000  0.82790000  0.17116000  1.0 -0.0915175255
C  C53  1  0.23063000  0.74100000  0.73711000  1.0 0.6190359281
C  C54  1  0.76937000  0.24100000  0.76289000  1.0 0.6190359281
C  C55  1  0.76937000  0.25900000  0.26289000  1.0 0.6190359281
C  C56  1  0.23063000  0.75900000  0.23711000  1.0 0.6190359281
S  S1  1  0.70815000  0.96454000  0.60670000  1.0 0.9911098839
S  S2  1  0.29185000  0.46454000  0.89330000  1.0 0.9911098839
S  S3  1  0.29185000  0.03546000  0.39330000  1.0 0.9911098839
S  S4  1  0.70815000  0.53546000  0.10670000  1.0 0.9911098839
O  O1  1  0.54878000  0.91505000  0.30908000  1.0 -0.677494043
O  O2  1  0.45122000  0.41505000  0.19092000  1.0 -0.677494043
O  O3  1  0.45122000  0.08495000  0.69092000  1.0 -0.677494043
O  O4  1  0.54878000  0.58495000  0.80908000  1.0 -0.677494043
O  O5  1  0.56409000  0.52343000  0.32788000  1.0 -0.6285834922
O  O6  1  0.43591000  0.02343000  0.17212000  1.0 -0.6285834922
O  O7  1  0.43591000  0.47657000  0.67212000  1.0 -0.6285834922
O  O8  1  0.56409000  0.97657000  0.82788000  1.0 -0.6285834922
O  O9  1  0.29750000  0.91879000  0.75539000  1.0 -0.6285834922
O  O10  1  0.70250000  0.41879000  0.74461000  1.0 -0.6285834922
O  O11  1  0.70250000  0.08121000  0.24461000  1.0 -0.6285834922
O  O12  1  0.29750000  0.58121000  0.25539000  1.0 -0.6285834922
O  O13  1  0.25948000  0.52383000  0.74652000  1.0 -0.6402956336
O  O14  1  0.74052000  0.02383000  0.75348000  1.0 -0.6402956336
O  O15  1  0.74052000  0.47617000  0.25348000  1.0 -0.6402956336
O  O16  1  0.25948000  0.97617000  0.24652000  1.0 -0.6402956336
O  O17  1  0.69496000  0.22059000  0.61050000  1.0 -0.5056793331
O  O18  1  0.30504000  0.72059000  0.88950000  1.0 -0.5056793331
O  O19  1  0.30504000  0.77941000  0.38950000  1.0 -0.5056793331
O  O20  1  0.69496000  0.27941000  0.11050000  1.0 -0.5044442057
O  O21  1  0.63464000  0.80562000  0.62970000  1.0 -0.5691839843
O  O22  1  0.36536000  0.30562000  0.87030000  1.0 -0.5691839843
O  O23  1  0.36536000  0.19438000  0.37030000  1.0 -0.5691839843
O  O24  1  0.63464000  0.69438000  0.12970000  1.0 -0.5691839843
