# DDEC6 charges by PACMAN v1.1 (https://github.com/mtap-research/PACMAN-charge/)
data_QUXQUX_FSR_pacman
_symmetry_space_group_name_H-M   'P 1'
_cell_length_a   11.80130000
_cell_length_b   5.58270000
_cell_length_c   23.69870000
_cell_angle_alpha   90.00000000
_cell_angle_beta   109.26600000
_cell_angle_gamma   90.00000000
_symmetry_Int_Tables_number   1
_chemical_formula_structural   CaH8C14SO6
_chemical_formula_sum   'Ca4 H32 C56 S4 O24'
_cell_volume   1473.90414540
_cell_formula_units_Z   4
loop_
 _symmetry_equiv_pos_site_id
 _symmetry_equiv_pos_as_xyz
  1  'x, y, z'
loop_
 _atom_site_type_symbol
 _atom_site_label
 _atom_site_symmetry_multiplicity
 _atom_site_fract_x
 _atom_site_fract_y
 _atom_site_fract_z
 _atom_site_occupancy
 _atom_site_charge
Ca  Ca1  1  0.41496000  0.24423000  0.77713000  1.0 1.4055769495
Ca  Ca2  1  0.58504000  0.74423000  0.72287000  1.0 1.4055769495
Ca  Ca3  1  0.58504000  0.75577000  0.22287000  1.0 1.4040966085
Ca  Ca4  1  0.41496000  0.25577000  0.27713000  1.0 1.4055769495
H  H1  1  0.43770000  0.53280000  0.06460000  1.0 0.1201632956
H  H2  1  0.56230000  0.03280000  0.43540000  1.0 0.1201632956
H  H3  1  0.56230000  0.46720000  0.93540000  1.0 0.1201632956
H  H4  1  0.43770000  0.96720000  0.56460000  1.0 0.1201632956
H  H5  1  0.38330000  0.45070000  0.96220000  1.0 0.1292433846
H  H6  1  0.61670000  0.95070000  0.53780000  1.0 0.1292433846
H  H7  1  0.61670000  0.54930000  0.03780000  1.0 0.1292433846
H  H8  1  0.38330000  0.04930000  0.46220000  1.0 0.1292433846
H  H9  1  0.27090000  0.78730000  0.99150000  1.0 0.1201632956
H  H10  1  0.72910000  0.28730000  0.50850000  1.0 0.1201632956
H  H11  1  0.72910000  0.21270000  0.00850000  1.0 0.1201632956
H  H12  1  0.27090000  0.71270000  0.49150000  1.0 0.1201632956
H  H13  1  0.32880000  0.86940000  0.09430000  1.0 0.1292433846
H  H14  1  0.67120000  0.36940000  0.40570000  1.0 0.1292433846
H  H15  1  0.67120000  0.13060000  0.90570000  1.0 0.1292433846
H  H16  1  0.32880000  0.63060000  0.59430000  1.0 0.1292433846
H  H17  1  0.16900000  0.44260000  0.82770000  1.0 0.1292433846
H  H18  1  0.83100000  0.94260000  0.67230000  1.0 0.1292433846
H  H19  1  0.83100000  0.55740000  0.17230000  1.0 0.1292433846
H  H20  1  0.16900000  0.05740000  0.32770000  1.0 0.1292433846
H  H21  1  0.96440000  0.52600000  0.77970000  1.0 0.1127583436
H  H22  1  0.03560000  0.02600000  0.72030000  1.0 0.1127583436
H  H23  1  0.03560000  0.47400000  0.22030000  1.0 0.1127583436
H  H24  1  0.96440000  0.97400000  0.27970000  1.0 0.1127583436
H  H25  1  0.87400000  0.87460000  0.82770000  1.0 0.1292433846
H  H26  1  0.12600000  0.37460000  0.67230000  1.0 0.1292433846
H  H27  1  0.12600000  0.12540000  0.17230000  1.0 0.1292433846
H  H28  1  0.87400000  0.62540000  0.32770000  1.0 0.1292433846
H  H29  1  0.07730000  0.79380000  0.87920000  1.0 0.1201632956
H  H30  1  0.92270000  0.29380000  0.62080000  1.0 0.1201632956
H  H31  1  0.92270000  0.20620000  0.12080000  1.0 0.1201632956
H  H32  1  0.07730000  0.70620000  0.37920000  1.0 0.1201632956
C  C1  1  0.43126000  0.26090000  0.15515000  1.0 0.6202390841
C  C2  1  0.56874000  0.76090000  0.34485000  1.0 0.6202390841
C  C3  1  0.56874000  0.73910000  0.84485000  1.0 0.6202390841
C  C4  1  0.43126000  0.23910000  0.65515000  1.0 0.6202390841
C  C5  1  0.39135000  0.20750000  0.08910000  1.0 -0.0095103863
C  C6  1  0.60865000  0.70750000  0.41090000  1.0 -0.0095103863
C  C7  1  0.60865000  0.79250000  0.91090000  1.0 -0.0095103863
C  C8  1  0.39135000  0.29250000  0.58910000  1.0 -0.0095103863
C  C9  1  0.40551000  0.38050000  0.04976000  1.0 -0.0902120662
C  C10  1  0.59449000  0.88050000  0.45024000  1.0 -0.0902120662
C  C11  1  0.59449000  0.61950000  0.95024000  1.0 -0.0902120662
C  C12  1  0.40551000  0.11950000  0.54976000  1.0 -0.0902120662
C  C13  1  0.37313000  0.33290000  0.98904000  1.0 -0.0986056202
C  C14  1  0.62687000  0.83290000  0.51096000  1.0 -0.0986056202
C  C15  1  0.62687000  0.66710000  0.01096000  1.0 -0.0986056202
C  C16  1  0.37313000  0.16710000  0.48904000  1.0 -0.0986056202
C  C17  1  0.32554000  0.10880000  0.96835000  1.0 -0.0786519279
C  C18  1  0.67446000  0.60880000  0.53165000  1.0 -0.0786519279
C  C19  1  0.67446000  0.89120000  0.03165000  1.0 -0.0786519279
C  C20  1  0.32554000  0.39120000  0.46835000  1.0 -0.0786519279
C  C21  1  0.30651000  0.93670000  0.00671000  1.0 -0.1066789743
C  C22  1  0.69349000  0.43670000  0.49329000  1.0 -0.1066789743
C  C23  1  0.69349000  0.06330000  0.99329000  1.0 -0.1066789743
C  C24  1  0.30651000  0.56330000  0.50671000  1.0 -0.1066789743
C  C25  1  0.34037000  0.98600000  0.06754000  1.0 -0.0902120662
C  C26  1  0.65963000  0.48600000  0.43246000  1.0 -0.0902120662
C  C27  1  0.65963000  0.01400000  0.93246000  1.0 -0.0902120662
C  C28  1  0.34037000  0.51400000  0.56754000  1.0 -0.0902120662
C  C29  1  0.14058000  0.10890000  0.85678000  1.0 -0.0902120662
C  C30  1  0.85942000  0.60890000  0.64322000  1.0 -0.0902120662
C  C31  1  0.85942000  0.89110000  0.14322000  1.0 -0.0902120662
C  C32  1  0.14058000  0.39110000  0.35678000  1.0 -0.0902120662
C  C33  1  0.10927000  0.32870000  0.82783000  1.0 -0.0902120662
C  C34  1  0.89073000  0.82870000  0.67217000  1.0 -0.0902120662
C  C35  1  0.89073000  0.67130000  0.17217000  1.0 -0.0902120662
C  C36  1  0.10927000  0.17130000  0.32783000  1.0 -0.0902120662
C  C37  1  0.98801000  0.37640000  0.79917000  1.0 -0.0986056202
C  C38  1  0.01199000  0.87640000  0.70083000  1.0 -0.0986056202
C  C39  1  0.01199000  0.62360000  0.20083000  1.0 -0.0986056202
C  C40  1  0.98801000  0.12360000  0.29917000  1.0 -0.0986056202
C  C41  1  0.90076000  0.20750000  0.79863000  1.0 -0.0187037513
C  C42  1  0.09924000  0.70750000  0.70137000  1.0 -0.0187037513
C  C43  1  0.09924000  0.79250000  0.20137000  1.0 -0.0187037513
C  C44  1  0.90076000  0.29250000  0.29863000  1.0 -0.0187037513
C  C45  1  0.76983000  0.25970000  0.76386000  1.0 0.6202390841
C  C46  1  0.23017000  0.75970000  0.73614000  1.0 0.6202390841
C  C47  1  0.23017000  0.74030000  0.23614000  1.0 0.6202390841
C  C48  1  0.76983000  0.24030000  0.26386000  1.0 0.6202390841
C  C49  1  0.93371000  0.98940000  0.82810000  1.0 -0.0986056202
C  C50  1  0.06629000  0.48940000  0.67190000  1.0 -0.0986056202
C  C51  1  0.06629000  0.01060000  0.17190000  1.0 -0.0986056202
C  C52  1  0.93371000  0.51060000  0.32810000  1.0 -0.0986056202
C  C53  1  0.05415000  0.94010000  0.85811000  1.0 -0.1066789743
C  C54  1  0.94585000  0.44010000  0.64189000  1.0 -0.1066789743
C  C55  1  0.94585000  0.05990000  0.14189000  1.0 -0.1066789743
C  C56  1  0.05415000  0.55990000  0.35811000  1.0 -0.1066789743
S  S1  1  0.29310000  0.03640000  0.89195000  1.0 0.9907279662
S  S2  1  0.70690000  0.53640000  0.60805000  1.0 0.9907279662
S  S3  1  0.70690000  0.96360000  0.10805000  1.0 0.9907279662
S  S4  1  0.29310000  0.46360000  0.39195000  1.0 0.9907279662
O  O1  1  0.43747000  0.47530000  0.17171000  1.0 -0.629377211
O  O2  1  0.56253000  0.97530000  0.32829000  1.0 -0.629377211
O  O3  1  0.56253000  0.52470000  0.82829000  1.0 -0.629377211
O  O4  1  0.43747000  0.02470000  0.67171000  1.0 -0.629377211
O  O5  1  0.45257000  0.08410000  0.19080000  1.0 -0.6798599311
O  O6  1  0.54743000  0.58410000  0.30920000  1.0 -0.6798599311
O  O7  1  0.54743000  0.91590000  0.80920000  1.0 -0.6798599311
O  O8  1  0.45257000  0.41590000  0.69080000  1.0 -0.6798599311
O  O9  1  0.30639000  0.78160000  0.88785000  1.0 -0.5043431469
O  O10  1  0.69361000  0.28160000  0.61215000  1.0 -0.5043431469
O  O11  1  0.69361000  0.21840000  0.11215000  1.0 -0.5043431469
O  O12  1  0.30639000  0.71840000  0.38785000  1.0 -0.5043431469
O  O13  1  0.36500000  0.19580000  0.86908000  1.0 -0.5678217509
O  O14  1  0.63500000  0.69580000  0.63092000  1.0 -0.5678217509
O  O15  1  0.63500000  0.80420000  0.13092000  1.0 -0.5678217509
O  O16  1  0.36500000  0.30420000  0.36908000  1.0 -0.5678217509
O  O17  1  0.74075000  0.47620000  0.75506000  1.0 -0.6389663764
O  O18  1  0.25925000  0.97620000  0.74494000  1.0 -0.6389663764
O  O19  1  0.25925000  0.52380000  0.24494000  1.0 -0.6389663764
O  O20  1  0.74075000  0.02380000  0.25506000  1.0 -0.6389663764
O  O21  1  0.70252000  0.08150000  0.74610000  1.0 -0.629377211
O  O22  1  0.29748000  0.58150000  0.75390000  1.0 -0.629377211
O  O23  1  0.29748000  0.91850000  0.25390000  1.0 -0.629377211
O  O24  1  0.70252000  0.41850000  0.24610000  1.0 -0.629377211
