# DDEC6 charges by PACMAN v1.1 (https://github.com/mtap-research/PACMAN-charge/)
data_QUXROS_ASR_pacman
_symmetry_space_group_name_H-M   'P 1'
_cell_length_a   11.70730000
_cell_length_b   5.56470000
_cell_length_c   23.66570000
_cell_angle_alpha   90.00000000
_cell_angle_beta   108.51000000
_cell_angle_gamma   90.00000000
_symmetry_Int_Tables_number   1
_chemical_formula_structural   CaH8C14SO6
_chemical_formula_sum   'Ca4 H32 C56 S4 O24'
_cell_volume   1462.00572309
_cell_formula_units_Z   4
loop_
 _symmetry_equiv_pos_site_id
 _symmetry_equiv_pos_as_xyz
  1  'x, y, z'
loop_
 _atom_site_type_symbol
 _atom_site_label
 _atom_site_symmetry_multiplicity
 _atom_site_fract_x
 _atom_site_fract_y
 _atom_site_fract_z
 _atom_site_occupancy
 _atom_site_charge
Ca  Ca1  1  0.41537000  0.25666000  0.77808000  1.0 1.4078937908
Ca  Ca2  1  0.58463000  0.75666000  0.72192000  1.0 1.4078937908
Ca  Ca3  1  0.58463000  0.74334000  0.22192000  1.0 1.4078937908
Ca  Ca4  1  0.41537000  0.24334000  0.27808000  1.0 1.4078937908
H  H1  1  0.07420000  0.70550000  0.88100000  1.0 0.1205812993
H  H2  1  0.92580000  0.20550000  0.61900000  1.0 0.1205812993
H  H3  1  0.92580000  0.29450000  0.11900000  1.0 0.1205812993
H  H4  1  0.07420000  0.79450000  0.38100000  1.0 0.1205812993
H  H5  1  0.32360000  0.62810000  0.09530000  1.0 0.129509543
H  H6  1  0.67640000  0.12810000  0.40470000  1.0 0.129509543
H  H7  1  0.67640000  0.37190000  0.90470000  1.0 0.129509543
H  H8  1  0.32360000  0.87190000  0.59530000  1.0 0.129509543
H  H9  1  0.87120000  0.62480000  0.82860000  1.0 0.129509543
H  H10  1  0.12880000  0.12480000  0.67140000  1.0 0.129509543
H  H11  1  0.12880000  0.37520000  0.17140000  1.0 0.129509543
H  H12  1  0.87120000  0.87520000  0.32860000  1.0 0.129509543
H  H13  1  0.26480000  0.71090000  0.99260000  1.0 0.1205812993
H  H14  1  0.73520000  0.21090000  0.50740000  1.0 0.1205812993
H  H15  1  0.73520000  0.28910000  0.00740000  1.0 0.1205812993
H  H16  1  0.26480000  0.78910000  0.49260000  1.0 0.1205812993
H  H17  1  0.38270000  0.05020000  0.96260000  1.0 0.129509543
H  H18  1  0.61730000  0.55020000  0.53740000  1.0 0.129509543
H  H19  1  0.61730000  0.94980000  0.03740000  1.0 0.129509543
H  H20  1  0.38270000  0.44980000  0.46260000  1.0 0.129509543
H  H21  1  0.96550000  0.97450000  0.77990000  1.0 0.1130278473
H  H22  1  0.03450000  0.47450000  0.72010000  1.0 0.1130278473
H  H23  1  0.03450000  0.02550000  0.22010000  1.0 0.1130278473
H  H24  1  0.96550000  0.52550000  0.27990000  1.0 0.1130278473
H  H25  1  0.16970000  0.05860000  0.82860000  1.0 0.129509543
H  H26  1  0.83030000  0.55860000  0.67140000  1.0 0.129509543
H  H27  1  0.83030000  0.94140000  0.17140000  1.0 0.129509543
H  H28  1  0.16970000  0.44140000  0.32860000  1.0 0.129509543
H  H29  1  0.43740000  0.96710000  0.06480000  1.0 0.1205812993
H  H30  1  0.56260000  0.46710000  0.43520000  1.0 0.1205812993
H  H31  1  0.56260000  0.03290000  0.93520000  1.0 0.1205812993
H  H32  1  0.43740000  0.53290000  0.56480000  1.0 0.1205812993
C  C1  1  0.89973000  0.29250000  0.79890000  1.0 -0.0187445423
C  C2  1  0.10027000  0.79250000  0.70110000  1.0 -0.0187445423
C  C3  1  0.10027000  0.70750000  0.20110000  1.0 -0.0187445423
C  C4  1  0.89973000  0.20750000  0.29890000  1.0 -0.0187445423
C  C5  1  0.38827000  0.29150000  0.08959000  1.0 -0.0125336713
C  C6  1  0.61173000  0.79150000  0.41041000  1.0 -0.0125336713
C  C7  1  0.61173000  0.70850000  0.91041000  1.0 -0.0125336713
C  C8  1  0.38827000  0.20850000  0.58959000  1.0 -0.0125336713
C  C9  1  0.05183000  0.55960000  0.85949000  1.0 -0.1078214078
C  C10  1  0.94817000  0.05960000  0.64051000  1.0 -0.1078214078
C  C11  1  0.94817000  0.44040000  0.14051000  1.0 -0.1078214078
C  C12  1  0.05183000  0.94040000  0.35949000  1.0 -0.1078214078
C  C13  1  0.33595000  0.51200000  0.06835000  1.0 -0.0920294384
C  C14  1  0.66405000  0.01200000  0.43165000  1.0 -0.0920294384
C  C15  1  0.66405000  0.48800000  0.93165000  1.0 -0.0920294384
C  C16  1  0.33595000  0.98800000  0.56835000  1.0 -0.0920294384
C  C17  1  0.93162000  0.51030000  0.82900000  1.0 -0.0986318002
C  C18  1  0.06838000  0.01030000  0.67100000  1.0 -0.0986318002
C  C19  1  0.06838000  0.48970000  0.17100000  1.0 -0.0986318002
C  C20  1  0.93162000  0.98970000  0.32900000  1.0 -0.0986318002
C  C21  1  0.30187000  0.56210000  0.00763000  1.0 -0.1078214078
C  C22  1  0.69813000  0.06210000  0.49237000  1.0 -0.1078214078
C  C23  1  0.69813000  0.43790000  0.99237000  1.0 -0.1078214078
C  C24  1  0.30187000  0.93790000  0.50763000  1.0 -0.1078214078
C  C25  1  0.37168000  0.16740000  0.98958000  1.0 -0.0986318002
C  C26  1  0.62832000  0.66740000  0.51042000  1.0 -0.0986318002
C  C27  1  0.62832000  0.83260000  0.01042000  1.0 -0.0986318002
C  C28  1  0.37168000  0.33260000  0.48958000  1.0 -0.0986318002
C  C29  1  0.98813000  0.12420000  0.79956000  1.0 -0.0986318002
C  C30  1  0.01187000  0.62420000  0.70044000  1.0 -0.0986318002
C  C31  1  0.01187000  0.87580000  0.20044000  1.0 -0.0986318002
C  C32  1  0.98813000  0.37580000  0.29956000  1.0 -0.0986318002
C  C33  1  0.10914000  0.17220000  0.82868000  1.0 -0.0920294384
C  C34  1  0.89086000  0.67220000  0.67132000  1.0 -0.0920294384
C  C35  1  0.89086000  0.82780000  0.17132000  1.0 -0.0920294384
C  C36  1  0.10914000  0.32780000  0.32868000  1.0 -0.0920294384
C  C37  1  0.42958000  0.23820000  0.15538000  1.0 0.6177743812
C  C38  1  0.57042000  0.73820000  0.34462000  1.0 0.6177743812
C  C39  1  0.57042000  0.76180000  0.84462000  1.0 0.6177743812
C  C40  1  0.42958000  0.26180000  0.65538000  1.0 0.6177743812
C  C41  1  0.40413000  0.11910000  0.05017000  1.0 -0.0920294384
C  C42  1  0.59587000  0.61910000  0.44983000  1.0 -0.0920294384
C  C43  1  0.59587000  0.88090000  0.94983000  1.0 -0.0920294384
C  C44  1  0.40413000  0.38090000  0.55017000  1.0 -0.0920294384
C  C45  1  0.76960000  0.24100000  0.76301000  1.0 0.6250616451
C  C46  1  0.23040000  0.74100000  0.73699000  1.0 0.6250616451
C  C47  1  0.23040000  0.75900000  0.23699000  1.0 0.6250616451
C  C48  1  0.76960000  0.25900000  0.26301000  1.0 0.6250616451
C  C49  1  0.32286000  0.39080000  0.96933000  1.0 -0.0804812974
C  C50  1  0.67714000  0.89080000  0.53067000  1.0 -0.0804812974
C  C51  1  0.67714000  0.60920000  0.03067000  1.0 -0.0804812974
C  C52  1  0.32286000  0.10920000  0.46933000  1.0 -0.0804812974
C  C53  1  0.13914000  0.39130000  0.85797000  1.0 -0.0804812974
C  C54  1  0.86086000  0.89130000  0.64203000  1.0 -0.0804812974
C  C55  1  0.86086000  0.60870000  0.14203000  1.0 -0.0804812974
C  C56  1  0.13914000  0.10870000  0.35797000  1.0 -0.0804812974
S  S1  1  0.29172000  0.46493000  0.89326000  1.0 0.9936716845
S  S2  1  0.70828000  0.96493000  0.60674000  1.0 0.9936716845
S  S3  1  0.70828000  0.53507000  0.10674000  1.0 0.9936716845
S  S4  1  0.29172000  0.03507000  0.39326000  1.0 0.9936716845
O  O1  1  0.43634000  0.02310000  0.17208000  1.0 -0.6316047619
O  O2  1  0.56366000  0.52310000  0.32792000  1.0 -0.6316047619
O  O3  1  0.56366000  0.97690000  0.82792000  1.0 -0.6316047619
O  O4  1  0.43634000  0.47690000  0.67208000  1.0 -0.6316047619
O  O5  1  0.45142000  0.41490000  0.19089000  1.0 -0.6785194139
O  O6  1  0.54858000  0.91490000  0.30911000  1.0 -0.6785194139
O  O7  1  0.54858000  0.58510000  0.80911000  1.0 -0.6785194139
O  O8  1  0.45142000  0.08510000  0.69089000  1.0 -0.6785194139
O  O9  1  0.30488000  0.72090000  0.88949000  1.0 -0.5062464336
O  O10  1  0.69512000  0.22090000  0.61051000  1.0 -0.5062464336
O  O11  1  0.69512000  0.27910000  0.11051000  1.0 -0.5062464336
O  O12  1  0.30488000  0.77910000  0.38949000  1.0 -0.5062464336
O  O13  1  0.36515000  0.30610000  0.87035000  1.0 -0.5698163966
O  O14  1  0.63485000  0.80610000  0.62965000  1.0 -0.5698163966
O  O15  1  0.63485000  0.69390000  0.12965000  1.0 -0.5698163966
O  O16  1  0.36515000  0.19390000  0.37035000  1.0 -0.5698163966
O  O17  1  0.74072000  0.02410000  0.75361000  1.0 -0.6395523111
O  O18  1  0.25928000  0.52410000  0.74639000  1.0 -0.6395523111
O  O19  1  0.25928000  0.97590000  0.24639000  1.0 -0.6395523111
O  O20  1  0.74072000  0.47590000  0.25361000  1.0 -0.6395523111
O  O21  1  0.70269000  0.41960000  0.74465000  1.0 -0.6316047619
O  O22  1  0.29731000  0.91960000  0.75535000  1.0 -0.6316047619
O  O23  1  0.29731000  0.58040000  0.25535000  1.0 -0.6316047619
O  O24  1  0.70269000  0.08040000  0.24465000  1.0 -0.6316047619
