# DDEC6 charges by PACMAN v1.1 (https://github.com/mtap-research/PACMAN-charge/)
data_QUXRUY_ASR_pacman
_symmetry_space_group_name_H-M   'P 1'
_cell_length_a   11.64260000
_cell_length_b   5.55740000
_cell_length_c   23.63970000
_cell_angle_alpha   90.00000000
_cell_angle_beta   108.26400000
_cell_angle_gamma   90.00000000
_symmetry_Int_Tables_number   1
_chemical_formula_structural   CaH8C14SO6
_chemical_formula_sum   'Ca4 H32 C56 S4 O24'
_cell_volume   1452.49493261
_cell_formula_units_Z   4
loop_
 _symmetry_equiv_pos_site_id
 _symmetry_equiv_pos_as_xyz
  1  'x, y, z'
loop_
 _atom_site_type_symbol
 _atom_site_label
 _atom_site_symmetry_multiplicity
 _atom_site_fract_x
 _atom_site_fract_y
 _atom_site_fract_z
 _atom_site_occupancy
 _atom_site_charge
Ca  Ca1  1  0.41600000  0.74145000  0.77875000  1.0 1.4019822458
Ca  Ca2  1  0.58401000  0.24145000  0.72126000  1.0 1.4019822458
Ca  Ca3  1  0.58400000  0.25855000  0.22126000  1.0 1.4019822458
Ca  Ca4  1  0.41600000  0.75855000  0.27875000  1.0 1.4019822458
H  H1  1  0.32121000  0.37370000  0.09591000  1.0 0.1293091446
H  H2  1  0.67880000  0.87370000  0.40410000  1.0 0.1293091446
H  H3  1  0.67880000  0.62630000  0.90410000  1.0 0.1293091446
H  H4  1  0.32121000  0.12630000  0.59591000  1.0 0.1293091446
H  H5  1  0.26251000  0.28900000  0.99350000  1.0 0.1201918403
H  H6  1  0.73750000  0.78900000  0.50650000  1.0 0.1201918403
H  H7  1  0.73750000  0.71100000  0.00650000  1.0 0.1201918403
H  H8  1  0.26251000  0.21100000  0.49351000  1.0 0.1201918403
H  H9  1  0.38221000  0.94880000  0.96261000  1.0 0.1293091446
H  H10  1  0.61780000  0.44880000  0.53740000  1.0 0.1293091446
H  H11  1  0.61779000  0.05120000  0.03739000  1.0 0.1293091446
H  H12  1  0.38221000  0.55120000  0.46261000  1.0 0.1293091446
H  H13  1  0.43640000  0.03420000  0.06471000  1.0 0.1201918403
H  H14  1  0.56359000  0.53420000  0.43529000  1.0 0.1201918403
H  H15  1  0.56359000  0.96580000  0.93529000  1.0 0.1201918403
H  H16  1  0.43641000  0.46580000  0.56471000  1.0 0.1201918403
H  H17  1  0.07271000  0.29270000  0.88150000  1.0 0.1201918403
H  H18  1  0.92730000  0.79270000  0.61850000  1.0 0.1201918403
H  H19  1  0.92730000  0.70730000  0.11850000  1.0 0.1201918403
H  H20  1  0.07271000  0.20730000  0.38151000  1.0 0.1201918403
H  H21  1  0.86950000  0.37330000  0.82851000  1.0 0.1293091446
H  H22  1  0.13049000  0.87330000  0.67150000  1.0 0.1293091446
H  H23  1  0.13049000  0.62670000  0.17150000  1.0 0.1293091446
H  H24  1  0.86950000  0.12670000  0.32851000  1.0 0.1293091446
H  H25  1  0.96571000  0.02430000  0.78000000  1.0 0.1121530065
H  H26  1  0.03430000  0.52430000  0.72000000  1.0 0.1121530065
H  H27  1  0.03429000  0.97570000  0.21999000  1.0 0.1121530065
H  H28  1  0.96571000  0.47570000  0.28001000  1.0 0.1121530065
H  H29  1  0.17021000  0.93880000  0.82911000  1.0 0.1293091446
H  H30  1  0.82979000  0.43880000  0.67090000  1.0 0.1293091446
H  H31  1  0.82979000  0.06120000  0.17089000  1.0 0.1293091446
H  H32  1  0.17020000  0.56120000  0.32910000  1.0 0.1293091446
C  C1  1  0.42850000  0.76430000  0.15537000  1.0 0.6148786524
C  C2  1  0.57151000  0.26430000  0.34464000  1.0 0.6199475677
C  C3  1  0.57151000  0.23570000  0.84464000  1.0 0.6199475677
C  C4  1  0.42850000  0.73570000  0.65536000  1.0 0.6199475677
C  C5  1  0.38720000  0.70970000  0.08990000  1.0 -0.0126289112
C  C6  1  0.61281000  0.20970000  0.41011000  1.0 -0.0126289112
C  C7  1  0.61281000  0.29030000  0.91011000  1.0 -0.0126289112
C  C8  1  0.38720000  0.79030000  0.58990000  1.0 -0.0126289112
C  C9  1  0.33411000  0.48910000  0.06885000  1.0 -0.0911132422
C  C10  1  0.66588000  0.98910000  0.43115000  1.0 -0.0911132422
C  C11  1  0.66589000  0.51090000  0.93115000  1.0 -0.0911132422
C  C12  1  0.33411000  0.01090000  0.56885000  1.0 -0.0911132422
C  C13  1  0.30002000  0.43800000  0.00833000  1.0 -0.1072564388
C  C14  1  0.69998000  0.93800000  0.49167000  1.0 -0.1072564388
C  C15  1  0.69998000  0.56200000  0.99168000  1.0 -0.1072564388
C  C16  1  0.30003000  0.06200000  0.50833000  1.0 -0.1072564388
C  C17  1  0.32165000  0.60830000  0.96969000  1.0 -0.082524622
C  C18  1  0.67836000  0.10830000  0.53031000  1.0 -0.082524622
C  C19  1  0.67836000  0.39170000  0.03031000  1.0 -0.082524622
C  C20  1  0.32165000  0.89170000  0.46969000  1.0 -0.082524622
C  C21  1  0.37086000  0.83210000  0.98972000  1.0 -0.0969759824
C  C22  1  0.62914000  0.33210000  0.51028000  1.0 -0.0969759824
C  C23  1  0.62914000  0.16790000  0.01029000  1.0 -0.0969759824
C  C24  1  0.37086000  0.66790000  0.48972000  1.0 -0.0969759824
C  C25  1  0.40319000  0.88170000  0.05028000  1.0 -0.0911132422
C  C26  1  0.59681000  0.38170000  0.44972000  1.0 -0.0911132422
C  C27  1  0.59682000  0.11830000  0.94973000  1.0 -0.0911132422
C  C28  1  0.40319000  0.61830000  0.55027000  1.0 -0.0911132422
C  C29  1  0.13856000  0.60680000  0.85854000  1.0 -0.082524622
C  C30  1  0.86143000  0.10680000  0.64146000  1.0 -0.082524622
C  C31  1  0.86144000  0.39320000  0.14147000  1.0 -0.082524622
C  C32  1  0.13857000  0.89320000  0.35854000  1.0 -0.082524622
C  C33  1  0.05068000  0.43860000  0.85984000  1.0 -0.1072564388
C  C34  1  0.94933000  0.93860000  0.64017000  1.0 -0.1072564388
C  C35  1  0.94932000  0.56140000  0.14017000  1.0 -0.1072564388
C  C36  1  0.05068000  0.06140000  0.35984000  1.0 -0.1072564388
C  C37  1  0.93029000  0.48790000  0.82894000  1.0 -0.0969759824
C  C38  1  0.06972000  0.98790000  0.67107000  1.0 -0.0969759824
C  C39  1  0.06972000  0.51210000  0.17107000  1.0 -0.0969759824
C  C40  1  0.93029000  0.01210000  0.32894000  1.0 -0.0969759824
C  C41  1  0.89880000  0.70520000  0.79864000  1.0 -0.0189514315
C  C42  1  0.10121000  0.20520000  0.70137000  1.0 -0.0189514315
C  C43  1  0.10121000  0.29480000  0.20136000  1.0 -0.0189514315
C  C44  1  0.89880000  0.79480000  0.29864000  1.0 -0.0189514315
C  C45  1  0.76911000  0.75670000  0.76235000  1.0 0.6199475677
C  C46  1  0.23089000  0.25670000  0.73765000  1.0 0.6199475677
C  C47  1  0.23089000  0.24330000  0.23766000  1.0 0.6199475677
C  C48  1  0.76911000  0.74330000  0.26235000  1.0 0.6199475677
C  C49  1  0.98797000  0.87430000  0.79965000  1.0 -0.0969759824
C  C50  1  0.01203000  0.37430000  0.70035000  1.0 -0.0969759824
C  C51  1  0.01204000  0.12570000  0.20036000  1.0 -0.0969759824
C  C52  1  0.98797000  0.62570000  0.29965000  1.0 -0.0969759824
C  C53  1  0.10919000  0.82550000  0.82913000  1.0 -0.0911132422
C  C54  1  0.89082000  0.32550000  0.67087000  1.0 -0.0911132422
C  C55  1  0.89082000  0.17450000  0.17087000  1.0 -0.0911132422
C  C56  1  0.10919000  0.67450000  0.32913000  1.0 -0.0911132422
S  S1  1  0.29130000  0.53299000  0.89392000  1.0 0.9903544763
S  S2  1  0.70869000  0.03299000  0.60608000  1.0 0.9903544763
S  S3  1  0.70869000  0.46701000  0.10608000  1.0 0.9903544763
S  S4  1  0.29131000  0.96701000  0.39392000  1.0 0.9903544763
O  O1  1  0.45065000  0.58773000  0.19109000  1.0 -0.6766106507
O  O2  1  0.54936000  0.08773000  0.30891000  1.0 -0.6766106507
O  O3  1  0.54936000  0.41227000  0.80892000  1.0 -0.6766106507
O  O4  1  0.45065000  0.91227000  0.69109000  1.0 -0.6766106507
O  O5  1  0.43517000  0.97921000  0.17183000  1.0 -0.6249172112
O  O6  1  0.56483000  0.47921000  0.32816000  1.0 -0.6249172112
O  O7  1  0.56484000  0.02079000  0.82817000  1.0 -0.6276867708
O  O8  1  0.43517000  0.52079000  0.67183000  1.0 -0.6276867708
O  O9  1  0.74036000  0.97435000  0.75311000  1.0 -0.6405700466
O  O10  1  0.25964000  0.47435000  0.74690000  1.0 -0.6405700466
O  O11  1  0.25964000  0.02565000  0.24690000  1.0 -0.6405700466
O  O12  1  0.74036000  0.52565000  0.25311000  1.0 -0.6405700466
O  O13  1  0.70205000  0.57891000  0.74367000  1.0 -0.6276867708
O  O14  1  0.29795000  0.07891000  0.75634000  1.0 -0.6276867708
O  O15  1  0.29795000  0.42109000  0.25633000  1.0 -0.6276867708
O  O16  1  0.70205000  0.92109000  0.24366000  1.0 -0.6276867708
O  O17  1  0.30456000  0.27672000  0.89033000  1.0 -0.5061613937
O  O18  1  0.69544000  0.77672000  0.60967000  1.0 -0.5043229183
O  O19  1  0.69544000  0.72328000  0.10967000  1.0 -0.5043229183
O  O20  1  0.30456000  0.22328000  0.39033000  1.0 -0.5061613937
O  O21  1  0.36547000  0.69109000  0.87094000  1.0 -0.5691079815
O  O22  1  0.63453000  0.19109000  0.62906000  1.0 -0.5691079815
O  O23  1  0.63453000  0.30891000  0.12907000  1.0 -0.5691079815
O  O24  1  0.36547000  0.80891000  0.37094000  1.0 -0.5691079815
