# DDEC6 charges by PACMAN v1.1 (https://github.com/mtap-research/PACMAN-charge/)
data_QUXRIM_FSR_pacman
_symmetry_space_group_name_H-M   'P 1'
_cell_length_a   11.87670000
_cell_length_b   5.57690000
_cell_length_c   23.55650000
_cell_angle_alpha   90.00000000
_cell_angle_beta   109.88800000
_cell_angle_gamma   90.00000000
_symmetry_Int_Tables_number   1
_chemical_formula_structural   CaH8C14SO6
_chemical_formula_sum   'Ca4 H32 C56 S4 O24'
_cell_volume   1467.21336926
_cell_formula_units_Z   4
loop_
 _symmetry_equiv_pos_site_id
 _symmetry_equiv_pos_as_xyz
  1  'x, y, z'
loop_
 _atom_site_type_symbol
 _atom_site_label
 _atom_site_symmetry_multiplicity
 _atom_site_fract_x
 _atom_site_fract_y
 _atom_site_fract_z
 _atom_site_occupancy
 _atom_site_charge
Ca  Ca1  1  0.55469000  0.74417000  0.95839000  1.0 1.4057590506
Ca  Ca2  1  0.44531000  0.24417000  0.54161000  1.0 1.4057590506
Ca  Ca3  1  0.44531000  0.25583000  0.04161000  1.0 1.4057590506
Ca  Ca4  1  0.55469000  0.75583000  0.45839000  1.0 1.404746765
H  H1  1  0.12720000  0.03020000  0.96790000  1.0 0.120301414
H  H2  1  0.87280000  0.53020000  0.53210000  1.0 0.120301414
H  H3  1  0.87280000  0.96980000  0.03210000  1.0 0.120301414
H  H4  1  0.12720000  0.46980000  0.46790000  1.0 0.120301414
H  H5  1  0.92230000  0.94840000  0.94140000  1.0 0.1304745802
H  H6  1  0.07770000  0.44840000  0.55860000  1.0 0.1304745802
H  H7  1  0.07770000  0.05160000  0.05860000  1.0 0.1304745802
H  H8  1  0.92230000  0.55160000  0.44140000  1.0 0.1304745802
H  H9  1  0.97910000  0.28300000  0.88630000  1.0 0.120301414
H  H10  1  0.02090000  0.78300000  0.61370000  1.0 0.120301414
H  H11  1  0.02090000  0.71700000  0.11370000  1.0 0.120301414
H  H12  1  0.97910000  0.21700000  0.38630000  1.0 0.120301414
H  H13  1  0.18420000  0.36630000  0.91360000  1.0 0.1304745802
H  H14  1  0.81580000  0.86630000  0.58640000  1.0 0.1304745802
H  H15  1  0.81580000  0.63370000  0.08640000  1.0 0.1304745802
H  H16  1  0.18420000  0.13370000  0.41360000  1.0 0.1304745802
H  H17  1  0.65420000  0.94040000  0.83480000  1.0 0.1304745802
H  H18  1  0.34580000  0.44040000  0.66520000  1.0 0.1304745802
H  H19  1  0.34580000  0.05960000  0.16520000  1.0 0.1304745802
H  H20  1  0.65420000  0.55960000  0.33480000  1.0 0.1304745802
H  H21  1  0.55930000  0.02440000  0.73150000  1.0 0.1120426298
H  H22  1  0.44070000  0.52440000  0.76850000  1.0 0.1120426298
H  H23  1  0.44070000  0.97560000  0.26850000  1.0 0.1120426298
H  H24  1  0.55930000  0.47560000  0.23150000  1.0 0.1120426298
H  H25  1  0.65320000  0.37010000  0.68750000  1.0 0.1304745802
H  H26  1  0.34680000  0.87010000  0.81250000  1.0 0.1304745802
H  H27  1  0.34680000  0.62990000  0.31250000  1.0 0.1304745802
H  H28  1  0.65320000  0.12990000  0.18750000  1.0 0.1304745802
H  H29  1  0.75300000  0.28740000  0.79010000  1.0 0.120301414
H  H30  1  0.24700000  0.78740000  0.70990000  1.0 0.120301414
H  H31  1  0.24700000  0.71260000  0.20990000  1.0 0.120301414
H  H32  1  0.75300000  0.21260000  0.29010000  1.0 0.120301414
C  C1  1  0.30687000  0.75770000  0.96451000  1.0 0.6197998465
C  C2  1  0.69313000  0.25770000  0.53549000  1.0 0.6197998465
C  C3  1  0.69313000  0.24230000  0.03549000  1.0 0.6197998465
C  C4  1  0.30687000  0.74230000  0.46451000  1.0 0.6197998465
C  C5  1  0.17512000  0.70480000  0.94472000  1.0 -0.0133455005
C  C6  1  0.82488000  0.20480000  0.55528000  1.0 -0.0133455005
C  C7  1  0.82488000  0.29520000  0.05528000  1.0 -0.0133455005
C  C8  1  0.17512000  0.79520000  0.44472000  1.0 -0.0133455005
C  C9  1  0.09712000  0.87750000  0.95205000  1.0 -0.0906362099
C  C10  1  0.90288000  0.37750000  0.54795000  1.0 -0.0906362099
C  C11  1  0.90288000  0.12250000  0.04795000  1.0 -0.0906362099
C  C12  1  0.09712000  0.62250000  0.45205000  1.0 -0.0906362099
C  C13  1  0.97570000  0.82990000  0.93647000  1.0 -0.0987886712
C  C14  1  0.02430000  0.32990000  0.56353000  1.0 -0.0987886712
C  C15  1  0.02430000  0.17010000  0.06353000  1.0 -0.0987886712
C  C16  1  0.97570000  0.67010000  0.43647000  1.0 -0.0987886712
C  C17  1  0.93419000  0.60560000  0.91353000  1.0 -0.0820634945
C  C18  1  0.06581000  0.10560000  0.58647000  1.0 -0.0820634945
C  C19  1  0.06581000  0.39440000  0.08647000  1.0 -0.0820634945
C  C20  1  0.93419000  0.89440000  0.41353000  1.0 -0.0820634945
C  C21  1  0.00994000  0.43320000  0.90371000  1.0 -0.0987886712
C  C22  1  0.99006000  0.93320000  0.59629000  1.0 -0.1089098736
C  C23  1  0.99006000  0.56680000  0.09629000  1.0 -0.1089098736
C  C24  1  0.00994000  0.06680000  0.40371000  1.0 -0.0987886712
C  C25  1  0.13121000  0.48320000  0.91971000  1.0 -0.0906362099
C  C26  1  0.86879000  0.98320000  0.58029000  1.0 -0.0906362099
C  C27  1  0.86879000  0.51680000  0.08029000  1.0 -0.0906362099
C  C28  1  0.13121000  0.01680000  0.41971000  1.0 -0.0906362099
C  C29  1  0.71058000  0.60580000  0.82090000  1.0 -0.0820634945
C  C30  1  0.28942000  0.10580000  0.67910000  1.0 -0.0820634945
C  C31  1  0.28942000  0.39420000  0.17910000  1.0 -0.0820634945
C  C32  1  0.71058000  0.89420000  0.32090000  1.0 -0.0820634945
C  C33  1  0.65419000  0.82600000  0.80489000  1.0 -0.0987886712
C  C34  1  0.34581000  0.32600000  0.69511000  1.0 -0.0987886712
C  C35  1  0.34581000  0.17400000  0.19511000  1.0 -0.0987886712
C  C36  1  0.65419000  0.67400000  0.30489000  1.0 -0.0987886712
C  C37  1  0.59763000  0.87420000  0.74368000  1.0 -0.0987886712
C  C38  1  0.40237000  0.37420000  0.75632000  1.0 -0.0987886712
C  C39  1  0.40237000  0.12580000  0.25632000  1.0 -0.0987886712
C  C40  1  0.59763000  0.62580000  0.24368000  1.0 -0.0987886712
C  C41  1  0.59665000  0.70500000  0.70020000  1.0 -0.0194513335
C  C42  1  0.40335000  0.20500000  0.79980000  1.0 -0.0194513335
C  C43  1  0.40335000  0.29500000  0.29980000  1.0 -0.0194513335
C  C44  1  0.59665000  0.79500000  0.20020000  1.0 -0.0194513335
C  C45  1  0.52872000  0.75640000  0.63419000  1.0 0.6197998465
C  C46  1  0.47128000  0.25640000  0.86581000  1.0 0.6197998465
C  C47  1  0.47128000  0.24360000  0.36581000  1.0 0.6197998465
C  C48  1  0.52872000  0.74360000  0.13419000  1.0 0.6197998465
C  C49  1  0.65402000  0.48550000  0.71733000  1.0 -0.0987886712
C  C50  1  0.34598000  0.98550000  0.78267000  1.0 -0.0987886712
C  C51  1  0.34598000  0.51450000  0.28267000  1.0 -0.0987886712
C  C52  1  0.65402000  0.01450000  0.21733000  1.0 -0.0987886712
C  C53  1  0.71243000  0.43550000  0.77805000  1.0 -0.1089098736
C  C54  1  0.28757000  0.93550000  0.72195000  1.0 -0.1089098736
C  C55  1  0.28757000  0.56450000  0.22195000  1.0 -0.1089098736
C  C56  1  0.71243000  0.06450000  0.27805000  1.0 -0.1089098736
S  S1  1  0.78155000  0.53388000  0.89758000  1.0 0.9894778819
S  S2  1  0.21845000  0.03388000  0.60242000  1.0 0.9894778819
S  S3  1  0.21845000  0.46612000  0.10242000  1.0 0.9894778819
S  S4  1  0.78155000  0.96612000  0.39758000  1.0 0.9894778819
O  O1  1  0.37794000  0.58140000  0.97329000  1.0 -0.6756690799
O  O2  1  0.62206000  0.08140000  0.52671000  1.0 -0.6756690799
O  O3  1  0.62206000  0.41860000  0.02671000  1.0 -0.6749755799
O  O4  1  0.37794000  0.91860000  0.47329000  1.0 -0.6756690799
O  O5  1  0.34041000  0.97180000  0.96976000  1.0 -0.6301431565
O  O6  1  0.65959000  0.47180000  0.53024000  1.0 -0.6301431565
O  O7  1  0.65959000  0.02820000  0.03024000  1.0 -0.6301431565
O  O8  1  0.34041000  0.52820000  0.46976000  1.0 -0.6301431565
O  O9  1  0.73735000  0.69540000  0.93349000  1.0 -0.5680439829
O  O10  1  0.26265000  0.19540000  0.56651000  1.0 -0.5680439829
O  O11  1  0.26265000  0.30460000  0.06651000  1.0 -0.5680439829
O  O12  1  0.73735000  0.80460000  0.43349000  1.0 -0.5680439829
O  O13  1  0.77348000  0.27930000  0.90462000  1.0 -0.5028375148
O  O14  1  0.22652000  0.77930000  0.59538000  1.0 -0.5028375148
O  O15  1  0.22652000  0.72070000  0.09538000  1.0 -0.5028375148
O  O16  1  0.77348000  0.22070000  0.40462000  1.0 -0.5028375148
O  O17  1  0.50702000  0.97230000  0.61989000  1.0 -0.6366551577
O  O18  1  0.49298000  0.47230000  0.88011000  1.0 -0.6366551577
O  O19  1  0.49298000  0.02770000  0.38011000  1.0 -0.6366551577
O  O20  1  0.50702000  0.52770000  0.11989000  1.0 -0.6366551577
O  O21  1  0.49850000  0.57940000  0.59978000  1.0 -0.6301431565
O  O22  1  0.50150000  0.07940000  0.90022000  1.0 -0.6301431565
O  O23  1  0.50150000  0.42060000  0.40022000  1.0 -0.6301431565
O  O24  1  0.49850000  0.92060000  0.09978000  1.0 -0.6301431565
