# DDEC6 charges by PACMAN v1.1 (https://github.com/mtap-research/PACMAN-charge/)
data_QUXRAE_ASR_pacman
_symmetry_space_group_name_H-M   'P 1'
_cell_length_a   11.72920000
_cell_length_b   5.56850000
_cell_length_c   23.65750000
_cell_angle_alpha   90.00000000
_cell_angle_beta   108.68300000
_cell_angle_gamma   90.00000000
_symmetry_Int_Tables_number   1
_chemical_formula_structural   CaH8C14SO6
_chemical_formula_sum   'Ca4 H32 C56 S4 O24'
_cell_volume   1463.74512222
_cell_formula_units_Z   4
loop_
 _symmetry_equiv_pos_site_id
 _symmetry_equiv_pos_as_xyz
  1  'x, y, z'
loop_
 _atom_site_type_symbol
 _atom_site_label
 _atom_site_symmetry_multiplicity
 _atom_site_fract_x
 _atom_site_fract_y
 _atom_site_fract_z
 _atom_site_occupancy
 _atom_site_charge
Ca  Ca1  1  0.41527000  0.75620000  0.77778000  1.0 1.4084341453
Ca  Ca2  1  0.58473000  0.25620000  0.72222000  1.0 1.4084341453
Ca  Ca3  1  0.58473000  0.24380000  0.22222000  1.0 1.4084341453
Ca  Ca4  1  0.41527000  0.74380000  0.27778000  1.0 1.4084341453
H  H1  1  0.38240000  0.54980000  0.96240000  1.0 0.1291828771
H  H2  1  0.61760000  0.04980000  0.53760000  1.0 0.1291828771
H  H3  1  0.61760000  0.45020000  0.03760000  1.0 0.1291828771
H  H4  1  0.38240000  0.95020000  0.46240000  1.0 0.1291828771
H  H5  1  0.43680000  0.46760000  0.06480000  1.0 0.120325029
H  H6  1  0.56320000  0.96760000  0.43520000  1.0 0.120325029
H  H7  1  0.56320000  0.53240000  0.93520000  1.0 0.120325029
H  H8  1  0.43680000  0.03240000  0.56480000  1.0 0.120325029
H  H9  1  0.32500000  0.12860000  0.09490000  1.0 0.1291828771
H  H10  1  0.67500000  0.62860000  0.40510000  1.0 0.1291828771
H  H11  1  0.67500000  0.87140000  0.90510000  1.0 0.1291828771
H  H12  1  0.32500000  0.37140000  0.59490000  1.0 0.1291828771
H  H13  1  0.26570000  0.21090000  0.99240000  1.0 0.120325029
H  H14  1  0.73430000  0.71090000  0.50760000  1.0 0.120325029
H  H15  1  0.73430000  0.78910000  0.00760000  1.0 0.120325029
H  H16  1  0.26570000  0.28910000  0.49240000  1.0 0.120325029
H  H17  1  0.07470000  0.20580000  0.88050000  1.0 0.120325029
H  H18  1  0.92530000  0.70580000  0.61950000  1.0 0.120325029
H  H19  1  0.92530000  0.79420000  0.11950000  1.0 0.120325029
H  H20  1  0.07470000  0.29420000  0.38050000  1.0 0.120325029
H  H21  1  0.87170000  0.12420000  0.82870000  1.0 0.1291828771
H  H22  1  0.12830000  0.62420000  0.67130000  1.0 0.1291828771
H  H23  1  0.12830000  0.87580000  0.17130000  1.0 0.1291828771
H  H24  1  0.87170000  0.37580000  0.32870000  1.0 0.1291828771
H  H25  1  0.96500000  0.47400000  0.77990000  1.0 0.1128114463
H  H26  1  0.03500000  0.97400000  0.72010000  1.0 0.1128114463
H  H27  1  0.03500000  0.52600000  0.22010000  1.0 0.1128114463
H  H28  1  0.96500000  0.02600000  0.27990000  1.0 0.1128114463
H  H29  1  0.16970000  0.55820000  0.82850000  1.0 0.1291828771
H  H30  1  0.83030000  0.05820000  0.67150000  1.0 0.1291828771
H  H31  1  0.83030000  0.44180000  0.17150000  1.0 0.1291828771
H  H32  1  0.16970000  0.94180000  0.32850000  1.0 0.1291828771
C  C1  1  0.32344000  0.89150000  0.96889000  1.0 -0.0829150899
C  C2  1  0.67656000  0.39150000  0.53111000  1.0 -0.0829150899
C  C3  1  0.67656000  0.10850000  0.03111000  1.0 -0.0829150899
C  C4  1  0.32344000  0.60850000  0.46889000  1.0 -0.0829150899
C  C5  1  0.37174000  0.66740000  0.98933000  1.0 -0.0988106444
C  C6  1  0.62826000  0.16740000  0.51067000  1.0 -0.0988106444
C  C7  1  0.62826000  0.33260000  0.01067000  1.0 -0.0988106444
C  C8  1  0.37174000  0.83260000  0.48933000  1.0 -0.0988106444
C  C9  1  0.40395000  0.61980000  0.05007000  1.0 -0.089509169
C  C10  1  0.59605000  0.11980000  0.44993000  1.0 -0.089509169
C  C11  1  0.59605000  0.38020000  0.94993000  1.0 -0.089509169
C  C12  1  0.40395000  0.88020000  0.55007000  1.0 -0.089509169
C  C13  1  0.38879000  0.79180000  0.08941000  1.0 -0.013640819
C  C14  1  0.61121000  0.29180000  0.41059000  1.0 -0.013640819
C  C15  1  0.61121000  0.20820000  0.91059000  1.0 -0.013640819
C  C16  1  0.38879000  0.70820000  0.58941000  1.0 -0.013640819
C  C17  1  0.33696000  0.01220000  0.06798000  1.0 -0.089509169
C  C18  1  0.66304000  0.51220000  0.43202000  1.0 -0.089509169
C  C19  1  0.66304000  0.98780000  0.93202000  1.0 -0.089509169
C  C20  1  0.33696000  0.48780000  0.56798000  1.0 -0.089509169
C  C21  1  0.30281000  0.06210000  0.00742000  1.0 -0.0988106444
C  C22  1  0.69719000  0.56210000  0.49258000  1.0 -0.1063873618
C  C23  1  0.69719000  0.93790000  0.99258000  1.0 -0.1063873618
C  C24  1  0.30281000  0.43790000  0.50742000  1.0 -0.0988106444
C  C25  1  0.42987000  0.73860000  0.15530000  1.0 0.6199209915
C  C26  1  0.57013000  0.23860000  0.34470000  1.0 0.6199209915
C  C27  1  0.57013000  0.26140000  0.84470000  1.0 0.6199209915
C  C28  1  0.42987000  0.76140000  0.65530000  1.0 0.6199209915
C  C29  1  0.13951000  0.89120000  0.85777000  1.0 -0.089509169
C  C30  1  0.86049000  0.39120000  0.64223000  1.0 -0.089509169
C  C31  1  0.86049000  0.10880000  0.14223000  1.0 -0.089509169
C  C32  1  0.13951000  0.60880000  0.35777000  1.0 -0.089509169
C  C33  1  0.05224000  0.05950000  0.85920000  1.0 -0.1063873618
C  C34  1  0.94776000  0.55950000  0.64080000  1.0 -0.1063873618
C  C35  1  0.94776000  0.94050000  0.14080000  1.0 -0.1063873618
C  C36  1  0.05224000  0.44050000  0.35920000  1.0 -0.1063873618
C  C37  1  0.93195000  0.00980000  0.82898000  1.0 -0.0988106444
C  C38  1  0.06805000  0.50980000  0.67102000  1.0 -0.0988106444
C  C39  1  0.06805000  0.99020000  0.17102000  1.0 -0.0988106444
C  C40  1  0.93195000  0.49020000  0.32898000  1.0 -0.0988106444
C  C41  1  0.89987000  0.79200000  0.79908000  1.0 -0.0188526789
C  C42  1  0.10013000  0.29200000  0.70092000  1.0 -0.0188526789
C  C43  1  0.10013000  0.20800000  0.20092000  1.0 -0.0188526789
C  C44  1  0.89987000  0.70800000  0.29908000  1.0 -0.0188526789
C  C45  1  0.98793000  0.62360000  0.79960000  1.0 -0.0988106444
C  C46  1  0.01207000  0.12360000  0.70040000  1.0 -0.0988106444
C  C47  1  0.01207000  0.37640000  0.20040000  1.0 -0.0988106444
C  C48  1  0.98793000  0.87640000  0.29960000  1.0 -0.0988106444
C  C49  1  0.10934000  0.67180000  0.82861000  1.0 -0.089509169
C  C50  1  0.89066000  0.17180000  0.67139000  1.0 -0.089509169
C  C51  1  0.89066000  0.32820000  0.17139000  1.0 -0.089509169
C  C52  1  0.10934000  0.82820000  0.32861000  1.0 -0.089509169
C  C53  1  0.76935000  0.74060000  0.76329000  1.0 0.6199209915
C  C54  1  0.23065000  0.24060000  0.73671000  1.0 0.6199209915
C  C55  1  0.23065000  0.25940000  0.23671000  1.0 0.6199209915
C  C56  1  0.76935000  0.75940000  0.26329000  1.0 0.6199209915
S  S1  1  0.29203000  0.96451000  0.89286000  1.0 0.9912545757
S  S2  1  0.70797000  0.46451000  0.60714000  1.0 0.9912545757
S  S3  1  0.70797000  0.03549000  0.10714000  1.0 0.9912545757
S  S4  1  0.29203000  0.53549000  0.39286000  1.0 0.9912545757
O  O1  1  0.45160000  0.91557000  0.19076000  1.0 -0.6773724927
O  O2  1  0.54840000  0.41557000  0.30924000  1.0 -0.6773724927
O  O3  1  0.54840000  0.08443000  0.80924000  1.0 -0.6773724927
O  O4  1  0.45160000  0.58443000  0.69076000  1.0 -0.6773724927
O  O5  1  0.43664000  0.52420000  0.17203000  1.0 -0.6278427764
O  O6  1  0.56336000  0.02420000  0.32797000  1.0 -0.6278427764
O  O7  1  0.56336000  0.47580000  0.82797000  1.0 -0.6278427764
O  O8  1  0.43664000  0.97580000  0.67203000  1.0 -0.6278427764
O  O9  1  0.70285000  0.91915000  0.74518000  1.0 -0.6278427764
O  O10  1  0.29715000  0.41915000  0.75482000  1.0 -0.6278427764
O  O11  1  0.29715000  0.08085000  0.25482000  1.0 -0.6278427764
O  O12  1  0.70285000  0.58085000  0.24518000  1.0 -0.6278427764
O  O13  1  0.74058000  0.52363000  0.75415000  1.0 -0.6403196081
O  O14  1  0.25942000  0.02363000  0.74585000  1.0 -0.6403196081
O  O15  1  0.25942000  0.47637000  0.24585000  1.0 -0.6403196081
O  O16  1  0.74058000  0.97637000  0.25415000  1.0 -0.6403196081
O  O17  1  0.30513000  0.22042000  0.88892000  1.0 -0.5068248584
O  O18  1  0.69487000  0.72042000  0.61108000  1.0 -0.5068248584
O  O19  1  0.69487000  0.77958000  0.11108000  1.0 -0.5068248584
O  O20  1  0.30513000  0.27958000  0.38892000  1.0 -0.5068248584
O  O21  1  0.36494000  0.80548000  0.86980000  1.0 -0.5709826722
O  O22  1  0.63506000  0.30548000  0.63020000  1.0 -0.5709826722
O  O23  1  0.63506000  0.19452000  0.13020000  1.0 -0.5709826722
O  O24  1  0.36494000  0.69452000  0.36980000  1.0 -0.5709826722
