# DDEC6 charges by PACMAN v1.1 (https://github.com/mtap-research/PACMAN-charge/)
data_QUXREI_FSR_pacman
_symmetry_space_group_name_H-M   'P 1'
_cell_length_a   11.71500000
_cell_length_b   5.56790000
_cell_length_c   23.67060000
_cell_angle_alpha   90.00000000
_cell_angle_beta   108.58400000
_cell_angle_gamma   90.00000000
_symmetry_Int_Tables_number   1
_chemical_formula_structural   CaH8C14SO6
_chemical_formula_sum   'Ca4 H32 C56 S4 O24'
_cell_volume   1463.47736915
_cell_formula_units_Z   4
loop_
 _symmetry_equiv_pos_site_id
 _symmetry_equiv_pos_as_xyz
  1  'x, y, z'
loop_
 _atom_site_type_symbol
 _atom_site_label
 _atom_site_symmetry_multiplicity
 _atom_site_fract_x
 _atom_site_fract_y
 _atom_site_fract_z
 _atom_site_occupancy
 _atom_site_charge
Ca  Ca1  1  0.58462000  0.24358000  0.72207000  1.0 1.4091361512
Ca  Ca2  1  0.41538000  0.74358000  0.77793000  1.0 1.4091361512
Ca  Ca3  1  0.41538000  0.75642000  0.27793000  1.0 1.4091361512
Ca  Ca4  1  0.58462000  0.25642000  0.22207000  1.0 1.4091361512
H  H1  1  0.56380000  0.53310000  0.43520000  1.0 0.1194118112
H  H2  1  0.43620000  0.03310000  0.06480000  1.0 0.1194118112
H  H3  1  0.43620000  0.46690000  0.56480000  1.0 0.1194118112
H  H4  1  0.56380000  0.96690000  0.93520000  1.0 0.1194118112
H  H5  1  0.61770000  0.45000000  0.53760000  1.0 0.1286712636
H  H6  1  0.38230000  0.95000000  0.96240000  1.0 0.1286712636
H  H7  1  0.38230000  0.55000000  0.46240000  1.0 0.1286712636
H  H8  1  0.61770000  0.05000000  0.03760000  1.0 0.1286712636
H  H9  1  0.73490000  0.78910000  0.50750000  1.0 0.1194118112
H  H10  1  0.26510000  0.28910000  0.99250000  1.0 0.1194118112
H  H11  1  0.26510000  0.21090000  0.49250000  1.0 0.1194118112
H  H12  1  0.73490000  0.71090000  0.00750000  1.0 0.1194118112
H  H13  1  0.67660000  0.87240000  0.40500000  1.0 0.1286712636
H  H14  1  0.32340000  0.37240000  0.09500000  1.0 0.1286712636
H  H15  1  0.32340000  0.12760000  0.59500000  1.0 0.1286712636
H  H16  1  0.67660000  0.62760000  0.90500000  1.0 0.1286712636
H  H17  1  0.03440000  0.52660000  0.71980000  1.0 0.1112951424
H  H18  1  0.96560000  0.02660000  0.78020000  1.0 0.1112951424
H  H19  1  0.96560000  0.47340000  0.28020000  1.0 0.1112951424
H  H20  1  0.03440000  0.97340000  0.21980000  1.0 0.1112951424
H  H21  1  0.83020000  0.44120000  0.67120000  1.0 0.1286712636
H  H22  1  0.16980000  0.94120000  0.82880000  1.0 0.1286712636
H  H23  1  0.16980000  0.55880000  0.32880000  1.0 0.1286712636
H  H24  1  0.83020000  0.05880000  0.17120000  1.0 0.1286712636
H  H25  1  0.92520000  0.79350000  0.61950000  1.0 0.1194118112
H  H26  1  0.07480000  0.29350000  0.88050000  1.0 0.1194118112
H  H27  1  0.07480000  0.20650000  0.38050000  1.0 0.1194118112
H  H28  1  0.92520000  0.70650000  0.11950000  1.0 0.1194118112
H  H29  1  0.12870000  0.87550000  0.67110000  1.0 0.1286712636
H  H30  1  0.87130000  0.37550000  0.82890000  1.0 0.1286712636
H  H31  1  0.87130000  0.12450000  0.32890000  1.0 0.1286712636
H  H32  1  0.12870000  0.62450000  0.17110000  1.0 0.1286712636
C  C1  1  0.61163000  0.20850000  0.41053000  1.0 -0.0181701604
C  C2  1  0.38837000  0.70850000  0.08947000  1.0 -0.0181701604
C  C3  1  0.38837000  0.79150000  0.58947000  1.0 -0.0181701604
C  C4  1  0.61163000  0.29150000  0.91053000  1.0 -0.0181701604
C  C5  1  0.59639000  0.38070000  0.44989000  1.0 -0.0902941879
C  C6  1  0.40361000  0.88070000  0.05011000  1.0 -0.0902941879
C  C7  1  0.40361000  0.61930000  0.55011000  1.0 -0.0902941879
C  C8  1  0.59639000  0.11930000  0.94989000  1.0 -0.0902941879
C  C9  1  0.62854000  0.33250000  0.51064000  1.0 -0.0980522633
C  C10  1  0.37146000  0.83250000  0.98936000  1.0 -0.0980522633
C  C11  1  0.37146000  0.66750000  0.48936000  1.0 -0.0980522633
C  C12  1  0.62854000  0.16750000  0.01064000  1.0 -0.0980522633
C  C13  1  0.67674000  0.10870000  0.53095000  1.0 -0.0826823774
C  C14  1  0.32326000  0.60870000  0.96905000  1.0 -0.0826823774
C  C15  1  0.32326000  0.89130000  0.46905000  1.0 -0.0826823774
C  C16  1  0.67674000  0.39130000  0.03095000  1.0 -0.0826823774
C  C17  1  0.69784000  0.93790000  0.49254000  1.0 -0.1061725437
C  C18  1  0.30216000  0.43790000  0.00746000  1.0 -0.1061725437
C  C19  1  0.30216000  0.06210000  0.50746000  1.0 -0.1061725437
C  C20  1  0.69784000  0.56210000  0.99254000  1.0 -0.1061725437
C  C21  1  0.66394000  0.98830000  0.43184000  1.0 -0.0902941879
C  C22  1  0.33606000  0.48830000  0.06816000  1.0 -0.0902941879
C  C23  1  0.33606000  0.01170000  0.56816000  1.0 -0.0902941879
C  C24  1  0.66394000  0.51170000  0.93184000  1.0 -0.0902941879
C  C25  1  0.57040000  0.26190000  0.34480000  1.0 0.6200983276
C  C26  1  0.42960000  0.76190000  0.15520000  1.0 0.6200983276
C  C27  1  0.42960000  0.73810000  0.65520000  1.0 0.6200983276
C  C28  1  0.57040000  0.23810000  0.84480000  1.0 0.6200983276
C  C29  1  0.10038000  0.20800000  0.70102000  1.0 -0.0181701604
C  C30  1  0.89962000  0.70800000  0.79898000  1.0 -0.0181701604
C  C31  1  0.89962000  0.79200000  0.29898000  1.0 -0.0181701604
C  C32  1  0.10038000  0.29200000  0.20102000  1.0 -0.0181701604
C  C33  1  0.01187000  0.37670000  0.70027000  1.0 -0.0980522633
C  C34  1  0.98813000  0.87670000  0.79973000  1.0 -0.0980522633
C  C35  1  0.98813000  0.62330000  0.29973000  1.0 -0.0980522633
C  C36  1  0.01187000  0.12330000  0.20027000  1.0 -0.0980522633
C  C37  1  0.89076000  0.32780000  0.67116000  1.0 -0.0902941879
C  C38  1  0.10924000  0.82780000  0.82884000  1.0 -0.0902941879
C  C39  1  0.10924000  0.67220000  0.32884000  1.0 -0.0902941879
C  C40  1  0.89076000  0.17220000  0.17116000  1.0 -0.0902941879
C  C41  1  0.86084000  0.10870000  0.64209000  1.0 -0.0826823774
C  C42  1  0.13916000  0.60870000  0.85791000  1.0 -0.0826823774
C  C43  1  0.13916000  0.89130000  0.35791000  1.0 -0.0826823774
C  C44  1  0.86084000  0.39130000  0.14209000  1.0 -0.0826823774
C  C45  1  0.94782000  0.94000000  0.64072000  1.0 -0.1061725437
C  C46  1  0.05218000  0.44000000  0.85928000  1.0 -0.1061725437
C  C47  1  0.05218000  0.06000000  0.35928000  1.0 -0.1061725437
C  C48  1  0.94782000  0.56000000  0.14072000  1.0 -0.1061725437
C  C49  1  0.06830000  0.98970000  0.67092000  1.0 -0.0980522633
C  C50  1  0.93170000  0.48970000  0.82908000  1.0 -0.0980522633
C  C51  1  0.93170000  0.01030000  0.32908000  1.0 -0.0980522633
C  C52  1  0.06830000  0.51030000  0.17092000  1.0 -0.0980522633
C  C53  1  0.23048000  0.25870000  0.73674000  1.0 0.626392593
C  C54  1  0.76952000  0.75870000  0.76326000  1.0 0.626392593
C  C55  1  0.76952000  0.74130000  0.26326000  1.0 0.626392593
C  C56  1  0.23048000  0.24130000  0.23674000  1.0 0.626392593
S  S1  1  0.70792000  0.03536000  0.60697000  1.0 0.9962748636
S  S2  1  0.29208000  0.53536000  0.89303000  1.0 0.9962748636
S  S3  1  0.29208000  0.96464000  0.39303000  1.0 0.9962748636
S  S4  1  0.70792000  0.46464000  0.10697000  1.0 0.9962748636
O  O1  1  0.69448000  0.77950000  0.61093000  1.0 -0.503794397
O  O2  1  0.30552000  0.27950000  0.88907000  1.0 -0.503794397
O  O3  1  0.30552000  0.22050000  0.38907000  1.0 -0.503794397
O  O4  1  0.69448000  0.72050000  0.11093000  1.0 -0.503794397
O  O5  1  0.63481000  0.19450000  0.62991000  1.0 -0.5684977422
O  O6  1  0.36519000  0.69450000  0.87009000  1.0 -0.5684977422
O  O7  1  0.36519000  0.80550000  0.37009000  1.0 -0.5684977422
O  O8  1  0.63481000  0.30550000  0.12991000  1.0 -0.5684977422
O  O9  1  0.56371000  0.47670000  0.32800000  1.0 -0.6296299945
O  O10  1  0.43629000  0.97670000  0.17200000  1.0 -0.6296299945
O  O11  1  0.43629000  0.52330000  0.67200000  1.0 -0.6296299945
O  O12  1  0.56371000  0.02330000  0.82800000  1.0 -0.6296299945
O  O13  1  0.54841000  0.08510000  0.30914000  1.0 -0.6794777165
O  O14  1  0.45159000  0.58510000  0.19086000  1.0 -0.6794777165
O  O15  1  0.45159000  0.91490000  0.69086000  1.0 -0.6794777165
O  O16  1  0.54841000  0.41490000  0.80914000  1.0 -0.6794777165
O  O17  1  0.25936000  0.47660000  0.74609000  1.0 -0.6459982048
O  O18  1  0.74064000  0.97660000  0.75391000  1.0 -0.6459982048
O  O19  1  0.74064000  0.52340000  0.25391000  1.0 -0.6459982048
O  O20  1  0.25936000  0.02340000  0.24609000  1.0 -0.6459982048
O  O21  1  0.29756000  0.08080000  0.75518000  1.0 -0.6296299945
O  O22  1  0.70244000  0.58080000  0.74482000  1.0 -0.6296299945
O  O23  1  0.70244000  0.91920000  0.24482000  1.0 -0.6296299945
O  O24  1  0.29756000  0.41920000  0.25518000  1.0 -0.6296299945
