# DDEC6 charges by PACMAN v1.1 (https://github.com/mtap-research/PACMAN-charge/)
data_QUXYOA_ASR_pacman
_symmetry_space_group_name_H-M   'P 1'
_cell_length_a   9.50290000
_cell_length_b   16.65040000
_cell_length_c   27.13990000
_cell_angle_alpha   90.00000000
_cell_angle_beta   90.00000000
_cell_angle_gamma   90.00000000
_symmetry_Int_Tables_number   1
_chemical_formula_structural   CeH24(C5O)6
_chemical_formula_sum   'Ce4 H96 C120 O24'
_cell_volume   4294.26729567
_cell_formula_units_Z   4
loop_
 _symmetry_equiv_pos_site_id
 _symmetry_equiv_pos_as_xyz
  1  'x, y, z'
loop_
 _atom_site_type_symbol
 _atom_site_label
 _atom_site_symmetry_multiplicity
 _atom_site_fract_x
 _atom_site_fract_y
 _atom_site_fract_z
 _atom_site_occupancy
 _atom_site_charge
Ce  Ce1  1  0.75000000  0.00000000  0.50894000  1.0 1.9286011066
Ce  Ce2  1  0.75000000  0.50000000  0.99106000  1.0 1.9286011066
Ce  Ce3  1  0.25000000  0.00000000  0.49106000  1.0 1.9286011066
Ce  Ce4  1  0.25000000  0.50000000  0.00894000  1.0 1.9286011066
H  H1  1  0.27373000  0.82172000  0.55907000  1.0 0.1211963151
H  H2  1  0.18147000  0.70295000  0.58799000  1.0 0.1305421206
H  H3  1  0.55211000  0.59613000  0.56800000  1.0 0.1305421206
H  H4  1  0.64194000  0.71439000  0.53409000  1.0 0.1305421206
H  H5  1  0.31136000  0.67869000  0.69008000  1.0 0.1305421206
H  H6  1  0.39473000  0.61659000  0.72222000  1.0 0.1211963151
H  H7  1  0.46055000  0.64934000  0.67321000  1.0 0.1305421206
H  H8  1  0.39727000  0.41688000  0.75116000  1.0 0.1211963151
H  H9  1  0.39275000  0.41127000  0.83636000  1.0 0.1211963151
H  H10  1  0.34074000  0.51652000  0.51602000  1.0 0.0623495841
H  H11  1  0.22970000  0.44689000  0.51602000  1.0 0.0623495841
H  H12  1  0.17956000  0.53659000  0.51602000  1.0 0.0623495841
H  H13  1  0.22627000  0.17828000  0.55907000  1.0 0.1211963151
H  H14  1  0.31853000  0.29705000  0.58799000  1.0 0.1305421206
H  H15  1  0.94789000  0.40387000  0.56800000  1.0 0.1305421206
H  H16  1  0.85806000  0.28561000  0.53409000  1.0 0.1305421206
H  H17  1  0.18864000  0.32131000  0.69008000  1.0 0.1305421206
H  H18  1  0.10527000  0.38341000  0.72222000  1.0 0.1211963151
H  H19  1  0.03945000  0.35066000  0.67321000  1.0 0.1305421206
H  H20  1  0.10273000  0.58312000  0.75116000  1.0 0.1211963151
H  H21  1  0.10725000  0.58873000  0.83636000  1.0 0.1211963151
H  H22  1  0.15926000  0.48348000  0.51602000  1.0 0.0623495841
H  H23  1  0.27030000  0.55311000  0.51602000  1.0 0.0623495841
H  H24  1  0.32044000  0.46341000  0.51602000  1.0 0.0623495841
H  H25  1  0.22627000  0.32172000  0.94093000  1.0 0.1211963151
H  H26  1  0.31853000  0.20295000  0.91201000  1.0 0.1305421206
H  H27  1  0.94789000  0.09613000  0.93200000  1.0 0.1305421206
H  H28  1  0.85806000  0.21439000  0.96591000  1.0 0.1305421206
H  H29  1  0.18864000  0.17869000  0.80992000  1.0 0.1305421206
H  H30  1  0.10527000  0.11659000  0.77778000  1.0 0.1211963151
H  H31  1  0.03945000  0.14934000  0.82679000  1.0 0.1305421206
H  H32  1  0.10273000  0.91688000  0.74884000  1.0 0.1211963151
H  H33  1  0.10725000  0.91127000  0.66364000  1.0 0.1211963151
H  H34  1  0.15926000  0.01652000  0.98398000  1.0 0.0623495841
H  H35  1  0.27030000  0.94689000  0.98398000  1.0 0.0623495841
H  H36  1  0.32044000  0.03659000  0.98398000  1.0 0.0623495841
H  H37  1  0.27373000  0.67828000  0.94093000  1.0 0.1211963151
H  H38  1  0.18147000  0.79705000  0.91201000  1.0 0.1305421206
H  H39  1  0.55211000  0.90387000  0.93200000  1.0 0.1305421206
H  H40  1  0.64194000  0.78561000  0.96591000  1.0 0.1305421206
H  H41  1  0.31136000  0.82131000  0.80992000  1.0 0.1305421206
H  H42  1  0.39473000  0.88341000  0.77778000  1.0 0.1211963151
H  H43  1  0.46055000  0.85066000  0.82679000  1.0 0.1305421206
H  H44  1  0.39727000  0.08312000  0.74884000  1.0 0.1211963151
H  H45  1  0.39275000  0.08873000  0.66364000  1.0 0.1211963151
H  H46  1  0.34074000  0.98348000  0.98398000  1.0 0.0623495841
H  H47  1  0.22970000  0.05311000  0.98398000  1.0 0.0623495841
H  H48  1  0.17956000  0.96341000  0.98398000  1.0 0.0623495841
H  H49  1  0.72627000  0.17828000  0.44093000  1.0 0.1211963151
H  H50  1  0.81853000  0.29705000  0.41201000  1.0 0.1305421206
H  H51  1  0.44789000  0.40387000  0.43200000  1.0 0.1305421206
H  H52  1  0.35806000  0.28561000  0.46591000  1.0 0.1305421206
H  H53  1  0.68864000  0.32131000  0.30992000  1.0 0.1305421206
H  H54  1  0.60527000  0.38341000  0.27778000  1.0 0.1211963151
H  H55  1  0.53945000  0.35066000  0.32679000  1.0 0.1305421206
H  H56  1  0.60273000  0.58312000  0.24884000  1.0 0.1211963151
H  H57  1  0.60725000  0.58873000  0.16364000  1.0 0.1211963151
H  H58  1  0.65926000  0.48348000  0.48398000  1.0 0.0623495841
H  H59  1  0.77030000  0.55311000  0.48398000  1.0 0.0623495841
H  H60  1  0.82044000  0.46341000  0.48398000  1.0 0.0623495841
H  H61  1  0.77373000  0.82172000  0.44093000  1.0 0.1211963151
H  H62  1  0.68147000  0.70295000  0.41201000  1.0 0.1305421206
H  H63  1  0.05211000  0.59613000  0.43200000  1.0 0.1305421206
H  H64  1  0.14194000  0.71439000  0.46591000  1.0 0.1305421206
H  H65  1  0.81136000  0.67869000  0.30992000  1.0 0.1305421206
H  H66  1  0.89473000  0.61659000  0.27778000  1.0 0.1211963151
H  H67  1  0.96055000  0.64934000  0.32679000  1.0 0.1305421206
H  H68  1  0.89727000  0.41688000  0.24884000  1.0 0.1211963151
H  H69  1  0.89275000  0.41127000  0.16364000  1.0 0.1211963151
H  H70  1  0.84074000  0.51652000  0.48398000  1.0 0.0623495841
H  H71  1  0.72970000  0.44689000  0.48398000  1.0 0.0623495841
H  H72  1  0.67956000  0.53659000  0.48398000  1.0 0.0623495841
H  H73  1  0.77373000  0.67828000  0.05907000  1.0 0.1211963151
H  H74  1  0.68147000  0.79705000  0.08799000  1.0 0.1305421206
H  H75  1  0.05211000  0.90387000  0.06800000  1.0 0.1305421206
H  H76  1  0.14194000  0.78561000  0.03409000  1.0 0.1305421206
H  H77  1  0.81136000  0.82131000  0.19008000  1.0 0.1305421206
H  H78  1  0.89473000  0.88341000  0.22222000  1.0 0.1211963151
H  H79  1  0.96055000  0.85066000  0.17321000  1.0 0.1305421206
H  H80  1  0.89727000  0.08312000  0.25116000  1.0 0.1211963151
H  H81  1  0.89275000  0.08873000  0.33636000  1.0 0.1211963151
H  H82  1  0.84074000  0.98348000  0.01602000  1.0 0.0623495841
H  H83  1  0.72970000  0.05311000  0.01602000  1.0 0.0623495841
H  H84  1  0.67956000  0.96341000  0.01602000  1.0 0.0623495841
H  H85  1  0.72627000  0.32172000  0.05907000  1.0 0.1211963151
H  H86  1  0.81853000  0.20295000  0.08799000  1.0 0.1305421206
H  H87  1  0.44789000  0.09613000  0.06800000  1.0 0.1305421206
H  H88  1  0.35806000  0.21439000  0.03409000  1.0 0.1305421206
H  H89  1  0.68864000  0.17869000  0.19008000  1.0 0.1305421206
H  H90  1  0.60527000  0.11659000  0.22222000  1.0 0.1211963151
H  H91  1  0.53945000  0.14934000  0.17321000  1.0 0.1305421206
H  H92  1  0.60273000  0.91688000  0.25116000  1.0 0.1211963151
H  H93  1  0.60725000  0.91127000  0.33636000  1.0 0.1211963151
H  H94  1  0.65926000  0.01652000  0.01602000  1.0 0.0623495841
H  H95  1  0.77030000  0.94689000  0.01602000  1.0 0.0623495841
H  H96  1  0.82044000  0.03659000  0.01602000  1.0 0.0623495841
C  C1  1  0.52990000  0.85920000  0.52850000  1.0 0.6203242297
C  C2  1  0.46850000  0.78090000  0.54457000  1.0 -0.0399113429
C  C3  1  0.33060000  0.77630000  0.56060000  1.0 -0.0915917871
C  C4  1  0.27570000  0.70530000  0.57890000  1.0 -0.1497644717
C  C5  1  0.36010000  0.63720000  0.58393000  1.0 0.0623495841
C  C6  1  0.49520000  0.64150000  0.56650000  1.0 -0.1497644717
C  C7  1  0.55040000  0.71320000  0.54620000  1.0 -0.0915917871
C  C8  1  0.30500000  0.56600000  0.60990000  1.0 -0.0589175033
C  C9  1  0.30630000  0.56610000  0.66120000  1.0 0.0668425541
C  C10  1  0.37460000  0.63380000  0.68920000  1.0 -0.4407200423
C  C11  1  0.33600000  0.45030000  0.76830000  1.0 -0.158004636
C  C12  1  0.33590000  0.44770000  0.81970000  1.0 -0.0845168727
C  C13  1  0.97010000  0.14080000  0.52850000  1.0 0.6203242297
C  C14  1  0.03150000  0.21910000  0.54457000  1.0 -0.0399113429
C  C15  1  0.16940000  0.22370000  0.56060000  1.0 -0.0915917871
C  C16  1  0.22430000  0.29470000  0.57890000  1.0 -0.1497644717
C  C17  1  0.13990000  0.36280000  0.58393000  1.0 0.0623495841
C  C18  1  0.00480000  0.35850000  0.56650000  1.0 -0.1497644717
C  C19  1  0.94960000  0.28680000  0.54620000  1.0 -0.0915917871
C  C20  1  0.19500000  0.43400000  0.60990000  1.0 -0.0589175033
C  C21  1  0.19370000  0.43390000  0.66120000  1.0 0.0668425541
C  C22  1  0.12540000  0.36620000  0.68920000  1.0 -0.4407200423
C  C23  1  0.16400000  0.54970000  0.76830000  1.0 -0.158004636
C  C24  1  0.16410000  0.55230000  0.81970000  1.0 -0.0845168727
C  C25  1  0.97010000  0.35920000  0.97150000  1.0 0.6203242297
C  C26  1  0.03150000  0.28090000  0.95543000  1.0 -0.0399113429
C  C27  1  0.16940000  0.27630000  0.93940000  1.0 -0.0915917871
C  C28  1  0.22430000  0.20530000  0.92110000  1.0 -0.1497644717
C  C29  1  0.13990000  0.13720000  0.91607000  1.0 0.0623495841
C  C30  1  0.00480000  0.14150000  0.93350000  1.0 -0.1497644717
C  C31  1  0.94960000  0.21320000  0.95380000  1.0 -0.0915917871
C  C32  1  0.19500000  0.06600000  0.89010000  1.0 -0.0589175033
C  C33  1  0.19370000  0.06610000  0.83880000  1.0 0.0668425541
C  C34  1  0.12540000  0.13380000  0.81080000  1.0 -0.4407200423
C  C35  1  0.16400000  0.95030000  0.73170000  1.0 -0.158004636
C  C36  1  0.16410000  0.94770000  0.68030000  1.0 -0.0845168727
C  C37  1  0.52990000  0.64080000  0.97150000  1.0 0.6203242297
C  C38  1  0.46850000  0.71910000  0.95543000  1.0 -0.0399113429
C  C39  1  0.33060000  0.72370000  0.93940000  1.0 -0.0915917871
C  C40  1  0.27570000  0.79470000  0.92110000  1.0 -0.1497644717
C  C41  1  0.36010000  0.86280000  0.91607000  1.0 0.0623495841
C  C42  1  0.49520000  0.85850000  0.93350000  1.0 -0.1497644717
C  C43  1  0.55040000  0.78680000  0.95380000  1.0 -0.0915917871
C  C44  1  0.30500000  0.93400000  0.89010000  1.0 -0.0589175033
C  C45  1  0.30630000  0.93390000  0.83880000  1.0 0.0668425541
C  C46  1  0.37460000  0.86620000  0.81080000  1.0 -0.4407200423
C  C47  1  0.33600000  0.04970000  0.73170000  1.0 -0.158004636
C  C48  1  0.33590000  0.05230000  0.68030000  1.0 -0.0845168727
C  C49  1  0.47010000  0.14080000  0.47150000  1.0 0.6203242297
C  C50  1  0.53150000  0.21910000  0.45543000  1.0 -0.0399113429
C  C51  1  0.66940000  0.22370000  0.43940000  1.0 -0.0915917871
C  C52  1  0.72430000  0.29470000  0.42110000  1.0 -0.1497644717
C  C53  1  0.63990000  0.36280000  0.41607000  1.0 0.0623495841
C  C54  1  0.50480000  0.35850000  0.43350000  1.0 -0.1497644717
C  C55  1  0.44960000  0.28680000  0.45380000  1.0 -0.0915917871
C  C56  1  0.69500000  0.43400000  0.39010000  1.0 -0.0589175033
C  C57  1  0.69370000  0.43390000  0.33880000  1.0 0.0668425541
C  C58  1  0.62540000  0.36620000  0.31080000  1.0 -0.4407200423
C  C59  1  0.66400000  0.54970000  0.23170000  1.0 -0.158004636
C  C60  1  0.66410000  0.55230000  0.18030000  1.0 -0.0845168727
C  C61  1  0.02990000  0.85920000  0.47150000  1.0 0.6203242297
C  C62  1  0.96850000  0.78090000  0.45543000  1.0 -0.0399113429
C  C63  1  0.83060000  0.77630000  0.43940000  1.0 -0.0915917871
C  C64  1  0.77570000  0.70530000  0.42110000  1.0 -0.1497644717
C  C65  1  0.86010000  0.63720000  0.41607000  1.0 0.0623495841
C  C66  1  0.99520000  0.64150000  0.43350000  1.0 -0.1497644717
C  C67  1  0.05040000  0.71320000  0.45380000  1.0 -0.0915917871
C  C68  1  0.80500000  0.56600000  0.39010000  1.0 -0.0589175033
C  C69  1  0.80630000  0.56610000  0.33880000  1.0 0.0668425541
C  C70  1  0.87460000  0.63380000  0.31080000  1.0 -0.4407200423
C  C71  1  0.83600000  0.45030000  0.23170000  1.0 -0.158004636
C  C72  1  0.83590000  0.44770000  0.18030000  1.0 -0.0845168727
C  C73  1  0.02990000  0.64080000  0.02850000  1.0 0.6203242297
C  C74  1  0.96850000  0.71910000  0.04457000  1.0 -0.0399113429
C  C75  1  0.83060000  0.72370000  0.06060000  1.0 -0.0915917871
C  C76  1  0.77570000  0.79470000  0.07890000  1.0 -0.1497644717
C  C77  1  0.86010000  0.86280000  0.08393000  1.0 0.0623495841
C  C78  1  0.99520000  0.85850000  0.06650000  1.0 -0.1497644717
C  C79  1  0.05040000  0.78680000  0.04620000  1.0 -0.0915917871
C  C80  1  0.80500000  0.93400000  0.10990000  1.0 -0.0589175033
C  C81  1  0.80630000  0.93390000  0.16120000  1.0 0.0668425541
C  C82  1  0.87460000  0.86620000  0.18920000  1.0 -0.4407200423
C  C83  1  0.83600000  0.04970000  0.26830000  1.0 -0.158004636
C  C84  1  0.83590000  0.05230000  0.31970000  1.0 -0.0845168727
C  C85  1  0.47010000  0.35920000  0.02850000  1.0 0.6203242297
C  C86  1  0.53150000  0.28090000  0.04457000  1.0 -0.0399113429
C  C87  1  0.66940000  0.27630000  0.06060000  1.0 -0.0915917871
C  C88  1  0.72430000  0.20530000  0.07890000  1.0 -0.1497644717
C  C89  1  0.63990000  0.13720000  0.08393000  1.0 0.0623495841
C  C90  1  0.50480000  0.14150000  0.06650000  1.0 -0.1497644717
C  C91  1  0.44960000  0.21320000  0.04620000  1.0 -0.0915917871
C  C92  1  0.69500000  0.06600000  0.10990000  1.0 -0.0589175033
C  C93  1  0.69370000  0.06610000  0.16120000  1.0 0.0668425541
C  C94  1  0.62540000  0.13380000  0.18920000  1.0 -0.4407200423
C  C95  1  0.66400000  0.95030000  0.26830000  1.0 -0.158004636
C  C96  1  0.66410000  0.94770000  0.31970000  1.0 -0.0845168727
C  C97  1  0.25000000  0.50000000  0.58360000  1.0 -0.014344913
C  C98  1  0.25000000  0.50000000  0.68610000  1.0 -0.0589175033
C  C99  1  0.25000000  0.50000000  0.52780000  1.0 -0.3210773189
C  C100  1  0.25000000  0.50000000  0.74220000  1.0 0.077847598
C  C101  1  0.25000000  0.50000000  0.84540000  1.0 -0.0512571764
C  C102  1  0.25000000  0.50000000  0.89950000  1.0 0.5598683561
C  C103  1  0.25000000  0.00000000  0.91640000  1.0 -0.014344913
C  C104  1  0.25000000  0.00000000  0.81390000  1.0 -0.0589175033
C  C105  1  0.25000000  0.00000000  0.97220000  1.0 -0.3210773189
C  C106  1  0.25000000  0.00000000  0.75780000  1.0 0.077847598
C  C107  1  0.25000000  0.00000000  0.65460000  1.0 -0.0512571764
C  C108  1  0.25000000  0.00000000  0.60050000  1.0 0.5598683561
C  C109  1  0.75000000  0.50000000  0.41640000  1.0 -0.014344913
C  C110  1  0.75000000  0.50000000  0.31390000  1.0 -0.0589175033
C  C111  1  0.75000000  0.50000000  0.47220000  1.0 -0.3210773189
C  C112  1  0.75000000  0.50000000  0.25780000  1.0 0.077847598
C  C113  1  0.75000000  0.50000000  0.15460000  1.0 -0.0512571764
C  C114  1  0.75000000  0.50000000  0.10050000  1.0 0.5598683561
C  C115  1  0.75000000  0.00000000  0.08360000  1.0 -0.014344913
C  C116  1  0.75000000  0.00000000  0.18610000  1.0 -0.0589175033
C  C117  1  0.75000000  0.00000000  0.02780000  1.0 -0.3210773189
C  C118  1  0.75000000  0.00000000  0.24220000  1.0 0.077847598
C  C119  1  0.75000000  0.00000000  0.34540000  1.0 -0.0512571764
C  C120  1  0.75000000  0.00000000  0.39950000  1.0 0.5598683561
O  O1  1  0.45030000  0.91640000  0.51700000  1.0 -0.6583308373
O  O2  1  0.66120000  0.86480000  0.52941000  1.0 -0.6113044416
O  O3  1  0.33190000  0.45370000  0.92312000  1.0 -0.6000028645
O  O4  1  0.04970000  0.08360000  0.51700000  1.0 -0.6583308373
O  O5  1  0.83880000  0.13520000  0.52941000  1.0 -0.6113044416
O  O6  1  0.16810000  0.54630000  0.92312000  1.0 -0.6000028645
O  O7  1  0.04970000  0.41640000  0.98300000  1.0 -0.6583308373
O  O8  1  0.83880000  0.36480000  0.97059000  1.0 -0.6113044416
O  O9  1  0.16810000  0.95370000  0.57688000  1.0 -0.6000028645
O  O10  1  0.45030000  0.58360000  0.98300000  1.0 -0.6583308373
O  O11  1  0.66120000  0.63520000  0.97059000  1.0 -0.6113044416
O  O12  1  0.33190000  0.04630000  0.57688000  1.0 -0.6000028645
O  O13  1  0.54970000  0.08360000  0.48300000  1.0 -0.6583308373
O  O14  1  0.33880000  0.13520000  0.47059000  1.0 -0.6113044416
O  O15  1  0.66810000  0.54630000  0.07688000  1.0 -0.6000028645
O  O16  1  0.95030000  0.91640000  0.48300000  1.0 -0.6583308373
O  O17  1  0.16120000  0.86480000  0.47059000  1.0 -0.6113044416
O  O18  1  0.83190000  0.45370000  0.07688000  1.0 -0.6000028645
O  O19  1  0.95030000  0.58360000  0.01700000  1.0 -0.6583308373
O  O20  1  0.16120000  0.63520000  0.02941000  1.0 -0.6113044416
O  O21  1  0.83190000  0.04630000  0.42312000  1.0 -0.6000028645
O  O22  1  0.54970000  0.41640000  0.01700000  1.0 -0.6583308373
O  O23  1  0.33880000  0.36480000  0.02941000  1.0 -0.6113044416
O  O24  1  0.66810000  0.95370000  0.42312000  1.0 -0.6000028645
