# DDEC6 charges by PACMAN v1.1 (https://github.com/mtap-research/PACMAN-charge/)
data_QUXZOB_ASR_pacman
_symmetry_space_group_name_H-M   'P 1'
_cell_length_a   9.33450000
_cell_length_b   16.67000000
_cell_length_c   27.23040000
_cell_angle_alpha   90.00000000
_cell_angle_beta   90.00000000
_cell_angle_gamma   90.00000000
_symmetry_Int_Tables_number   1
_chemical_formula_structural   LaH24(C5O)6
_chemical_formula_sum   'La4 H96 C120 O24'
_cell_volume   4237.21675390
_cell_formula_units_Z   4
loop_
 _symmetry_equiv_pos_site_id
 _symmetry_equiv_pos_as_xyz
  1  'x, y, z'
loop_
 _atom_site_type_symbol
 _atom_site_label
 _atom_site_symmetry_multiplicity
 _atom_site_fract_x
 _atom_site_fract_y
 _atom_site_fract_z
 _atom_site_occupancy
 _atom_site_charge
La  La1  1  0.75000000  0.50000000  0.50840000  1.0 1.8835262866
La  La2  1  0.75000000  0.00000000  0.99160000  1.0 1.8835262866
La  La3  1  0.25000000  0.50000000  0.49160000  1.0 1.8835262866
La  La4  1  0.25000000  0.00000000  0.00840000  1.0 1.8835262866
H  H1  1  0.72413000  0.32256000  0.43922000  1.0 0.1286969504
H  H2  1  0.81558000  0.20669000  0.40642000  1.0 0.1286969504
H  H3  1  0.45102000  0.09333000  0.43787000  1.0 0.1441015066
H  H4  1  0.35538000  0.20999000  0.46772000  1.0 0.1286969504
H  H5  1  0.54466000  0.15485000  0.32926000  1.0 0.1286969504
H  H6  1  0.59826000  0.11771000  0.27967000  1.0 0.121084361
H  H7  1  0.69558000  0.17822000  0.30845000  1.0 0.1286969504
H  H8  1  0.60652000  0.91119000  0.24960000  1.0 0.121084361
H  H9  1  0.60824000  0.91028000  0.16515000  1.0 0.1286969504
H  H10  1  0.76361000  0.05376000  0.48418000  1.0 0.0607403951
H  H11  1  0.82633000  0.96652000  0.48418000  1.0 0.0607403951
H  H12  1  0.66005000  0.97972000  0.48418000  1.0 0.0696991436
H  H13  1  0.77587000  0.67744000  0.43922000  1.0 0.1286969504
H  H14  1  0.68442000  0.79331000  0.40642000  1.0 0.1286969504
H  H15  1  0.04898000  0.90667000  0.43787000  1.0 0.1441015066
H  H16  1  0.14462000  0.79001000  0.46772000  1.0 0.1286969504
H  H17  1  0.95534000  0.84515000  0.32926000  1.0 0.1286969504
H  H18  1  0.90174000  0.88229000  0.27967000  1.0 0.121084361
H  H19  1  0.80442000  0.82178000  0.30845000  1.0 0.1286969504
H  H20  1  0.89348000  0.08881000  0.24960000  1.0 0.121084361
H  H21  1  0.89176000  0.08972000  0.16515000  1.0 0.1286969504
H  H22  1  0.73639000  0.94624000  0.48418000  1.0 0.0607403951
H  H23  1  0.67367000  0.03348000  0.48418000  1.0 0.0607403951
H  H24  1  0.83995000  0.02028000  0.48418000  1.0 0.0696991436
H  H25  1  0.77587000  0.82256000  0.06078000  1.0 0.1286969504
H  H26  1  0.68442000  0.70669000  0.09358000  1.0 0.1286969504
H  H27  1  0.04898000  0.59333000  0.06213000  1.0 0.1441015066
H  H28  1  0.14462000  0.70999000  0.03228000  1.0 0.1286969504
H  H29  1  0.95534000  0.65485000  0.17074000  1.0 0.1286969504
H  H30  1  0.90174000  0.61771000  0.22033000  1.0 0.121084361
H  H31  1  0.80442000  0.67822000  0.19155000  1.0 0.1286969504
H  H32  1  0.89348000  0.41119000  0.25040000  1.0 0.121084361
H  H33  1  0.89176000  0.41028000  0.33485000  1.0 0.1286969504
H  H34  1  0.73639000  0.55376000  0.01582000  1.0 0.0607403951
H  H35  1  0.67367000  0.46652000  0.01582000  1.0 0.0607403951
H  H36  1  0.83995000  0.47972000  0.01582000  1.0 0.0696991436
H  H37  1  0.72413000  0.17744000  0.06078000  1.0 0.1286969504
H  H38  1  0.81558000  0.29331000  0.09358000  1.0 0.1286969504
H  H39  1  0.45102000  0.40667000  0.06213000  1.0 0.1441015066
H  H40  1  0.35538000  0.29001000  0.03228000  1.0 0.1286969504
H  H41  1  0.54466000  0.34515000  0.17074000  1.0 0.1286969504
H  H42  1  0.59826000  0.38229000  0.22033000  1.0 0.121084361
H  H43  1  0.69558000  0.32178000  0.19155000  1.0 0.1286969504
H  H44  1  0.60652000  0.58881000  0.25040000  1.0 0.121084361
H  H45  1  0.60824000  0.58972000  0.33485000  1.0 0.1286969504
H  H46  1  0.76361000  0.44624000  0.01582000  1.0 0.0607403951
H  H47  1  0.82633000  0.53348000  0.01582000  1.0 0.0607403951
H  H48  1  0.66005000  0.52028000  0.01582000  1.0 0.0696991436
H  H49  1  0.27587000  0.67744000  0.56078000  1.0 0.1286969504
H  H50  1  0.18442000  0.79331000  0.59358000  1.0 0.1286969504
H  H51  1  0.54898000  0.90667000  0.56213000  1.0 0.1441015066
H  H52  1  0.64462000  0.79001000  0.53228000  1.0 0.1286969504
H  H53  1  0.45534000  0.84515000  0.67074000  1.0 0.1286969504
H  H54  1  0.40174000  0.88229000  0.72033000  1.0 0.121084361
H  H55  1  0.30442000  0.82178000  0.69155000  1.0 0.1286969504
H  H56  1  0.39348000  0.08881000  0.75040000  1.0 0.121084361
H  H57  1  0.39176000  0.08972000  0.83485000  1.0 0.1286969504
H  H58  1  0.23639000  0.94624000  0.51582000  1.0 0.0607403951
H  H59  1  0.17367000  0.03348000  0.51582000  1.0 0.0607403951
H  H60  1  0.33995000  0.02028000  0.51582000  1.0 0.0696991436
H  H61  1  0.22413000  0.32256000  0.56078000  1.0 0.1286969504
H  H62  1  0.31558000  0.20669000  0.59358000  1.0 0.1286969504
H  H63  1  0.95102000  0.09333000  0.56213000  1.0 0.1441015066
H  H64  1  0.85538000  0.20999000  0.53228000  1.0 0.1286969504
H  H65  1  0.04466000  0.15485000  0.67074000  1.0 0.1286969504
H  H66  1  0.09826000  0.11771000  0.72033000  1.0 0.121084361
H  H67  1  0.19558000  0.17822000  0.69155000  1.0 0.1286969504
H  H68  1  0.10652000  0.91119000  0.75040000  1.0 0.121084361
H  H69  1  0.10824000  0.91028000  0.83485000  1.0 0.1286969504
H  H70  1  0.26361000  0.05376000  0.51582000  1.0 0.0607403951
H  H71  1  0.32633000  0.96652000  0.51582000  1.0 0.0607403951
H  H72  1  0.16005000  0.97972000  0.51582000  1.0 0.0696991436
H  H73  1  0.22413000  0.17744000  0.93922000  1.0 0.1286969504
H  H74  1  0.31558000  0.29331000  0.90642000  1.0 0.1286969504
H  H75  1  0.95102000  0.40667000  0.93787000  1.0 0.1441015066
H  H76  1  0.85538000  0.29001000  0.96772000  1.0 0.1286969504
H  H77  1  0.04466000  0.34515000  0.82926000  1.0 0.1286969504
H  H78  1  0.09826000  0.38229000  0.77967000  1.0 0.121084361
H  H79  1  0.19558000  0.32178000  0.80845000  1.0 0.1286969504
H  H80  1  0.10652000  0.58881000  0.74960000  1.0 0.121084361
H  H81  1  0.10824000  0.58972000  0.66515000  1.0 0.1286969504
H  H82  1  0.26361000  0.44624000  0.98418000  1.0 0.0607403951
H  H83  1  0.32633000  0.53348000  0.98418000  1.0 0.0607403951
H  H84  1  0.16005000  0.52028000  0.98418000  1.0 0.0696991436
H  H85  1  0.27587000  0.82256000  0.93922000  1.0 0.1286969504
H  H86  1  0.18442000  0.70669000  0.90642000  1.0 0.1286969504
H  H87  1  0.54898000  0.59333000  0.93787000  1.0 0.1441015066
H  H88  1  0.64462000  0.70999000  0.96772000  1.0 0.1286969504
H  H89  1  0.45534000  0.65485000  0.82926000  1.0 0.1286969504
H  H90  1  0.40174000  0.61771000  0.77967000  1.0 0.121084361
H  H91  1  0.30442000  0.67822000  0.80845000  1.0 0.1286969504
H  H92  1  0.39348000  0.41119000  0.74960000  1.0 0.121084361
H  H93  1  0.39176000  0.41028000  0.66515000  1.0 0.1286969504
H  H94  1  0.23639000  0.55376000  0.98418000  1.0 0.0607403951
H  H95  1  0.17367000  0.46652000  0.98418000  1.0 0.0607403951
H  H96  1  0.33995000  0.47972000  0.98418000  1.0 0.0696991436
C  C1  1  0.46120000  0.35730000  0.47040000  1.0 0.6037461968
C  C2  1  0.53190000  0.28120000  0.45580000  1.0 -0.0424218834
C  C3  1  0.66666667  0.27700000  0.43820000  1.0 -0.0914886007
C  C4  1  0.72250000  0.20700000  0.41860000  1.0 -0.1499600386
C  C5  1  0.64180000  0.13760000  0.41680000  1.0 0.0792119266
C  C6  1  0.50530000  0.14010000  0.43690000  1.0 -0.1704616784
C  C7  1  0.44830000  0.20960000  0.45540000  1.0 -0.0914886007
C  C8  1  0.69670000  0.06560000  0.39060000  1.0 -0.0656746267
C  C9  1  0.69400000  0.06660000  0.33940000  1.0 0.0696991436
C  C10  1  0.62700000  0.13570000  0.31170000  1.0 -0.4426670908
C  C11  1  0.66480000  0.94700000  0.23260000  1.0 -0.1499600386
C  C12  1  0.66530000  0.94670000  0.18210000  1.0 -0.0976235498
C  C13  1  0.03880000  0.64270000  0.47040000  1.0 0.6037461968
C  C14  1  0.96810000  0.71880000  0.45580000  1.0 -0.0424218834
C  C15  1  0.83333000  0.72300000  0.43820000  1.0 -0.0914886007
C  C16  1  0.77750000  0.79300000  0.41860000  1.0 -0.1499600386
C  C17  1  0.85820000  0.86240000  0.41680000  1.0 0.0792119266
C  C18  1  0.99470000  0.85990000  0.43690000  1.0 -0.1704616784
C  C19  1  0.05170000  0.79040000  0.45540000  1.0 -0.0914886007
C  C20  1  0.80330000  0.93440000  0.39060000  1.0 -0.0656746267
C  C21  1  0.80600000  0.93340000  0.33940000  1.0 0.0696991436
C  C22  1  0.87300000  0.86430000  0.31170000  1.0 -0.4426670908
C  C23  1  0.83520000  0.05300000  0.23260000  1.0 -0.1499600386
C  C24  1  0.83470000  0.05330000  0.18210000  1.0 -0.0976235498
C  C25  1  0.03880000  0.85730000  0.02960000  1.0 0.6037461968
C  C26  1  0.96810000  0.78120000  0.04420000  1.0 -0.0424218834
C  C27  1  0.83333000  0.77700000  0.06180000  1.0 -0.0914886007
C  C28  1  0.77750000  0.70700000  0.08140000  1.0 -0.1499600386
C  C29  1  0.85820000  0.63760000  0.08320000  1.0 0.0792119266
C  C30  1  0.99470000  0.64010000  0.06310000  1.0 -0.1704616784
C  C31  1  0.05170000  0.70960000  0.04460000  1.0 -0.0914886007
C  C32  1  0.80330000  0.56560000  0.10940000  1.0 -0.0656746267
C  C33  1  0.80600000  0.56660000  0.16060000  1.0 0.0696991436
C  C34  1  0.87300000  0.63570000  0.18830000  1.0 -0.4426670908
C  C35  1  0.83520000  0.44700000  0.26740000  1.0 -0.1499600386
C  C36  1  0.83470000  0.44670000  0.31790000  1.0 -0.0976235498
C  C37  1  0.46120000  0.14270000  0.02960000  1.0 0.6037461968
C  C38  1  0.53190000  0.21880000  0.04420000  1.0 -0.0424218834
C  C39  1  0.66666667  0.22300000  0.06180000  1.0 -0.0914886007
C  C40  1  0.72250000  0.29300000  0.08140000  1.0 -0.1499600386
C  C41  1  0.64180000  0.36240000  0.08320000  1.0 0.0792119266
C  C42  1  0.50530000  0.35990000  0.06310000  1.0 -0.1704616784
C  C43  1  0.44830000  0.29040000  0.04460000  1.0 -0.0914886007
C  C44  1  0.69670000  0.43440000  0.10940000  1.0 -0.0656746267
C  C45  1  0.69400000  0.43340000  0.16060000  1.0 0.0696991436
C  C46  1  0.62700000  0.36430000  0.18830000  1.0 -0.4426670908
C  C47  1  0.66480000  0.55300000  0.26740000  1.0 -0.1499600386
C  C48  1  0.66530000  0.55330000  0.31790000  1.0 -0.0976235498
C  C49  1  0.53880000  0.64270000  0.52960000  1.0 0.6037461968
C  C50  1  0.46810000  0.71880000  0.54420000  1.0 -0.0424218834
C  C51  1  0.33333333  0.72300000  0.56180000  1.0 -0.0914886007
C  C52  1  0.27750000  0.79300000  0.58140000  1.0 -0.1499600386
C  C53  1  0.35820000  0.86240000  0.58320000  1.0 0.0792119266
C  C54  1  0.49470000  0.85990000  0.56310000  1.0 -0.1704616784
C  C55  1  0.55170000  0.79040000  0.54460000  1.0 -0.0914886007
C  C56  1  0.30330000  0.93440000  0.60940000  1.0 -0.0656746267
C  C57  1  0.30600000  0.93340000  0.66060000  1.0 0.0696991436
C  C58  1  0.37300000  0.86430000  0.68830000  1.0 -0.4426670908
C  C59  1  0.33520000  0.05300000  0.76740000  1.0 -0.1499600386
C  C60  1  0.33470000  0.05330000  0.81790000  1.0 -0.0976235498
C  C61  1  0.96120000  0.35730000  0.52960000  1.0 0.6037461968
C  C62  1  0.03190000  0.28120000  0.54420000  1.0 -0.0424218834
C  C63  1  0.16667000  0.27700000  0.56180000  1.0 -0.0914886007
C  C64  1  0.22250000  0.20700000  0.58140000  1.0 -0.1499600386
C  C65  1  0.14180000  0.13760000  0.58320000  1.0 0.0792119266
C  C66  1  0.00530000  0.14010000  0.56310000  1.0 -0.1704616784
C  C67  1  0.94830000  0.20960000  0.54460000  1.0 -0.0914886007
C  C68  1  0.19670000  0.06560000  0.60940000  1.0 -0.0656746267
C  C69  1  0.19400000  0.06660000  0.66060000  1.0 0.0696991436
C  C70  1  0.12700000  0.13570000  0.68830000  1.0 -0.4426670908
C  C71  1  0.16480000  0.94700000  0.76740000  1.0 -0.1499600386
C  C72  1  0.16530000  0.94670000  0.81790000  1.0 -0.0976235498
C  C73  1  0.96120000  0.14270000  0.97040000  1.0 0.6037461968
C  C74  1  0.03190000  0.21880000  0.95580000  1.0 -0.0424218834
C  C75  1  0.16667000  0.22300000  0.93820000  1.0 -0.0914886007
C  C76  1  0.22250000  0.29300000  0.91860000  1.0 -0.1499600386
C  C77  1  0.14180000  0.36240000  0.91680000  1.0 0.0792119266
C  C78  1  0.00530000  0.35990000  0.93690000  1.0 -0.1704616784
C  C79  1  0.94830000  0.29040000  0.95540000  1.0 -0.0914886007
C  C80  1  0.19670000  0.43440000  0.89060000  1.0 -0.0656746267
C  C81  1  0.19400000  0.43340000  0.83940000  1.0 0.0696991436
C  C82  1  0.12700000  0.36430000  0.81170000  1.0 -0.4426670908
C  C83  1  0.16480000  0.55300000  0.73260000  1.0 -0.1499600386
C  C84  1  0.16530000  0.55330000  0.68210000  1.0 -0.0976235498
C  C85  1  0.53880000  0.85730000  0.97040000  1.0 0.6037461968
C  C86  1  0.46810000  0.78120000  0.95580000  1.0 -0.0424218834
C  C87  1  0.33333333  0.77700000  0.93820000  1.0 -0.0914886007
C  C88  1  0.27750000  0.70700000  0.91860000  1.0 -0.1499600386
C  C89  1  0.35820000  0.63760000  0.91680000  1.0 0.0792119266
C  C90  1  0.49470000  0.64010000  0.93690000  1.0 -0.1704616784
C  C91  1  0.55170000  0.70960000  0.95540000  1.0 -0.0914886007
C  C92  1  0.30330000  0.56560000  0.89060000  1.0 -0.0656746267
C  C93  1  0.30600000  0.56660000  0.83940000  1.0 0.0696991436
C  C94  1  0.37300000  0.63570000  0.81170000  1.0 -0.4426670908
C  C95  1  0.33520000  0.44700000  0.73260000  1.0 -0.1499600386
C  C96  1  0.33470000  0.44670000  0.68210000  1.0 -0.0976235498
C  C97  1  0.75000000  0.00000000  0.41670000  1.0 -0.0113119444
C  C98  1  0.75000000  0.00000000  0.31360000  1.0 -0.0568409278
C  C99  1  0.75000000  0.00000000  0.47240000  1.0 -0.320363292
C  C100  1  0.75000000  0.00000000  0.25830000  1.0 0.0792119266
C  C101  1  0.75000000  0.00000000  0.15630000  1.0 -0.0234067602
C  C102  1  0.75000000  0.00000000  0.10100000  1.0 0.5628419133
C  C103  1  0.75000000  0.50000000  0.08330000  1.0 -0.0113119444
C  C104  1  0.75000000  0.50000000  0.18640000  1.0 -0.0568409278
C  C105  1  0.75000000  0.50000000  0.02760000  1.0 -0.320363292
C  C106  1  0.75000000  0.50000000  0.24170000  1.0 0.0792119266
C  C107  1  0.75000000  0.50000000  0.34370000  1.0 -0.0234067602
C  C108  1  0.75000000  0.50000000  0.39900000  1.0 0.5628419133
C  C109  1  0.25000000  0.00000000  0.58330000  1.0 -0.0113119444
C  C110  1  0.25000000  0.00000000  0.68640000  1.0 -0.0568409278
C  C111  1  0.25000000  0.00000000  0.52760000  1.0 -0.320363292
C  C112  1  0.25000000  0.00000000  0.74170000  1.0 0.0792119266
C  C113  1  0.25000000  0.00000000  0.84370000  1.0 -0.0234067602
C  C114  1  0.25000000  0.00000000  0.89900000  1.0 0.5628419133
C  C115  1  0.25000000  0.50000000  0.91670000  1.0 -0.0113119444
C  C116  1  0.25000000  0.50000000  0.81360000  1.0 -0.0568409278
C  C117  1  0.25000000  0.50000000  0.97240000  1.0 -0.320363292
C  C118  1  0.25000000  0.50000000  0.75830000  1.0 0.0792119266
C  C119  1  0.25000000  0.50000000  0.65630000  1.0 -0.0234067602
C  C120  1  0.25000000  0.50000000  0.60100000  1.0 0.5628419133
O  O1  1  0.53760000  0.41870000  0.48250000  1.0 -0.6736176325
O  O2  1  0.32890000  0.36050000  0.47200000  1.0 -0.5812203078
O  O3  1  0.66760000  0.95140000  0.07830000  1.0 -0.6025336845
O  O4  1  0.96240000  0.58130000  0.48250000  1.0 -0.6736176325
O  O5  1  0.17110000  0.63950000  0.47200000  1.0 -0.5812203078
O  O6  1  0.83240000  0.04860000  0.07830000  1.0 -0.6025336845
O  O7  1  0.96240000  0.91870000  0.01750000  1.0 -0.6736176325
O  O8  1  0.17110000  0.86050000  0.02800000  1.0 -0.5812203078
O  O9  1  0.83240000  0.45140000  0.42170000  1.0 -0.6025336845
O  O10  1  0.53760000  0.08130000  0.01750000  1.0 -0.6736176325
O  O11  1  0.32890000  0.13950000  0.02800000  1.0 -0.5812203078
O  O12  1  0.66760000  0.54860000  0.42170000  1.0 -0.6025336845
O  O13  1  0.46240000  0.58130000  0.51750000  1.0 -0.6736176325
O  O14  1  0.67110000  0.63950000  0.52800000  1.0 -0.5812203078
O  O15  1  0.33240000  0.04860000  0.92170000  1.0 -0.6025336845
O  O16  1  0.03760000  0.41870000  0.51750000  1.0 -0.6736176325
O  O17  1  0.82890000  0.36050000  0.52800000  1.0 -0.5812203078
O  O18  1  0.16760000  0.95140000  0.92170000  1.0 -0.6025336845
O  O19  1  0.03760000  0.08130000  0.98250000  1.0 -0.6736176325
O  O20  1  0.82890000  0.13950000  0.97200000  1.0 -0.5812203078
O  O21  1  0.16760000  0.54860000  0.57830000  1.0 -0.6025336845
O  O22  1  0.46240000  0.91870000  0.98250000  1.0 -0.6736176325
O  O23  1  0.67110000  0.86050000  0.97200000  1.0 -0.5812203078
O  O24  1  0.33240000  0.45140000  0.57830000  1.0 -0.6025336845
