# DDEC6 charges by PACMAN v1.1 (https://github.com/mtap-research/PACMAN-charge/)
data_RABHAZ_FSR_pacman
_symmetry_space_group_name_H-M   'P 1'
_cell_length_a   7.76200000
_cell_length_b   22.01400000
_cell_length_c   13.73600000
_cell_angle_alpha   90.00000000
_cell_angle_beta   91.04000000
_cell_angle_gamma   90.00000000
_symmetry_Int_Tables_number   1
_chemical_formula_structural   CdNiH14(C3N2)3
_chemical_formula_sum   'Cd4 Ni4 H56 C36 N24'
_cell_volume   2346.72032267
_cell_formula_units_Z   4
loop_
 _symmetry_equiv_pos_site_id
 _symmetry_equiv_pos_as_xyz
  1  'x, y, z'
loop_
 _atom_site_type_symbol
 _atom_site_label
 _atom_site_symmetry_multiplicity
 _atom_site_fract_x
 _atom_site_fract_y
 _atom_site_fract_z
 _atom_site_occupancy
 _atom_site_charge
Cd  Cd1  1  0.93684000  0.20196000  0.82856000  1.0 0.8864718569
Cd  Cd2  1  0.06316000  0.70196000  0.67144000  1.0 0.8848326697
Cd  Cd3  1  0.06316000  0.79804000  0.17144000  1.0 0.8848326697
Cd  Cd4  1  0.93684000  0.29804000  0.32856000  1.0 0.8864718569
Ni  Ni1  1  0.43635000  0.23221000  0.57693000  1.0 0.1106038118
Ni  Ni2  1  0.56365000  0.73221000  0.92307000  1.0 0.1106038118
Ni  Ni3  1  0.56365000  0.76779000  0.42307000  1.0 0.1106038118
Ni  Ni4  1  0.43635000  0.26779000  0.07693000  1.0 0.1106038118
H  H1  1  0.94448000  0.32795000  0.83938000  1.0 0.2875245108
H  H2  1  0.05552000  0.82795000  0.66062000  1.0 0.2875245108
H  H3  1  0.05552000  0.67205000  0.16062000  1.0 0.2875245108
H  H4  1  0.94448000  0.17205000  0.33938000  1.0 0.2875245108
H  H5  1  0.12270000  0.30653000  0.78813000  1.0 0.2875245108
H  H6  1  0.87730000  0.80653000  0.71187000  1.0 0.2875245108
H  H7  1  0.87730000  0.69347000  0.21187000  1.0 0.2875245108
H  H8  1  0.12270000  0.19347000  0.28813000  1.0 0.2875245108
H  H9  1  0.78979000  0.33177000  0.70229000  1.0 0.0690813766
H  H10  1  0.21021000  0.83177000  0.79771000  1.0 0.0690813766
H  H11  1  0.21021000  0.66823000  0.29771000  1.0 0.0690813766
H  H12  1  0.78979000  0.16823000  0.20229000  1.0 0.0690813766
H  H13  1  0.94351000  0.28458000  0.64191000  1.0 0.0798354355
H  H14  1  0.05649000  0.78458000  0.85809000  1.0 0.0798354355
H  H15  1  0.05649000  0.71542000  0.35809000  1.0 0.0798354355
H  H16  1  0.94351000  0.21542000  0.14191000  1.0 0.0798354355
H  H17  1  0.15306000  0.36805000  0.64757000  1.0 0.0798354355
H  H18  1  0.84694000  0.86805000  0.85243000  1.0 0.0798354355
H  H19  1  0.84694000  0.63195000  0.35243000  1.0 0.0798354355
H  H20  1  0.15306000  0.13195000  0.14757000  1.0 0.0798354355
H  H21  1  0.95896000  0.38679000  0.58099000  1.0 0.0690813766
H  H22  1  0.04104000  0.88679000  0.91901000  1.0 0.0690813766
H  H23  1  0.04104000  0.61321000  0.41901000  1.0 0.0690813766
H  H24  1  0.95896000  0.11321000  0.08099000  1.0 0.0690813766
H  H25  1  0.07927000  0.43344000  0.77869000  1.0 0.0798354355
H  H26  1  0.92073000  0.93344000  0.72131000  1.0 0.0798354355
H  H27  1  0.92073000  0.56656000  0.22131000  1.0 0.0798354355
H  H28  1  0.07927000  0.06656000  0.27869000  1.0 0.0798354355
H  H29  1  0.86452000  0.44419000  0.73085000  1.0 0.0798354355
H  H30  1  0.13548000  0.94419000  0.76915000  1.0 0.0798354355
H  H31  1  0.13548000  0.55581000  0.26915000  1.0 0.0798354355
H  H32  1  0.86452000  0.05581000  0.23085000  1.0 0.0798354355
H  H33  1  0.98960000  0.49019000  0.58094000  1.0 0.0690813766
H  H34  1  0.01040000  0.99019000  0.91906000  1.0 0.0690813766
H  H35  1  0.01040000  0.50981000  0.41906000  1.0 0.0690813766
H  H36  1  0.98960000  0.00981000  0.08094000  1.0 0.0690813766
H  H37  1  0.20041000  0.48327000  0.63594000  1.0 0.0798354355
H  H38  1  0.79959000  0.98327000  0.86406000  1.0 0.0798354355
H  H39  1  0.79959000  0.51673000  0.36406000  1.0 0.0798354355
H  H40  1  0.20041000  0.01673000  0.13594000  1.0 0.0798354355
H  H41  1  0.90637000  0.55947000  0.71771000  1.0 0.0798354355
H  H42  1  0.09363000  0.05947000  0.78229000  1.0 0.0887079865
H  H43  1  0.09363000  0.44053000  0.28229000  1.0 0.0887079865
H  H44  1  0.90637000  0.94053000  0.21771000  1.0 0.0798354355
H  H45  1  0.12408000  0.55547000  0.76387000  1.0 0.0887079865
H  H46  1  0.87592000  0.05547000  0.73613000  1.0 0.0887079865
H  H47  1  0.87592000  0.44453000  0.23613000  1.0 0.0887079865
H  H48  1  0.12408000  0.94453000  0.26387000  1.0 0.0887079865
H  H49  1  0.97751000  0.09687000  0.93063000  1.0 0.2758521332
H  H50  1  0.02249000  0.59687000  0.56937000  1.0 0.2758521332
H  H51  1  0.02249000  0.90313000  0.06937000  1.0 0.2758521332
H  H52  1  0.97751000  0.40313000  0.43063000  1.0 0.2758521332
H  H53  1  0.78306000  0.09659000  0.88321000  1.0 0.2875245108
H  H54  1  0.21694000  0.59659000  0.61679000  1.0 0.2875245108
H  H55  1  0.21694000  0.90341000  0.11679000  1.0 0.2875245108
H  H56  1  0.78306000  0.40341000  0.38321000  1.0 0.2875245108
C  C1  1  0.60480000  0.20670000  0.66230000  1.0 0.0578622051
C  C2  1  0.39520000  0.70670000  0.83770000  1.0 0.0578622051
C  C3  1  0.39520000  0.79330000  0.33770000  1.0 0.0578622051
C  C4  1  0.60480000  0.29330000  0.16230000  1.0 0.0578622051
C  C5  1  0.61060000  0.23770000  0.99550000  1.0 0.0578622051
C  C6  1  0.38940000  0.73770000  0.50450000  1.0 0.0578622051
C  C7  1  0.38940000  0.76230000  0.00450000  1.0 0.0578622051
C  C8  1  0.61060000  0.26230000  0.49550000  1.0 0.0578622051
C  C9  1  0.26720000  0.23880000  0.99320000  1.0 0.0501404736
C  C10  1  0.73280000  0.73880000  0.50680000  1.0 0.0501404736
C  C11  1  0.73280000  0.76120000  0.00680000  1.0 0.0501404736
C  C12  1  0.26720000  0.26120000  0.49320000  1.0 0.0501404736
C  C13  1  0.26550000  0.29920000  0.15940000  1.0 0.0501404736
C  C14  1  0.73450000  0.79920000  0.34060000  1.0 0.0501404736
C  C15  1  0.73450000  0.70080000  0.84060000  1.0 0.0501404736
C  C16  1  0.26550000  0.20080000  0.65940000  1.0 0.0501404736
C  C17  1  0.92770000  0.32170000  0.69450000  1.0 0.0263672626
C  C18  1  0.07230000  0.82170000  0.80550000  1.0 0.0263672626
C  C19  1  0.07230000  0.67830000  0.30550000  1.0 0.0263672626
C  C20  1  0.92770000  0.17830000  0.19450000  1.0 0.0263672626
C  C21  1  0.01500000  0.37830000  0.65380000  1.0 -0.1735714303
C  C22  1  0.98500000  0.87830000  0.84620000  1.0 -0.1735714303
C  C23  1  0.98500000  0.62170000  0.34620000  1.0 -0.1735714303
C  C24  1  0.01500000  0.12170000  0.15380000  1.0 -0.1735714303
C  C25  1  0.99990000  0.43680000  0.71170000  1.0 -0.1483780028
C  C26  1  0.00010000  0.93680000  0.78830000  1.0 -0.1483780028
C  C27  1  0.00010000  0.56320000  0.28830000  1.0 -0.1483780028
C  C28  1  0.99990000  0.06320000  0.21170000  1.0 -0.1483780028
C  C29  1  0.06280000  0.49020000  0.65020000  1.0 -0.1735714303
C  C30  1  0.93720000  0.99020000  0.84980000  1.0 -0.1759077863
C  C31  1  0.93720000  0.50980000  0.34980000  1.0 -0.1759077863
C  C32  1  0.06280000  0.00980000  0.15020000  1.0 -0.1759077863
C  C33  1  0.04190000  0.55330000  0.69790000  1.0 0.0247098698
C  C34  1  0.95810000  0.05330000  0.80210000  1.0 0.0247098698
C  C35  1  0.95810000  0.44670000  0.30210000  1.0 0.0247098698
C  C36  1  0.04190000  0.94670000  0.19790000  1.0 0.0247098698
N  N1  1  0.70930000  0.19230000  0.71580000  1.0 -0.3807435618
N  N2  1  0.29070000  0.69230000  0.78420000  1.0 -0.3807435618
N  N3  1  0.29070000  0.80770000  0.28420000  1.0 -0.3807435618
N  N4  1  0.70930000  0.30770000  0.21580000  1.0 -0.3807435618
N  N5  1  0.72270000  0.22140000  0.94660000  1.0 -0.3997644143
N  N6  1  0.27730000  0.72140000  0.55340000  1.0 -0.3997644143
N  N7  1  0.27730000  0.77860000  0.05340000  1.0 -0.3997644143
N  N8  1  0.72270000  0.27860000  0.44660000  1.0 -0.3997644143
N  N9  1  0.16220000  0.21900000  0.94470000  1.0 -0.3850160347
N  N10  1  0.83780000  0.71900000  0.55530000  1.0 -0.3807435618
N  N11  1  0.83780000  0.78100000  0.05530000  1.0 -0.3807435618
N  N12  1  0.16220000  0.28100000  0.44470000  1.0 -0.3850160347
N  N13  1  0.16020000  0.18210000  0.70970000  1.0 -0.3807435618
N  N14  1  0.83980000  0.68210000  0.79030000  1.0 -0.3807435618
N  N15  1  0.83980000  0.81790000  0.29030000  1.0 -0.3807435618
N  N16  1  0.16020000  0.31790000  0.20970000  1.0 -0.3807435618
N  N17  1  0.99470000  0.30140000  0.78810000  1.0 -0.5630838232
N  N18  1  0.00530000  0.80140000  0.71190000  1.0 -0.5630838232
N  N19  1  0.00530000  0.69860000  0.21190000  1.0 -0.5630838232
N  N20  1  0.99470000  0.19860000  0.28810000  1.0 -0.5630838232
N  N21  1  0.90790000  0.10290000  0.86940000  1.0 -0.5766769456
N  N22  1  0.09210000  0.60290000  0.63060000  1.0 -0.5766769456
N  N23  1  0.09210000  0.89710000  0.13060000  1.0 -0.5766769456
N  N24  1  0.90790000  0.39710000  0.36940000  1.0 -0.5766769456
