# DDEC6 charges by PACMAN v1.1 (https://github.com/mtap-research/PACMAN-charge/)
data_RABHIH_FSR_pacman
_symmetry_space_group_name_H-M   'P 1'
_cell_length_a   7.61000000
_cell_length_b   13.59900000
_cell_length_c   27.93800000
_cell_angle_alpha   90.00000000
_cell_angle_beta   90.00000000
_cell_angle_gamma   90.00000000
_symmetry_Int_Tables_number   1
_chemical_formula_structural   CdNiH18C11N6
_chemical_formula_sum   'Cd4 Ni4 H72 C44 N24'
_cell_volume   2891.25863982
_cell_formula_units_Z   4
loop_
 _symmetry_equiv_pos_site_id
 _symmetry_equiv_pos_as_xyz
  1  'x, y, z'
loop_
 _atom_site_type_symbol
 _atom_site_label
 _atom_site_symmetry_multiplicity
 _atom_site_fract_x
 _atom_site_fract_y
 _atom_site_fract_z
 _atom_site_occupancy
 _atom_site_charge
Cd  Cd1  1  0.00000000  0.22742000  0.23669000  1.0 0.9149960489
Cd  Cd2  1  0.00000000  0.77258000  0.76331000  1.0 0.9159488292
Cd  Cd3  1  0.00000000  0.72742000  0.26331000  1.0 0.9159488292
Cd  Cd4  1  0.00000000  0.27258000  0.73669000  1.0 0.9159488292
Ni  Ni1  1  0.50000000  0.48286000  0.20845000  1.0 0.1055430532
Ni  Ni2  1  0.50000000  0.51714000  0.79155000  1.0 0.1055430532
Ni  Ni3  1  0.50000000  0.98286000  0.29155000  1.0 0.1055430532
Ni  Ni4  1  0.50000000  0.01714000  0.70845000  1.0 0.1055430532
H  H1  1  0.10717000  0.37481000  0.30184000  1.0 0.2882624776
H  H2  1  0.10717000  0.62519000  0.69816000  1.0 0.2882624776
H  H3  1  0.89283000  0.87481000  0.19816000  1.0 0.2882624776
H  H4  1  0.89283000  0.12519000  0.80184000  1.0 0.2882624776
H  H5  1  0.89283000  0.62519000  0.69816000  1.0 0.2882624776
H  H6  1  0.89283000  0.37481000  0.30184000  1.0 0.2882624776
H  H7  1  0.10717000  0.12519000  0.80184000  1.0 0.2882624776
H  H8  1  0.10717000  0.87481000  0.19816000  1.0 0.2882624776
H  H9  1  0.11789000  0.23141000  0.35319000  1.0 0.0778527058
H  H10  1  0.11789000  0.76859000  0.64681000  1.0 0.0778527058
H  H11  1  0.88211000  0.73141000  0.14681000  1.0 0.0778527058
H  H12  1  0.88211000  0.26859000  0.85319000  1.0 0.0778527058
H  H13  1  0.88211000  0.76859000  0.64681000  1.0 0.0778527058
H  H14  1  0.88211000  0.23141000  0.35319000  1.0 0.0778527058
H  H15  1  0.11789000  0.26859000  0.85319000  1.0 0.0778527058
H  H16  1  0.11789000  0.73141000  0.14681000  1.0 0.0778527058
H  H17  1  0.11789000  0.39647000  0.39277000  1.0 0.0703013004
H  H18  1  0.11789000  0.60353000  0.60723000  1.0 0.0703013004
H  H19  1  0.88211000  0.89647000  0.10723000  1.0 0.0703013004
H  H20  1  0.88211000  0.10353000  0.89277000  1.0 0.0703013004
H  H21  1  0.88211000  0.60353000  0.60723000  1.0 0.0703013004
H  H22  1  0.88211000  0.39647000  0.39277000  1.0 0.0703013004
H  H23  1  0.11789000  0.10353000  0.89277000  1.0 0.0703013004
H  H24  1  0.11789000  0.89647000  0.10723000  1.0 0.0703013004
H  H25  1  0.11789000  0.24098000  0.44213000  1.0 0.0778527058
H  H26  1  0.11789000  0.75902000  0.55787000  1.0 0.0778527058
H  H27  1  0.88211000  0.74098000  0.05787000  1.0 0.0778527058
H  H28  1  0.88211000  0.25902000  0.94213000  1.0 0.0778527058
H  H29  1  0.88211000  0.75902000  0.55787000  1.0 0.0778527058
H  H30  1  0.88211000  0.24098000  0.44213000  1.0 0.0778527058
H  H31  1  0.11789000  0.25902000  0.94213000  1.0 0.0778527058
H  H32  1  0.11789000  0.74098000  0.05787000  1.0 0.0778527058
H  H33  1  0.11789000  0.40757000  0.48419000  1.0 0.0778527058
H  H34  1  0.11789000  0.59243000  0.51581000  1.0 0.0778527058
H  H35  1  0.88211000  0.90757000  0.01581000  1.0 0.0778527058
H  H36  1  0.88211000  0.09243000  0.98419000  1.0 0.0778527058
H  H37  1  0.88211000  0.59243000  0.51581000  1.0 0.0778527058
H  H38  1  0.88211000  0.40757000  0.48419000  1.0 0.0778527058
H  H39  1  0.11789000  0.09243000  0.98419000  1.0 0.0778527058
H  H40  1  0.11789000  0.90757000  0.01581000  1.0 0.0778527058
H  H41  1  0.11789000  0.25075000  0.53256000  1.0 0.0778527058
H  H42  1  0.11789000  0.74925000  0.46744000  1.0 0.0778527058
H  H43  1  0.88211000  0.75075000  0.96744000  1.0 0.0778527058
H  H44  1  0.88211000  0.24925000  0.03256000  1.0 0.0778527058
H  H45  1  0.88211000  0.74925000  0.46744000  1.0 0.0778527058
H  H46  1  0.88211000  0.25075000  0.53256000  1.0 0.0778527058
H  H47  1  0.11789000  0.24925000  0.03256000  1.0 0.0778527058
H  H48  1  0.11789000  0.75075000  0.96744000  1.0 0.0778527058
H  H49  1  0.11789000  0.41354000  0.57526000  1.0 0.0703013004
H  H50  1  0.11789000  0.58646000  0.42474000  1.0 0.0703013004
H  H51  1  0.88211000  0.91354000  0.92474000  1.0 0.0703013004
H  H52  1  0.88211000  0.08646000  0.07526000  1.0 0.0703013004
H  H53  1  0.88211000  0.58646000  0.42474000  1.0 0.0703013004
H  H54  1  0.88211000  0.41354000  0.57526000  1.0 0.0703013004
H  H55  1  0.11789000  0.08646000  0.07526000  1.0 0.0703013004
H  H56  1  0.11789000  0.91354000  0.92474000  1.0 0.0703013004
H  H57  1  0.88211000  0.24249000  0.12210000  1.0 0.0778527058
H  H58  1  0.88211000  0.75751000  0.87790000  1.0 0.0778527058
H  H59  1  0.11789000  0.74249000  0.37790000  1.0 0.0778527058
H  H60  1  0.11789000  0.25751000  0.62210000  1.0 0.0778527058
H  H61  1  0.11789000  0.75751000  0.87790000  1.0 0.0778527058
H  H62  1  0.11789000  0.24249000  0.12210000  1.0 0.0778527058
H  H63  1  0.88211000  0.25751000  0.62210000  1.0 0.0778527058
H  H64  1  0.88211000  0.74249000  0.37790000  1.0 0.0778527058
H  H65  1  0.89283000  0.09117000  0.16551000  1.0 0.2831558795
H  H66  1  0.89283000  0.90883000  0.83449000  1.0 0.2831558795
H  H67  1  0.10717000  0.59117000  0.33449000  1.0 0.2831558795
H  H68  1  0.10717000  0.40883000  0.66551000  1.0 0.2831558795
H  H69  1  0.10717000  0.90883000  0.83449000  1.0 0.2831558795
H  H70  1  0.10717000  0.09117000  0.16551000  1.0 0.2831558795
H  H71  1  0.89283000  0.40883000  0.66551000  1.0 0.2831558795
H  H72  1  0.89283000  0.59117000  0.33449000  1.0 0.2831558795
C  C1  1  0.32810000  0.38660000  0.20420000  1.0 0.0600625067
C  C2  1  0.32810000  0.61340000  0.79580000  1.0 0.0600625067
C  C3  1  0.67190000  0.88660000  0.29580000  1.0 0.0600625067
C  C4  1  0.67190000  0.11340000  0.70420000  1.0 0.0600625067
C  C5  1  0.67190000  0.61340000  0.79580000  1.0 0.0600625067
C  C6  1  0.67190000  0.38660000  0.20420000  1.0 0.0600625067
C  C7  1  0.32810000  0.11340000  0.70420000  1.0 0.0600625067
C  C8  1  0.32810000  0.88660000  0.29580000  1.0 0.0600625067
C  C9  1  0.67510000  0.07660000  0.28170000  1.0 0.0600625067
C  C10  1  0.67510000  0.92340000  0.71830000  1.0 0.0600625067
C  C11  1  0.32490000  0.57660000  0.21830000  1.0 0.0600625067
C  C12  1  0.32490000  0.42340000  0.78170000  1.0 0.0600625067
C  C13  1  0.32490000  0.92340000  0.71830000  1.0 0.0600625067
C  C14  1  0.32490000  0.07660000  0.28170000  1.0 0.0600625067
C  C15  1  0.67510000  0.42340000  0.78170000  1.0 0.0600625067
C  C16  1  0.67510000  0.57660000  0.21830000  1.0 0.0600625067
C  C17  1  0.00000000  0.27790000  0.35120000  1.0 0.0136316451
C  C18  1  0.00000000  0.72210000  0.64880000  1.0 0.0136316451
C  C19  1  0.00000000  0.77790000  0.14880000  1.0 0.0136316451
C  C20  1  0.00000000  0.22210000  0.85120000  1.0 0.0136316451
C  C21  1  0.00000000  0.34980000  0.39400000  1.0 -0.1776194884
C  C22  1  0.00000000  0.65020000  0.60600000  1.0 -0.1776194884
C  C23  1  0.00000000  0.84980000  0.10600000  1.0 -0.1776194884
C  C24  1  0.00000000  0.15020000  0.89400000  1.0 -0.1776194884
C  C25  1  0.00000000  0.28760000  0.44090000  1.0 -0.1472067102
C  C26  1  0.00000000  0.71240000  0.55910000  1.0 -0.1472067102
C  C27  1  0.00000000  0.78760000  0.05910000  1.0 -0.1472067102
C  C28  1  0.00000000  0.21240000  0.94090000  1.0 -0.1472067102
C  C29  1  0.00000000  0.36090000  0.48520000  1.0 -0.1472067102
C  C30  1  0.00000000  0.63910000  0.51480000  1.0 -0.1472067102
C  C31  1  0.00000000  0.86090000  0.01480000  1.0 -0.1472067102
C  C32  1  0.00000000  0.13910000  0.98520000  1.0 -0.1472067102
C  C33  1  0.00000000  0.29740000  0.53180000  1.0 -0.1472067102
C  C34  1  0.00000000  0.70260000  0.46820000  1.0 -0.1472067102
C  C35  1  0.00000000  0.79740000  0.96820000  1.0 -0.1472067102
C  C36  1  0.00000000  0.20260000  0.03180000  1.0 -0.1472067102
C  C37  1  0.00000000  0.36690000  0.57600000  1.0 -0.1776194884
C  C38  1  0.00000000  0.63310000  0.42400000  1.0 -0.1776194884
C  C39  1  0.00000000  0.86690000  0.92400000  1.0 -0.1776194884
C  C40  1  0.00000000  0.13310000  0.07600000  1.0 -0.1776194884
C  C41  1  0.00000000  0.19580000  0.12190000  1.0 0.0205925163
C  C42  1  0.00000000  0.80420000  0.87810000  1.0 0.0205925163
C  C43  1  0.00000000  0.69580000  0.37810000  1.0 0.0205925163
C  C44  1  0.00000000  0.30420000  0.62190000  1.0 0.0205925163
N  N1  1  0.22060000  0.32770000  0.20530000  1.0 -0.3829275582
N  N2  1  0.22060000  0.67230000  0.79470000  1.0 -0.3829275582
N  N3  1  0.77940000  0.82770000  0.29470000  1.0 -0.3829275582
N  N4  1  0.77940000  0.17230000  0.70530000  1.0 -0.3829275582
N  N5  1  0.77940000  0.67230000  0.79470000  1.0 -0.3829275582
N  N6  1  0.77940000  0.32770000  0.20530000  1.0 -0.3829275582
N  N7  1  0.22060000  0.17230000  0.70530000  1.0 -0.3829275582
N  N8  1  0.22060000  0.82770000  0.29470000  1.0 -0.3829275582
N  N9  1  0.78250000  0.13090000  0.27140000  1.0 -0.3853776841
N  N10  1  0.78250000  0.86910000  0.72860000  1.0 -0.3853776841
N  N11  1  0.21750000  0.63090000  0.22860000  1.0 -0.3829275582
N  N12  1  0.21750000  0.36910000  0.77140000  1.0 -0.3829275582
N  N13  1  0.21750000  0.86910000  0.72860000  1.0 -0.3829275582
N  N14  1  0.21750000  0.13090000  0.27140000  1.0 -0.3829275582
N  N15  1  0.78250000  0.36910000  0.77140000  1.0 -0.3853776841
N  N16  1  0.78250000  0.63090000  0.22860000  1.0 -0.3853776841
N  N17  1  0.00000000  0.33250000  0.30340000  1.0 -0.5836386918
N  N18  1  0.00000000  0.66750000  0.69660000  1.0 -0.5836386918
N  N19  1  0.00000000  0.83250000  0.19660000  1.0 -0.5836386918
N  N20  1  0.00000000  0.16750000  0.80340000  1.0 -0.5836386918
N  N21  1  0.00000000  0.13360000  0.16580000  1.0 -0.5836386918
N  N22  1  0.00000000  0.86640000  0.83420000  1.0 -0.5836386918
N  N23  1  0.00000000  0.63360000  0.33420000  1.0 -0.5836386918
N  N24  1  0.00000000  0.36640000  0.66580000  1.0 -0.5836386918
