# DDEC6 charges by PACMAN v1.1 (https://github.com/mtap-research/PACMAN-charge/)
data_RAFMUH_FSR_pacman
_symmetry_space_group_name_H-M   'P 1'
_cell_length_a   9.66730000
_cell_length_b   9.66730000
_cell_length_c   14.86000000
_cell_angle_alpha   90.00000000
_cell_angle_beta   90.00000000
_cell_angle_gamma   120.00000000
_symmetry_Int_Tables_number   1
_chemical_formula_structural   ZnB(PO4)2
_chemical_formula_sum   'Zn6 B6 P12 O48'
_cell_volume   1202.70698479
_cell_formula_units_Z   6
loop_
 _symmetry_equiv_pos_site_id
 _symmetry_equiv_pos_as_xyz
  1  'x, y, z'
loop_
 _atom_site_type_symbol
 _atom_site_label
 _atom_site_symmetry_multiplicity
 _atom_site_fract_x
 _atom_site_fract_y
 _atom_site_fract_z
 _atom_site_occupancy
 _atom_site_charge
Zn  Zn1  1  0.48981000  0.51019000  0.08333000  1.0 1.1833490671
Zn  Zn2  1  0.48981000  0.97962000  0.75000000  1.0 1.1833490671
Zn  Zn3  1  0.02038000  0.51019000  0.41667000  1.0 1.1833490671
Zn  Zn4  1  0.51019000  0.48981000  0.58333000  1.0 1.1833490671
Zn  Zn5  1  0.51019000  0.02038000  0.25000000  1.0 1.1850915195
Zn  Zn6  1  0.97962000  0.48981000  0.91667000  1.0 1.1850915195
B  B1  1  0.83610000  0.67220000  0.25000000  1.0 0.9360106381
B  B2  1  0.32780000  0.16390000  0.91667000  1.0 0.924118662
B  B3  1  0.83610000  0.16390000  0.58333000  1.0 0.924118662
B  B4  1  0.16390000  0.32780000  0.75000000  1.0 0.9360106381
B  B5  1  0.67220000  0.83610000  0.41667000  1.0 0.9360106381
B  B6  1  0.16390000  0.83610000  0.08333000  1.0 0.9360106381
P  P1  1  0.60843000  0.76331000  0.23980000  1.0 1.5339622142
P  P2  1  0.23669000  0.84512000  0.90647000  1.0 1.5368331672
P  P3  1  0.15488000  0.39157000  0.57313000  1.0 1.5368331672
P  P4  1  0.39157000  0.23669000  0.73980000  1.0 1.5368331672
P  P5  1  0.76331000  0.15488000  0.40647000  1.0 1.5368331672
P  P6  1  0.84512000  0.60843000  0.07313000  1.0 1.5339622142
P  P7  1  0.76331000  0.60843000  0.42687000  1.0 1.5368331672
P  P8  1  0.84512000  0.23669000  0.76020000  1.0 1.5368331672
P  P9  1  0.39157000  0.15488000  0.09353000  1.0 1.5368331672
P  P10  1  0.23669000  0.39157000  0.92687000  1.0 1.5368331672
P  P11  1  0.15488000  0.76331000  0.26020000  1.0 1.5368331672
P  P12  1  0.60843000  0.84512000  0.59353000  1.0 1.5368331672
O  O1  1  0.77610000  0.78090000  0.22678000  1.0 -0.5977613289
O  O2  1  0.21910000  0.99520000  0.89345000  1.0 -0.5977613289
O  O3  1  0.00480000  0.22390000  0.56011000  1.0 -0.5977613289
O  O4  1  0.22390000  0.21910000  0.72678000  1.0 -0.5977613289
O  O5  1  0.78090000  0.00480000  0.39345000  1.0 -0.5977613289
O  O6  1  0.99520000  0.77610000  0.06011000  1.0 -0.5977613289
O  O7  1  0.78090000  0.77610000  0.43989000  1.0 -0.5977613289
O  O8  1  0.99520000  0.21910000  0.77322000  1.0 -0.5977613289
O  O9  1  0.22390000  0.00480000  0.10655000  1.0 -0.5977613289
O  O10  1  0.21910000  0.22390000  0.93989000  1.0 -0.5977613289
O  O11  1  0.00480000  0.78090000  0.27322000  1.0 -0.5977613289
O  O12  1  0.77610000  0.99520000  0.60655000  1.0 -0.5977613289
O  O13  1  0.47940000  0.61520000  0.19288000  1.0 -0.6930925755
O  O14  1  0.38480000  0.86420000  0.85955000  1.0 -0.6930925755
O  O15  1  0.13580000  0.52060000  0.52621000  1.0 -0.6930925755
O  O16  1  0.52060000  0.38480000  0.69288000  1.0 -0.6930925755
O  O17  1  0.61520000  0.13580000  0.35955000  1.0 -0.6930925755
O  O18  1  0.86420000  0.47940000  0.02621000  1.0 -0.6930925755
O  O19  1  0.61520000  0.47940000  0.47379000  1.0 -0.6930925755
O  O20  1  0.86420000  0.38480000  0.80712000  1.0 -0.6930925755
O  O21  1  0.52060000  0.13580000  0.14045000  1.0 -0.6930925755
O  O22  1  0.38480000  0.52060000  0.97379000  1.0 -0.6930925755
O  O23  1  0.13580000  0.61520000  0.30712000  1.0 -0.6930925755
O  O24  1  0.47940000  0.86420000  0.64045000  1.0 -0.6930925755
O  O25  1  0.70560000  0.62190000  0.03767000  1.0 -0.7123624919
O  O26  1  0.37810000  0.08370000  0.70434000  1.0 -0.7123624919
O  O27  1  0.91630000  0.29440000  0.37100000  1.0 -0.7123624919
O  O28  1  0.29440000  0.37810000  0.53767000  1.0 -0.7123624919
O  O29  1  0.62190000  0.91630000  0.20434000  1.0 -0.7123624919
O  O30  1  0.08370000  0.70560000  0.87100000  1.0 -0.7123624919
O  O31  1  0.62190000  0.70560000  0.62900000  1.0 -0.71503911
O  O32  1  0.08370000  0.37810000  0.96233000  1.0 -0.7123624919
O  O33  1  0.29440000  0.91630000  0.29566000  1.0 -0.7123624919
O  O34  1  0.37810000  0.29440000  0.12900000  1.0 -0.7123624919
O  O35  1  0.91630000  0.62190000  0.46233000  1.0 -0.71503911
O  O36  1  0.70560000  0.08370000  0.79566000  1.0 -0.7123624919
O  O37  1  0.56580000  0.74510000  0.34208000  1.0 -0.5906804411
O  O38  1  0.25490000  0.82070000  0.00875000  1.0 -0.5906804411
O  O39  1  0.17930000  0.43420000  0.67541000  1.0 -0.5906804411
O  O40  1  0.43420000  0.25490000  0.84208000  1.0 -0.5906804411
O  O41  1  0.74510000  0.17930000  0.50875000  1.0 -0.5906804411
O  O42  1  0.82070000  0.56580000  0.17541000  1.0 -0.5906804411
O  O43  1  0.74510000  0.56580000  0.32459000  1.0 -0.5906804411
O  O44  1  0.82070000  0.25490000  0.65792000  1.0 -0.5906804411
O  O45  1  0.43420000  0.17930000  0.99125000  1.0 -0.5906804411
O  O46  1  0.25490000  0.43420000  0.82459000  1.0 -0.5906804411
O  O47  1  0.17930000  0.74510000  0.15792000  1.0 -0.5906804411
O  O48  1  0.56580000  0.82070000  0.49125000  1.0 -0.5906804411
