# DDEC6 charges by PACMAN v1.1 (https://github.com/mtap-research/PACMAN-charge/)
data_RAJFAL_FSR_pacman
_symmetry_space_group_name_H-M   'P 1'
_cell_length_a   9.82400000
_cell_length_b   9.96300000
_cell_length_c   10.15000000
_cell_angle_alpha   74.04400000
_cell_angle_beta   86.36100000
_cell_angle_gamma   78.32800000
_symmetry_Int_Tables_number   1
_chemical_formula_structural   Ca3H18(C16O9)2
_chemical_formula_sum   'Ca3 H18 C32 O18'
_cell_volume   935.38836637
_cell_formula_units_Z   1
loop_
 _symmetry_equiv_pos_site_id
 _symmetry_equiv_pos_as_xyz
  1  'x, y, z'
loop_
 _atom_site_type_symbol
 _atom_site_label
 _atom_site_symmetry_multiplicity
 _atom_site_fract_x
 _atom_site_fract_y
 _atom_site_fract_z
 _atom_site_occupancy
 _atom_site_charge
Ca  Ca1  1  0.49216000  0.12032000  0.11653000  1.0 1.352473661
Ca  Ca2  1  0.50784000  0.87968000  0.88347000  1.0 1.352473661
Ca  Ca3  1  0.50000000  0.00000000  0.50000000  1.0 1.4198797194
H  H1  1  0.69140000  0.27880000  0.47300000  1.0 0.1513427493
H  H2  1  0.30860000  0.72120000  0.52700000  1.0 0.1513427493
H  H3  1  0.67240000  0.68600000  0.46960000  1.0 0.1294297946
H  H4  1  0.32760000  0.31400000  0.53040000  1.0 0.1294297946
H  H5  1  0.51150000  0.59270000  0.15790000  1.0 0.1370405403
H  H6  1  0.48850000  0.40730000  0.84210000  1.0 0.1370405403
H  H7  1  0.72600000  0.58370000  0.69640000  1.0 0.1130783984
H  H8  1  0.27400000  0.41630000  0.30360000  1.0 0.1130783984
H  H9  1  0.86460000  0.58270000  0.60960000  1.0 0.1130783984
H  H10  1  0.13540000  0.41730000  0.39040000  1.0 0.1130783984
H  H11  1  0.73620000  0.46450000  0.93760000  1.0 0.1294297946
H  H12  1  0.26380000  0.53550000  0.06240000  1.0 0.1294297946
H  H13  1  0.86810000  0.34310000  0.13010000  1.0 0.1130783984
H  H14  1  0.13190000  0.65690000  0.86990000  1.0 0.1130783984
H  H15  1  0.19740000  0.25960000  0.89230000  1.0 0.1130783984
H  H16  1  0.80260000  0.74040000  0.10770000  1.0 0.1130783984
H  H17  1  0.06880000  0.38500000  0.70120000  1.0 0.1205188331
H  H18  1  0.93120000  0.61500000  0.29880000  1.0 0.1205188331
C  C1  1  0.55120000  0.31300000  0.24692000  1.0 0.5728518513
C  C2  1  0.44880000  0.68700000  0.75308000  1.0 0.5728518513
C  C3  1  0.59390000  0.41960000  0.30782000  1.0 -0.008028107
C  C4  1  0.40610000  0.58040000  0.69218000  1.0 -0.008028107
C  C5  1  0.66530000  0.37530000  0.43005000  1.0 -0.2007037255
C  C6  1  0.33470000  0.62470000  0.56995000  1.0 -0.2007037255
C  C7  1  0.69820000  0.47560000  0.48885000  1.0 0.2414044512
C  C8  1  0.30180000  0.52440000  0.51115000  1.0 0.2414044512
C  C9  1  0.65450000  0.61900000  0.42814000  1.0 -0.2407393234
C  C10  1  0.34550000  0.38100000  0.57186000  1.0 -0.2407393234
C  C11  1  0.58340000  0.66280000  0.30407000  1.0 -0.0241109992
C  C12  1  0.41660000  0.33720000  0.69593000  1.0 -0.0241109992
C  C13  1  0.55550000  0.56330000  0.24236000  1.0 -0.1284477788
C  C14  1  0.44450000  0.43670000  0.75764000  1.0 -0.1284477788
C  C15  1  0.53470000  0.81770000  0.24076000  1.0 0.6148127166
C  C16  1  0.46530000  0.18230000  0.75924000  1.0 0.6148127166
C  C17  1  0.80870000  0.52310000  0.67250000  1.0 -0.057406843
C  C18  1  0.19130000  0.47690000  0.32750000  1.0 -0.057406843
C  C19  1  0.89000000  0.43940000  0.79880000  1.0 0.0896376368
C  C20  1  0.11000000  0.56060000  0.20120000  1.0 0.0896376368
C  C21  1  0.82940000  0.42500000  0.92830000  1.0 -0.1241642612
C  C22  1  0.17060000  0.57500000  0.07170000  1.0 -0.1241642612
C  C23  1  0.90860000  0.35130000  0.04360000  1.0 -0.0833787697
C  C24  1  0.09140000  0.64870000  0.95640000  1.0 -0.0833787697
C  C25  1  0.04710000  0.28970000  0.03210000  1.0 -0.0381411466
C  C26  1  0.95290000  0.71030000  0.96790000  1.0 -0.0381411466
C  C27  1  0.13400000  0.21430000  0.15700000  1.0 0.5728518513
C  C28  1  0.86600000  0.78570000  0.84300000  1.0 0.5728518513
C  C29  1  0.10530000  0.30210000  0.90200000  1.0 -0.0880627337
C  C30  1  0.89470000  0.69790000  0.09800000  1.0 -0.0880627337
C  C31  1  0.02790000  0.37660000  0.78750000  1.0 -0.1389212164
C  C32  1  0.97210000  0.62340000  0.21250000  1.0 -0.1389212164
O  O1  1  0.07663000  0.20000000  0.27205000  1.0 -0.4314312788
O  O2  1  0.92337000  0.80000000  0.72795000  1.0 -0.4314312788
O  O3  1  0.26097000  0.16810000  0.14084000  1.0 -0.6029454323
O  O4  1  0.73903000  0.83190000  0.85916000  1.0 -0.6029454323
O  O5  1  0.77075000  0.42196000  0.60956000  1.0 -0.1634705814
O  O6  1  0.22925000  0.57804000  0.39044000  1.0 -0.1634705814
O  O7  1  0.54587000  0.18922000  0.32385000  1.0 -0.64030166
O  O8  1  0.45413000  0.81078000  0.67615000  1.0 -0.64030166
O  O9  1  0.52014000  0.34879000  0.12374000  1.0 -0.537166551
O  O10  1  0.47986000  0.65121000  0.87626000  1.0 -0.537166551
O  O11  1  0.52058000  0.90394000  0.31392000  1.0 -0.6264896544
O  O12  1  0.47942000  0.09606000  0.68608000  1.0 -0.6264896544
O  O13  1  0.50799000  0.86241000  0.11456000  1.0 -0.6029454323
O  O14  1  0.49201000  0.13759000  0.88544000  1.0 -0.6029454323
O  O15  1  0.25970000  0.07220000  0.47443000  1.0 -0.2643096897
O  O16  1  0.74030000  0.92780000  0.52557000  1.0 -0.2700246625
O  O17  1  0.73198000  0.06580000  0.07872000  1.0 -0.2700246625
O  O18  1  0.26802000  0.93420000  0.92128000  1.0 -0.2700246625
