# DDEC6 charges by PACMAN v1.1 (https://github.com/mtap-research/PACMAN-charge/)
data_RAJQEC_ASR_pacman
_symmetry_space_group_name_H-M   'P 1'
_cell_length_a   25.04440000
_cell_length_b   25.04440000
_cell_length_c   25.04440000
_cell_angle_alpha   91.18200000
_cell_angle_beta   91.18200000
_cell_angle_gamma   163.48500000
_symmetry_Int_Tables_number   1
_chemical_formula_structural   Np4H32C57O20
_chemical_formula_sum   'Np8 H64 C114 O40'
_cell_volume   4419.07019067
_cell_formula_units_Z   2
loop_
 _symmetry_equiv_pos_site_id
 _symmetry_equiv_pos_as_xyz
  1  'x, y, z'
loop_
 _atom_site_type_symbol
 _atom_site_label
 _atom_site_symmetry_multiplicity
 _atom_site_fract_x
 _atom_site_fract_y
 _atom_site_fract_z
 _atom_site_occupancy
 _atom_site_charge
Np  Np1  1  0.63700000  0.04461000  0.94165000  1.0 1.741410188
Np  Np2  1  0.10296000  0.69535000  0.05835000  1.0 1.741410188
Np  Np3  1  0.94535000  0.38700000  0.09239000  1.0 1.741410188
Np  Np4  1  0.29461000  0.85296000  0.90761000  1.0 1.741410188
Np  Np5  1  0.61300000  0.70539000  0.55835000  1.0 1.741410188
Np  Np6  1  0.14704000  0.05465000  0.44165000  1.0 1.741410188
Np  Np7  1  0.30465000  0.36300000  0.40761000  1.0 1.741410188
Np  Np8  1  0.95539000  0.89704000  0.59239000  1.0 1.741410188
H  H1  1  0.72515000  0.76073000  0.05694000  1.0 0.1022143807
H  H2  1  0.89731000  0.97680000  0.92225000  1.0 0.1090702554
H  H3  1  0.48574000  0.59181000  0.04905000  1.0 0.1090702554
H  H4  1  0.65414000  0.80508000  0.91364000  1.0 0.1191825335
H  H5  1  0.52155000  0.75713000  0.94202000  1.0 0.1191825335
H  H6  1  0.94371000  0.15935000  0.99246000  1.0 0.1090702554
H  H7  1  0.19052000  0.33512000  0.00230000  1.0 0.1022143807
H  H8  1  0.27301000  0.57795000  0.92640000  1.0 0.1191825335
H  H9  1  0.70379000  0.66821000  0.94306000  1.0 0.1022143807
H  H10  1  0.05455000  0.97506000  0.07775000  1.0 0.1090702554
H  H11  1  0.54276000  0.43669000  0.95095000  1.0 0.1090702554
H  H12  1  0.89144000  0.74050000  0.08636000  1.0 0.1191825335
H  H13  1  0.81511000  0.57953000  0.05798000  1.0 0.1191825335
H  H14  1  0.16689000  0.95125000  0.00754000  1.0 0.1090702554
H  H15  1  0.33282000  0.18822000  0.99770000  1.0 0.1022143807
H  H16  1  0.65155000  0.34661000  0.07360000  1.0 0.1191825335
H  H17  1  0.91821000  0.47515000  0.46442000  1.0 0.1022143807
H  H18  1  0.22506000  0.64731000  0.42051000  1.0 0.1090702554
H  H19  1  0.68669000  0.23574000  0.39393000  1.0 0.1090702554
H  H20  1  0.99050000  0.40414000  0.34906000  1.0 0.1191825335
H  H21  1  0.82953000  0.27155000  0.26442000  1.0 0.1191825335
H  H22  1  0.20125000  0.69371000  0.28436000  1.0 0.1090702554
H  H23  1  0.43822000  0.94052000  0.35540000  1.0 0.1022143807
H  H24  1  0.59661000  0.02301000  0.19506000  1.0 0.1191825335
H  H25  1  0.01073000  0.45379000  0.53558000  1.0 0.1022143807
H  H26  1  0.22680000  0.80455000  0.57949000  1.0 0.1090702554
H  H27  1  0.84181000  0.29276000  0.60607000  1.0 0.1090702554
H  H28  1  0.05508000  0.64144000  0.65094000  1.0 0.1191825335
H  H29  1  0.00713000  0.56511000  0.73558000  1.0 0.1191825335
H  H30  1  0.40935000  0.91689000  0.71564000  1.0 0.1090702554
H  H31  1  0.58512000  0.08282000  0.64460000  1.0 0.1022143807
H  H32  1  0.82795000  0.40155000  0.80494000  1.0 0.1191825335
H  H33  1  0.52485000  0.98927000  0.44306000  1.0 0.1022143807
H  H34  1  0.35269000  0.77320000  0.57775000  1.0 0.1090702554
H  H35  1  0.76426000  0.15819000  0.45095000  1.0 0.1090702554
H  H36  1  0.59586000  0.94492000  0.58636000  1.0 0.1191825335
H  H37  1  0.72845000  0.99287000  0.55798000  1.0 0.1191825335
H  H38  1  0.30629000  0.59065000  0.50754000  1.0 0.1090702554
H  H39  1  0.05948000  0.41488000  0.49770000  1.0 0.1022143807
H  H40  1  0.97699000  0.17205000  0.57360000  1.0 0.1191825335
H  H41  1  0.54621000  0.08179000  0.55694000  1.0 0.1022143807
H  H42  1  0.19545000  0.77494000  0.42225000  1.0 0.1090702554
H  H43  1  0.70724000  0.31331000  0.54905000  1.0 0.1090702554
H  H44  1  0.35856000  0.00950000  0.41364000  1.0 0.1191825335
H  H45  1  0.43489000  0.17047000  0.44202000  1.0 0.1191825335
H  H46  1  0.08311000  0.79875000  0.49246000  1.0 0.1090702554
H  H47  1  0.91718000  0.56178000  0.50230000  1.0 0.1022143807
H  H48  1  0.59845000  0.40339000  0.42640000  1.0 0.1191825335
H  H49  1  0.33179000  0.27485000  0.03558000  1.0 0.1022143807
H  H50  1  0.02494000  0.10269000  0.07949000  1.0 0.1090702554
H  H51  1  0.56331000  0.51426000  0.10607000  1.0 0.1090702554
H  H52  1  0.25950000  0.34586000  0.15094000  1.0 0.1191825335
H  H53  1  0.42047000  0.47845000  0.23558000  1.0 0.1191825335
H  H54  1  0.04875000  0.05629000  0.21564000  1.0 0.1090702554
H  H55  1  0.81178000  0.80948000  0.14460000  1.0 0.1022143807
H  H56  1  0.65339000  0.72699000  0.30494000  1.0 0.1191825335
H  H57  1  0.23927000  0.29621000  0.96442000  1.0 0.1022143807
H  H58  1  0.02320000  0.94545000  0.92051000  1.0 0.1090702554
H  H59  1  0.40819000  0.45724000  0.89393000  1.0 0.1090702554
H  H60  1  0.19492000  0.10856000  0.84906000  1.0 0.1191825335
H  H61  1  0.24287000  0.18489000  0.76442000  1.0 0.1191825335
H  H62  1  0.84065000  0.83311000  0.78436000  1.0 0.1090702554
H  H63  1  0.66488000  0.66718000  0.85540000  1.0 0.1022143807
H  H64  1  0.42205000  0.34845000  0.69506000  1.0 0.1191825335
C  C1  1  0.83909000  0.88826000  0.99115000  1.0 0.0516117789
C  C2  1  0.71190000  0.77080000  0.02770000  1.0 -0.1522117
C  C3  1  0.54270000  0.67970000  0.98000000  1.0 0.069071747
C  C4  1  0.91850000  0.23170000  0.94920000  1.0 0.5486849617
C  C5  1  0.81500000  0.89960000  0.94800000  1.0 -0.1601889957
C  C6  1  0.56760000  0.66880000  0.02320000  1.0 -0.1522117
C  C7  1  0.37950000  0.56370000  0.97240000  1.0 0.0516117789
C  C8  1  0.66810000  0.79580000  0.94290000  1.0 -0.1601889957
C  C9  1  0.40360000  0.63490000  0.95110000  1.0 -0.1322794933
C  C10  1  0.05860000  0.27820000  0.98120000  1.0 -0.1069372896
C  C11  1  0.07840000  0.34610000  0.95810000  1.0 -0.016613983
C  C12  1  0.20670000  0.38390000  0.98780000  1.0 -0.1601889957
C  C13  1  0.25600000  0.52920000  0.94240000  1.0 -0.0812236596
C  C14  1  0.24480000  0.65180000  0.00300000  1.0 0.7816658091
C  C15  1  0.89711000  0.84794000  0.00885000  1.0 0.0516117789
C  C16  1  0.74310000  0.68420000  0.97230000  1.0 -0.1522117
C  C17  1  0.69970000  0.56270000  0.02000000  1.0 0.069071747
C  C18  1  0.28250000  0.96930000  0.05080000  1.0 0.5486849617
C  C19  1  0.95160000  0.86700000  0.05200000  1.0 -0.1601889957
C  C20  1  0.64560000  0.54440000  0.97680000  1.0 -0.1522117
C  C21  1  0.59130000  0.40710000  0.02760000  1.0 0.0516117789
C  C22  1  0.85290000  0.72520000  0.05710000  1.0 -0.1601889957
C  C23  1  0.68380000  0.45250000  0.04890000  1.0 -0.1322794933
C  C24  1  0.29700000  0.07740000  0.01880000  1.0 -0.1069372896
C  C25  1  0.38800000  0.12030000  0.04190000  1.0 -0.016613983
C  C26  1  0.39610000  0.21890000  0.01220000  1.0 -0.1601889957
C  C27  1  0.58680000  0.31360000  0.05760000  1.0 -0.0812236596
C  C28  1  0.64880000  0.24180000  0.99700000  1.0 0.7816658091
C  C29  1  0.09794000  0.58909000  0.45083000  1.0 0.0516117789
C  C30  1  0.93420000  0.46190000  0.44110000  1.0 -0.1522117
C  C31  1  0.81270000  0.29270000  0.36300000  1.0 0.069071747
C  C32  1  0.21930000  0.66850000  0.18680000  1.0 0.5486849617
C  C33  1  0.11700000  0.56500000  0.41540000  1.0 -0.1601889957
C  C34  1  0.79440000  0.31760000  0.39880000  1.0 -0.1522117
C  C35  1  0.65710000  0.12950000  0.31580000  1.0 0.0516117789
C  C36  1  0.97520000  0.41810000  0.37230000  1.0 -0.1601889957
C  C37  1  0.70250000  0.15360000  0.26870000  1.0 -0.1322794933
C  C38  1  0.32740000  0.80860000  0.28040000  1.0 -0.1069372896
C  C39  1  0.37030000  0.82840000  0.23230000  1.0 -0.016613983
C  C40  1  0.46890000  0.95670000  0.32280000  1.0 -0.1601889957
C  C41  1  0.56360000  0.00600000  0.22680000  1.0 -0.0812236596
C  C42  1  0.49180000  0.99480000  0.09300000  1.0 0.7816658091
C  C43  1  0.13826000  0.64711000  0.54917000  1.0 0.0516117789
C  C44  1  0.02080000  0.49310000  0.55890000  1.0 -0.1522117
C  C45  1  0.92970000  0.44970000  0.63700000  1.0 0.069071747
C  C46  1  0.48170000  0.03250000  0.81320000  1.0 0.5486849617
C  C47  1  0.14960000  0.70160000  0.58460000  1.0 -0.1601889957
C  C48  1  0.91880000  0.39560000  0.60120000  1.0 -0.1522117
C  C49  1  0.81370000  0.34130000  0.68420000  1.0 0.0516117789
C  C50  1  0.04580000  0.60290000  0.62770000  1.0 -0.1601889957
C  C51  1  0.88490000  0.43380000  0.73130000  1.0 -0.1322794933
C  C52  1  0.52820000  0.04700000  0.71960000  1.0 -0.1069372896
C  C53  1  0.59610000  0.13800000  0.76770000  1.0 -0.016613983
C  C54  1  0.63390000  0.14610000  0.67720000  1.0 -0.1601889957
C  C55  1  0.77920000  0.33680000  0.77320000  1.0 -0.0812236596
C  C56  1  0.90180000  0.39880000  0.90700000  1.0 0.7816658091
C  C57  1  0.41091000  0.86174000  0.50885000  1.0 0.0516117789
C  C58  1  0.53810000  0.97920000  0.47230000  1.0 -0.1522117
C  C59  1  0.70730000  0.07030000  0.52000000  1.0 0.069071747
C  C60  1  0.33150000  0.51830000  0.55080000  1.0 0.5486849617
C  C61  1  0.43500000  0.85040000  0.55200000  1.0 -0.1601889957
C  C62  1  0.68240000  0.08120000  0.47680000  1.0 -0.1522117
C  C63  1  0.87050000  0.18630000  0.52760000  1.0 0.0516117789
C  C64  1  0.58190000  0.95420000  0.55710000  1.0 -0.1601889957
C  C65  1  0.84640000  0.11510000  0.54890000  1.0 -0.1322794933
C  C66  1  0.19140000  0.47180000  0.51880000  1.0 -0.1069372896
C  C67  1  0.17160000  0.40390000  0.54190000  1.0 -0.016613983
C  C68  1  0.04330000  0.36610000  0.51220000  1.0 -0.1601889957
C  C69  1  0.99400000  0.22080000  0.55760000  1.0 -0.0812236596
C  C70  1  0.00520000  0.09820000  0.49700000  1.0 0.7816658091
C  C71  1  0.35289000  0.90206000  0.49115000  1.0 0.0516117789
C  C72  1  0.50690000  0.06580000  0.52770000  1.0 -0.1522117
C  C73  1  0.55030000  0.18730000  0.48000000  1.0 0.069071747
C  C74  1  0.96750000  0.78070000  0.44920000  1.0 0.5486849617
C  C75  1  0.29840000  0.88300000  0.44800000  1.0 -0.1601889957
C  C76  1  0.60440000  0.20560000  0.52320000  1.0 -0.1522117
C  C77  1  0.65870000  0.34290000  0.47240000  1.0 0.0516117789
C  C78  1  0.39710000  0.02480000  0.44290000  1.0 -0.1601889957
C  C79  1  0.56620000  0.29750000  0.45110000  1.0 -0.1322794933
C  C80  1  0.95300000  0.67260000  0.48120000  1.0 -0.1069372896
C  C81  1  0.86200000  0.62970000  0.45810000  1.0 -0.016613983
C  C82  1  0.85390000  0.53110000  0.48780000  1.0 -0.1601889957
C  C83  1  0.66320000  0.43640000  0.44240000  1.0 -0.0812236596
C  C84  1  0.60120000  0.50820000  0.50300000  1.0 0.7816658091
C  C85  1  0.15206000  0.16091000  0.04917000  1.0 0.0516117789
C  C86  1  0.31580000  0.28810000  0.05890000  1.0 -0.1522117
C  C87  1  0.43730000  0.45730000  0.13700000  1.0 0.069071747
C  C88  1  0.03070000  0.08150000  0.31320000  1.0 0.5486849617
C  C89  1  0.13300000  0.18500000  0.08460000  1.0 -0.1601889957
C  C90  1  0.45560000  0.43240000  0.10120000  1.0 -0.1522117
C  C91  1  0.59290000  0.62050000  0.18420000  1.0 0.0516117789
C  C92  1  0.27480000  0.33190000  0.12770000  1.0 -0.1601889957
C  C93  1  0.54750000  0.59640000  0.23130000  1.0 -0.1322794933
C  C94  1  0.92260000  0.94140000  0.21960000  1.0 -0.1069372896
C  C95  1  0.87970000  0.92160000  0.26770000  1.0 -0.016613983
C  C96  1  0.78110000  0.79330000  0.17720000  1.0 -0.1601889957
C  C97  1  0.68640000  0.74400000  0.27320000  1.0 -0.0812236596
C  C98  1  0.75820000  0.75520000  0.40700000  1.0 0.7816658091
C  C99  1  0.11174000  0.10289000  0.95083000  1.0 0.0516117789
C  C100  1  0.22920000  0.25690000  0.94110000  1.0 -0.1522117
C  C101  1  0.32030000  0.30030000  0.86300000  1.0 0.069071747
C  C102  1  0.76830000  0.71750000  0.68680000  1.0 0.5486849617
C  C103  1  0.10040000  0.04840000  0.91540000  1.0 -0.1601889957
C  C104  1  0.33120000  0.35440000  0.89880000  1.0 -0.1522117
C  C105  1  0.43630000  0.40870000  0.81580000  1.0 0.0516117789
C  C106  1  0.20420000  0.14710000  0.87230000  1.0 -0.1601889957
C  C107  1  0.36510000  0.31620000  0.76870000  1.0 -0.1322794933
C  C108  1  0.72180000  0.70300000  0.78040000  1.0 -0.1069372896
C  C109  1  0.65390000  0.61200000  0.73230000  1.0 -0.016613983
C  C110  1  0.61610000  0.60390000  0.82280000  1.0 -0.1601889957
C  C111  1  0.47080000  0.41320000  0.72680000  1.0 -0.0812236596
C  C112  1  0.34820000  0.35120000  0.59300000  1.0 0.7816658091
C  C113  1  0.00000000  0.00000000  0.00000000  1.0 -0.0066885691
C  C114  1  0.25000000  0.75000000  0.50000000  1.0 -0.0066885691
O  O1  1  0.75686000  0.18910000  0.00636000  1.0 -0.9349940646
O  O2  1  0.77042000  0.08201000  0.97043000  1.0 -0.5888970572
O  O3  1  0.16575000  0.55627000  0.03902000  1.0 -0.4318845537
O  O4  1  0.94251000  0.29624000  0.92255000  1.0 -0.5888970572
O  O5  1  0.39590000  0.78028000  0.98998000  1.0 -0.4643811364
O  O6  1  0.18274000  0.75050000  0.99364000  1.0 -0.9356241553
O  O7  1  0.11158000  0.79999000  0.02957000  1.0 -0.5888970572
O  O8  1  0.51725000  0.12673000  0.96098000  1.0 -0.4318845537
O  O9  1  0.37369000  0.01996000  0.07745000  1.0 -0.5888970572
O  O10  1  0.79030000  0.40592000  0.01002000  1.0 -0.4643811364
O  O11  1  0.00050000  0.50686000  0.06776000  1.0 -0.9356241553
O  O12  1  0.04999000  0.52042000  0.18841000  1.0 -0.5888970572
O  O13  1  0.37673000  0.91575000  0.10948000  1.0 -0.4318845537
O  O14  1  0.26996000  0.69251000  0.14627000  1.0 -0.5888970572
O  O15  1  0.65592000  0.14590000  0.11562000  1.0 -0.4643811364
O  O16  1  0.43910000  0.93274000  0.93224000  1.0 -0.9356241553
O  O17  1  0.33201000  0.86158000  0.81159000  1.0 -0.5888970572
O  O18  1  0.80627000  0.26725000  0.89052000  1.0 -0.4318845537
O  O19  1  0.54624000  0.12369000  0.85373000  1.0 -0.5888970572
O  O20  1  0.03028000  0.54030000  0.88438000  1.0 -0.4643811364
O  O21  1  0.49314000  0.56090000  0.49364000  1.0 -0.9356241553
O  O22  1  0.47958000  0.66799000  0.52957000  1.0 -0.5888970572
O  O23  1  0.08425000  0.19373000  0.46098000  1.0 -0.4318845537
O  O24  1  0.30749000  0.45376000  0.57745000  1.0 -0.5888970572
O  O25  1  0.85410000  0.96972000  0.51002000  1.0 -0.4643811364
O  O26  1  0.06726000  0.99950000  0.50636000  1.0 -0.9349940646
O  O27  1  0.13842000  0.95001000  0.47043000  1.0 -0.5888970572
O  O28  1  0.73275000  0.62327000  0.53902000  1.0 -0.4318845537
O  O29  1  0.87631000  0.73004000  0.42255000  1.0 -0.5888970572
O  O30  1  0.45970000  0.34408000  0.48998000  1.0 -0.4643811364
O  O31  1  0.24950000  0.24314000  0.43224000  1.0 -0.9356241553
O  O32  1  0.20001000  0.22958000  0.31159000  1.0 -0.5888970572
O  O33  1  0.87327000  0.83425000  0.39052000  1.0 -0.4318845537
O  O34  1  0.98004000  0.05749000  0.35373000  1.0 -0.5888970572
O  O35  1  0.59408000  0.60410000  0.38438000  1.0 -0.4643811364
O  O36  1  0.81090000  0.81726000  0.56776000  1.0 -0.9356241553
O  O37  1  0.91799000  0.88842000  0.68841000  1.0 -0.5888970572
O  O38  1  0.44373000  0.48275000  0.60948000  1.0 -0.4318845537
O  O39  1  0.70376000  0.62631000  0.64627000  1.0 -0.5888970572
O  O40  1  0.21972000  0.20970000  0.61562000  1.0 -0.4643811364
