# DDEC6 charges by PACMAN v1.1 (https://github.com/mtap-research/PACMAN-charge/)
data_RAKMOF_FSR_pacman
_symmetry_space_group_name_H-M   'P 1'
_cell_length_a   8.85350000
_cell_length_b   15.55220000
_cell_length_c   23.79050000
_cell_angle_alpha   90.00000000
_cell_angle_beta   90.00000000
_cell_angle_gamma   90.00000000
_symmetry_Int_Tables_number   1
_chemical_formula_structural   Cd3C6(N3Cl)2
_chemical_formula_sum   'Cd12 C24 N24 Cl8'
_cell_volume   3275.74731593
_cell_formula_units_Z   4
loop_
 _symmetry_equiv_pos_site_id
 _symmetry_equiv_pos_as_xyz
  1  'x, y, z'
loop_
 _atom_site_type_symbol
 _atom_site_label
 _atom_site_symmetry_multiplicity
 _atom_site_fract_x
 _atom_site_fract_y
 _atom_site_fract_z
 _atom_site_occupancy
 _atom_site_charge
Cd  Cd1  1  0.75000000  0.07154000  0.34236000  1.0 1.000081155
Cd  Cd2  1  0.75000000  0.42846000  0.84236000  1.0 1.000081155
Cd  Cd3  1  0.25000000  0.57154000  0.15764000  1.0 1.000081155
Cd  Cd4  1  0.25000000  0.92846000  0.65764000  1.0 1.000081155
Cd  Cd5  1  0.75000000  0.83701000  0.51878000  1.0 0.5272372845
Cd  Cd6  1  0.75000000  0.66299000  0.01878000  1.0 0.5173036936
Cd  Cd7  1  0.25000000  0.33701000  0.98122000  1.0 0.5138183418
Cd  Cd8  1  0.25000000  0.16299000  0.48122000  1.0 0.5138183418
Cd  Cd9  1  0.75000000  0.41988000  0.26836000  1.0 0.4307483318
Cd  Cd10  1  0.75000000  0.08012000  0.76836000  1.0 0.4307483318
Cd  Cd11  1  0.25000000  0.91988000  0.23164000  1.0 0.4209790114
Cd  Cd12  1  0.25000000  0.58012000  0.73164000  1.0 0.41427784
C  C1  1  0.75000000  0.91560000  0.44220000  1.0 0.1197609918
C  C2  1  0.75000000  0.58440000  0.94220000  1.0 0.1250083628
C  C3  1  0.25000000  0.41560000  0.05780000  1.0 0.1197609918
C  C4  1  0.25000000  0.08440000  0.55780000  1.0 0.1197609918
C  C5  1  0.75000000  0.27810000  0.28460000  1.0 0.1890379174
C  C6  1  0.75000000  0.22190000  0.78460000  1.0 0.2107022835
C  C7  1  0.25000000  0.77810000  0.21540000  1.0 0.2107022835
C  C8  1  0.25000000  0.72190000  0.71540000  1.0 0.2107022835
C  C9  1  0.45350000  0.14100000  0.42840000  1.0 0.1197609918
C  C10  1  0.45350000  0.35900000  0.92840000  1.0 0.1197609918
C  C11  1  0.95350000  0.64100000  0.07160000  1.0 0.1197609918
C  C12  1  0.04650000  0.14100000  0.42840000  1.0 0.1197609918
C  C13  1  0.54650000  0.85900000  0.57160000  1.0 0.1127183321
C  C14  1  0.54650000  0.64100000  0.07160000  1.0 0.1197609918
C  C15  1  0.04650000  0.35900000  0.92840000  1.0 0.1197609918
C  C16  1  0.95350000  0.85900000  0.57160000  1.0 0.1127183321
C  C17  1  0.45880000  0.97670000  0.26790000  1.0 0.1805595416
C  C18  1  0.45880000  0.52330000  0.76790000  1.0 0.1957590762
C  C19  1  0.95880000  0.47670000  0.23210000  1.0 0.1805595416
C  C20  1  0.04120000  0.97670000  0.26790000  1.0 0.1805595416
C  C21  1  0.54120000  0.02330000  0.73210000  1.0 0.1890379174
C  C22  1  0.54120000  0.47670000  0.23210000  1.0 0.1805595416
C  C23  1  0.04120000  0.52330000  0.76790000  1.0 0.1957590762
C  C24  1  0.95880000  0.02330000  0.73210000  1.0 0.1890379174
N  N1  1  0.75000000  0.95620000  0.40280000  1.0 -0.3495283044
N  N2  1  0.75000000  0.54380000  0.90280000  1.0 -0.3615425445
N  N3  1  0.25000000  0.45620000  0.09720000  1.0 -0.3615425445
N  N4  1  0.25000000  0.04380000  0.59720000  1.0 -0.3495283044
N  N5  1  0.75000000  0.20780000  0.29830000  1.0 -0.3615425445
N  N6  1  0.75000000  0.29220000  0.79830000  1.0 -0.3765889045
N  N7  1  0.25000000  0.70780000  0.20170000  1.0 -0.3765889045
N  N8  1  0.25000000  0.79220000  0.70170000  1.0 -0.3765889045
N  N9  1  0.55430000  0.12750000  0.40080000  1.0 -0.3317446303
N  N10  1  0.55430000  0.37250000  0.90080000  1.0 -0.3317446303
N  N11  1  0.05430000  0.62750000  0.09920000  1.0 -0.3317446303
N  N12  1  0.94570000  0.12750000  0.40080000  1.0 -0.3317446303
N  N13  1  0.44570000  0.87250000  0.59920000  1.0 -0.3317446303
N  N14  1  0.44570000  0.62750000  0.09920000  1.0 -0.3317446303
N  N15  1  0.94570000  0.37250000  0.90080000  1.0 -0.3317446303
N  N16  1  0.05430000  0.87250000  0.59920000  1.0 -0.3317446303
N  N17  1  0.55970000  0.01070000  0.28620000  1.0 -0.3615425445
N  N18  1  0.55970000  0.48930000  0.78620000  1.0 -0.3691756884
N  N19  1  0.05970000  0.51070000  0.21380000  1.0 -0.3691756884
N  N20  1  0.94030000  0.01070000  0.28620000  1.0 -0.3615425445
N  N21  1  0.44030000  0.98930000  0.71380000  1.0 -0.3691756884
N  N22  1  0.44030000  0.51070000  0.21380000  1.0 -0.3691756884
N  N23  1  0.94030000  0.48930000  0.78620000  1.0 -0.3691756884
N  N24  1  0.05970000  0.98930000  0.71380000  1.0 -0.3691756884
Cl  Cl1  1  0.75000000  0.68210000  0.49250000  1.0 -0.390518369
Cl  Cl2  1  0.75000000  0.81790000  0.99250000  1.0 -0.3765889045
Cl  Cl3  1  0.25000000  0.18210000  0.00750000  1.0 -0.390518369
Cl  Cl4  1  0.25000000  0.31790000  0.50750000  1.0 -0.390518369
Cl  Cl5  1  0.75000000  0.46700000  0.37130000  1.0 -0.3691756884
Cl  Cl6  1  0.75000000  0.03300000  0.87130000  1.0 -0.3765889045
Cl  Cl7  1  0.25000000  0.96700000  0.12870000  1.0 -0.3615425445
Cl  Cl8  1  0.25000000  0.53300000  0.62870000  1.0 -0.3495283044
