# DDEC6 charges by PACMAN v1.1 (https://github.com/mtap-research/PACMAN-charge/)
data_RANVUA_ASR_pacman
_symmetry_space_group_name_H-M   'P 1'
_cell_length_a   20.99390000
_cell_length_b   20.99390000
_cell_length_c   20.99390000
_cell_angle_alpha   90.00000000
_cell_angle_beta   90.00000000
_cell_angle_gamma   90.00000000
_symmetry_Int_Tables_number   1
_chemical_formula_structural   Mn4H16C48S16ClO16
_chemical_formula_sum   'Mn12 H48 C144 S48 Cl3 O48'
_cell_volume   9252.93204400
_cell_formula_units_Z   3
loop_
 _symmetry_equiv_pos_site_id
 _symmetry_equiv_pos_as_xyz
  1  'x, y, z'
loop_
 _atom_site_type_symbol
 _atom_site_label
 _atom_site_symmetry_multiplicity
 _atom_site_fract_x
 _atom_site_fract_y
 _atom_site_fract_z
 _atom_site_occupancy
 _atom_site_charge
Mn  Mn1  1  0.36541000  0.00000000  0.50000000  1.0 1.0451401461
Mn  Mn2  1  0.00000000  0.36541000  0.50000000  1.0 1.0451401461
Mn  Mn3  1  0.63459000  0.00000000  0.50000000  1.0 1.0451401461
Mn  Mn4  1  0.00000000  0.63459000  0.50000000  1.0 1.0451401461
Mn  Mn5  1  0.36541000  0.50000000  0.00000000  1.0 1.0451401461
Mn  Mn6  1  0.50000000  0.00000000  0.63459000  1.0 1.0451401461
Mn  Mn7  1  0.50000000  0.00000000  0.36541000  1.0 1.0451401461
Mn  Mn8  1  0.50000000  0.36541000  0.00000000  1.0 1.0451401461
Mn  Mn9  1  0.00000000  0.50000000  0.36541000  1.0 1.0451401461
Mn  Mn10  1  0.50000000  0.63459000  0.00000000  1.0 1.0451401461
Mn  Mn11  1  0.00000000  0.50000000  0.63459000  1.0 1.0451401461
Mn  Mn12  1  0.63459000  0.50000000  0.00000000  1.0 1.0451401461
H  H1  1  0.28730000  0.17650000  0.41090000  1.0 0.1397184768
H  H2  1  0.82350000  0.28730000  0.41090000  1.0 0.1397184768
H  H3  1  0.71270000  0.82350000  0.41090000  1.0 0.1397184768
H  H4  1  0.17650000  0.71270000  0.41090000  1.0 0.1397184768
H  H5  1  0.28730000  0.58910000  0.17650000  1.0 0.1397184768
H  H6  1  0.28730000  0.82350000  0.58910000  1.0 0.1397184768
H  H7  1  0.28730000  0.41090000  0.82350000  1.0 0.1397184768
H  H8  1  0.41090000  0.17650000  0.71270000  1.0 0.1397184768
H  H9  1  0.71270000  0.17650000  0.58910000  1.0 0.1397184768
H  H10  1  0.58910000  0.17650000  0.28730000  1.0 0.1397184768
H  H11  1  0.41090000  0.28730000  0.17650000  1.0 0.1397184768
H  H12  1  0.17650000  0.41090000  0.28730000  1.0 0.1397184768
H  H13  1  0.82350000  0.58910000  0.28730000  1.0 0.1397184768
H  H14  1  0.41090000  0.71270000  0.82350000  1.0 0.1397184768
H  H15  1  0.82350000  0.41090000  0.71270000  1.0 0.1397184768
H  H16  1  0.58910000  0.71270000  0.17650000  1.0 0.1397184768
H  H17  1  0.58910000  0.28730000  0.82350000  1.0 0.1397184768
H  H18  1  0.17650000  0.58910000  0.71270000  1.0 0.1397184768
H  H19  1  0.17650000  0.28730000  0.58910000  1.0 0.1397184768
H  H20  1  0.82350000  0.71270000  0.58910000  1.0 0.1397184768
H  H21  1  0.71270000  0.41090000  0.17650000  1.0 0.1397184768
H  H22  1  0.71270000  0.58910000  0.82350000  1.0 0.1397184768
H  H23  1  0.41090000  0.82350000  0.28730000  1.0 0.1397184768
H  H24  1  0.58910000  0.82350000  0.71270000  1.0 0.1397184768
H  H25  1  0.71270000  0.82350000  0.58910000  1.0 0.1397184768
H  H26  1  0.17650000  0.71270000  0.58910000  1.0 0.1397184768
H  H27  1  0.28730000  0.17650000  0.58910000  1.0 0.1397184768
H  H28  1  0.82350000  0.28730000  0.58910000  1.0 0.1397184768
H  H29  1  0.71270000  0.41090000  0.82350000  1.0 0.1397184768
H  H30  1  0.71270000  0.17650000  0.41090000  1.0 0.1397184768
H  H31  1  0.71270000  0.58910000  0.17650000  1.0 0.1397184768
H  H32  1  0.58910000  0.82350000  0.28730000  1.0 0.1397184768
H  H33  1  0.28730000  0.82350000  0.41090000  1.0 0.1397184768
H  H34  1  0.41090000  0.82350000  0.71270000  1.0 0.1397184768
H  H35  1  0.58910000  0.71270000  0.82350000  1.0 0.1397184768
H  H36  1  0.82350000  0.58910000  0.71270000  1.0 0.1397184768
H  H37  1  0.17650000  0.41090000  0.71270000  1.0 0.1397184768
H  H38  1  0.58910000  0.28730000  0.17650000  1.0 0.1397184768
H  H39  1  0.17650000  0.58910000  0.28730000  1.0 0.1397184768
H  H40  1  0.41090000  0.28730000  0.82350000  1.0 0.1397184768
H  H41  1  0.41090000  0.71270000  0.17650000  1.0 0.1397184768
H  H42  1  0.82350000  0.41090000  0.28730000  1.0 0.1397184768
H  H43  1  0.82350000  0.71270000  0.41090000  1.0 0.1397184768
H  H44  1  0.17650000  0.28730000  0.41090000  1.0 0.1397184768
H  H45  1  0.28730000  0.58910000  0.82350000  1.0 0.1397184768
H  H46  1  0.28730000  0.41090000  0.17650000  1.0 0.1397184768
H  H47  1  0.58910000  0.17650000  0.71270000  1.0 0.1397184768
H  H48  1  0.41090000  0.17650000  0.28730000  1.0 0.1397184768
C  C1  1  0.38540000  0.09450000  0.38540000  1.0 0.5613883325
C  C2  1  0.90550000  0.38540000  0.38540000  1.0 0.5613883325
C  C3  1  0.61460000  0.90550000  0.38540000  1.0 0.5613883325
C  C4  1  0.09450000  0.61460000  0.38540000  1.0 0.5613883325
C  C5  1  0.38540000  0.61460000  0.09450000  1.0 0.5613883325
C  C6  1  0.38540000  0.90550000  0.61460000  1.0 0.5613883325
C  C7  1  0.38540000  0.38540000  0.90550000  1.0 0.5613883325
C  C8  1  0.38540000  0.09450000  0.61460000  1.0 0.5613883325
C  C9  1  0.61460000  0.09450000  0.61460000  1.0 0.5613883325
C  C10  1  0.61460000  0.09450000  0.38540000  1.0 0.5613883325
C  C11  1  0.38540000  0.38540000  0.09450000  1.0 0.5613883325
C  C12  1  0.09450000  0.38540000  0.38540000  1.0 0.5613883325
C  C13  1  0.90550000  0.61460000  0.38540000  1.0 0.5613883325
C  C14  1  0.38540000  0.61460000  0.90550000  1.0 0.5613883325
C  C15  1  0.90550000  0.38540000  0.61460000  1.0 0.5613883325
C  C16  1  0.61460000  0.61460000  0.09450000  1.0 0.5613883325
C  C17  1  0.61460000  0.38540000  0.90550000  1.0 0.5613883325
C  C18  1  0.09450000  0.61460000  0.61460000  1.0 0.5613883325
C  C19  1  0.09450000  0.38540000  0.61460000  1.0 0.5613883325
C  C20  1  0.90550000  0.61460000  0.61460000  1.0 0.5613883325
C  C21  1  0.61460000  0.38540000  0.09450000  1.0 0.5613883325
C  C22  1  0.61460000  0.61460000  0.90550000  1.0 0.5613883325
C  C23  1  0.38540000  0.90550000  0.38540000  1.0 0.5613883325
C  C24  1  0.61460000  0.90550000  0.61460000  1.0 0.5613883325
C  C25  1  0.35750000  0.15360000  0.35750000  1.0 -0.0756202721
C  C26  1  0.84640000  0.35750000  0.35750000  1.0 -0.0756202721
C  C27  1  0.64250000  0.84640000  0.35750000  1.0 -0.0756202721
C  C28  1  0.15360000  0.64250000  0.35750000  1.0 -0.0756202721
C  C29  1  0.35750000  0.64250000  0.15360000  1.0 -0.0756202721
C  C30  1  0.35750000  0.84640000  0.64250000  1.0 -0.0756202721
C  C31  1  0.35750000  0.35750000  0.84640000  1.0 -0.0756202721
C  C32  1  0.35750000  0.15360000  0.64250000  1.0 -0.0756202721
C  C33  1  0.64250000  0.15360000  0.64250000  1.0 -0.0756202721
C  C34  1  0.64250000  0.15360000  0.35750000  1.0 -0.0756202721
C  C35  1  0.35750000  0.35750000  0.15360000  1.0 -0.0756202721
C  C36  1  0.15360000  0.35750000  0.35750000  1.0 -0.0756202721
C  C37  1  0.84640000  0.64250000  0.35750000  1.0 -0.0756202721
C  C38  1  0.35750000  0.64250000  0.84640000  1.0 -0.0756202721
C  C39  1  0.84640000  0.35750000  0.64250000  1.0 -0.0756202721
C  C40  1  0.64250000  0.64250000  0.15360000  1.0 -0.0756202721
C  C41  1  0.64250000  0.35750000  0.84640000  1.0 -0.0756202721
C  C42  1  0.15360000  0.64250000  0.64250000  1.0 -0.0756202721
C  C43  1  0.15360000  0.35750000  0.64250000  1.0 -0.0756202721
C  C44  1  0.84640000  0.64250000  0.64250000  1.0 -0.0756202721
C  C45  1  0.64250000  0.35750000  0.15360000  1.0 -0.0756202721
C  C46  1  0.64250000  0.64250000  0.84640000  1.0 -0.0756202721
C  C47  1  0.35750000  0.84640000  0.35750000  1.0 -0.0756202721
C  C48  1  0.64250000  0.84640000  0.64250000  1.0 -0.0756202721
C  C49  1  0.31050000  0.18730000  0.37360000  1.0 -0.0688394431
C  C50  1  0.81270000  0.31050000  0.37360000  1.0 -0.0688394431
C  C51  1  0.68950000  0.81270000  0.37360000  1.0 -0.0688394431
C  C52  1  0.18730000  0.68950000  0.37360000  1.0 -0.0688394431
C  C53  1  0.31050000  0.62640000  0.18730000  1.0 -0.0688394431
C  C54  1  0.31050000  0.81270000  0.62640000  1.0 -0.0688394431
C  C55  1  0.31050000  0.37360000  0.81270000  1.0 -0.0688394431
C  C56  1  0.37360000  0.18730000  0.68950000  1.0 -0.0688394431
C  C57  1  0.68950000  0.18730000  0.62640000  1.0 -0.0688394431
C  C58  1  0.62640000  0.18730000  0.31050000  1.0 -0.0688394431
C  C59  1  0.37360000  0.31050000  0.18730000  1.0 -0.0688394431
C  C60  1  0.18730000  0.37360000  0.31050000  1.0 -0.0688394431
C  C61  1  0.81270000  0.62640000  0.31050000  1.0 -0.0688394431
C  C62  1  0.37360000  0.68950000  0.81270000  1.0 -0.0688394431
C  C63  1  0.81270000  0.37360000  0.68950000  1.0 -0.0688394431
C  C64  1  0.62640000  0.68950000  0.18730000  1.0 -0.0688394431
C  C65  1  0.62640000  0.31050000  0.81270000  1.0 -0.0688394431
C  C66  1  0.18730000  0.62640000  0.68950000  1.0 -0.0688394431
C  C67  1  0.18730000  0.31050000  0.62640000  1.0 -0.0688394431
C  C68  1  0.81270000  0.68950000  0.62640000  1.0 -0.0688394431
C  C69  1  0.68950000  0.37360000  0.18730000  1.0 -0.0688394431
C  C70  1  0.68950000  0.62640000  0.81270000  1.0 -0.0688394431
C  C71  1  0.37360000  0.81270000  0.31050000  1.0 -0.0688394431
C  C72  1  0.62640000  0.81270000  0.68950000  1.0 -0.0688394431
C  C73  1  0.68950000  0.81270000  0.62640000  1.0 -0.0688394431
C  C74  1  0.18730000  0.68950000  0.62640000  1.0 -0.0688394431
C  C75  1  0.31050000  0.18730000  0.62640000  1.0 -0.0688394431
C  C76  1  0.81270000  0.31050000  0.62640000  1.0 -0.0688394431
C  C77  1  0.68950000  0.37360000  0.81270000  1.0 -0.0688394431
C  C78  1  0.68950000  0.18730000  0.37360000  1.0 -0.0688394431
C  C79  1  0.68950000  0.62640000  0.18730000  1.0 -0.0688394431
C  C80  1  0.62640000  0.81270000  0.31050000  1.0 -0.0688394431
C  C81  1  0.31050000  0.81270000  0.37360000  1.0 -0.0688394431
C  C82  1  0.37360000  0.81270000  0.68950000  1.0 -0.0688394431
C  C83  1  0.62640000  0.68950000  0.81270000  1.0 -0.0688394431
C  C84  1  0.81270000  0.62640000  0.68950000  1.0 -0.0688394431
C  C85  1  0.18730000  0.37360000  0.68950000  1.0 -0.0688394431
C  C86  1  0.62640000  0.31050000  0.18730000  1.0 -0.0688394431
C  C87  1  0.18730000  0.62640000  0.31050000  1.0 -0.0688394431
C  C88  1  0.37360000  0.31050000  0.81270000  1.0 -0.0688394431
C  C89  1  0.37360000  0.68950000  0.18730000  1.0 -0.0688394431
C  C90  1  0.81270000  0.37360000  0.31050000  1.0 -0.0688394431
C  C91  1  0.81270000  0.68950000  0.37360000  1.0 -0.0688394431
C  C92  1  0.18730000  0.31050000  0.37360000  1.0 -0.0688394431
C  C93  1  0.31050000  0.62640000  0.81270000  1.0 -0.0688394431
C  C94  1  0.31050000  0.37360000  0.18730000  1.0 -0.0688394431
C  C95  1  0.62640000  0.18730000  0.68950000  1.0 -0.0688394431
C  C96  1  0.37360000  0.18730000  0.31050000  1.0 -0.0688394431
C  C97  1  0.33730000  0.24290000  0.29060000  1.0 -0.0522764639
C  C98  1  0.75710000  0.33730000  0.29060000  1.0 -0.0522764639
C  C99  1  0.66270000  0.75710000  0.29060000  1.0 -0.0522764639
C  C100  1  0.24290000  0.66270000  0.29060000  1.0 -0.0522764639
C  C101  1  0.33730000  0.70940000  0.24290000  1.0 -0.0522764639
C  C102  1  0.33730000  0.75710000  0.70940000  1.0 -0.0522764639
C  C103  1  0.33730000  0.29060000  0.75710000  1.0 -0.0522764639
C  C104  1  0.29060000  0.24290000  0.66270000  1.0 -0.0522764639
C  C105  1  0.66270000  0.24290000  0.70940000  1.0 -0.0522764639
C  C106  1  0.70940000  0.24290000  0.33730000  1.0 -0.0522764639
C  C107  1  0.29060000  0.33730000  0.24290000  1.0 -0.0522764639
C  C108  1  0.24290000  0.29060000  0.33730000  1.0 -0.0522764639
C  C109  1  0.75710000  0.70940000  0.33730000  1.0 -0.0522764639
C  C110  1  0.29060000  0.66270000  0.75710000  1.0 -0.0522764639
C  C111  1  0.75710000  0.29060000  0.66270000  1.0 -0.0522764639
C  C112  1  0.70940000  0.66270000  0.24290000  1.0 -0.0522764639
C  C113  1  0.70940000  0.33730000  0.75710000  1.0 -0.0522764639
C  C114  1  0.24290000  0.70940000  0.66270000  1.0 -0.0522764639
C  C115  1  0.24290000  0.33730000  0.70940000  1.0 -0.0522764639
C  C116  1  0.75710000  0.66270000  0.70940000  1.0 -0.0522764639
C  C117  1  0.66270000  0.29060000  0.24290000  1.0 -0.0522764639
C  C118  1  0.66270000  0.70940000  0.75710000  1.0 -0.0522764639
C  C119  1  0.29060000  0.75710000  0.33730000  1.0 -0.0522764639
C  C120  1  0.70940000  0.75710000  0.66270000  1.0 -0.0522764639
C  C121  1  0.66270000  0.75710000  0.70940000  1.0 -0.0522764639
C  C122  1  0.24290000  0.66270000  0.70940000  1.0 -0.0522764639
C  C123  1  0.33730000  0.24290000  0.70940000  1.0 -0.0522764639
C  C124  1  0.75710000  0.33730000  0.70940000  1.0 -0.0522764639
C  C125  1  0.66270000  0.29060000  0.75710000  1.0 -0.0522764639
C  C126  1  0.66270000  0.24290000  0.29060000  1.0 -0.0522764639
C  C127  1  0.66270000  0.70940000  0.24290000  1.0 -0.0522764639
C  C128  1  0.70940000  0.75710000  0.33730000  1.0 -0.0522764639
C  C129  1  0.33730000  0.75710000  0.29060000  1.0 -0.0522764639
C  C130  1  0.29060000  0.75710000  0.66270000  1.0 -0.0522764639
C  C131  1  0.70940000  0.66270000  0.75710000  1.0 -0.0522764639
C  C132  1  0.75710000  0.70940000  0.66270000  1.0 -0.0522764639
C  C133  1  0.24290000  0.29060000  0.66270000  1.0 -0.0522764639
C  C134  1  0.70940000  0.33730000  0.24290000  1.0 -0.0522764639
C  C135  1  0.24290000  0.70940000  0.33730000  1.0 -0.0522764639
C  C136  1  0.29060000  0.33730000  0.75710000  1.0 -0.0522764639
C  C137  1  0.29060000  0.66270000  0.24290000  1.0 -0.0522764639
C  C138  1  0.75710000  0.29060000  0.33730000  1.0 -0.0522764639
C  C139  1  0.75710000  0.66270000  0.29060000  1.0 -0.0522764639
C  C140  1  0.24290000  0.33730000  0.29060000  1.0 -0.0522764639
C  C141  1  0.33730000  0.70940000  0.75710000  1.0 -0.0522764639
C  C142  1  0.33730000  0.29060000  0.24290000  1.0 -0.0522764639
C  C143  1  0.70940000  0.24290000  0.66270000  1.0 -0.0522764639
C  C144  1  0.29060000  0.24290000  0.33730000  1.0 -0.0522764639
S  S1  1  0.39548000  0.18604000  0.28850000  1.0 0.053162745
S  S2  1  0.81396000  0.39548000  0.28850000  1.0 0.053162745
S  S3  1  0.60452000  0.81396000  0.28850000  1.0 0.053162745
S  S4  1  0.18604000  0.60452000  0.28850000  1.0 0.053162745
S  S5  1  0.39548000  0.71150000  0.18604000  1.0 0.053162745
S  S6  1  0.39548000  0.81396000  0.71150000  1.0 0.053162745
S  S7  1  0.39548000  0.28850000  0.81396000  1.0 0.053162745
S  S8  1  0.28850000  0.18604000  0.60452000  1.0 0.053162745
S  S9  1  0.60452000  0.18604000  0.71150000  1.0 0.053162745
S  S10  1  0.71150000  0.18604000  0.39548000  1.0 0.053162745
S  S11  1  0.28850000  0.39548000  0.18604000  1.0 0.053162745
S  S12  1  0.18604000  0.28850000  0.39548000  1.0 0.053162745
S  S13  1  0.81396000  0.71150000  0.39548000  1.0 0.053162745
S  S14  1  0.28850000  0.60452000  0.81396000  1.0 0.053162745
S  S15  1  0.81396000  0.28850000  0.60452000  1.0 0.053162745
S  S16  1  0.71150000  0.60452000  0.18604000  1.0 0.053162745
S  S17  1  0.71150000  0.39548000  0.81396000  1.0 0.053162745
S  S18  1  0.18604000  0.71150000  0.60452000  1.0 0.053162745
S  S19  1  0.18604000  0.39548000  0.71150000  1.0 0.053162745
S  S20  1  0.81396000  0.60452000  0.71150000  1.0 0.053162745
S  S21  1  0.60452000  0.28850000  0.18604000  1.0 0.053162745
S  S22  1  0.60452000  0.71150000  0.81396000  1.0 0.053162745
S  S23  1  0.28850000  0.81396000  0.39548000  1.0 0.053162745
S  S24  1  0.71150000  0.81396000  0.60452000  1.0 0.053162745
S  S25  1  0.60452000  0.81396000  0.71150000  1.0 0.053162745
S  S26  1  0.18604000  0.60452000  0.71150000  1.0 0.053162745
S  S27  1  0.39548000  0.18604000  0.71150000  1.0 0.053162745
S  S28  1  0.81396000  0.39548000  0.71150000  1.0 0.053162745
S  S29  1  0.60452000  0.28850000  0.81396000  1.0 0.053162745
S  S30  1  0.60452000  0.18604000  0.28850000  1.0 0.053162745
S  S31  1  0.60452000  0.71150000  0.18604000  1.0 0.053162745
S  S32  1  0.71150000  0.81396000  0.39548000  1.0 0.053162745
S  S33  1  0.39548000  0.81396000  0.28850000  1.0 0.053162745
S  S34  1  0.28850000  0.81396000  0.60452000  1.0 0.053162745
S  S35  1  0.71150000  0.60452000  0.81396000  1.0 0.053162745
S  S36  1  0.81396000  0.71150000  0.60452000  1.0 0.053162745
S  S37  1  0.18604000  0.28850000  0.60452000  1.0 0.053162745
S  S38  1  0.71150000  0.39548000  0.18604000  1.0 0.053162745
S  S39  1  0.18604000  0.71150000  0.39548000  1.0 0.053162745
S  S40  1  0.28850000  0.39548000  0.81396000  1.0 0.053162745
S  S41  1  0.28850000  0.60452000  0.18604000  1.0 0.053162745
S  S42  1  0.81396000  0.28850000  0.39548000  1.0 0.053162745
S  S43  1  0.81396000  0.60452000  0.28850000  1.0 0.053162745
S  S44  1  0.18604000  0.39548000  0.28850000  1.0 0.053162745
S  S45  1  0.39548000  0.71150000  0.81396000  1.0 0.053162745
S  S46  1  0.39548000  0.28850000  0.18604000  1.0 0.053162745
S  S47  1  0.71150000  0.18604000  0.60452000  1.0 0.053162745
S  S48  1  0.28850000  0.18604000  0.39548000  1.0 0.053162745
Cl  Cl1  1  0.50000000  0.00000000  0.50000000  1.0 -0.6774601154
Cl  Cl2  1  0.00000000  0.50000000  0.50000000  1.0 -0.6774601154
Cl  Cl3  1  0.50000000  0.50000000  0.00000000  1.0 -0.6774601154
O  O1  1  0.35860000  0.07301000  0.43330000  1.0 -0.5335931243
O  O2  1  0.92699000  0.35860000  0.43330000  1.0 -0.5335931243
O  O3  1  0.64140000  0.92699000  0.43330000  1.0 -0.5335931243
O  O4  1  0.07301000  0.64140000  0.43330000  1.0 -0.5335931243
O  O5  1  0.35860000  0.56670000  0.07301000  1.0 -0.5335931243
O  O6  1  0.35860000  0.92699000  0.56670000  1.0 -0.5335931243
O  O7  1  0.35860000  0.43330000  0.92699000  1.0 -0.5335931243
O  O8  1  0.43330000  0.07301000  0.64140000  1.0 -0.5335931243
O  O9  1  0.64140000  0.07301000  0.56670000  1.0 -0.5335931243
O  O10  1  0.56670000  0.07301000  0.35860000  1.0 -0.5335931243
O  O11  1  0.43330000  0.35860000  0.07301000  1.0 -0.5335931243
O  O12  1  0.07301000  0.43330000  0.35860000  1.0 -0.5335931243
O  O13  1  0.92699000  0.56670000  0.35860000  1.0 -0.5335931243
O  O14  1  0.43330000  0.64140000  0.92699000  1.0 -0.5335931243
O  O15  1  0.92699000  0.43330000  0.64140000  1.0 -0.5335931243
O  O16  1  0.56670000  0.64140000  0.07301000  1.0 -0.5335931243
O  O17  1  0.56670000  0.35860000  0.92699000  1.0 -0.5335931243
O  O18  1  0.07301000  0.56670000  0.64140000  1.0 -0.5335931243
O  O19  1  0.07301000  0.35860000  0.56670000  1.0 -0.5335931243
O  O20  1  0.92699000  0.64140000  0.56670000  1.0 -0.5335931243
O  O21  1  0.64140000  0.43330000  0.07301000  1.0 -0.5335931243
O  O22  1  0.64140000  0.56670000  0.92699000  1.0 -0.5335931243
O  O23  1  0.43330000  0.92699000  0.35860000  1.0 -0.5335931243
O  O24  1  0.56670000  0.92699000  0.64140000  1.0 -0.5335931243
O  O25  1  0.64140000  0.92699000  0.56670000  1.0 -0.5335931243
O  O26  1  0.07301000  0.64140000  0.56670000  1.0 -0.5335931243
O  O27  1  0.35860000  0.07301000  0.56670000  1.0 -0.5335931243
O  O28  1  0.92699000  0.35860000  0.56670000  1.0 -0.5335931243
O  O29  1  0.64140000  0.43330000  0.92699000  1.0 -0.5335931243
O  O30  1  0.64140000  0.07301000  0.43330000  1.0 -0.5335931243
O  O31  1  0.64140000  0.56670000  0.07301000  1.0 -0.5335931243
O  O32  1  0.56670000  0.92699000  0.35860000  1.0 -0.5335931243
O  O33  1  0.35860000  0.92699000  0.43330000  1.0 -0.5335931243
O  O34  1  0.43330000  0.92699000  0.64140000  1.0 -0.5335931243
O  O35  1  0.56670000  0.64140000  0.92699000  1.0 -0.5335931243
O  O36  1  0.92699000  0.56670000  0.64140000  1.0 -0.5335931243
O  O37  1  0.07301000  0.43330000  0.64140000  1.0 -0.5335931243
O  O38  1  0.56670000  0.35860000  0.07301000  1.0 -0.5335931243
O  O39  1  0.07301000  0.56670000  0.35860000  1.0 -0.5335931243
O  O40  1  0.43330000  0.35860000  0.92699000  1.0 -0.5335931243
O  O41  1  0.43330000  0.64140000  0.07301000  1.0 -0.5335931243
O  O42  1  0.92699000  0.43330000  0.35860000  1.0 -0.5335931243
O  O43  1  0.92699000  0.64140000  0.43330000  1.0 -0.5335931243
O  O44  1  0.07301000  0.35860000  0.43330000  1.0 -0.5335931243
O  O45  1  0.35860000  0.56670000  0.92699000  1.0 -0.5335931243
O  O46  1  0.35860000  0.43330000  0.07301000  1.0 -0.5335931243
O  O47  1  0.56670000  0.07301000  0.64140000  1.0 -0.5335931243
O  O48  1  0.43330000  0.07301000  0.35860000  1.0 -0.5335931243
