# DDEC6 charges by PACMAN v1.1 (https://github.com/mtap-research/PACMAN-charge/)
data_RAPJOL_ASR_pacman
_symmetry_space_group_name_H-M   'P 1'
_cell_length_a   20.69620000
_cell_length_b   20.69620000
_cell_length_c   20.69620000
_cell_angle_alpha   146.08700000
_cell_angle_beta   97.38550000
_cell_angle_gamma   92.38260000
_symmetry_Int_Tables_number   1
_chemical_formula_structural   Zn5H60(C11O3)8
_chemical_formula_sum   'Zn10 H120 C176 O48'
_cell_volume   4725.62763023
_cell_formula_units_Z   2
loop_
 _symmetry_equiv_pos_site_id
 _symmetry_equiv_pos_as_xyz
  1  'x, y, z'
loop_
 _atom_site_type_symbol
 _atom_site_label
 _atom_site_symmetry_multiplicity
 _atom_site_fract_x
 _atom_site_fract_y
 _atom_site_fract_z
 _atom_site_occupancy
 _atom_site_charge
Zn  Zn1  1  0.06736000  0.80039000  0.73303000  1.0 0.8523036253
Zn  Zn2  1  0.43264000  0.16567000  0.73303000  1.0 0.8523036253
Zn  Zn3  1  0.56736000  0.83433000  0.26697000  1.0 0.8523036253
Zn  Zn4  1  0.93264000  0.19961000  0.26697000  1.0 0.8523036253
Zn  Zn5  1  0.95621000  0.92537000  0.38158000  1.0 0.9402617823
Zn  Zn6  1  0.54379000  0.92537000  0.96916000  1.0 0.9402617823
Zn  Zn7  1  0.04379000  0.07463000  0.61842000  1.0 0.9402617823
Zn  Zn8  1  0.45621000  0.07463000  0.03084000  1.0 0.9402617823
Zn  Zn9  1  0.00000000  0.50000000  0.50000000  1.0 0.9402617823
Zn  Zn10  1  0.50000000  0.00000000  0.50000000  1.0 0.9402617823
H  H1  1  0.01459000  0.79585000  0.52232000  1.0 0.1388848072
H  H2  1  0.91049000  0.46071000  0.27996000  1.0 0.1175499951
H  H3  1  0.88924000  0.58473000  0.20157000  1.0 0.127467137
H  H4  1  0.79169000  0.37766000  0.17771000  1.0 0.127467137
H  H5  1  0.11147000  0.59135000  0.35006000  1.0 0.1175499951
H  H6  1  0.64074000  0.18946000  0.98408000  1.0 0.0508785051
H  H7  1  0.69550000  0.22822000  0.07760000  1.0 0.0403400419
H  H8  1  0.68295000  0.10150000  0.93833000  1.0 0.0508785051
H  H9  1  0.20352000  0.86855000  0.50781000  1.0 0.0695211362
H  H10  1  0.13134000  0.82231000  0.49077000  1.0 0.0695211362
H  H11  1  0.19571000  0.84621000  0.56292000  1.0 0.0695211362
H  H12  1  0.06078000  0.11571000  0.06675000  1.0 0.1388848072
H  H13  1  0.09140000  0.46528000  0.32038000  1.0 0.1084808684
H  H14  1  0.17721000  0.26028000  0.05105000  1.0 0.0871024367
H  H15  1  0.48541000  0.00773000  0.78126000  1.0 0.1388848072
H  H16  1  0.58951000  0.86947000  0.55022000  1.0 0.1175499951
H  H17  1  0.61076000  0.81233000  0.69549000  1.0 0.127467137
H  H18  1  0.70831000  0.88602000  0.58597000  1.0 0.127467137
H  H19  1  0.38853000  0.73859000  0.47988000  1.0 0.1175499951
H  H20  1  0.85926000  0.84334000  0.54872000  1.0 0.0508785051
H  H21  1  0.80450000  0.88210000  0.53272000  1.0 0.0403400419
H  H22  1  0.81705000  0.75538000  0.41855000  1.0 0.0508785051
H  H23  1  0.29648000  0.80429000  0.66503000  1.0 0.0695211362
H  H24  1  0.36866000  0.85943000  0.69097000  1.0 0.0695211362
H  H25  1  0.30429000  0.86721000  0.65050000  1.0 0.0695211362
H  H26  1  0.43922000  0.50597000  0.05493000  1.0 0.1388848072
H  H27  1  0.40860000  0.72898000  0.37388000  1.0 0.1084808684
H  H28  1  0.32279000  0.37384000  0.08307000  1.0 0.0871024367
H  H29  1  0.77353000  0.99227000  0.47768000  1.0 0.1388848072
H  H30  1  0.68075000  0.13053000  0.72004000  1.0 0.1175499951
H  H31  1  0.88316000  0.18767000  0.79843000  1.0 0.127467137
H  H32  1  0.69995000  0.11398000  0.82229000  1.0 0.127467137
H  H33  1  0.74129000  0.26141000  0.64994000  1.0 0.1175499951
H  H34  1  0.70538000  0.15666000  0.01592000  1.0 0.0508785051
H  H35  1  0.65062000  0.11790000  0.92240000  1.0 0.0403400419
H  H36  1  0.66317000  0.24462000  0.06167000  1.0 0.0508785051
H  H37  1  0.86074000  0.19571000  0.49219000  1.0 0.0695211362
H  H38  1  0.83154000  0.14057000  0.50923000  1.0 0.0695211362
H  H39  1  0.78329000  0.13279000  0.43708000  1.0 0.0695211362
H  H40  1  0.54896000  0.49403000  0.93325000  1.0 0.1450185638
H  H41  1  0.64490000  0.27102000  0.67962000  1.0 0.1084808684
H  H42  1  0.70923000  0.62616000  0.94895000  1.0 0.0871024367
H  H43  1  0.72647000  0.20415000  0.21874000  1.0 0.1388848072
H  H44  1  0.81925000  0.53929000  0.44978000  1.0 0.1175499951
H  H45  1  0.61684000  0.41527000  0.30451000  1.0 0.127467137
H  H46  1  0.80005000  0.62234000  0.41403000  1.0 0.127467137
H  H47  1  0.75871000  0.40865000  0.52012000  1.0 0.1175499951
H  H48  1  0.79462000  0.81054000  0.45128000  1.0 0.0508785051
H  H49  1  0.84938000  0.77178000  0.46728000  1.0 0.0403400419
H  H50  1  0.83683000  0.89850000  0.58145000  1.0 0.0508785051
H  H51  1  0.63926000  0.13145000  0.33497000  1.0 0.0695211362
H  H52  1  0.66846000  0.17769000  0.30903000  1.0 0.0695211362
H  H53  1  0.71671000  0.15379000  0.34950000  1.0 0.0695211362
H  H54  1  0.95104000  0.88429000  0.94507000  1.0 0.1450185638
H  H55  1  0.85510000  0.53472000  0.62612000  1.0 0.1084808684
H  H56  1  0.79077000  0.73972000  0.91693000  1.0 0.0871024367
H  H57  1  0.98541000  0.20415000  0.47768000  1.0 0.1388848072
H  H58  1  0.08951000  0.53929000  0.72004000  1.0 0.1175499951
H  H59  1  0.11076000  0.41527000  0.79843000  1.0 0.127467137
H  H60  1  0.20831000  0.62234000  0.82229000  1.0 0.127467137
H  H61  1  0.88853000  0.40865000  0.64994000  1.0 0.1175499951
H  H62  1  0.35926000  0.81054000  0.01592000  1.0 0.0508785051
H  H63  1  0.30450000  0.77178000  0.92240000  1.0 0.0403400419
H  H64  1  0.31705000  0.89850000  0.06167000  1.0 0.0508785051
H  H65  1  0.79648000  0.13145000  0.49219000  1.0 0.0695211362
H  H66  1  0.86866000  0.17769000  0.50923000  1.0 0.0695211362
H  H67  1  0.80429000  0.15379000  0.43708000  1.0 0.0695211362
H  H68  1  0.93922000  0.88429000  0.93325000  1.0 0.1450185638
H  H69  1  0.90860000  0.53472000  0.67962000  1.0 0.1084808684
H  H70  1  0.82279000  0.73972000  0.94895000  1.0 0.0871024367
H  H71  1  0.51459000  0.99227000  0.21874000  1.0 0.1388848072
H  H72  1  0.41049000  0.13053000  0.44978000  1.0 0.1175499951
H  H73  1  0.38924000  0.18767000  0.30451000  1.0 0.127467137
H  H74  1  0.29169000  0.11398000  0.41403000  1.0 0.127467137
H  H75  1  0.61147000  0.26141000  0.52012000  1.0 0.1175499951
H  H76  1  0.14074000  0.15666000  0.45128000  1.0 0.0508785051
H  H77  1  0.19550000  0.11790000  0.46728000  1.0 0.0403400419
H  H78  1  0.18295000  0.24462000  0.58145000  1.0 0.0508785051
H  H79  1  0.70352000  0.19571000  0.33497000  1.0 0.0695211362
H  H80  1  0.63134000  0.14057000  0.30903000  1.0 0.0695211362
H  H81  1  0.69571000  0.13279000  0.34950000  1.0 0.0695211362
H  H82  1  0.56078000  0.49403000  0.94507000  1.0 0.1450185638
H  H83  1  0.59140000  0.27102000  0.62612000  1.0 0.1084808684
H  H84  1  0.67721000  0.62616000  0.91693000  1.0 0.0871024367
H  H85  1  0.22647000  0.00773000  0.52232000  1.0 0.1388848072
H  H86  1  0.31925000  0.86947000  0.27996000  1.0 0.1175499951
H  H87  1  0.11684000  0.81233000  0.20157000  1.0 0.127467137
H  H88  1  0.30005000  0.88602000  0.17771000  1.0 0.127467137
H  H89  1  0.25871000  0.73859000  0.35006000  1.0 0.1175499951
H  H90  1  0.29462000  0.84334000  0.98408000  1.0 0.0508785051
H  H91  1  0.34938000  0.88210000  0.07760000  1.0 0.0403400419
H  H92  1  0.33683000  0.75538000  0.93833000  1.0 0.0508785051
H  H93  1  0.13926000  0.80429000  0.50781000  1.0 0.0695211362
H  H94  1  0.16846000  0.85943000  0.49077000  1.0 0.0695211362
H  H95  1  0.21671000  0.86721000  0.56292000  1.0 0.0695211362
H  H96  1  0.45104000  0.50597000  0.06675000  1.0 0.1388848072
H  H97  1  0.35510000  0.72898000  0.32038000  1.0 0.1084808684
H  H98  1  0.29077000  0.37384000  0.05105000  1.0 0.0871024367
H  H99  1  0.27353000  0.79585000  0.78126000  1.0 0.1388848072
H  H100  1  0.18075000  0.46071000  0.55022000  1.0 0.1175499951
H  H101  1  0.38316000  0.58473000  0.69549000  1.0 0.127467137
H  H102  1  0.19995000  0.37766000  0.58597000  1.0 0.127467137
H  H103  1  0.24129000  0.59135000  0.47988000  1.0 0.1175499951
H  H104  1  0.20538000  0.18946000  0.54872000  1.0 0.0508785051
H  H105  1  0.15062000  0.22822000  0.53272000  1.0 0.0403400419
H  H106  1  0.16317000  0.10150000  0.41855000  1.0 0.0508785051
H  H107  1  0.36074000  0.86855000  0.66503000  1.0 0.0695211362
H  H108  1  0.33154000  0.82231000  0.69097000  1.0 0.0695211362
H  H109  1  0.28329000  0.84621000  0.65050000  1.0 0.0695211362
H  H110  1  0.04896000  0.11571000  0.05493000  1.0 0.1388848072
H  H111  1  0.14490000  0.46528000  0.37388000  1.0 0.1084808684
H  H112  1  0.20923000  0.26028000  0.08307000  1.0 0.0871024367
H  H113  1  0.86663000  0.36663000  0.00000000  1.0 0.1388848072
H  H114  1  0.63337000  0.63337000  0.50000000  1.0 0.1388848072
H  H115  1  0.13337000  0.63337000  0.00000000  1.0 0.1388848072
H  H116  1  0.36663000  0.36663000  0.50000000  1.0 0.1388848072
H  H117  1  0.24783000  0.41980000  0.16763000  1.0 0.1045985904
H  H118  1  0.25217000  0.41980000  0.17197000  1.0 0.1045985904
H  H119  1  0.75217000  0.58020000  0.83237000  1.0 0.1084808684
H  H120  1  0.74783000  0.58020000  0.82803000  1.0 0.1084808684
C  C1  1  0.97130000  0.80850000  0.40860000  1.0 0.557500371
C  C2  1  0.95460000  0.70670000  0.36770000  1.0 -0.0203235756
C  C3  1  0.98400000  0.72330000  0.44750000  1.0 -0.1123356864
C  C4  1  0.96710000  0.63100000  0.41430000  1.0 -0.010640725
C  C5  1  0.92100000  0.52230000  0.30210000  1.0 -0.156324894
C  C6  1  0.88990000  0.50390000  0.22160000  1.0 0.0618264742
C  C7  1  0.90820000  0.59650000  0.25490000  1.0 -0.1374591205
C  C8  1  0.00080000  0.65710000  0.50790000  1.0 0.5448121738
C  C9  1  0.83760000  0.39200000  0.10700000  1.0 0.0508785051
C  C10  1  0.78930000  0.34200000  0.10730000  1.0 -0.194633371
C  C11  1  0.07210000  0.29320000  0.20590000  1.0 -0.010640725
C  C12  1  0.09950000  0.39140000  0.25130000  1.0 -0.0463537516
C  C13  1  0.13920000  0.37920000  0.19360000  1.0 0.0100836728
C  C14  1  0.15130000  0.26870000  0.09040000  1.0 -0.0203235756
C  C15  1  0.17320000  0.49190000  0.25330000  1.0 0.0028010068
C  C16  1  0.14960000  0.59100000  0.33060000  1.0 -0.2334959272
C  C17  1  0.18020000  0.69020000  0.38000000  1.0 0.0618264742
C  C18  1  0.22850000  0.48450000  0.21800000  1.0 -0.1189817384
C  C19  1  0.52870000  0.93730000  0.83720000  1.0 0.557500371
C  C20  1  0.54540000  0.91310000  0.75210000  1.0 -0.0256358905
C  C21  1  0.51600000  0.96350000  0.73930000  1.0 -0.1123356864
C  C22  1  0.53290000  0.94720000  0.66390000  1.0 -0.010640725
C  C23  1  0.57900000  0.88110000  0.60130000  1.0 -0.156324894
C  C24  1  0.61010000  0.83170000  0.61400000  1.0 0.0618264742
C  C25  1  0.59180000  0.84670000  0.68830000  1.0 -0.1374591205
C  C26  1  0.49920000  0.00710000  0.65630000  1.0 0.5448121738
C  C27  1  0.66240000  0.76940000  0.55440000  1.0 0.0508785051
C  C28  1  0.71070000  0.81800000  0.55270000  1.0 -0.1962962686
C  C29  1  0.42790000  0.63380000  0.22110000  1.0 -0.010640725
C  C30  1  0.40050000  0.65180000  0.29190000  1.0 -0.0463537516
C  C31  1  0.36080000  0.55440000  0.24000000  1.0 0.0100836728
C  C32  1  0.34870000  0.43910000  0.11740000  1.0 -0.0203235756
C  C33  1  0.32680000  0.58010000  0.31870000  1.0 0.0028010068
C  C34  1  0.35040000  0.68100000  0.44140000  1.0 -0.2334959272
C  C35  1  0.31980000  0.69980000  0.51000000  1.0 0.0618264742
C  C36  1  0.27150000  0.48950000  0.25600000  1.0 -0.1189817384
C  C37  1  0.89990000  0.06270000  0.59140000  1.0 0.557500371
C  C38  1  0.83900000  0.08690000  0.63230000  1.0 -0.0203235756
C  C39  1  0.77580000  0.03650000  0.55250000  1.0 -0.1123356864
C  C40  1  0.71670000  0.05280000  0.58570000  1.0 -0.010640725
C  C41  1  0.72020000  0.11890000  0.69790000  1.0 -0.156324894
C  C42  1  0.78230000  0.16830000  0.77840000  1.0 0.0618264742
C  C43  1  0.84160000  0.15330000  0.74510000  1.0 -0.1374591205
C  C44  1  0.64920000  0.99290000  0.49210000  1.0 0.5448121738
C  C45  1  0.78500000  0.23060000  0.89300000  1.0 0.0508785051
C  C46  1  0.73470000  0.18200000  0.89270000  1.0 -0.194633371
C  C47  1  0.58730000  0.36620000  0.79410000  1.0 -0.010640725
C  C48  1  0.64010000  0.34820000  0.74870000  1.0 -0.0463537516
C  C49  1  0.68560000  0.44560000  0.80640000  1.0 0.0100836728
C  C50  1  0.67830000  0.56090000  0.90960000  1.0 -0.0203235756
C  C51  1  0.73860000  0.41990000  0.74670000  1.0 0.0028010068
C  C52  1  0.76040000  0.31900000  0.66940000  1.0 -0.2334959272
C  C53  1  0.81020000  0.30020000  0.62000000  1.0 0.0618264742
C  C54  1  0.76650000  0.51050000  0.78200000  1.0 -0.1189817384
C  C55  1  0.60010000  0.19150000  0.16280000  1.0 0.557500371
C  C56  1  0.66100000  0.29330000  0.24790000  1.0 -0.0203235756
C  C57  1  0.72420000  0.27670000  0.26070000  1.0 -0.1123356864
C  C58  1  0.78330000  0.36900000  0.33610000  1.0 -0.010640725
C  C59  1  0.77980000  0.47770000  0.39870000  1.0 -0.156324894
C  C60  1  0.71770000  0.49610000  0.38600000  1.0 0.0618264742
C  C61  1  0.65840000  0.40350000  0.31170000  1.0 -0.1374591205
C  C62  1  0.85080000  0.34290000  0.34370000  1.0 0.5448121738
C  C63  1  0.71500000  0.60800000  0.44560000  1.0 0.0508785051
C  C64  1  0.76530000  0.65800000  0.44730000  1.0 -0.1962962686
C  C65  1  0.91270000  0.70680000  0.77890000  1.0 -0.010640725
C  C66  1  0.85990000  0.60860000  0.70810000  1.0 -0.0463537516
C  C67  1  0.81440000  0.62080000  0.76000000  1.0 0.0100836728
C  C68  1  0.82170000  0.73130000  0.88260000  1.0 -0.0203235756
C  C69  1  0.76140000  0.50810000  0.68130000  1.0 0.0028010068
C  C70  1  0.73960000  0.40900000  0.55860000  1.0 -0.2334959272
C  C71  1  0.68980000  0.30980000  0.49000000  1.0 0.0618264742
C  C72  1  0.73350000  0.51550000  0.74400000  1.0 -0.1189817384
C  C73  1  0.02870000  0.19150000  0.59140000  1.0 0.557500371
C  C74  1  0.04540000  0.29330000  0.63230000  1.0 -0.0256358905
C  C75  1  0.01600000  0.27670000  0.55250000  1.0 -0.1123356864
C  C76  1  0.03290000  0.36900000  0.58570000  1.0 -0.010640725
C  C77  1  0.07900000  0.47770000  0.69790000  1.0 -0.156324894
C  C78  1  0.11010000  0.49610000  0.77840000  1.0 0.0618264742
C  C79  1  0.09180000  0.40350000  0.74510000  1.0 -0.1374591205
C  C80  1  0.99920000  0.34290000  0.49210000  1.0 0.5448121738
C  C81  1  0.16240000  0.60800000  0.89300000  1.0 0.0508785051
C  C82  1  0.21070000  0.65800000  0.89270000  1.0 -0.1962962686
C  C83  1  0.92790000  0.70680000  0.79410000  1.0 -0.010640725
C  C84  1  0.90050000  0.60860000  0.74870000  1.0 -0.0463537516
C  C85  1  0.86080000  0.62080000  0.80640000  1.0 0.0100836728
C  C86  1  0.84870000  0.73130000  0.90960000  1.0 -0.0203235756
C  C87  1  0.82680000  0.50810000  0.74670000  1.0 0.0028010068
C  C88  1  0.85040000  0.40900000  0.66940000  1.0 -0.2334959272
C  C89  1  0.81980000  0.30980000  0.62000000  1.0 0.0618264742
C  C90  1  0.77150000  0.51550000  0.78200000  1.0 -0.1189817384
C  C91  1  0.47130000  0.06270000  0.16280000  1.0 0.557500371
C  C92  1  0.45460000  0.08690000  0.24790000  1.0 -0.0203235756
C  C93  1  0.48400000  0.03650000  0.26070000  1.0 -0.1123356864
C  C94  1  0.46710000  0.05280000  0.33610000  1.0 -0.010640725
C  C95  1  0.42100000  0.11890000  0.39870000  1.0 -0.156324894
C  C96  1  0.38990000  0.16830000  0.38600000  1.0 0.0618264742
C  C97  1  0.40820000  0.15330000  0.31170000  1.0 -0.1374591205
C  C98  1  0.50080000  0.99290000  0.34370000  1.0 0.5448121738
C  C99  1  0.33760000  0.23060000  0.44560000  1.0 0.0508785051
C  C100  1  0.28930000  0.18200000  0.44730000  1.0 -0.1962962686
C  C101  1  0.57210000  0.36620000  0.77890000  1.0 -0.010640725
C  C102  1  0.59950000  0.34820000  0.70810000  1.0 -0.0463537516
C  C103  1  0.63920000  0.44560000  0.76000000  1.0 0.0100836728
C  C104  1  0.65130000  0.56090000  0.88260000  1.0 -0.0203235756
C  C105  1  0.67320000  0.41990000  0.68130000  1.0 0.0028010068
C  C106  1  0.64960000  0.31900000  0.55860000  1.0 -0.2334959272
C  C107  1  0.68020000  0.30020000  0.49000000  1.0 0.0618264742
C  C108  1  0.72850000  0.51050000  0.74400000  1.0 -0.1189817384
C  C109  1  0.10010000  0.93730000  0.40860000  1.0 0.557500371
C  C110  1  0.16100000  0.91310000  0.36770000  1.0 -0.0256358905
C  C111  1  0.22420000  0.96350000  0.44750000  1.0 -0.1123356864
C  C112  1  0.28330000  0.94720000  0.41430000  1.0 -0.010640725
C  C113  1  0.27980000  0.88110000  0.30210000  1.0 -0.156324894
C  C114  1  0.21770000  0.83170000  0.22160000  1.0 0.0618264742
C  C115  1  0.15840000  0.84670000  0.25490000  1.0 -0.1374591205
C  C116  1  0.35080000  0.00710000  0.50790000  1.0 0.5448121738
C  C117  1  0.21500000  0.76940000  0.10700000  1.0 0.0508785051
C  C118  1  0.26530000  0.81800000  0.10730000  1.0 -0.1962962686
C  C119  1  0.41270000  0.63380000  0.20590000  1.0 -0.010640725
C  C120  1  0.35990000  0.65180000  0.25130000  1.0 -0.0463537516
C  C121  1  0.31440000  0.55440000  0.19360000  1.0 0.0100836728
C  C122  1  0.32170000  0.43910000  0.09040000  1.0 -0.0203235756
C  C123  1  0.26140000  0.58010000  0.25330000  1.0 0.0028010068
C  C124  1  0.23960000  0.68100000  0.33060000  1.0 -0.2334959272
C  C125  1  0.18980000  0.69980000  0.38000000  1.0 0.0618264742
C  C126  1  0.23350000  0.48950000  0.21800000  1.0 -0.1189817384
C  C127  1  0.39990000  0.80850000  0.83720000  1.0 0.557500371
C  C128  1  0.33900000  0.70670000  0.75210000  1.0 -0.0256358905
C  C129  1  0.27580000  0.72330000  0.73930000  1.0 -0.1123356864
C  C130  1  0.21670000  0.63100000  0.66390000  1.0 -0.010640725
C  C131  1  0.22020000  0.52230000  0.60130000  1.0 -0.156324894
C  C132  1  0.28230000  0.50390000  0.61400000  1.0 0.0618264742
C  C133  1  0.34160000  0.59650000  0.68830000  1.0 -0.1374591205
C  C134  1  0.14920000  0.65710000  0.65630000  1.0 0.5448121738
C  C135  1  0.28500000  0.39200000  0.55440000  1.0 0.0508785051
C  C136  1  0.23470000  0.34200000  0.55270000  1.0 -0.1962962686
C  C137  1  0.08730000  0.29320000  0.22110000  1.0 -0.010640725
C  C138  1  0.14010000  0.39140000  0.29190000  1.0 -0.0463537516
C  C139  1  0.18560000  0.37920000  0.24000000  1.0 0.0100836728
C  C140  1  0.17830000  0.26870000  0.11740000  1.0 -0.0203235756
C  C141  1  0.23860000  0.49190000  0.31870000  1.0 0.0028010068
C  C142  1  0.26040000  0.59100000  0.44140000  1.0 -0.2334959272
C  C143  1  0.31020000  0.69020000  0.51000000  1.0 0.0618264742
C  C144  1  0.26650000  0.48450000  0.25600000  1.0 -0.1189817384
C  C145  1  0.83420000  0.33420000  0.00000000  1.0 -0.194633371
C  C146  1  0.73780000  0.23780000  0.00000000  1.0 0.1084808684
C  C147  1  0.68420000  0.18420000  0.00000000  1.0 -0.220719463
C  C148  1  0.66580000  0.66580000  0.50000000  1.0 -0.194633371
C  C149  1  0.76220000  0.76220000  0.50000000  1.0 0.1175499951
C  C150  1  0.81580000  0.81580000  0.50000000  1.0 -0.220719463
C  C151  1  0.16580000  0.66580000  0.00000000  1.0 -0.194633371
C  C152  1  0.26220000  0.76220000  0.00000000  1.0 0.1084808684
C  C153  1  0.31580000  0.81580000  0.00000000  1.0 -0.220719463
C  C154  1  0.33420000  0.33420000  0.50000000  1.0 -0.194633371
C  C155  1  0.23780000  0.23780000  0.50000000  1.0 0.1084808684
C  C156  1  0.18420000  0.18420000  0.50000000  1.0 -0.220719463
C  C157  1  0.12590000  0.04190000  0.91600000  1.0 0.5312892061
C  C158  1  0.12470000  0.17060000  0.04590000  1.0 -0.0378599938
C  C159  1  0.08210000  0.18280000  0.10070000  1.0 -0.1842400048
C  C160  1  0.03500000  0.30000000  0.26500000  1.0 0.3945953261
C  C161  1  0.37410000  0.29010000  0.91600000  1.0 0.5312892061
C  C162  1  0.37530000  0.42120000  0.04590000  1.0 -0.0378599938
C  C163  1  0.41790000  0.51860000  0.10070000  1.0 -0.1842400048
C  C164  1  0.46500000  0.73000000  0.26500000  1.0 0.3945953261
C  C165  1  0.62590000  0.70990000  0.08400000  1.0 0.5312892061
C  C166  1  0.62470000  0.57880000  0.95410000  1.0 -0.0378599938
C  C167  1  0.58210000  0.48140000  0.89930000  1.0 -0.1842400048
C  C168  1  0.53500000  0.27000000  0.73500000  1.0 0.3950695109
C  C169  1  0.87410000  0.95810000  0.08400000  1.0 0.5312892061
C  C170  1  0.87530000  0.82940000  0.95410000  1.0 -0.0378599938
C  C171  1  0.91790000  0.81720000  0.89930000  1.0 -0.1842400048
C  C172  1  0.96500000  0.70000000  0.73500000  1.0 0.3950695109
C  C173  1  0.17743000  0.81900000  0.49643000  1.0 -0.2698006768
C  C174  1  0.32257000  0.81900000  0.64157000  1.0 -0.2698006768
C  C175  1  0.82257000  0.18100000  0.50357000  1.0 -0.2698006768
C  C176  1  0.67743000  0.18100000  0.35843000  1.0 -0.2698006768
O  O1  1  0.94360000  0.79040000  0.33480000  1.0 -0.5382785015
O  O2  1  0.00750000  0.90540000  0.51170000  1.0 -0.5382785015
O  O3  1  0.03250000  0.75610000  0.60680000  1.0 -0.4624129225
O  O4  1  0.99680000  0.56680000  0.46540000  1.0 -0.5382785015
O  O5  1  0.55640000  0.89120000  0.84680000  1.0 -0.5382785015
O  O6  1  0.49250000  0.00420000  0.89790000  1.0 -0.5342940762
O  O7  1  0.46750000  0.07430000  0.72360000  1.0 -0.4624129225
O  O8  1  0.50320000  0.96860000  0.57000000  1.0 -0.5382785015
O  O9  1  0.95560000  0.10880000  0.66520000  1.0 -0.5382785015
O  O10  1  0.89370000  0.99580000  0.48830000  1.0 -0.5342940762
O  O11  1  0.64930000  0.92570000  0.39320000  1.0 -0.4624129225
O  O12  1  0.60140000  0.03140000  0.53460000  1.0 -0.5382785015
O  O13  1  0.54440000  0.20960000  0.15320000  1.0 -0.5382785015
O  O14  1  0.60630000  0.09460000  0.10210000  1.0 -0.5342940762
O  O15  1  0.85070000  0.24390000  0.27640000  1.0 -0.4624129225
O  O16  1  0.89860000  0.43320000  0.43000000  1.0 -0.5382785015
O  O17  1  0.05640000  0.20960000  0.66520000  1.0 -0.5382785015
O  O18  1  0.99250000  0.09460000  0.48830000  1.0 -0.5342940762
O  O19  1  0.96750000  0.24390000  0.39320000  1.0 -0.4624129225
O  O20  1  0.00320000  0.43320000  0.53460000  1.0 -0.5382785015
O  O21  1  0.44360000  0.10880000  0.15320000  1.0 -0.5382785015
O  O22  1  0.50750000  0.99580000  0.10210000  1.0 -0.5342940762
O  O23  1  0.53250000  0.92570000  0.27640000  1.0 -0.4624129225
O  O24  1  0.49680000  0.03140000  0.43000000  1.0 -0.5382785015
O  O25  1  0.04440000  0.89120000  0.33480000  1.0 -0.5382785015
O  O26  1  0.10630000  0.00420000  0.51170000  1.0 -0.5342940762
O  O27  1  0.35070000  0.07430000  0.60680000  1.0 -0.4624129225
O  O28  1  0.39860000  0.96860000  0.46540000  1.0 -0.5382785015
O  O29  1  0.45560000  0.79040000  0.84680000  1.0 -0.5382785015
O  O30  1  0.39370000  0.90540000  0.89790000  1.0 -0.5342940762
O  O31  1  0.14930000  0.75610000  0.72360000  1.0 -0.4624129225
O  O32  1  0.10140000  0.56680000  0.57000000  1.0 -0.5382785015
O  O33  1  0.08740000  0.96750000  0.88010000  1.0 -0.4624129225
O  O34  1  0.16280000  0.02790000  0.86510000  1.0 -0.4823678721
O  O35  1  0.01850000  0.37150000  0.35300000  1.0 -0.3015188712
O  O36  1  0.99890000  0.21030000  0.21140000  1.0 -0.3286802757
O  O37  1  0.41260000  0.29270000  0.88010000  1.0 -0.4547593582
O  O38  1  0.33720000  0.20230000  0.86510000  1.0 -0.4823678721
O  O39  1  0.48150000  0.83450000  0.35300000  1.0 -0.3015188712
O  O40  1  0.50110000  0.71250000  0.21140000  1.0 -0.3286802757
O  O41  1  0.58740000  0.70730000  0.11990000  1.0 -0.4624129225
O  O42  1  0.66280000  0.79770000  0.13490000  1.0 -0.4823678721
O  O43  1  0.51850000  0.16550000  0.64700000  1.0 -0.3015188712
O  O44  1  0.49890000  0.28750000  0.78860000  1.0 -0.3286802757
O  O45  1  0.91260000  0.03250000  0.11990000  1.0 -0.4624129225
O  O46  1  0.83720000  0.97210000  0.13490000  1.0 -0.4823678721
O  O47  1  0.98150000  0.62850000  0.64700000  1.0 -0.3015188712
O  O48  1  0.00110000  0.78970000  0.78860000  1.0 -0.3286802757
