# DDEC6 charges by PACMAN v1.1 (https://github.com/mtap-research/PACMAN-charge/)
data_RAPMOK_ASR_pacman
_symmetry_space_group_name_H-M   'P 1'
_cell_length_a   9.81274000
_cell_length_b   9.81274000
_cell_length_c   9.81274000
_cell_angle_alpha   102.97100000
_cell_angle_beta   102.97100000
_cell_angle_gamma   102.97100000
_symmetry_Int_Tables_number   1
_chemical_formula_structural   Zn7(PO4)6
_chemical_formula_sum   'Zn7 P6 O24'
_cell_volume   858.86268335
_cell_formula_units_Z   1
loop_
 _symmetry_equiv_pos_site_id
 _symmetry_equiv_pos_as_xyz
  1  'x, y, z'
loop_
 _atom_site_type_symbol
 _atom_site_label
 _atom_site_symmetry_multiplicity
 _atom_site_fract_x
 _atom_site_fract_y
 _atom_site_fract_z
 _atom_site_occupancy
 _atom_site_charge
Zn  Zn1  1  0.02840000  0.64080000  0.31040000  1.0 1.1479922098
Zn  Zn2  1  0.64080000  0.31040000  0.02840000  1.0 1.1479922098
Zn  Zn3  1  0.31040000  0.02840000  0.64080000  1.0 1.1479922098
Zn  Zn4  1  0.35430000  0.96610000  0.26280000  1.0 1.1391569736
Zn  Zn5  1  0.96610000  0.26280000  0.35430000  1.0 1.1391569736
Zn  Zn6  1  0.26280000  0.35430000  0.96610000  1.0 1.1391569736
Zn  Zn7  1  0.48543000  0.48543000  0.48543000  1.0 1.1289977592
P  P1  1  0.35540000  0.74660000  0.44190000  1.0 1.4188488883
P  P2  1  0.74660000  0.44190000  0.35540000  1.0 1.4096270365
P  P3  1  0.44190000  0.35540000  0.74660000  1.0 1.4188488883
P  P4  1  0.06010000  0.97380000  0.35580000  1.0 1.3765189213
P  P5  1  0.97380000  0.35580000  0.06010000  1.0 1.3734964889
P  P6  1  0.35580000  0.06010000  0.97380000  1.0 1.3765189213
O  O1  1  0.98100000  0.81500000  0.27000000  1.0 -0.6539863187
O  O2  1  0.81500000  0.27000000  0.98100000  1.0 -0.6568281788
O  O3  1  0.27000000  0.98100000  0.81500000  1.0 -0.6568281788
O  O4  1  0.11500000  0.99100000  0.51800000  1.0 -0.7114321667
O  O5  1  0.99100000  0.51800000  0.11500000  1.0 -0.7114321667
O  O6  1  0.51800000  0.11500000  0.99100000  1.0 -0.7114321667
O  O7  1  0.20900000  0.64800000  0.44600000  1.0 -0.7018397687
O  O8  1  0.64800000  0.44600000  0.20900000  1.0 -0.7114321667
O  O9  1  0.44600000  0.20900000  0.64800000  1.0 -0.7018397687
O  O10  1  0.40500000  0.89500000  0.56100000  1.0 -0.7018397687
O  O11  1  0.89500000  0.56100000  0.40500000  1.0 -0.6945091921
O  O12  1  0.56100000  0.40500000  0.89500000  1.0 -0.6945091921
O  O13  1  0.33400000  0.77400000  0.29400000  1.0 -0.7114321667
O  O14  1  0.77400000  0.29400000  0.33400000  1.0 -0.7114321667
O  O15  1  0.29400000  0.33400000  0.77400000  1.0 -0.7114321667
O  O16  1  0.94800000  0.05500000  0.32400000  1.0 -0.6313004035
O  O17  1  0.05500000  0.32400000  0.94800000  1.0 -0.6313004035
O  O18  1  0.32400000  0.94800000  0.05500000  1.0 -0.6313004035
O  O19  1  0.18800000  0.03700000  0.30600000  1.0 -0.7114321667
O  O20  1  0.03700000  0.30600000  0.18800000  1.0 -0.7114321667
O  O21  1  0.30600000  0.18800000  0.03700000  1.0 -0.7114321667
O  O22  1  0.47700000  0.67600000  0.46500000  1.0 -0.6313004035
O  O23  1  0.67600000  0.46500000  0.47700000  1.0 -0.6313004035
O  O24  1  0.46500000  0.47700000  0.67600000  1.0 -0.6313004035
