# DDEC6 charges by PACMAN v1.1 (https://github.com/mtap-research/PACMAN-charge/)
data_RAQVAG_FSR_pacman
_symmetry_space_group_name_H-M   'P 1'
_cell_length_a   9.13500000
_cell_length_b   10.36100000
_cell_length_c   10.39000000
_cell_angle_alpha   90.00000000
_cell_angle_beta   90.00000000
_cell_angle_gamma   90.00000000
_symmetry_Int_Tables_number   1
_chemical_formula_structural   FePO7
_chemical_formula_sum   'Fe8 P8 O56'
_cell_volume   983.38996665
_cell_formula_units_Z   8
loop_
 _symmetry_equiv_pos_site_id
 _symmetry_equiv_pos_as_xyz
  1  'x, y, z'
loop_
 _atom_site_type_symbol
 _atom_site_label
 _atom_site_symmetry_multiplicity
 _atom_site_fract_x
 _atom_site_fract_y
 _atom_site_fract_z
 _atom_site_occupancy
 _atom_site_charge
Fe  Fe1  1  0.15740000  0.87730000  0.37740000  1.0 0.912710451
Fe  Fe2  1  0.15740000  0.62270000  0.12260000  1.0 0.912710451
Fe  Fe3  1  0.34260000  0.37730000  0.62260000  1.0 0.912710451
Fe  Fe4  1  0.34260000  0.12270000  0.87740000  1.0 0.912710451
Fe  Fe5  1  0.84260000  0.12270000  0.62260000  1.0 0.912710451
Fe  Fe6  1  0.84260000  0.37730000  0.87740000  1.0 0.912710451
Fe  Fe7  1  0.65740000  0.62270000  0.37740000  1.0 0.912710451
Fe  Fe8  1  0.65740000  0.87730000  0.12260000  1.0 0.912710451
P  P1  1  0.19610000  0.10010000  0.59950000  1.0 0.7004203279
P  P2  1  0.19610000  0.39990000  0.90050000  1.0 0.7004203279
P  P3  1  0.30390000  0.60010000  0.40050000  1.0 0.7004203279
P  P4  1  0.30390000  0.89990000  0.09950000  1.0 0.7004203279
P  P5  1  0.80390000  0.89990000  0.40050000  1.0 0.7004203279
P  P6  1  0.80390000  0.60010000  0.09950000  1.0 0.7004203279
P  P7  1  0.69610000  0.39990000  0.59950000  1.0 0.7004203279
P  P8  1  0.69610000  0.10010000  0.90050000  1.0 0.7004203279
O  O1  1  0.24320000  0.00100000  0.50120000  1.0 -0.5044661458
O  O2  1  0.24320000  0.49900000  0.99880000  1.0 -0.505150586
O  O3  1  0.25680000  0.50100000  0.49880000  1.0 -0.505150586
O  O4  1  0.25680000  0.99900000  0.00120000  1.0 -0.505150586
O  O5  1  0.75680000  0.99900000  0.49880000  1.0 -0.505150586
O  O6  1  0.75680000  0.50100000  0.00120000  1.0 -0.5044661458
O  O7  1  0.74320000  0.49900000  0.50120000  1.0 -0.505150586
O  O8  1  0.74320000  0.00100000  0.99880000  1.0 -0.5044661458
O  O9  1  0.04370000  0.06200000  0.65290000  1.0 -0.2380270228
O  O10  1  0.04370000  0.43800000  0.84710000  1.0 -0.2380270228
O  O11  1  0.45630000  0.56200000  0.34710000  1.0 -0.2380270228
O  O12  1  0.45630000  0.93800000  0.15290000  1.0 -0.2380270228
O  O13  1  0.95630000  0.93800000  0.34710000  1.0 -0.2380270228
O  O14  1  0.95630000  0.56200000  0.15290000  1.0 -0.2380270228
O  O15  1  0.54370000  0.43800000  0.65290000  1.0 -0.2380270228
O  O16  1  0.54370000  0.06200000  0.84710000  1.0 -0.2380270228
O  O17  1  0.20500000  0.05770000  0.73490000  1.0 -0.1197237666
O  O18  1  0.20500000  0.44230000  0.76510000  1.0 -0.1197237666
O  O19  1  0.29500000  0.55770000  0.26510000  1.0 -0.1197237666
O  O20  1  0.29500000  0.94230000  0.23490000  1.0 -0.1197237666
O  O21  1  0.79500000  0.94230000  0.26510000  1.0 -0.1197237666
O  O22  1  0.79500000  0.55770000  0.23490000  1.0 -0.1197237666
O  O23  1  0.70500000  0.44230000  0.73490000  1.0 -0.1197237666
O  O24  1  0.70500000  0.05770000  0.76510000  1.0 -0.1197237666
O  O25  1  0.31450000  0.20680000  0.58000000  1.0 -0.1915711999
O  O26  1  0.31450000  0.29320000  0.92000000  1.0 -0.1915711999
O  O27  1  0.18550000  0.70680000  0.42000000  1.0 -0.1915711999
O  O28  1  0.18550000  0.79320000  0.08000000  1.0 -0.1915711999
O  O29  1  0.68550000  0.79320000  0.42000000  1.0 -0.1915711999
O  O30  1  0.68550000  0.70680000  0.08000000  1.0 -0.1915711999
O  O31  1  0.81450000  0.29320000  0.58000000  1.0 -0.1915711999
O  O32  1  0.81450000  0.20680000  0.92000000  1.0 -0.1915711999
O  O33  1  0.95730000  0.84900000  0.43850000  1.0 -0.2380270228
O  O34  1  0.95730000  0.65100000  0.06150000  1.0 -0.2380270228
O  O35  1  0.54270000  0.34900000  0.56150000  1.0 -0.2380270228
O  O36  1  0.54270000  0.15100000  0.93850000  1.0 -0.2380270228
O  O37  1  0.04270000  0.15100000  0.56150000  1.0 -0.2380270228
O  O38  1  0.04270000  0.34900000  0.93850000  1.0 -0.2380270228
O  O39  1  0.45730000  0.65100000  0.43850000  1.0 -0.2380270228
O  O40  1  0.45730000  0.84900000  0.06150000  1.0 -0.2380270228
O  O41  1  0.18760000  0.92500000  0.20580000  1.0 -0.1915711999
O  O42  1  0.18760000  0.57500000  0.29420000  1.0 -0.1915711999
O  O43  1  0.31240000  0.42500000  0.79420000  1.0 -0.1915711999
O  O44  1  0.31240000  0.07500000  0.70580000  1.0 -0.1915711999
O  O45  1  0.81240000  0.07500000  0.79420000  1.0 -0.1915711999
O  O46  1  0.81240000  0.42500000  0.70580000  1.0 -0.1915711999
O  O47  1  0.68760000  0.57500000  0.20580000  1.0 -0.1915711999
O  O48  1  0.68760000  0.92500000  0.29420000  1.0 -0.1915711999
O  O49  1  0.29500000  0.73150000  0.44220000  1.0 -0.1293166462
O  O50  1  0.29500000  0.76850000  0.05780000  1.0 -0.1293166462
O  O51  1  0.20500000  0.23150000  0.55780000  1.0 -0.1293166462
O  O52  1  0.20500000  0.26850000  0.94220000  1.0 -0.1293166462
O  O53  1  0.70500000  0.26850000  0.55780000  1.0 -0.1293166462
O  O54  1  0.70500000  0.23150000  0.94220000  1.0 -0.1293166462
O  O55  1  0.79500000  0.76850000  0.44220000  1.0 -0.1293166462
O  O56  1  0.79500000  0.73150000  0.05780000  1.0 -0.1293166462
