# DDEC6 charges by PACMAN v1.1 (https://github.com/mtap-research/PACMAN-charge/)
data_RASNOR_ASR_pacman
_symmetry_space_group_name_H-M   'P 1'
_cell_length_a   10.43450000
_cell_length_b   14.90530000
_cell_length_c   25.34230000
_cell_angle_alpha   90.00000000
_cell_angle_beta   90.00000000
_cell_angle_gamma   90.00000000
_symmetry_Int_Tables_number   1
_chemical_formula_structural   CuH22C29(NO)4
_chemical_formula_sum   'Cu4 H88 C116 N16 O16'
_cell_volume   3941.47151873
_cell_formula_units_Z   4
loop_
 _symmetry_equiv_pos_site_id
 _symmetry_equiv_pos_as_xyz
  1  'x, y, z'
loop_
 _atom_site_type_symbol
 _atom_site_label
 _atom_site_symmetry_multiplicity
 _atom_site_fract_x
 _atom_site_fract_y
 _atom_site_fract_z
 _atom_site_occupancy
 _atom_site_charge
Cu  Cu1  1  0.75783000  0.18284000  0.25000000  1.0 0.7690283863
Cu  Cu2  1  0.74217000  0.68284000  0.75000000  1.0 0.7690283863
Cu  Cu3  1  0.24217000  0.81716000  0.75000000  1.0 0.7690283863
Cu  Cu4  1  0.25783000  0.31716000  0.25000000  1.0 0.7690283863
H  H1  1  0.12860000  0.92030000  0.18690000  1.0 0.1590271907
H  H2  1  0.14430000  0.95070000  0.12660000  1.0 0.1590271907
H  H3  1  0.19200000  0.01520000  0.17310000  1.0 0.1407395876
H  H4  1  0.62220000  0.12220000  0.14830000  1.0 0.1590271907
H  H5  1  0.67450000  0.09520000  0.09110000  1.0 0.1477409212
H  H6  1  0.61850000  0.01970000  0.12960000  1.0 0.1590271907
H  H7  1  0.64240000  0.92360000  0.99710000  1.0 0.1288792189
H  H8  1  0.57460000  0.86800000  0.91570000  1.0 0.1219811647
H  H9  1  0.93920000  0.79340000  0.88160000  1.0 0.1288792189
H  H10  1  0.00690000  0.84780000  0.96330000  1.0 0.1288792189
H  H11  1  0.37140000  0.42030000  0.81310000  1.0 0.1590271907
H  H12  1  0.35570000  0.45070000  0.87340000  1.0 0.1590271907
H  H13  1  0.30800000  0.51520000  0.82690000  1.0 0.1407395876
H  H14  1  0.87780000  0.62220000  0.85170000  1.0 0.1590271907
H  H15  1  0.82550000  0.59520000  0.90890000  1.0 0.1477409212
H  H16  1  0.88150000  0.51970000  0.87040000  1.0 0.1590271907
H  H17  1  0.85760000  0.42360000  0.00290000  1.0 0.1288792189
H  H18  1  0.92540000  0.36800000  0.08430000  1.0 0.1219811647
H  H19  1  0.56080000  0.29340000  0.11840000  1.0 0.1288792189
H  H20  1  0.49310000  0.34780000  0.03670000  1.0 0.1288792189
H  H21  1  0.12860000  0.92030000  0.31310000  1.0 0.1590271907
H  H22  1  0.14430000  0.95070000  0.37340000  1.0 0.1590271907
H  H23  1  0.19200000  0.01520000  0.32690000  1.0 0.1407395876
H  H24  1  0.62220000  0.12220000  0.35170000  1.0 0.1590271907
H  H25  1  0.67450000  0.09520000  0.40890000  1.0 0.1477409212
H  H26  1  0.61850000  0.01970000  0.37040000  1.0 0.1590271907
H  H27  1  0.64240000  0.92360000  0.50290000  1.0 0.1288792189
H  H28  1  0.57460000  0.86800000  0.58430000  1.0 0.1219811647
H  H29  1  0.93920000  0.79340000  0.61840000  1.0 0.1288792189
H  H30  1  0.00690000  0.84780000  0.53670000  1.0 0.1288792189
H  H31  1  0.37140000  0.42030000  0.68690000  1.0 0.1590271907
H  H32  1  0.35570000  0.45070000  0.62660000  1.0 0.1590271907
H  H33  1  0.30800000  0.51520000  0.67310000  1.0 0.1407395876
H  H34  1  0.87780000  0.62220000  0.64830000  1.0 0.1590271907
H  H35  1  0.82550000  0.59520000  0.59110000  1.0 0.1477409212
H  H36  1  0.88150000  0.51970000  0.62960000  1.0 0.1590271907
H  H37  1  0.85760000  0.42360000  0.49710000  1.0 0.1288792189
H  H38  1  0.92540000  0.36800000  0.41570000  1.0 0.1219811647
H  H39  1  0.56080000  0.29340000  0.38160000  1.0 0.1288792189
H  H40  1  0.49310000  0.34780000  0.46330000  1.0 0.1288792189
H  H41  1  0.02660000  0.16810000  0.25000000  1.0 0.1590271907
H  H42  1  0.11440000  0.07970000  0.25000000  1.0 0.1407395876
H  H43  1  0.47340000  0.66810000  0.75000000  1.0 0.1590271907
H  H44  1  0.38560000  0.57970000  0.75000000  1.0 0.1407395876
H  H45  1  0.87140000  0.07970000  0.68690000  1.0 0.1590271907
H  H46  1  0.85570000  0.04930000  0.62660000  1.0 0.1590271907
H  H47  1  0.80800000  0.98480000  0.67310000  1.0 0.1407395876
H  H48  1  0.37780000  0.87780000  0.64830000  1.0 0.1590271907
H  H49  1  0.32550000  0.90480000  0.59110000  1.0 0.1477409212
H  H50  1  0.38150000  0.98030000  0.62960000  1.0 0.1590271907
H  H51  1  0.35760000  0.07640000  0.49710000  1.0 0.1288792189
H  H52  1  0.42540000  0.13200000  0.41570000  1.0 0.1219811647
H  H53  1  0.06080000  0.20660000  0.38160000  1.0 0.1288792189
H  H54  1  0.99310000  0.15220000  0.46330000  1.0 0.1288792189
H  H55  1  0.62860000  0.57970000  0.31310000  1.0 0.1590271907
H  H56  1  0.64430000  0.54930000  0.37340000  1.0 0.1590271907
H  H57  1  0.69200000  0.48480000  0.32690000  1.0 0.1407395876
H  H58  1  0.12220000  0.37780000  0.35170000  1.0 0.1590271907
H  H59  1  0.17450000  0.40480000  0.40890000  1.0 0.1477409212
H  H60  1  0.11850000  0.48030000  0.37040000  1.0 0.1590271907
H  H61  1  0.14240000  0.57640000  0.50290000  1.0 0.1288792189
H  H62  1  0.07460000  0.63200000  0.58430000  1.0 0.1219811647
H  H63  1  0.43920000  0.70660000  0.61840000  1.0 0.1288792189
H  H64  1  0.50690000  0.65220000  0.53670000  1.0 0.1288792189
H  H65  1  0.87140000  0.07970000  0.81310000  1.0 0.1590271907
H  H66  1  0.85570000  0.04930000  0.87340000  1.0 0.1590271907
H  H67  1  0.80800000  0.98480000  0.82690000  1.0 0.1407395876
H  H68  1  0.37780000  0.87780000  0.85170000  1.0 0.1590271907
H  H69  1  0.32550000  0.90480000  0.90890000  1.0 0.1477409212
H  H70  1  0.38150000  0.98030000  0.87040000  1.0 0.1590271907
H  H71  1  0.35760000  0.07640000  0.00290000  1.0 0.1288792189
H  H72  1  0.42540000  0.13200000  0.08430000  1.0 0.1219811647
H  H73  1  0.06080000  0.20660000  0.11840000  1.0 0.1288792189
H  H74  1  0.99310000  0.15220000  0.03670000  1.0 0.1288792189
H  H75  1  0.62860000  0.57970000  0.18690000  1.0 0.1590271907
H  H76  1  0.64430000  0.54930000  0.12660000  1.0 0.1590271907
H  H77  1  0.69200000  0.48480000  0.17310000  1.0 0.1407395876
H  H78  1  0.12220000  0.37780000  0.14830000  1.0 0.1590271907
H  H79  1  0.17450000  0.40480000  0.09110000  1.0 0.1477409212
H  H80  1  0.11850000  0.48030000  0.12960000  1.0 0.1590271907
H  H81  1  0.14240000  0.57640000  0.99710000  1.0 0.1288792189
H  H82  1  0.07460000  0.63200000  0.91570000  1.0 0.1219811647
H  H83  1  0.43920000  0.70660000  0.88160000  1.0 0.1288792189
H  H84  1  0.50690000  0.65220000  0.96330000  1.0 0.1288792189
H  H85  1  0.97340000  0.83190000  0.75000000  1.0 0.1590271907
H  H86  1  0.88560000  0.92030000  0.75000000  1.0 0.1407395876
H  H87  1  0.52660000  0.33190000  0.25000000  1.0 0.1590271907
H  H88  1  0.61440000  0.42030000  0.25000000  1.0 0.1407395876
C  C1  1  0.99802000  0.01437000  0.16444000  1.0 0.1771522073
C  C2  1  0.89629000  0.00844000  0.12947000  1.0 -0.1162950357
C  C3  1  0.79743000  0.06177000  0.15050000  1.0 0.248797646
C  C4  1  0.88850000  0.96219000  0.08037000  1.0 -0.0563093962
C  C5  1  0.86940000  0.92893000  0.03830000  1.0 -0.1077756488
C  C6  1  0.12670000  0.97150000  0.16261000  1.0 -0.4775017479
C  C7  1  0.66700000  0.07593000  0.12794000  1.0 -0.4855178089
C  C8  1  0.83180000  0.89212000  0.98801000  1.0 0.1407395876
C  C9  1  0.70270000  0.89738000  0.97365000  1.0 -0.157654831
C  C10  1  0.66250000  0.86440000  0.92517000  1.0 -0.1077756488
C  C11  1  0.75003000  0.82617000  0.89045000  1.0 -0.0247295553
C  C12  1  0.87900000  0.81995000  0.90497000  1.0 -0.0911322541
C  C13  1  0.91923000  0.85253000  0.95353000  1.0 -0.1512684019
C  C14  1  0.70403000  0.79268000  0.83746000  1.0 0.5371466486
C  C15  1  0.50198000  0.51437000  0.83556000  1.0 0.1771522073
C  C16  1  0.60371000  0.50844000  0.87053000  1.0 -0.1162950357
C  C17  1  0.70257000  0.56177000  0.84950000  1.0 0.248797646
C  C18  1  0.61150000  0.46219000  0.91963000  1.0 -0.0563093962
C  C19  1  0.63060000  0.42893000  0.96170000  1.0 -0.1077756488
C  C20  1  0.37330000  0.47150000  0.83739000  1.0 -0.4775017479
C  C21  1  0.83300000  0.57593000  0.87206000  1.0 -0.4855178089
C  C22  1  0.66820000  0.39212000  0.01199000  1.0 0.1407395876
C  C23  1  0.79730000  0.39738000  0.02635000  1.0 -0.157654831
C  C24  1  0.83750000  0.36440000  0.07483000  1.0 -0.1077756488
C  C25  1  0.74997000  0.32617000  0.10955000  1.0 -0.0247295553
C  C26  1  0.62100000  0.31995000  0.09503000  1.0 -0.0911322541
C  C27  1  0.58077000  0.35253000  0.04647000  1.0 -0.1512684019
C  C28  1  0.79597000  0.29268000  0.16254000  1.0 0.5371466486
C  C29  1  0.99802000  0.01437000  0.33556000  1.0 0.1771522073
C  C30  1  0.89629000  0.00844000  0.37053000  1.0 -0.1162950357
C  C31  1  0.79743000  0.06177000  0.34950000  1.0 0.248797646
C  C32  1  0.88850000  0.96219000  0.41963000  1.0 -0.0563093962
C  C33  1  0.86940000  0.92893000  0.46170000  1.0 -0.1077756488
C  C34  1  0.12670000  0.97150000  0.33739000  1.0 -0.4775017479
C  C35  1  0.66700000  0.07593000  0.37206000  1.0 -0.4855178089
C  C36  1  0.83180000  0.89212000  0.51199000  1.0 0.1407395876
C  C37  1  0.70270000  0.89738000  0.52635000  1.0 -0.157654831
C  C38  1  0.66250000  0.86440000  0.57483000  1.0 -0.1077756488
C  C39  1  0.75003000  0.82617000  0.60955000  1.0 -0.0247295553
C  C40  1  0.87900000  0.81995000  0.59503000  1.0 -0.0911322541
C  C41  1  0.91923000  0.85253000  0.54647000  1.0 -0.1512684019
C  C42  1  0.70403000  0.79268000  0.66254000  1.0 0.5371466486
C  C43  1  0.50198000  0.51437000  0.66444000  1.0 0.1771522073
C  C44  1  0.60371000  0.50844000  0.62947000  1.0 -0.1162950357
C  C45  1  0.70257000  0.56177000  0.65050000  1.0 0.248797646
C  C46  1  0.61150000  0.46219000  0.58037000  1.0 -0.0563093962
C  C47  1  0.63060000  0.42893000  0.53830000  1.0 -0.1077756488
C  C48  1  0.37330000  0.47150000  0.66261000  1.0 -0.4775017479
C  C49  1  0.83300000  0.57593000  0.62794000  1.0 -0.4855178089
C  C50  1  0.66820000  0.39212000  0.48801000  1.0 0.1407395876
C  C51  1  0.79730000  0.39738000  0.47365000  1.0 -0.157654831
C  C52  1  0.83750000  0.36440000  0.42517000  1.0 -0.1077756488
C  C53  1  0.74997000  0.32617000  0.39045000  1.0 -0.0247295553
C  C54  1  0.62100000  0.31995000  0.40497000  1.0 -0.0911322541
C  C55  1  0.58077000  0.35253000  0.45353000  1.0 -0.1512684019
C  C56  1  0.79597000  0.29268000  0.33746000  1.0 0.5371466486
C  C57  1  0.02490000  0.10171000  0.25000000  1.0 -0.0726446824
C  C58  1  0.47510000  0.60171000  0.75000000  1.0 -0.0726446824
C  C59  1  0.00198000  0.98563000  0.66444000  1.0 0.1771522073
C  C60  1  0.10371000  0.99156000  0.62947000  1.0 -0.1162950357
C  C61  1  0.20257000  0.93823000  0.65050000  1.0 0.248797646
C  C62  1  0.11150000  0.03781000  0.58037000  1.0 -0.0563093962
C  C63  1  0.13060000  0.07107000  0.53830000  1.0 -0.1077756488
C  C64  1  0.87330000  0.02850000  0.66261000  1.0 -0.4775017479
C  C65  1  0.33300000  0.92407000  0.62794000  1.0 -0.4855178089
C  C66  1  0.16820000  0.10788000  0.48801000  1.0 0.1407395876
C  C67  1  0.29730000  0.10262000  0.47365000  1.0 -0.157654831
C  C68  1  0.33750000  0.13560000  0.42517000  1.0 -0.1077756488
C  C69  1  0.24997000  0.17383000  0.39045000  1.0 -0.0247295553
C  C70  1  0.12100000  0.18005000  0.40497000  1.0 -0.0911322541
C  C71  1  0.08077000  0.14747000  0.45353000  1.0 -0.1512684019
C  C72  1  0.29597000  0.20732000  0.33746000  1.0 0.5371466486
C  C73  1  0.49802000  0.48563000  0.33556000  1.0 0.1771522073
C  C74  1  0.39629000  0.49156000  0.37053000  1.0 -0.1162950357
C  C75  1  0.29743000  0.43823000  0.34950000  1.0 0.248797646
C  C76  1  0.38850000  0.53781000  0.41963000  1.0 -0.0563093962
C  C77  1  0.36940000  0.57107000  0.46170000  1.0 -0.1077756488
C  C78  1  0.62670000  0.52850000  0.33739000  1.0 -0.4775017479
C  C79  1  0.16700000  0.42407000  0.37206000  1.0 -0.4855178089
C  C80  1  0.33180000  0.60788000  0.51199000  1.0 0.1407395876
C  C81  1  0.20270000  0.60262000  0.52635000  1.0 -0.157654831
C  C82  1  0.16250000  0.63560000  0.57483000  1.0 -0.1077756488
C  C83  1  0.25003000  0.67383000  0.60955000  1.0 -0.0247295553
C  C84  1  0.37900000  0.68005000  0.59503000  1.0 -0.0911322541
C  C85  1  0.41923000  0.64747000  0.54647000  1.0 -0.1512684019
C  C86  1  0.20403000  0.70732000  0.66254000  1.0 0.5371466486
C  C87  1  0.00198000  0.98563000  0.83556000  1.0 0.1771522073
C  C88  1  0.10371000  0.99156000  0.87053000  1.0 -0.1162950357
C  C89  1  0.20257000  0.93823000  0.84950000  1.0 0.248797646
C  C90  1  0.11150000  0.03781000  0.91963000  1.0 -0.0563093962
C  C91  1  0.13060000  0.07107000  0.96170000  1.0 -0.1077756488
C  C92  1  0.87330000  0.02850000  0.83739000  1.0 -0.4775017479
C  C93  1  0.33300000  0.92407000  0.87206000  1.0 -0.4855178089
C  C94  1  0.16820000  0.10788000  0.01199000  1.0 0.1407395876
C  C95  1  0.29730000  0.10262000  0.02635000  1.0 -0.157654831
C  C96  1  0.33750000  0.13560000  0.07483000  1.0 -0.1077756488
C  C97  1  0.24997000  0.17383000  0.10955000  1.0 -0.0247295553
C  C98  1  0.12100000  0.18005000  0.09503000  1.0 -0.0911322541
C  C99  1  0.08077000  0.14747000  0.04647000  1.0 -0.1512684019
C  C100  1  0.29597000  0.20732000  0.16254000  1.0 0.5371466486
C  C101  1  0.49802000  0.48563000  0.16444000  1.0 0.1771522073
C  C102  1  0.39629000  0.49156000  0.12947000  1.0 -0.1162950357
C  C103  1  0.29743000  0.43823000  0.15050000  1.0 0.248797646
C  C104  1  0.38850000  0.53781000  0.08037000  1.0 -0.0563093962
C  C105  1  0.36940000  0.57107000  0.03830000  1.0 -0.1077756488
C  C106  1  0.62670000  0.52850000  0.16261000  1.0 -0.4775017479
C  C107  1  0.16700000  0.42407000  0.12794000  1.0 -0.4855178089
C  C108  1  0.33180000  0.60788000  0.98801000  1.0 0.1407395876
C  C109  1  0.20270000  0.60262000  0.97365000  1.0 -0.157654831
C  C110  1  0.16250000  0.63560000  0.92517000  1.0 -0.1077756488
C  C111  1  0.25003000  0.67383000  0.89045000  1.0 -0.0247295553
C  C112  1  0.37900000  0.68005000  0.90497000  1.0 -0.0911322541
C  C113  1  0.41923000  0.64747000  0.95353000  1.0 -0.1512684019
C  C114  1  0.20403000  0.70732000  0.83746000  1.0 0.5371466486
C  C115  1  0.97510000  0.89829000  0.75000000  1.0 -0.0726446824
C  C116  1  0.52490000  0.39829000  0.25000000  1.0 -0.0726446824
N  N1  1  0.83607000  0.09932000  0.19534000  1.0 -0.2986878248
N  N2  1  0.95877000  0.06954000  0.20329000  1.0 0.094359657
N  N3  1  0.66393000  0.59932000  0.80466000  1.0 -0.2986878248
N  N4  1  0.54123000  0.56954000  0.79671000  1.0 0.094359657
N  N5  1  0.83607000  0.09932000  0.30466000  1.0 -0.2986878248
N  N6  1  0.95877000  0.06954000  0.29671000  1.0 0.094359657
N  N7  1  0.66393000  0.59932000  0.69534000  1.0 -0.2986878248
N  N8  1  0.54123000  0.56954000  0.70329000  1.0 0.094359657
N  N9  1  0.16393000  0.90068000  0.69534000  1.0 -0.2986878248
N  N10  1  0.04123000  0.93046000  0.70329000  1.0 0.094359657
N  N11  1  0.33607000  0.40068000  0.30466000  1.0 -0.2986878248
N  N12  1  0.45877000  0.43046000  0.29671000  1.0 0.094359657
N  N13  1  0.16393000  0.90068000  0.80466000  1.0 -0.2986878248
N  N14  1  0.04123000  0.93046000  0.79671000  1.0 0.094359657
N  N15  1  0.33607000  0.40068000  0.19534000  1.0 -0.2986878248
N  N16  1  0.45877000  0.43046000  0.20329000  1.0 0.094359657
O  O1  1  0.58784000  0.79197000  0.82837000  1.0 -0.5328772457
O  O2  1  0.79125000  0.76536000  0.80618000  1.0 -0.5219536813
O  O3  1  0.91216000  0.29197000  0.17163000  1.0 -0.5328772457
O  O4  1  0.70875000  0.26536000  0.19382000  1.0 -0.5219536813
O  O5  1  0.58784000  0.79197000  0.67163000  1.0 -0.5328772457
O  O6  1  0.79125000  0.76536000  0.69382000  1.0 -0.5219536813
O  O7  1  0.91216000  0.29197000  0.32837000  1.0 -0.5328772457
O  O8  1  0.70875000  0.26536000  0.30618000  1.0 -0.5219536813
O  O9  1  0.41216000  0.20803000  0.32837000  1.0 -0.5328772457
O  O10  1  0.20875000  0.23464000  0.30618000  1.0 -0.5219536813
O  O11  1  0.08784000  0.70803000  0.67163000  1.0 -0.5328772457
O  O12  1  0.29125000  0.73464000  0.69382000  1.0 -0.5219536813
O  O13  1  0.41216000  0.20803000  0.17163000  1.0 -0.5328772457
O  O14  1  0.20875000  0.23464000  0.19382000  1.0 -0.5219536813
O  O15  1  0.08784000  0.70803000  0.82837000  1.0 -0.5328772457
O  O16  1  0.29125000  0.73464000  0.80618000  1.0 -0.5219536813
