# DDEC6 charges by PACMAN v1.1 (https://github.com/mtap-research/PACMAN-charge/)
data_RASNIL_ASR_pacman
_symmetry_space_group_name_H-M   'P 1'
_cell_length_a   9.88730000
_cell_length_b   13.80800000
_cell_length_c   25.47400000
_cell_angle_alpha   90.00000000
_cell_angle_beta   90.00000000
_cell_angle_gamma   90.00000000
_symmetry_Int_Tables_number   1
_chemical_formula_structural   CuH14C25(NO)4
_chemical_formula_sum   'Cu4 H56 C100 N16 O16'
_cell_volume   3477.80825940
_cell_formula_units_Z   4
loop_
 _symmetry_equiv_pos_site_id
 _symmetry_equiv_pos_as_xyz
  1  'x, y, z'
loop_
 _atom_site_type_symbol
 _atom_site_label
 _atom_site_symmetry_multiplicity
 _atom_site_fract_x
 _atom_site_fract_y
 _atom_site_fract_z
 _atom_site_occupancy
 _atom_site_charge
Cu  Cu1  1  0.12978000  0.77311000  0.25000000  1.0 0.5425671662
Cu  Cu2  1  0.37022000  0.27311000  0.75000000  1.0 0.5425671662
Cu  Cu3  1  0.87022000  0.22689000  0.75000000  1.0 0.5425671662
Cu  Cu4  1  0.62978000  0.72689000  0.25000000  1.0 0.5425671662
H  H1  1  0.56020000  0.56590000  0.83810000  1.0 0.1433421423
H  H2  1  0.28930000  0.35800000  0.86360000  1.0 0.1433421423
H  H3  1  0.43800000  0.64670000  0.03920000  1.0 0.1201242724
H  H4  1  0.34190000  0.68300000  0.11980000  1.0 0.1201242724
H  H5  1  0.99110000  0.57410000  0.07240000  1.0 0.1201242724
H  H6  1  0.09230000  0.53450000  0.99480000  1.0 0.1201242724
H  H7  1  0.93980000  0.06590000  0.16190000  1.0 0.1433421423
H  H8  1  0.21070000  0.85800000  0.13640000  1.0 0.1433421423
H  H9  1  0.06200000  0.14670000  0.96080000  1.0 0.1201242724
H  H10  1  0.15810000  0.18300000  0.88020000  1.0 0.1201242724
H  H11  1  0.50890000  0.07410000  0.92760000  1.0 0.1201242724
H  H12  1  0.40770000  0.03450000  0.00520000  1.0 0.1201242724
H  H13  1  0.56020000  0.56590000  0.66190000  1.0 0.1433421423
H  H14  1  0.28930000  0.35800000  0.63640000  1.0 0.1433421423
H  H15  1  0.43800000  0.64670000  0.46080000  1.0 0.1201242724
H  H16  1  0.34190000  0.68300000  0.38020000  1.0 0.1201242724
H  H17  1  0.99110000  0.57410000  0.42760000  1.0 0.1201242724
H  H18  1  0.09230000  0.53450000  0.50520000  1.0 0.1201242724
H  H19  1  0.93980000  0.06590000  0.33810000  1.0 0.1433421423
H  H20  1  0.21070000  0.85800000  0.36360000  1.0 0.1433421423
H  H21  1  0.06200000  0.14670000  0.53920000  1.0 0.1201242724
H  H22  1  0.15810000  0.18300000  0.61980000  1.0 0.1201242724
H  H23  1  0.50890000  0.07410000  0.57240000  1.0 0.1201242724
H  H24  1  0.40770000  0.03450000  0.49480000  1.0 0.1201242724
H  H25  1  0.65870000  0.49310000  0.75000000  1.0 0.1494057302
H  H26  1  0.64670000  0.37940000  0.75000000  1.0 0.1613230978
H  H27  1  0.84130000  0.99310000  0.25000000  1.0 0.1494057302
H  H28  1  0.85330000  0.87940000  0.25000000  1.0 0.1613230978
H  H29  1  0.43980000  0.43410000  0.33810000  1.0 0.1433421423
H  H30  1  0.71070000  0.64200000  0.36360000  1.0 0.1433421423
H  H31  1  0.56200000  0.35330000  0.53920000  1.0 0.1201242724
H  H32  1  0.65810000  0.31700000  0.61980000  1.0 0.1201242724
H  H33  1  0.00890000  0.42590000  0.57240000  1.0 0.1201242724
H  H34  1  0.90770000  0.46550000  0.49480000  1.0 0.1201242724
H  H35  1  0.06020000  0.93410000  0.66190000  1.0 0.1433421423
H  H36  1  0.78930000  0.14200000  0.63640000  1.0 0.1433421423
H  H37  1  0.93800000  0.85330000  0.46080000  1.0 0.1201242724
H  H38  1  0.84190000  0.81700000  0.38020000  1.0 0.1201242724
H  H39  1  0.49110000  0.92590000  0.42760000  1.0 0.1201242724
H  H40  1  0.59230000  0.96550000  0.50520000  1.0 0.1201242724
H  H41  1  0.43980000  0.43410000  0.16190000  1.0 0.1433421423
H  H42  1  0.71070000  0.64200000  0.13640000  1.0 0.1433421423
H  H43  1  0.56200000  0.35330000  0.96080000  1.0 0.1201242724
H  H44  1  0.65810000  0.31700000  0.88020000  1.0 0.1201242724
H  H45  1  0.00890000  0.42590000  0.92760000  1.0 0.1201242724
H  H46  1  0.90770000  0.46550000  0.00520000  1.0 0.1201242724
H  H47  1  0.06020000  0.93410000  0.83810000  1.0 0.1433421423
H  H48  1  0.78930000  0.14200000  0.86360000  1.0 0.1433421423
H  H49  1  0.93800000  0.85330000  0.03920000  1.0 0.1201242724
H  H50  1  0.84190000  0.81700000  0.11980000  1.0 0.1201242724
H  H51  1  0.49110000  0.92590000  0.07240000  1.0 0.1201242724
H  H52  1  0.59230000  0.96550000  0.99480000  1.0 0.1201242724
H  H53  1  0.34130000  0.50690000  0.25000000  1.0 0.1494057302
H  H54  1  0.35330000  0.62060000  0.25000000  1.0 0.1613230978
H  H55  1  0.15870000  0.00690000  0.75000000  1.0 0.1494057302
H  H56  1  0.14670000  0.12060000  0.75000000  1.0 0.1613230978
C  C1  1  0.50680000  0.51070000  0.83540000  1.0 -0.1166434406
C  C2  1  0.40880000  0.47970000  0.87020000  1.0 0.0404234317
C  C3  1  0.35810000  0.39490000  0.84879000  1.0 -0.0121261099
C  C4  1  0.37040000  0.52120000  0.91990000  1.0 -0.0637758846
C  C5  1  0.33230000  0.54920000  0.96070000  1.0 -0.0841212484
C  C6  1  0.27450000  0.58030000  0.01010000  1.0 0.1318136279
C  C7  1  0.34910000  0.62890000  0.04630000  1.0 -0.1573478903
C  C8  1  0.28980000  0.65170000  0.09460000  1.0 -0.0983642812
C  C9  1  0.15940000  0.63010000  0.10620000  1.0 -0.0121261099
C  C10  1  0.08250000  0.58700000  0.06720000  1.0 -0.0983642812
C  C11  1  0.14450000  0.56380000  0.02070000  1.0 -0.1417865033
C  C12  1  0.09700000  0.65530000  0.15810000  1.0 0.5425671662
C  C13  1  0.99320000  0.01070000  0.16460000  1.0 -0.1166434406
C  C14  1  0.09120000  0.97970000  0.12980000  1.0 0.0404234317
C  C15  1  0.14190000  0.89490000  0.15121000  1.0 -0.0121261099
C  C16  1  0.12960000  0.02120000  0.08010000  1.0 -0.0637758846
C  C17  1  0.16770000  0.04920000  0.03930000  1.0 -0.0841212484
C  C18  1  0.22550000  0.08030000  0.98990000  1.0 0.1318136279
C  C19  1  0.15090000  0.12890000  0.95370000  1.0 -0.1573478903
C  C20  1  0.21020000  0.15170000  0.90540000  1.0 -0.0983642812
C  C21  1  0.34060000  0.13010000  0.89380000  1.0 -0.0121261099
C  C22  1  0.41750000  0.08700000  0.93280000  1.0 -0.0983642812
C  C23  1  0.35550000  0.06380000  0.97930000  1.0 -0.1417865033
C  C24  1  0.40300000  0.15530000  0.84190000  1.0 0.5425671662
C  C25  1  0.50680000  0.51070000  0.66460000  1.0 -0.1166434406
C  C26  1  0.40880000  0.47970000  0.62980000  1.0 0.0404234317
C  C27  1  0.35810000  0.39490000  0.65121000  1.0 -0.0121261099
C  C28  1  0.37040000  0.52120000  0.58010000  1.0 -0.0637758846
C  C29  1  0.33230000  0.54920000  0.53930000  1.0 -0.0841212484
C  C30  1  0.27450000  0.58030000  0.48990000  1.0 0.1318136279
C  C31  1  0.34910000  0.62890000  0.45370000  1.0 -0.1573478903
C  C32  1  0.28980000  0.65170000  0.40540000  1.0 -0.0983642812
C  C33  1  0.15940000  0.63010000  0.39380000  1.0 -0.0121261099
C  C34  1  0.08250000  0.58700000  0.43280000  1.0 -0.0983642812
C  C35  1  0.14450000  0.56380000  0.47930000  1.0 -0.1417865033
C  C36  1  0.09700000  0.65530000  0.34190000  1.0 0.5425671662
C  C37  1  0.99320000  0.01070000  0.33540000  1.0 -0.1166434406
C  C38  1  0.09120000  0.97970000  0.37020000  1.0 0.0404234317
C  C39  1  0.14190000  0.89490000  0.34879000  1.0 -0.0121261099
C  C40  1  0.12960000  0.02120000  0.41990000  1.0 -0.0637758846
C  C41  1  0.16770000  0.04920000  0.46070000  1.0 -0.0841212484
C  C42  1  0.22550000  0.08030000  0.51010000  1.0 0.1318136279
C  C43  1  0.15090000  0.12890000  0.54630000  1.0 -0.1573478903
C  C44  1  0.21020000  0.15170000  0.59460000  1.0 -0.0983642812
C  C45  1  0.34060000  0.13010000  0.60620000  1.0 -0.0121261099
C  C46  1  0.41750000  0.08700000  0.56720000  1.0 -0.0983642812
C  C47  1  0.35550000  0.06380000  0.52070000  1.0 -0.1417865033
C  C48  1  0.40300000  0.15530000  0.65810000  1.0 0.5425671662
C  C49  1  0.59550000  0.43940000  0.75000000  1.0 -0.0856993894
C  C50  1  0.90450000  0.93940000  0.25000000  1.0 -0.0856993894
C  C51  1  0.49320000  0.48930000  0.33540000  1.0 -0.1166434406
C  C52  1  0.59120000  0.52030000  0.37020000  1.0 0.0404234317
C  C53  1  0.64190000  0.60510000  0.34879000  1.0 -0.0121261099
C  C54  1  0.62960000  0.47880000  0.41990000  1.0 -0.0637758846
C  C55  1  0.66770000  0.45080000  0.46070000  1.0 -0.0841212484
C  C56  1  0.72550000  0.41970000  0.51010000  1.0 0.1318136279
C  C57  1  0.65090000  0.37110000  0.54630000  1.0 -0.1573478903
C  C58  1  0.71020000  0.34830000  0.59460000  1.0 -0.0983642812
C  C59  1  0.84060000  0.36990000  0.60620000  1.0 -0.0121261099
C  C60  1  0.91750000  0.41300000  0.56720000  1.0 -0.0983642812
C  C61  1  0.85550000  0.43620000  0.52070000  1.0 -0.1417865033
C  C62  1  0.90300000  0.34470000  0.65810000  1.0 0.5425671662
C  C63  1  0.00680000  0.98930000  0.66460000  1.0 -0.1166434406
C  C64  1  0.90880000  0.02030000  0.62980000  1.0 0.0404234317
C  C65  1  0.85810000  0.10510000  0.65121000  1.0 -0.0121261099
C  C66  1  0.87040000  0.97880000  0.58010000  1.0 -0.0637758846
C  C67  1  0.83230000  0.95080000  0.53930000  1.0 -0.0841212484
C  C68  1  0.77450000  0.91970000  0.48990000  1.0 0.1318136279
C  C69  1  0.84910000  0.87110000  0.45370000  1.0 -0.1573478903
C  C70  1  0.78980000  0.84830000  0.40540000  1.0 -0.0983642812
C  C71  1  0.65940000  0.86990000  0.39380000  1.0 -0.0121261099
C  C72  1  0.58250000  0.91300000  0.43280000  1.0 -0.0983642812
C  C73  1  0.64450000  0.93620000  0.47930000  1.0 -0.1417865033
C  C74  1  0.59700000  0.84470000  0.34190000  1.0 0.5425671662
C  C75  1  0.49320000  0.48930000  0.16460000  1.0 -0.1166434406
C  C76  1  0.59120000  0.52030000  0.12980000  1.0 0.0404234317
C  C77  1  0.64190000  0.60510000  0.15121000  1.0 -0.0121261099
C  C78  1  0.62960000  0.47880000  0.08010000  1.0 -0.0637758846
C  C79  1  0.66770000  0.45080000  0.03930000  1.0 -0.0841212484
C  C80  1  0.72550000  0.41970000  0.98990000  1.0 0.1318136279
C  C81  1  0.65090000  0.37110000  0.95370000  1.0 -0.1573478903
C  C82  1  0.71020000  0.34830000  0.90540000  1.0 -0.0983642812
C  C83  1  0.84060000  0.36990000  0.89380000  1.0 -0.0121261099
C  C84  1  0.91750000  0.41300000  0.93280000  1.0 -0.0983642812
C  C85  1  0.85550000  0.43620000  0.97930000  1.0 -0.1417865033
C  C86  1  0.90300000  0.34470000  0.84190000  1.0 0.5425671662
C  C87  1  0.00680000  0.98930000  0.83540000  1.0 -0.1166434406
C  C88  1  0.90880000  0.02030000  0.87020000  1.0 0.0404234317
C  C89  1  0.85810000  0.10510000  0.84879000  1.0 -0.0121261099
C  C90  1  0.87040000  0.97880000  0.91990000  1.0 -0.0637758846
C  C91  1  0.83230000  0.95080000  0.96070000  1.0 -0.0841212484
C  C92  1  0.77450000  0.91970000  0.01010000  1.0 0.1318136279
C  C93  1  0.84910000  0.87110000  0.04630000  1.0 -0.1573478903
C  C94  1  0.78980000  0.84830000  0.09460000  1.0 -0.0983642812
C  C95  1  0.65940000  0.86990000  0.10620000  1.0 -0.0121261099
C  C96  1  0.58250000  0.91300000  0.06720000  1.0 -0.0983642812
C  C97  1  0.64450000  0.93620000  0.02070000  1.0 -0.1417865033
C  C98  1  0.59700000  0.84470000  0.15810000  1.0 0.5425671662
C  C99  1  0.40450000  0.56060000  0.25000000  1.0 -0.0856993894
C  C100  1  0.09550000  0.06060000  0.75000000  1.0 -0.0856993894
N  N1  1  0.42010000  0.37370000  0.80475000  1.0 -0.1814315493
N  N2  1  0.50930000  0.44400000  0.79640000  1.0 0.1872111162
N  N3  1  0.07990000  0.87370000  0.19525000  1.0 -0.1814315493
N  N4  1  0.99070000  0.94400000  0.20360000  1.0 0.1872111162
N  N5  1  0.42010000  0.37370000  0.69525000  1.0 -0.1814315493
N  N6  1  0.50930000  0.44400000  0.70360000  1.0 0.1872111162
N  N7  1  0.07990000  0.87370000  0.30475000  1.0 -0.1814315493
N  N8  1  0.99070000  0.94400000  0.29640000  1.0 0.1872111162
N  N9  1  0.57990000  0.62630000  0.30475000  1.0 -0.1814315493
N  N10  1  0.49070000  0.55600000  0.29640000  1.0 0.1872111162
N  N11  1  0.92010000  0.12630000  0.69525000  1.0 -0.1814315493
N  N12  1  0.00930000  0.05600000  0.70360000  1.0 0.1872111162
N  N13  1  0.57990000  0.62630000  0.19525000  1.0 -0.1814315493
N  N14  1  0.49070000  0.55600000  0.20360000  1.0 0.1872111162
N  N15  1  0.92010000  0.12630000  0.80475000  1.0 -0.1814315493
N  N16  1  0.00930000  0.05600000  0.79640000  1.0 0.1872111162
O  O1  1  0.17280000  0.68390000  0.19312000  1.0 -0.5236316497
O  O2  1  0.97050000  0.64710000  0.16106000  1.0 -0.5632760699
O  O3  1  0.32720000  0.18390000  0.80688000  1.0 -0.5236316497
O  O4  1  0.52950000  0.14710000  0.83894000  1.0 -0.5632760699
O  O5  1  0.17280000  0.68390000  0.30688000  1.0 -0.5236316497
O  O6  1  0.97050000  0.64710000  0.33894000  1.0 -0.5632760699
O  O7  1  0.32720000  0.18390000  0.69312000  1.0 -0.5236316497
O  O8  1  0.52950000  0.14710000  0.66106000  1.0 -0.5632760699
O  O9  1  0.82720000  0.31610000  0.69312000  1.0 -0.5236316497
O  O10  1  0.02950000  0.35290000  0.66106000  1.0 -0.5632760699
O  O11  1  0.67280000  0.81610000  0.30688000  1.0 -0.5236316497
O  O12  1  0.47050000  0.85290000  0.33894000  1.0 -0.5632760699
O  O13  1  0.82720000  0.31610000  0.80688000  1.0 -0.5236316497
O  O14  1  0.02950000  0.35290000  0.83894000  1.0 -0.5632760699
O  O15  1  0.67280000  0.81610000  0.19312000  1.0 -0.5236316497
O  O16  1  0.47050000  0.85290000  0.16106000  1.0 -0.5632760699
