# DDEC6 charges by PACMAN v1.1 (https://github.com/mtap-research/PACMAN-charge/)
data_RATFEA02_FSR_pacman
_symmetry_space_group_name_H-M   'P 1'
_cell_length_a   7.18780000
_cell_length_b   13.92590000
_cell_length_c   16.46880000
_cell_angle_alpha   105.21800000
_cell_angle_beta   97.88800000
_cell_angle_gamma   89.88100000
_symmetry_Int_Tables_number   1
_chemical_formula_structural   FeNiH8(C3N)6
_chemical_formula_sum   'Fe2 Ni2 H16 C36 N12'
_cell_volume   1574.62089887
_cell_formula_units_Z   2
loop_
 _symmetry_equiv_pos_site_id
 _symmetry_equiv_pos_as_xyz
  1  'x, y, z'
loop_
 _atom_site_type_symbol
 _atom_site_label
 _atom_site_symmetry_multiplicity
 _atom_site_fract_x
 _atom_site_fract_y
 _atom_site_fract_z
 _atom_site_occupancy
 _atom_site_charge
Fe  Fe1  1  0.00000000  0.00000000  0.00000000  1.0 0.5829541695
Fe  Fe2  1  0.00000000  0.50000000  0.00000000  1.0 0.769872011
Ni  Ni1  1  0.50889000  0.77103000  0.03280000  1.0 0.0989914735
Ni  Ni2  1  0.49111000  0.22897000  0.96720000  1.0 0.0989914735
H  H1  1  0.05450000  0.99160000  0.17890000  1.0 0.1298798633
H  H2  1  0.06340000  0.09250000  0.31350000  1.0 0.1298798633
H  H3  1  0.00750000  0.32640000  0.21380000  1.0 0.1235382867
H  H4  1  0.00290000  0.22060000  0.08290000  1.0 0.1298798633
H  H5  1  0.25520000  0.51390000  0.86410000  1.0 0.1095104677
H  H6  1  0.26020000  0.48360000  0.72100000  1.0 0.1298798633
H  H7  1  0.71540000  0.40080000  0.68320000  1.0 0.1400567603
H  H8  1  0.72750000  0.43390000  0.82740000  1.0 0.1095104677
H  H9  1  0.94550000  0.00840000  0.82110000  1.0 0.1298798633
H  H10  1  0.93660000  0.90750000  0.68650000  1.0 0.1298798633
H  H11  1  0.99250000  0.67360000  0.78620000  1.0 0.1235382867
H  H12  1  0.99710000  0.77940000  0.91710000  1.0 0.1298798633
H  H13  1  0.74480000  0.48610000  0.13590000  1.0 0.1095104677
H  H14  1  0.73980000  0.51640000  0.27900000  1.0 0.1298798633
H  H15  1  0.28460000  0.59920000  0.31680000  1.0 0.1400567603
H  H16  1  0.27250000  0.56610000  0.17260000  1.0 0.1095104677
C  C1  1  0.04370000  0.05970000  0.18590000  1.0 0.0907287808
C  C2  1  0.04990000  0.12010000  0.26740000  1.0 -0.1706077444
C  C3  1  0.03600000  0.22200000  0.28020000  1.0 0.1620204759
C  C4  1  0.01720000  0.25840000  0.20810000  1.0 -0.179105262
C  C5  1  0.01310000  0.19450000  0.12970000  1.0 0.0619742659
C  C6  1  0.03000000  0.28540000  0.36380000  1.0 -0.0707544635
C  C7  1  0.01750000  0.33150000  0.43480000  1.0 -0.0513446775
C  C8  1  0.69950000  0.86410000  0.03410000  1.0 0.0676231638
C  C9  1  0.32150000  0.67640000  0.02850000  1.0 0.0514266522
C  C10  1  0.68140000  0.66960000  0.01450000  1.0 0.0514266522
C  C11  1  0.32600000  0.86800000  0.04060000  1.0 0.0676231638
C  C12  1  0.14510000  0.49060000  0.82730000  1.0 0.0907287808
C  C13  1  0.14990000  0.47130000  0.74080000  1.0 -0.1852859694
C  C14  1  0.99200000  0.43390000  0.68420000  1.0 0.1709142936
C  C15  1  0.82800000  0.42240000  0.71860000  1.0 -0.179105262
C  C16  1  0.83650000  0.44380000  0.80560000  1.0 0.0907287808
C  C17  1  0.99390000  0.40570000  0.59360000  1.0 -0.0596106059
C  C18  1  0.00460000  0.37490000  0.51900000  1.0 -0.0513446775
C  C19  1  0.95630000  0.94030000  0.81410000  1.0 0.0907287808
C  C20  1  0.95010000  0.87990000  0.73260000  1.0 -0.1640785324
C  C21  1  0.96400000  0.77800000  0.71980000  1.0 0.1620204759
C  C22  1  0.98280000  0.74160000  0.79190000  1.0 -0.1706077444
C  C23  1  0.98690000  0.80550000  0.87030000  1.0 0.0619742659
C  C24  1  0.97000000  0.71460000  0.63620000  1.0 -0.0707544635
C  C25  1  0.98250000  0.66850000  0.56520000  1.0 -0.0513446775
C  C26  1  0.30050000  0.13590000  0.96590000  1.0 0.0676231638
C  C27  1  0.67850000  0.32360000  0.97150000  1.0 0.0514266522
C  C28  1  0.31860000  0.33040000  0.98550000  1.0 0.0514266522
C  C29  1  0.67400000  0.13200000  0.95940000  1.0 0.0676231638
C  C30  1  0.85490000  0.50940000  0.17270000  1.0 0.0907287808
C  C31  1  0.85010000  0.52870000  0.25920000  1.0 -0.179105262
C  C32  1  0.00800000  0.56610000  0.31580000  1.0 0.1709142936
C  C33  1  0.17200000  0.57760000  0.28140000  1.0 -0.179105262
C  C34  1  0.16350000  0.55620000  0.19440000  1.0 0.0907287808
C  C35  1  0.00610000  0.59430000  0.40640000  1.0 -0.0596106059
C  C36  1  0.99540000  0.62510000  0.48100000  1.0 -0.0513446775
N  N1  1  0.02320000  0.09340000  0.11640000  1.0 -0.152550264
N  N2  1  0.81540000  0.91650000  0.02750000  1.0 -0.3173435766
N  N3  1  0.20800000  0.61710000  0.02220000  1.0 -0.3677189636
N  N4  1  0.78610000  0.60610000  0.00290000  1.0 -0.3758380401
N  N5  1  0.99200000  0.47790000  0.86070000  1.0 -0.2153856444
N  N6  1  0.20580000  0.92070000  0.03430000  1.0 -0.3173435766
N  N7  1  0.97680000  0.90660000  0.88360000  1.0 -0.152550264
N  N8  1  0.18460000  0.08350000  0.97250000  1.0 -0.3173435766
N  N9  1  0.79200000  0.38290000  0.97780000  1.0 -0.3677189636
N  N10  1  0.21390000  0.39390000  0.99710000  1.0 -0.3758380401
N  N11  1  0.00800000  0.52210000  0.13930000  1.0 -0.2153856444
N  N12  1  0.79420000  0.07930000  0.96570000  1.0 -0.3173435766
