# DDEC6 charges by PACMAN v1.1 (https://github.com/mtap-research/PACMAN-charge/)
data_RATFEA_FSR_pacman
_symmetry_space_group_name_H-M   'P 1'
_cell_length_a   7.04040000
_cell_length_b   13.76790000
_cell_length_c   16.49020000
_cell_angle_alpha   106.94600000
_cell_angle_beta   96.41300000
_cell_angle_gamma   90.00900000
_symmetry_Int_Tables_number   1
_chemical_formula_structural   FeNiH8(C3N)6
_chemical_formula_sum   'Fe2 Ni2 H16 C36 N12'
_cell_volume   1518.54898162
_cell_formula_units_Z   2
loop_
 _symmetry_equiv_pos_site_id
 _symmetry_equiv_pos_as_xyz
  1  'x, y, z'
loop_
 _atom_site_type_symbol
 _atom_site_label
 _atom_site_symmetry_multiplicity
 _atom_site_fract_x
 _atom_site_fract_y
 _atom_site_fract_z
 _atom_site_occupancy
 _atom_site_charge
Fe  Fe1  1  0.00000000  0.00000000  0.00000000  1.0 0.582592626
Fe  Fe2  1  0.00000000  0.50000000  0.00000000  1.0 0.6003568964
Ni  Ni1  1  0.50643000  0.76226000  0.02967000  1.0 0.0886830808
Ni  Ni2  1  0.49357000  0.23774000  0.97033000  1.0 0.0886830808
H  H1  1  0.94600000  0.01100000  0.82270000  1.0 0.1288545972
H  H2  1  0.92790000  0.90820000  0.68540000  1.0 0.1368083031
H  H3  1  0.99020000  0.66790000  0.77620000  1.0 0.1288545972
H  H4  1  0.00000000  0.77720000  0.91160000  1.0 0.1225646184
H  H5  1  0.73040000  0.49930000  0.12630000  1.0 0.1225646184
H  H6  1  0.72900000  0.53170000  0.27090000  1.0 0.1288545972
H  H7  1  0.29470000  0.59060000  0.30220000  1.0 0.1368083031
H  H8  1  0.28450000  0.55330000  0.15600000  1.0 0.1225646184
H  H9  1  0.05400000  0.98900000  0.17730000  1.0 0.1288545972
H  H10  1  0.07210000  0.09180000  0.31460000  1.0 0.1368083031
H  H11  1  0.00980000  0.33210000  0.22380000  1.0 0.1288545972
H  H12  1  0.00000000  0.22280000  0.08840000  1.0 0.1225646184
H  H13  1  0.26960000  0.50070000  0.87370000  1.0 0.1225646184
H  H14  1  0.27100000  0.46830000  0.72910000  1.0 0.1288545972
H  H15  1  0.70530000  0.40940000  0.69780000  1.0 0.1368083031
H  H16  1  0.71550000  0.44670000  0.84400000  1.0 0.1225646184
C  C1  1  0.95500000  0.94120000  0.81320000  1.0 0.0886830808
C  C2  1  0.94540000  0.87990000  0.73040000  1.0 -0.1580818696
C  C3  1  0.96180000  0.77510000  0.71400000  1.0 0.1618171827
C  C4  1  0.98140000  0.73740000  0.78410000  1.0 -0.1809038797
C  C5  1  0.98770000  0.80370000  0.86560000  1.0 0.0826102944
C  C6  1  0.96530000  0.71140000  0.62830000  1.0 -0.0845687008
C  C7  1  0.97670000  0.66666667  0.55530000  1.0 -0.0417786977
C  C8  1  0.69790000  0.85760000  0.03150000  1.0 0.0532964421
C  C9  1  0.68780000  0.33340000  0.97530000  1.0 0.0332683204
C  C10  1  0.68600000  0.66050000  0.01370000  1.0 0.0332683204
C  C11  1  0.32250000  0.86200000  0.03590000  1.0 0.0532964421
C  C12  1  0.84490000  0.51770000  0.16180000  1.0 0.0721527272
C  C13  1  0.84290000  0.53760000  0.24880000  1.0 -0.1809038797
C  C14  1  0.01180000  0.56650000  0.30310000  1.0 0.1618171827
C  C15  1  0.17900000  0.57220000  0.26760000  1.0 -0.1809038797
C  C16  1  0.17120000  0.55000000  0.17940000  1.0 0.0826102944
C  C17  1  0.00820000  0.59330000  0.39400000  1.0 -0.0726696207
C  C18  1  0.99370000  0.62300000  0.46920000  1.0 -0.0417786977
C  C19  1  0.04500000  0.05880000  0.18680000  1.0 0.0826102944
C  C20  1  0.05460000  0.12010000  0.26960000  1.0 -0.1580818696
C  C21  1  0.03820000  0.22490000  0.28600000  1.0 0.1618171827
C  C22  1  0.01860000  0.26260000  0.21590000  1.0 -0.1809038797
C  C23  1  0.01230000  0.19630000  0.13440000  1.0 0.0826102944
C  C24  1  0.03470000  0.28860000  0.37170000  1.0 -0.0845687008
C  C25  1  0.02330000  0.33333333  0.44470000  1.0 -0.0417786977
C  C26  1  0.30210000  0.14240000  0.96850000  1.0 0.0532964421
C  C27  1  0.31220000  0.66666667  0.02470000  1.0 0.0332683204
C  C28  1  0.31400000  0.33950000  0.98630000  1.0 0.0332683204
C  C29  1  0.67750000  0.13800000  0.96410000  1.0 0.0532964421
C  C30  1  0.15510000  0.48230000  0.83820000  1.0 0.0721527272
C  C31  1  0.15710000  0.46240000  0.75120000  1.0 -0.1809038797
C  C32  1  0.98820000  0.43350000  0.69690000  1.0 0.1618171827
C  C33  1  0.82100000  0.42780000  0.73240000  1.0 -0.1809038797
C  C34  1  0.82880000  0.45000000  0.82060000  1.0 0.0826102944
C  C35  1  0.99180000  0.40670000  0.60600000  1.0 -0.0726696207
C  C36  1  0.00630000  0.37700000  0.53080000  1.0 -0.0417786977
N  N1  1  0.97690000  0.90510000  0.88130000  1.0 -0.1580818696
N  N2  1  0.81260000  0.91350000  0.02620000  1.0 -0.3202120318
N  N3  1  0.00760000  0.52390000  0.12600000  1.0 -0.1472967668
N  N4  1  0.79940000  0.59880000  0.00530000  1.0 -0.3202120318
N  N5  1  0.80660000  0.39270000  0.98180000  1.0 -0.3202120318
N  N6  1  0.20630000  0.91830000  0.03020000  1.0 -0.3202120318
N  N7  1  0.02310000  0.09490000  0.11870000  1.0 -0.1580818696
N  N8  1  0.18740000  0.08650000  0.97380000  1.0 -0.3202120318
N  N9  1  0.99240000  0.47610000  0.87400000  1.0 -0.1472967668
N  N10  1  0.20060000  0.40120000  0.99470000  1.0 -0.3202120318
N  N11  1  0.19340000  0.60730000  0.01820000  1.0 -0.3202120318
N  N12  1  0.79370000  0.08170000  0.96980000  1.0 -0.3202120318
