# DDEC6 charges by PACMAN v1.1 (https://github.com/mtap-research/PACMAN-charge/)
data_RATFEA01_ASR_pacman
_symmetry_space_group_name_H-M   'P 1'
_cell_length_a   7.32620000
_cell_length_b   14.14390000
_cell_length_c   16.38460000
_cell_angle_alpha   103.60600000
_cell_angle_beta   96.50400000
_cell_angle_gamma   89.94200000
_symmetry_Int_Tables_number   1
_chemical_formula_structural   FeNiH8(C3N)6
_chemical_formula_sum   'Fe2 Ni2 H16 C36 N12'
_cell_volume   1638.94500915
_cell_formula_units_Z   2
loop_
 _symmetry_equiv_pos_site_id
 _symmetry_equiv_pos_as_xyz
  1  'x, y, z'
loop_
 _atom_site_type_symbol
 _atom_site_label
 _atom_site_symmetry_multiplicity
 _atom_site_fract_x
 _atom_site_fract_y
 _atom_site_fract_z
 _atom_site_occupancy
 _atom_site_charge
Fe  Fe1  1  0.00000000  0.00000000  0.00000000  1.0 0.7629448396
Fe  Fe2  1  0.00000000  0.50000000  0.00000000  1.0 0.7655467016
Ni  Ni1  1  0.50665000  0.76156000  0.03076000  1.0 0.1203625373
Ni  Ni2  1  0.49335000  0.23844000  0.96924000  1.0 0.1203625373
H  H1  1  0.05690000  0.00450000  0.18880000  1.0 0.1203625373
H  H2  1  0.06710000  0.10360000  0.32090000  1.0 0.1368288544
H  H3  1  0.99900000  0.33120000  0.21600000  1.0 0.1203625373
H  H4  1  0.99160000  0.22530000  0.08550000  1.0 0.1084977112
H  H5  1  0.25870000  0.50650000  0.86160000  1.0 0.1084977112
H  H6  1  0.26530000  0.47910000  0.71730000  1.0 0.1291436923
H  H7  1  0.72630000  0.40940000  0.68660000  1.0 0.1368288544
H  H8  1  0.73360000  0.44210000  0.83190000  1.0 0.1084977112
H  H9  1  0.94310000  0.99550000  0.81120000  1.0 0.1203625373
H  H10  1  0.93290000  0.89640000  0.67910000  1.0 0.1368288544
H  H11  1  0.00100000  0.66880000  0.78400000  1.0 0.1203625373
H  H12  1  0.00840000  0.77470000  0.91450000  1.0 0.1084977112
H  H13  1  0.74130000  0.49350000  0.13840000  1.0 0.1084977112
H  H14  1  0.73470000  0.52090000  0.28270000  1.0 0.1291436923
H  H15  1  0.27370000  0.59060000  0.31340000  1.0 0.1368288544
H  H16  1  0.26640000  0.55790000  0.16810000  1.0 0.1084977112
C  C1  1  0.04460000  0.07110000  0.19430000  1.0 0.0982914726
C  C2  1  0.04980000  0.13020000  0.27380000  1.0 -0.1616878736
C  C3  1  0.02920000  0.22960000  0.28410000  1.0 0.1724340466
C  C4  1  0.00970000  0.26480000  0.21200000  1.0 -0.1795823552
C  C5  1  0.00620000  0.20060000  0.13360000  1.0 0.0982914726
C  C6  1  0.02740000  0.29050000  0.36790000  1.0 -0.0723801928
C  C7  1  0.02090000  0.33550000  0.43830000  1.0 -0.0492484582
C  C8  1  0.68990000  0.85440000  0.03660000  1.0 0.0702893732
C  C9  1  0.32080000  0.66910000  0.02370000  1.0 0.0524880604
C  C10  1  0.67840000  0.66300000  0.01240000  1.0 0.0597831567
C  C11  1  0.32980000  0.85900000  0.04200000  1.0 0.0702893732
C  C12  1  0.15040000  0.48740000  0.82590000  1.0 0.0889619176
C  C13  1  0.15690000  0.46950000  0.73920000  1.0 -0.1795823552
C  C14  1  0.99530000  0.43660000  0.68560000  1.0 0.1611331624
C  C15  1  0.83630000  0.42850000  0.72090000  1.0 -0.1795823552
C  C16  1  0.84150000  0.44910000  0.80870000  1.0 0.0982914726
C  C17  1  0.99690000  0.41050000  0.59490000  1.0 -0.0586445874
C  C18  1  0.00780000  0.37900000  0.52210000  1.0 -0.0492484582
C  C19  1  0.95540000  0.92890000  0.80570000  1.0 0.0982914726
C  C20  1  0.95020000  0.86980000  0.72620000  1.0 -0.1616878736
C  C21  1  0.97080000  0.77040000  0.71590000  1.0 0.1724340466
C  C22  1  0.99030000  0.73520000  0.78800000  1.0 -0.1795823552
C  C23  1  0.99380000  0.79940000  0.86640000  1.0 0.0982914726
C  C24  1  0.97260000  0.70950000  0.63210000  1.0 -0.0723801928
C  C25  1  0.97910000  0.66450000  0.56170000  1.0 -0.0492484582
C  C26  1  0.31010000  0.14560000  0.96340000  1.0 0.0702893732
C  C27  1  0.67920000  0.33090000  0.97630000  1.0 0.0524880604
C  C28  1  0.32160000  0.33700000  0.98760000  1.0 0.0597831567
C  C29  1  0.67020000  0.14100000  0.95800000  1.0 0.0702893732
C  C30  1  0.84960000  0.51260000  0.17410000  1.0 0.0889619176
C  C31  1  0.84310000  0.53050000  0.26080000  1.0 -0.1795823552
C  C32  1  0.00470000  0.56340000  0.31440000  1.0 0.1611331624
C  C33  1  0.16370000  0.57150000  0.27910000  1.0 -0.1795823552
C  C34  1  0.15850000  0.55090000  0.19130000  1.0 0.0982914726
C  C35  1  0.00310000  0.58950000  0.40510000  1.0 -0.0586445874
C  C36  1  0.99220000  0.62100000  0.47790000  1.0 -0.0492484582
N  N1  1  0.02280000  0.10460000  0.12410000  1.0 -0.2100783366
N  N2  1  0.80440000  0.91040000  0.03650000  1.0 -0.3688929307
N  N3  1  0.20630000  0.61240000  0.01800000  1.0 -0.3626058924
N  N4  1  0.78670000  0.60380000  0.00230000  1.0 -0.3688929307
N  N5  1  0.99510000  0.47860000  0.86100000  1.0 -0.2208488065
N  N6  1  0.22080000  0.91600000  0.04230000  1.0 -0.3626058924
N  N7  1  0.97720000  0.89540000  0.87590000  1.0 -0.2100783366
N  N8  1  0.19560000  0.08960000  0.96350000  1.0 -0.3688929307
N  N9  1  0.79370000  0.38760000  0.98200000  1.0 -0.3626058924
N  N10  1  0.21330000  0.39620000  0.99770000  1.0 -0.3688929307
N  N11  1  0.00490000  0.52140000  0.13900000  1.0 -0.2208488065
N  N12  1  0.77920000  0.08400000  0.95770000  1.0 -0.3626058924
