# DDEC6 charges by PACMAN v1.1 (https://github.com/mtap-research/PACMAN-charge/)
data_RATFOK01_ASR_pacman
_symmetry_space_group_name_H-M   'P 1'
_cell_length_a   7.37890000
_cell_length_b   14.14030000
_cell_length_c   16.39350000
_cell_angle_alpha   105.19100000
_cell_angle_beta   97.59400000
_cell_angle_gamma   89.93900000
_symmetry_Int_Tables_number   1
_chemical_formula_structural   FeH8Pd(C3N)6
_chemical_formula_sum   'Fe2 H16 Pd2 C36 N12'
_cell_volume   1635.24137796
_cell_formula_units_Z   2
loop_
 _symmetry_equiv_pos_site_id
 _symmetry_equiv_pos_as_xyz
  1  'x, y, z'
loop_
 _atom_site_type_symbol
 _atom_site_label
 _atom_site_symmetry_multiplicity
 _atom_site_fract_x
 _atom_site_fract_y
 _atom_site_fract_z
 _atom_site_occupancy
 _atom_site_charge
Fe  Fe1  1  0.00000000  0.00000000  0.00000000  1.0 0.5668273346
Fe  Fe2  1  0.00000000  0.50000000  0.00000000  1.0 0.7762834804
H  H1  1  0.95040000  0.00590000  0.82030000  1.0 0.1289327817
H  H2  1  0.93270000  0.90450000  0.68560000  1.0 0.1289327817
H  H3  1  0.99380000  0.67580000  0.78920000  1.0 0.1187609212
H  H4  1  0.00060000  0.78400000  0.92090000  1.0 0.1187609212
H  H5  1  0.74630000  0.48580000  0.13620000  1.0 0.1093555616
H  H6  1  0.74220000  0.51680000  0.28020000  1.0 0.1289327817
H  H7  1  0.26910000  0.59800000  0.31730000  1.0 0.1399418564
H  H8  1  0.26410000  0.56170000  0.17270000  1.0 0.1093555616
H  H9  1  0.04960000  0.99410000  0.17970000  1.0 0.1289327817
H  H10  1  0.06730000  0.09550000  0.31440000  1.0 0.1289327817
H  H11  1  0.00620000  0.32420000  0.21080000  1.0 0.1187609212
H  H12  1  0.99940000  0.21600000  0.07910000  1.0 0.1187609212
H  H13  1  0.25370000  0.51420000  0.86380000  1.0 0.1093555616
H  H14  1  0.25780000  0.48320000  0.71980000  1.0 0.1289327817
H  H15  1  0.73090000  0.40200000  0.68270000  1.0 0.1399418564
H  H16  1  0.73590000  0.43830000  0.82730000  1.0 0.1093555616
Pd  Pd1  1  0.50863000  0.77147000  0.03520000  1.0 0.1858779268
Pd  Pd2  1  0.49137000  0.22853000  0.96480000  1.0 0.1858779268
C  C1  1  0.95850000  0.93880000  0.81370000  1.0 0.0803413281
C  C2  1  0.95010000  0.87830000  0.73230000  1.0 -0.1636948361
C  C3  1  0.96790000  0.77750000  0.72040000  1.0 0.1589847022
C  C4  1  0.98520000  0.74260000  0.79390000  1.0 -0.1782602393
C  C5  1  0.98940000  0.80790000  0.87280000  1.0 0.0584288017
C  C6  1  0.97270000  0.71320000  0.63710000  1.0 -0.0744294001
C  C7  1  0.97910000  0.66650000  0.56520000  1.0 -0.0559010923
C  C8  1  0.31910000  0.87390000  0.04300000  1.0 0.0341875741
C  C9  1  0.68920000  0.66590000  0.01700000  1.0 0.0189389276
C  C10  1  0.31270000  0.67320000  0.03050000  1.0 0.0189389276
C  C11  1  0.70640000  0.86760000  0.03610000  1.0 0.0394591839
C  C12  1  0.85370000  0.50780000  0.17300000  1.0 0.0880427921
C  C13  1  0.84980000  0.52760000  0.25960000  1.0 -0.1782602393
C  C14  1  0.00480000  0.56330000  0.31580000  1.0 0.1589847022
C  C15  1  0.16080000  0.57500000  0.28150000  1.0 -0.1782602393
C  C16  1  0.15700000  0.55280000  0.19440000  1.0 0.0880427921
C  C17  1  0.00060000  0.59050000  0.40710000  1.0 -0.0559010923
C  C18  1  0.99280000  0.62310000  0.48150000  1.0 -0.0511925442
C  C19  1  0.04150000  0.06120000  0.18630000  1.0 0.0803413281
C  C20  1  0.04990000  0.12170000  0.26770000  1.0 -0.1636948361
C  C21  1  0.03210000  0.22250000  0.27960000  1.0 0.1589847022
C  C22  1  0.01480000  0.25740000  0.20610000  1.0 -0.1782602393
C  C23  1  0.01060000  0.19210000  0.12720000  1.0 0.0584288017
C  C24  1  0.02730000  0.28680000  0.36290000  1.0 -0.0744294001
C  C25  1  0.02090000  0.33350000  0.43480000  1.0 -0.0559010923
C  C26  1  0.68090000  0.12610000  0.95700000  1.0 0.0341875741
C  C27  1  0.31080000  0.33410000  0.98300000  1.0 0.0189389276
C  C28  1  0.68730000  0.32680000  0.96950000  1.0 0.0189389276
C  C29  1  0.29360000  0.13240000  0.96390000  1.0 0.0394591839
C  C30  1  0.14630000  0.49220000  0.82700000  1.0 0.0880427921
C  C31  1  0.15020000  0.47240000  0.74040000  1.0 -0.1782602393
C  C32  1  0.99520000  0.43670000  0.68420000  1.0 0.1589847022
C  C33  1  0.83920000  0.42500000  0.71850000  1.0 -0.1782602393
C  C34  1  0.84300000  0.44720000  0.80560000  1.0 0.0880427921
C  C35  1  0.99940000  0.40950000  0.59290000  1.0 -0.0559010923
C  C36  1  0.00720000  0.37690000  0.51850000  1.0 -0.0511925442
N  N1  1  0.97760000  0.90650000  0.88320000  1.0 -0.1396534963
N  N2  1  0.81940000  0.91930000  0.02950000  1.0 -0.2932888491
N  N3  1  0.78970000  0.60320000  0.00450000  1.0 -0.3540392368
N  N4  1  0.20190000  0.61510000  0.02470000  1.0 -0.3540392368
N  N5  1  0.00590000  0.51900000  0.13960000  1.0 -0.2145468815
N  N6  1  0.20150000  0.92430000  0.03540000  1.0 -0.2932888491
N  N7  1  0.02240000  0.09350000  0.11680000  1.0 -0.1396534963
N  N8  1  0.18060000  0.08070000  0.97050000  1.0 -0.2932888491
N  N9  1  0.21030000  0.39680000  0.99550000  1.0 -0.3540392368
N  N10  1  0.79810000  0.38490000  0.97530000  1.0 -0.3540392368
N  N11  1  0.99410000  0.48100000  0.86040000  1.0 -0.2145468815
N  N12  1  0.79850000  0.07570000  0.96460000  1.0 -0.2932888491
