# DDEC6 charges by PACMAN v1.1 (https://github.com/mtap-research/PACMAN-charge/)
data_RATFOK_FSR_pacman
_symmetry_space_group_name_H-M   'P 1'
_cell_length_a   7.22610000
_cell_length_b   13.94530000
_cell_length_c   16.32880000
_cell_angle_alpha   106.28800000
_cell_angle_beta   96.49600000
_cell_angle_gamma   89.99900000
_symmetry_Int_Tables_number   1
_chemical_formula_structural   FeH8Pd(C3N)6
_chemical_formula_sum   'Fe2 H16 Pd2 C36 N12'
_cell_volume   1568.40538902
_cell_formula_units_Z   2
loop_
 _symmetry_equiv_pos_site_id
 _symmetry_equiv_pos_as_xyz
  1  'x, y, z'
loop_
 _atom_site_type_symbol
 _atom_site_label
 _atom_site_symmetry_multiplicity
 _atom_site_fract_x
 _atom_site_fract_y
 _atom_site_fract_z
 _atom_site_occupancy
 _atom_site_charge
Fe  Fe1  1  0.50000000  0.00000000  0.50000000  1.0 0.5613005407
Fe  Fe2  1  0.50000000  0.50000000  0.50000000  1.0 0.5764808901
H  H1  1  0.55960000  0.99430000  0.68140000  1.0 0.1202386175
H  H2  1  0.56930000  0.09880000  0.81870000  1.0 0.1318460353
H  H3  1  0.49670000  0.32770000  0.71960000  1.0 0.1202386175
H  H4  1  0.50080000  0.22060000  0.58370000  1.0 0.1202386175
H  H5  1  0.76300000  0.49850000  0.37220000  1.0 0.1202386175
H  H6  1  0.76700000  0.46930000  0.22870000  1.0 0.1318460353
H  H7  1  0.22200000  0.41730000  0.19610000  1.0 0.1318460353
H  H8  1  0.22230000  0.45240000  0.34220000  1.0 0.1102166478
H  H9  1  0.44040000  0.00570000  0.31860000  1.0 0.1202386175
H  H10  1  0.43070000  0.90120000  0.18130000  1.0 0.1318460353
H  H11  1  0.50330000  0.67230000  0.28040000  1.0 0.1202386175
H  H12  1  0.49920000  0.77940000  0.41630000  1.0 0.1202386175
H  H13  1  0.23700000  0.50150000  0.62780000  1.0 0.1202386175
H  H14  1  0.23300000  0.53070000  0.77130000  1.0 0.1318460353
H  H15  1  0.77800000  0.58270000  0.80390000  1.0 0.1318460353
H  H16  1  0.77770000  0.54760000  0.65780000  1.0 0.1102166478
Pd  Pd1  1  0.99271000  0.23788000  0.46692000  1.0 0.1440799035
Pd  Pd2  1  0.00729000  0.76212000  0.53308000  1.0 0.1440799035
C  C1  1  0.54620000  0.06230000  0.68830000  1.0 0.1102166478
C  C2  1  0.55370000  0.12470000  0.77180000  1.0 -0.1675153129
C  C3  1  0.53720000  0.22600000  0.78320000  1.0 0.1459511988
C  C4  1  0.51240000  0.25990000  0.71280000  1.0 -0.1630698941
C  C5  1  0.51020000  0.19550000  0.63110000  1.0 0.0434205704
C  C6  1  0.53420000  0.29090000  0.86960000  1.0 -0.0723257685
C  C7  1  0.52520000  0.33520000  0.94180000  1.0 -0.0381465718
C  C8  1  0.79320000  0.13900000  0.46650000  1.0 0.0253743254
C  C9  1  0.19430000  0.33850000  0.47190000  1.0 0.0083941383
C  C10  1  0.80410000  0.34350000  0.48140000  1.0 0.0083941383
C  C11  1  0.18390000  0.13350000  0.46220000  1.0 0.0253743254
C  C12  1  0.65080000  0.48340000  0.33660000  1.0 0.0634832405
C  C13  1  0.65510000  0.46410000  0.25050000  1.0 -0.1787941955
C  C14  1  0.49180000  0.43680000  0.19560000  1.0 0.1440799035
C  C15  1  0.33400000  0.43410000  0.23150000  1.0 -0.1787941955
C  C16  1  0.33410000  0.45600000  0.31990000  1.0 0.0834804274
C  C17  1  0.49800000  0.41030000  0.10390000  1.0 -0.0723257685
C  C18  1  0.50900000  0.38020000  0.02850000  1.0 -0.0467103232
C  C19  1  0.45380000  0.93770000  0.31170000  1.0 0.1102166478
C  C20  1  0.44630000  0.87530000  0.22820000  1.0 -0.1675153129
C  C21  1  0.46280000  0.77400000  0.21680000  1.0 0.1459511988
C  C22  1  0.48760000  0.74010000  0.28720000  1.0 -0.1630698941
C  C23  1  0.48980000  0.80450000  0.36890000  1.0 0.0434205704
C  C24  1  0.46580000  0.70910000  0.13040000  1.0 -0.0723257685
C  C25  1  0.47480000  0.66480000  0.05820000  1.0 -0.0381465718
C  C26  1  0.20680000  0.86100000  0.53350000  1.0 0.0253743254
C  C27  1  0.80570000  0.66150000  0.52810000  1.0 0.0083941383
C  C28  1  0.19590000  0.65650000  0.51860000  1.0 0.0083941383
C  C29  1  0.81610000  0.86650000  0.53780000  1.0 0.0253743254
C  C30  1  0.34920000  0.51660000  0.66340000  1.0 0.0634832405
C  C31  1  0.34490000  0.53590000  0.74950000  1.0 -0.1787941955
C  C32  1  0.50820000  0.56320000  0.80440000  1.0 0.1440799035
C  C33  1  0.66600000  0.56590000  0.76850000  1.0 -0.1787941955
C  C34  1  0.66590000  0.54400000  0.68010000  1.0 0.0834804274
C  C35  1  0.50200000  0.58970000  0.89610000  1.0 -0.0723257685
C  C36  1  0.49100000  0.61980000  0.97150000  1.0 -0.0467103232
N  N1  1  0.52220000  0.09180000  0.61970000  1.0 -0.1507026903
N  N2  1  0.68150000  0.08460000  0.47240000  1.0 -0.283917857
N  N3  1  0.31100000  0.39490000  0.47880000  1.0 -0.2927079848
N  N4  1  0.69470000  0.40340000  0.49050000  1.0 -0.2927079848
N  N5  1  0.49190000  0.48210000  0.37380000  1.0 -0.1362123541
N  N6  1  0.29700000  0.08010000  0.46960000  1.0 -0.283917857
N  N7  1  0.47780000  0.90820000  0.38030000  1.0 -0.1507026903
N  N8  1  0.31850000  0.91540000  0.52760000  1.0 -0.283917857
N  N9  1  0.68900000  0.60510000  0.52120000  1.0 -0.2927079848
N  N10  1  0.30530000  0.59660000  0.50950000  1.0 -0.2927079848
N  N11  1  0.50810000  0.51790000  0.62620000  1.0 -0.1362123541
N  N12  1  0.70300000  0.91990000  0.53040000  1.0 -0.283917857
