# DDEC6 charges by PACMAN v1.1 (https://github.com/mtap-research/PACMAN-charge/)
data_RATFOK02_FSR_pacman
_symmetry_space_group_name_H-M   'P 1'
_cell_length_a   7.51330000
_cell_length_b   14.32980000
_cell_length_c   16.19250000
_cell_angle_alpha   102.71600000
_cell_angle_beta   95.10800000
_cell_angle_gamma   90.03100000
_symmetry_Int_Tables_number   1
_chemical_formula_structural   FeH8Pd(C3N)6
_chemical_formula_sum   'Fe2 H16 Pd2 C36 N12'
_cell_volume   1693.47419164
_cell_formula_units_Z   2
loop_
 _symmetry_equiv_pos_site_id
 _symmetry_equiv_pos_as_xyz
  1  'x, y, z'
loop_
 _atom_site_type_symbol
 _atom_site_label
 _atom_site_symmetry_multiplicity
 _atom_site_fract_x
 _atom_site_fract_y
 _atom_site_fract_z
 _atom_site_occupancy
 _atom_site_charge
Fe  Fe1  1  0.50000000  0.00000000  0.50000000  1.0 0.7451517034
Fe  Fe2  1  0.50000000  0.50000000  0.50000000  1.0 0.7670149851
H  H1  1  0.55300000  0.00650000  0.69040000  1.0 0.120476966
H  H2  1  0.56680000  0.10660000  0.82220000  1.0 0.132361089
H  H3  1  0.48160000  0.32620000  0.71040000  1.0 0.120476966
H  H4  1  0.48620000  0.22190000  0.58130000  1.0 0.1081505392
H  H5  1  0.74860000  0.51280000  0.35540000  1.0 0.1081505392
H  H6  1  0.74810000  0.48250000  0.21080000  1.0 0.132361089
H  H7  1  0.23660000  0.41000000  0.18960000  1.0 0.1402795214
H  H8  1  0.24350000  0.44420000  0.33420000  1.0 0.1081505392
H  H9  1  0.44700000  0.99350000  0.30960000  1.0 0.120476966
H  H10  1  0.43320000  0.89340000  0.17780000  1.0 0.132361089
H  H11  1  0.51840000  0.67380000  0.28960000  1.0 0.120476966
H  H12  1  0.51380000  0.77810000  0.41870000  1.0 0.1081505392
H  H13  1  0.25140000  0.48720000  0.64460000  1.0 0.1081505392
H  H14  1  0.25190000  0.51750000  0.78920000  1.0 0.132361089
H  H15  1  0.76340000  0.59000000  0.81040000  1.0 0.1402795214
H  H16  1  0.75650000  0.55580000  0.66580000  1.0 0.1081505392
Pd  Pd1  1  0.99473000  0.23792000  0.46702000  1.0 0.2144390095
Pd  Pd2  1  0.00527000  0.76208000  0.53298000  1.0 0.2166386891
C  C1  1  0.54110000  0.07190000  0.69450000  1.0 0.0964738197
C  C2  1  0.54740000  0.13160000  0.77390000  1.0 -0.1595551025
C  C3  1  0.52510000  0.22740000  0.78160000  1.0 0.1660236168
C  C4  1  0.49910000  0.26140000  0.70770000  1.0 -0.1796844529
C  C5  1  0.49960000  0.19810000  0.63050000  1.0 0.0936536539
C  C6  1  0.51900000  0.29010000  0.86410000  1.0 -0.0786779549
C  C7  1  0.51340000  0.33430000  0.93470000  1.0 -0.0564534989
C  C8  1  0.79950000  0.14040000  0.45930000  1.0 0.0516514956
C  C9  1  0.19050000  0.33430000  0.47730000  1.0 0.0193973176
C  C10  1  0.81310000  0.34120000  0.48580000  1.0 0.0193973176
C  C11  1  0.17730000  0.13580000  0.45580000  1.0 0.0382971532
C  C12  1  0.64360000  0.49120000  0.32170000  1.0 0.0747416067
C  C13  1  0.64380000  0.47250000  0.23490000  1.0 -0.1796844529
C  C14  1  0.49290000  0.43940000  0.18340000  1.0 0.1545691016
C  C15  1  0.34350000  0.43030000  0.22220000  1.0 -0.1796844529
C  C16  1  0.34860000  0.45070000  0.30950000  1.0 0.0964738197
C  C17  1  0.49560000  0.41010000  0.09310000  1.0 -0.0665716741
C  C18  1  0.50160000  0.37980000  0.01860000  1.0 -0.0505563978
C  C19  1  0.45890000  0.92810000  0.30550000  1.0 0.0964738197
C  C20  1  0.45260000  0.86840000  0.22610000  1.0 -0.1595551025
C  C21  1  0.47490000  0.77260000  0.21840000  1.0 0.1660236168
C  C22  1  0.50090000  0.73860000  0.29230000  1.0 -0.1796844529
C  C23  1  0.50040000  0.80190000  0.36950000  1.0 0.0936536539
C  C24  1  0.48100000  0.70990000  0.13590000  1.0 -0.0786779549
C  C25  1  0.48660000  0.66570000  0.06530000  1.0 -0.0564534989
C  C26  1  0.20050000  0.85960000  0.54070000  1.0 0.0516514956
C  C27  1  0.80950000  0.66570000  0.52270000  1.0 0.0193973176
C  C28  1  0.18690000  0.65880000  0.51420000  1.0 0.0193973176
C  C29  1  0.82270000  0.86420000  0.54420000  1.0 0.0382971532
C  C30  1  0.35640000  0.50880000  0.67830000  1.0 0.0747416067
C  C31  1  0.35620000  0.52750000  0.76510000  1.0 -0.1796844529
C  C32  1  0.50710000  0.56060000  0.81660000  1.0 0.1545691016
C  C33  1  0.65650000  0.56970000  0.77780000  1.0 -0.1796844529
C  C34  1  0.65140000  0.54930000  0.69050000  1.0 0.0964738197
C  C35  1  0.50440000  0.58990000  0.90690000  1.0 -0.0665716741
C  C36  1  0.49840000  0.62020000  0.98140000  1.0 -0.0505563978
N  N1  1  0.51840000  0.10420000  0.62270000  1.0 -0.210149153
N  N2  1  0.69050000  0.08760000  0.45860000  1.0 -0.3429364067
N  N3  1  0.30270000  0.38920000  0.48460000  1.0 -0.3478346196
N  N4  1  0.70850000  0.39850000  0.49600000  1.0 -0.3478346196
N  N5  1  0.49430000  0.47900000  0.35960000  1.0 -0.210149153
N  N6  1  0.28480000  0.08050000  0.45650000  1.0 -0.3429364067
N  N7  1  0.48160000  0.89580000  0.37730000  1.0 -0.210149153
N  N8  1  0.30950000  0.91240000  0.54140000  1.0 -0.3429364067
N  N9  1  0.69730000  0.61080000  0.51540000  1.0 -0.3478346196
N  N10  1  0.29150000  0.60150000  0.50400000  1.0 -0.3478346196
N  N11  1  0.50570000  0.52100000  0.64040000  1.0 -0.210149153
N  N12  1  0.71520000  0.91950000  0.54350000  1.0 -0.3429364067
