# DDEC6 charges by PACMAN v1.1 (https://github.com/mtap-research/PACMAN-charge/)
data_RATGAX01_FSR_pacman
_symmetry_space_group_name_H-M   'P 1'
_cell_length_a   7.48600000
_cell_length_b   14.26880000
_cell_length_c   15.02600000
_cell_angle_alpha   93.93100000
_cell_angle_beta   95.99000000
_cell_angle_gamma   89.59700000
_symmetry_Int_Tables_number   1
_chemical_formula_structural   FeH8Pd(C3N)6
_chemical_formula_sum   'Fe2 H16 Pd2 C36 N12'
_cell_volume   1592.50208533
_cell_formula_units_Z   2
loop_
 _symmetry_equiv_pos_site_id
 _symmetry_equiv_pos_as_xyz
  1  'x, y, z'
loop_
 _atom_site_type_symbol
 _atom_site_label
 _atom_site_symmetry_multiplicity
 _atom_site_fract_x
 _atom_site_fract_y
 _atom_site_fract_z
 _atom_site_occupancy
 _atom_site_charge
Fe  Fe1  1  0.50000000  0.50000000  0.50000000  1.0 0.7511550248
Fe  Fe2  1  0.50000000  0.00000000  0.50000000  1.0 0.7846909822
H  H1  1  0.47480000  0.50570000  0.29510000  1.0 0.1224251748
H  H2  1  0.46930000  0.41430000  0.16410000  1.0 0.1400386416
H  H3  1  0.49090000  0.18730000  0.30890000  1.0 0.1282583349
H  H4  1  0.49220000  0.28690000  0.43520000  1.0 0.1091416961
H  H5  1  0.24260000  0.99780000  0.65080000  1.0 0.1091416961
H  H6  1  0.23700000  0.03750000  0.80130000  1.0 0.1282583349
H  H7  1  0.77440000  0.04810000  0.82600000  1.0 0.1400386416
H  H8  1  0.76510000  0.00520000  0.67640000  1.0 0.1091416961
H  H9  1  0.52520000  0.49430000  0.70490000  1.0 0.1224251748
H  H10  1  0.53070000  0.58570000  0.83590000  1.0 0.1400386416
H  H11  1  0.50910000  0.81270000  0.69110000  1.0 0.1282583349
H  H12  1  0.50780000  0.71310000  0.56480000  1.0 0.1091416961
H  H13  1  0.75740000  0.00220000  0.34920000  1.0 0.1091416961
H  H14  1  0.76300000  0.96250000  0.19870000  1.0 0.1282583349
H  H15  1  0.22560000  0.95190000  0.17400000  1.0 0.1400386416
H  H16  1  0.23490000  0.99480000  0.32360000  1.0 0.1091416961
Pd  Pd1  1  0.99311000  0.74089000  0.46169000  1.0 0.215954578
Pd  Pd2  1  0.00689000  0.25911000  0.53831000  1.0 0.2135368348
C  C1  1  0.47830000  0.44070000  0.29770000  1.0 0.0895641413
C  C2  1  0.47550000  0.38660000  0.21860000  1.0 -0.1641905173
C  C3  1  0.48220000  0.28900000  0.22160000  1.0 0.1660650135
C  C4  1  0.48790000  0.25190000  0.30430000  1.0 -0.1773456225
C  C5  1  0.48900000  0.31250000  0.37980000  1.0 0.0984453892
C  C6  1  0.48520000  0.23000000  0.14110000  1.0 -0.0802700782
C  C7  1  0.48930000  0.18300000  0.07350000  1.0 -0.0586031218
C  C8  1  0.82250000  0.35800000  0.55560000  1.0 0.0432881606
C  C9  1  0.80800000  0.83820000  0.48550000  1.0 0.0196306933
C  C10  1  0.18360000  0.83900000  0.47570000  1.0 0.0139064644
C  C11  1  0.80480000  0.64200000  0.45140000  1.0 0.0458431732
C  C12  1  0.35050000  0.00980000  0.68630000  1.0 0.0895641413
C  C13  1  0.34600000  0.03390000  0.77660000  1.0 -0.172461608
C  C14  1  0.50560000  0.05290000  0.83020000  1.0 0.1631112755
C  C15  1  0.66440000  0.03990000  0.79150000  1.0 -0.1773456225
C  C16  1  0.65730000  0.01470000  0.70140000  1.0 0.0895641413
C  C17  1  0.50220000  0.09110000  0.92020000  1.0 -0.07383904
C  C18  1  0.49620000  0.13190000  0.99150000  1.0 -0.0586031218
C  C19  1  0.52170000  0.55930000  0.70230000  1.0 0.0984453892
C  C20  1  0.52450000  0.61340000  0.78140000  1.0 -0.1641905173
C  C21  1  0.51780000  0.71100000  0.77840000  1.0 0.1631112755
C  C22  1  0.51210000  0.74810000  0.69570000  1.0 -0.1773456225
C  C23  1  0.51100000  0.68750000  0.62020000  1.0 0.0984453892
C  C24  1  0.51480000  0.77000000  0.85890000  1.0 -0.0802700782
C  C25  1  0.51070000  0.81700000  0.92650000  1.0 -0.0586031218
C  C26  1  0.17750000  0.64200000  0.44440000  1.0 0.0432881606
C  C27  1  0.19200000  0.16180000  0.51450000  1.0 0.0196306933
C  C28  1  0.81640000  0.16100000  0.52430000  1.0 0.0196306933
C  C29  1  0.19520000  0.35800000  0.54860000  1.0 0.0458431732
C  C30  1  0.64950000  0.99020000  0.31370000  1.0 0.0895641413
C  C31  1  0.65400000  0.96610000  0.22340000  1.0 -0.172461608
C  C32  1  0.49440000  0.94710000  0.16980000  1.0 0.1631112755
C  C33  1  0.33560000  0.96010000  0.20850000  1.0 -0.172461608
C  C34  1  0.34270000  0.98530000  0.29860000  1.0 0.0848609046
C  C35  1  0.49780000  0.90890000  0.07980000  1.0 -0.0802700782
C  C36  1  0.50380000  0.86810000  0.00850000  1.0 -0.0544259264
N  N1  1  0.48580000  0.40580000  0.37790000  1.0 -0.2126782476
N  N2  1  0.71320000  0.41320000  0.55680000  1.0 -0.3431965053
N  N3  1  0.70160000  0.89300000  0.49940000  1.0 -0.3534732401
N  N4  1  0.29410000  0.89480000  0.48470000  1.0 -0.3534732401
N  N5  1  0.50440000  0.00300000  0.64760000  1.0 -0.2242083862
N  N6  1  0.69620000  0.58690000  0.45140000  1.0 -0.3431965053
N  N7  1  0.51420000  0.59420000  0.62210000  1.0 -0.2126782476
N  N8  1  0.28680000  0.58680000  0.44320000  1.0 -0.3431965053
N  N9  1  0.29840000  0.10700000  0.50060000  1.0 -0.3534732401
N  N10  1  0.70590000  0.10520000  0.51530000  1.0 -0.3534732401
N  N11  1  0.49560000  0.99700000  0.35240000  1.0 -0.2242083862
N  N12  1  0.30380000  0.41310000  0.54860000  1.0 -0.3431965053
