# DDEC6 charges by PACMAN v1.1 (https://github.com/mtap-research/PACMAN-charge/)
data_RATGIF01_ASR_pacman
_symmetry_space_group_name_H-M   'P 1'
_cell_length_a   13.55750000
_cell_length_b   7.05860000
_cell_length_c   15.66000000
_cell_angle_alpha   90.00000000
_cell_angle_beta   100.70300000
_cell_angle_gamma   90.00000000
_symmetry_Int_Tables_number   1
_chemical_formula_structural   FeNiH8(C3N)6
_chemical_formula_sum   'Fe2 Ni2 H16 C36 N12'
_cell_volume   1472.54325565
_cell_formula_units_Z   2
loop_
 _symmetry_equiv_pos_site_id
 _symmetry_equiv_pos_as_xyz
  1  'x, y, z'
loop_
 _atom_site_type_symbol
 _atom_site_label
 _atom_site_symmetry_multiplicity
 _atom_site_fract_x
 _atom_site_fract_y
 _atom_site_fract_z
 _atom_site_occupancy
 _atom_site_charge
Fe  Fe1  1  0.00000000  0.00000000  0.00000000  1.0 0.5785738859
Fe  Fe2  1  0.50000000  0.00000000  0.00000000  1.0 0.601591948
Ni  Ni1  1  0.23954000  0.50000000  0.96578000  1.0 0.0962695066
Ni  Ni2  1  0.76046000  0.50000000  0.03422000  1.0 0.0962695066
H  H1  1  0.54350000  0.28750000  0.29400000  1.0 0.1306828358
H  H2  1  0.50880000  0.28050000  0.14360000  1.0 0.1195824754
H  H3  1  0.45650000  0.28750000  0.70600000  1.0 0.1306828358
H  H4  1  0.49120000  0.28050000  0.85640000  1.0 0.1195824754
H  H5  1  0.45650000  0.71250000  0.70600000  1.0 0.1306828358
H  H6  1  0.49120000  0.71950000  0.85640000  1.0 0.1195824754
H  H7  1  0.54350000  0.71250000  0.29400000  1.0 0.1306828358
H  H8  1  0.50880000  0.71950000  0.14360000  1.0 0.1195824754
H  H9  1  0.01750000  0.00000000  0.81540000  1.0 0.1306828358
H  H10  1  0.91740000  0.00000000  0.67860000  1.0 0.1306828358
H  H11  1  0.67210000  0.00000000  0.79440000  1.0 0.1145805303
H  H12  1  0.78080000  0.00000000  0.92820000  1.0 0.1195824754
H  H13  1  0.98250000  0.00000000  0.18460000  1.0 0.1195824754
H  H14  1  0.08260000  0.00000000  0.32140000  1.0 0.1306828358
H  H15  1  0.32790000  0.00000000  0.20560000  1.0 0.1145805303
H  H16  1  0.21920000  0.00000000  0.07180000  1.0 0.1195824754
C  C1  1  0.14150000  0.31330000  0.95910000  1.0 0.0574702728
C  C2  1  0.66230000  0.31240000  0.02070000  1.0 0.0353299823
C  C3  1  0.53860000  0.16950000  0.26430000  1.0 -0.1805364307
C  C4  1  0.51820000  0.16430000  0.17470000  1.0 0.0709927265
C  C5  1  0.85850000  0.31330000  0.04090000  1.0 0.0574702728
C  C6  1  0.33770000  0.31240000  0.97930000  1.0 0.0338448394
C  C7  1  0.46140000  0.16950000  0.73570000  1.0 -0.1805364307
C  C8  1  0.48180000  0.16430000  0.82530000  1.0 0.0709927265
C  C9  1  0.85850000  0.68670000  0.04090000  1.0 0.0574702728
C  C10  1  0.33770000  0.68760000  0.97930000  1.0 0.0338448394
C  C11  1  0.46140000  0.83050000  0.73570000  1.0 -0.1805364307
C  C12  1  0.48180000  0.83570000  0.82530000  1.0 0.0709927265
C  C13  1  0.14150000  0.68670000  0.95910000  1.0 0.0574702728
C  C14  1  0.66230000  0.68760000  0.02070000  1.0 0.0338448394
C  C15  1  0.53860000  0.83050000  0.26430000  1.0 -0.1805364307
C  C16  1  0.51820000  0.83570000  0.17470000  1.0 0.0709927265
C  C17  1  0.94660000  0.00000000  0.81080000  1.0 0.086854938
C  C18  1  0.88740000  0.00000000  0.72880000  1.0 -0.1648783352
C  C19  1  0.78330000  0.00000000  0.72050000  1.0 0.170412514
C  C20  1  0.74270000  0.00000000  0.79710000  1.0 -0.1805364307
C  C21  1  0.80820000  0.00000000  0.87660000  1.0 0.0831124741
C  C22  1  0.71970000  0.00000000  0.63610000  1.0 -0.0728117231
C  C23  1  0.67140000  0.00000000  0.56390000  1.0 -0.0630429586
C  C24  1  0.62300000  0.00000000  0.47940000  1.0 -0.0494301192
C  C25  1  0.58550000  0.00000000  0.40350000  1.0 -0.0630429586
C  C26  1  0.55210000  0.00000000  0.31100000  1.0 0.1643356118
C  C27  1  0.05340000  0.00000000  0.18920000  1.0 0.086854938
C  C28  1  0.11260000  0.00000000  0.27120000  1.0 -0.1657667127
C  C29  1  0.21670000  0.00000000  0.27950000  1.0 0.170412514
C  C30  1  0.25730000  0.00000000  0.20290000  1.0 -0.1805364307
C  C31  1  0.19180000  0.00000000  0.12340000  1.0 0.0831124741
C  C32  1  0.28030000  0.00000000  0.36390000  1.0 -0.0728117231
C  C33  1  0.32860000  0.00000000  0.43610000  1.0 -0.0630429586
C  C34  1  0.37700000  0.00000000  0.52060000  1.0 -0.0494301192
C  C35  1  0.41450000  0.00000000  0.59650000  1.0 -0.0630429586
C  C36  1  0.44790000  0.00000000  0.68900000  1.0 0.1643356118
N  N1  1  0.08430000  0.19620000  0.96530000  1.0 -0.3175910201
N  N2  1  0.60230000  0.19500000  0.01160000  1.0 -0.3175910201
N  N3  1  0.91570000  0.19620000  0.03470000  1.0 -0.3143594132
N  N4  1  0.39770000  0.19500000  0.98840000  1.0 -0.3175910201
N  N5  1  0.91570000  0.80380000  0.03470000  1.0 -0.3143594132
N  N6  1  0.39770000  0.80500000  0.98840000  1.0 -0.3175910201
N  N7  1  0.08430000  0.80380000  0.96530000  1.0 -0.3143594132
N  N8  1  0.60230000  0.80500000  0.01160000  1.0 -0.3175910201
N  N9  1  0.90890000  0.00000000  0.88410000  1.0 -0.1487902891
N  N10  1  0.51120000  0.00000000  0.12920000  1.0 -0.1373687949
N  N11  1  0.09110000  0.00000000  0.11590000  1.0 -0.1487902891
N  N12  1  0.48880000  0.00000000  0.87080000  1.0 -0.1373687949
