# DDEC6 charges by PACMAN v1.1 (https://github.com/mtap-research/PACMAN-charge/)
data_RATNIL_ASR_pacman
_symmetry_space_group_name_H-M   'P 1'
_cell_length_a   12.61480000
_cell_length_b   10.92490000
_cell_length_c   32.34800000
_cell_angle_alpha   90.00000000
_cell_angle_beta   112.18000000
_cell_angle_gamma   90.00000000
_symmetry_Int_Tables_number   1
_chemical_formula_structural   Cu3H36(C11N5)4
_chemical_formula_sum   'Cu6 H72 C88 N40'
_cell_volume   4128.16831134
_cell_formula_units_Z   2
loop_
 _symmetry_equiv_pos_site_id
 _symmetry_equiv_pos_as_xyz
  1  'x, y, z'
loop_
 _atom_site_type_symbol
 _atom_site_label
 _atom_site_symmetry_multiplicity
 _atom_site_fract_x
 _atom_site_fract_y
 _atom_site_fract_z
 _atom_site_occupancy
 _atom_site_charge
Cu  Cu1  1  0.00000000  0.50000000  0.50000000  1.0 0.1900585888
Cu  Cu2  1  0.00000000  0.00000000  0.00000000  1.0 0.1953193693
Cu  Cu3  1  0.68528000  0.08781000  0.68160000  1.0 0.1629639229
Cu  Cu4  1  0.31472000  0.58781000  0.81840000  1.0 0.1629639229
Cu  Cu5  1  0.31472000  0.91219000  0.31840000  1.0 0.1629639229
Cu  Cu6  1  0.68528000  0.41219000  0.18160000  1.0 0.1629639229
H  H1  1  0.46660000  0.18400000  0.60660000  1.0 0.0982453846
H  H2  1  0.53340000  0.68400000  0.89340000  1.0 0.0982453846
H  H3  1  0.53340000  0.81600000  0.39340000  1.0 0.0982453846
H  H4  1  0.46660000  0.31600000  0.10660000  1.0 0.0982453846
H  H5  1  0.28320000  0.36450000  0.66690000  1.0 0.1130979854
H  H6  1  0.71680000  0.86450000  0.83310000  1.0 0.1130979854
H  H7  1  0.71680000  0.63550000  0.33310000  1.0 0.1130979854
H  H8  1  0.28320000  0.13550000  0.16690000  1.0 0.1130979854
H  H9  1  0.59830000  0.22540000  0.73720000  1.0 0.0911725601
H  H10  1  0.40170000  0.72540000  0.76280000  1.0 0.0911725601
H  H11  1  0.40170000  0.77460000  0.26280000  1.0 0.0911725601
H  H12  1  0.59830000  0.27460000  0.23720000  1.0 0.0911725601
H  H13  1  0.19440000  0.45230000  0.59730000  1.0 0.0911725601
H  H14  1  0.80560000  0.95230000  0.90270000  1.0 0.0911725601
H  H15  1  0.80560000  0.54770000  0.40270000  1.0 0.0911725601
H  H16  1  0.19440000  0.04770000  0.09730000  1.0 0.0911725601
H  H17  1  0.12050000  0.25270000  0.48830000  1.0 0.12042029
H  H18  1  0.87950000  0.75270000  0.01170000  1.0 0.12042029
H  H19  1  0.87950000  0.74730000  0.51170000  1.0 0.12042029
H  H20  1  0.12050000  0.24730000  0.98830000  1.0 0.12042029
H  H21  1  0.28720000  0.15490000  0.54660000  1.0 0.12042029
H  H22  1  0.71280000  0.65490000  0.95340000  1.0 0.12042029
H  H23  1  0.71280000  0.84510000  0.45340000  1.0 0.12042029
H  H24  1  0.28720000  0.34510000  0.04660000  1.0 0.12042029
H  H25  1  0.32770000  0.48990000  0.72910000  1.0 0.0911725601
H  H26  1  0.67230000  0.98990000  0.77090000  1.0 0.0911725601
H  H27  1  0.67230000  0.51010000  0.27090000  1.0 0.0911725601
H  H28  1  0.32770000  0.01010000  0.22910000  1.0 0.0911725601
H  H29  1  0.48230000  0.35490000  0.84980000  1.0 0.12042029
H  H30  1  0.51770000  0.85490000  0.65020000  1.0 0.12042029
H  H31  1  0.51770000  0.64510000  0.15020000  1.0 0.12042029
H  H32  1  0.48230000  0.14510000  0.34980000  1.0 0.12042029
H  H33  1  0.53670000  0.22780000  0.79860000  1.0 0.1130979854
H  H34  1  0.46330000  0.72780000  0.70140000  1.0 0.1130979854
H  H35  1  0.46330000  0.77220000  0.20140000  1.0 0.1130979854
H  H36  1  0.53670000  0.27220000  0.29860000  1.0 0.1130979854
H  H37  1  0.84820000  0.26110000  0.73790000  1.0 0.0982453846
H  H38  1  0.15180000  0.76110000  0.76210000  1.0 0.0982453846
H  H39  1  0.15180000  0.73890000  0.26210000  1.0 0.0982453846
H  H40  1  0.84820000  0.23890000  0.23790000  1.0 0.0982453846
H  H41  1  0.97140000  0.47750000  0.66490000  1.0 0.1130979854
H  H42  1  0.02860000  0.97750000  0.83510000  1.0 0.1130979854
H  H43  1  0.02860000  0.52250000  0.33510000  1.0 0.1130979854
H  H44  1  0.97140000  0.02250000  0.16490000  1.0 0.1130979854
H  H45  1  0.71390000  0.23650000  0.60620000  1.0 0.0982453846
H  H46  1  0.28610000  0.73650000  0.89380000  1.0 0.0982453846
H  H47  1  0.28610000  0.76350000  0.39380000  1.0 0.0982453846
H  H48  1  0.71390000  0.26350000  0.10620000  1.0 0.0982453846
H  H49  1  0.13660000  0.47340000  0.73050000  1.0 0.0911725601
H  H50  1  0.86340000  0.97340000  0.76950000  1.0 0.0911725601
H  H51  1  0.86340000  0.52660000  0.26950000  1.0 0.0911725601
H  H52  1  0.13660000  0.02660000  0.23050000  1.0 0.0911725601
H  H53  1  0.10570000  0.50400000  0.84740000  1.0 0.12042029
H  H54  1  0.89430000  0.00400000  0.65260000  1.0 0.12042029
H  H55  1  0.89430000  0.49600000  0.15260000  1.0 0.12042029
H  H56  1  0.10570000  0.99600000  0.34740000  1.0 0.12042029
H  H57  1  0.92690000  0.41280000  0.79560000  1.0 0.12042029
H  H58  1  0.07310000  0.91280000  0.70440000  1.0 0.12042029
H  H59  1  0.07310000  0.58720000  0.20440000  1.0 0.12042029
H  H60  1  0.92690000  0.08720000  0.29560000  1.0 0.12042029
H  H61  1  0.00460000  0.44530000  0.59850000  1.0 0.0911725601
H  H62  1  0.99540000  0.94530000  0.90150000  1.0 0.0911725601
H  H63  1  0.99540000  0.55470000  0.40150000  1.0 0.0911725601
H  H64  1  0.00460000  0.05470000  0.09850000  1.0 0.0911725601
H  H65  1  0.74110000  0.43040000  0.48370000  1.0 0.12042029
H  H66  1  0.25890000  0.93040000  0.01630000  1.0 0.12042029
H  H67  1  0.25890000  0.56960000  0.51630000  1.0 0.12042029
H  H68  1  0.74110000  0.06960000  0.98370000  1.0 0.12042029
H  H69  1  0.67170000  0.36460000  0.54180000  1.0 0.12042029
H  H70  1  0.32830000  0.86460000  0.95820000  1.0 0.12042029
H  H71  1  0.32830000  0.63540000  0.45820000  1.0 0.12042029
H  H72  1  0.67170000  0.13540000  0.04180000  1.0 0.12042029
C  C1  1  0.45950000  0.21370000  0.63305000  1.0 -0.072281521
C  C2  1  0.54050000  0.71370000  0.86695000  1.0 -0.072281521
C  C3  1  0.54050000  0.78630000  0.36695000  1.0 -0.072281521
C  C4  1  0.45950000  0.28630000  0.13305000  1.0 -0.072281521
C  C5  1  0.36160000  0.27800000  0.62992000  1.0 0.12042029
C  C6  1  0.63840000  0.77800000  0.87008000  1.0 0.12042029
C  C7  1  0.63840000  0.72200000  0.37008000  1.0 0.12042029
C  C8  1  0.36160000  0.22200000  0.12992000  1.0 0.12042029
C  C9  1  0.35000000  0.32190000  0.66819000  1.0 -0.2561689729
C  C10  1  0.65000000  0.82190000  0.83181000  1.0 -0.2561689729
C  C11  1  0.65000000  0.67810000  0.33181000  1.0 -0.2561689729
C  C12  1  0.35000000  0.17810000  0.16819000  1.0 -0.2561689729
C  C13  1  0.44020000  0.30090000  0.70834000  1.0 0.12042029
C  C14  1  0.55980000  0.80090000  0.79166000  1.0 0.12042029
C  C15  1  0.55980000  0.69910000  0.29166000  1.0 0.12042029
C  C16  1  0.44020000  0.19910000  0.20834000  1.0 0.12042029
C  C17  1  0.53650000  0.23720000  0.70942000  1.0 -0.0518069753
C  C18  1  0.46350000  0.73720000  0.79058000  1.0 -0.0518069753
C  C19  1  0.46350000  0.76280000  0.29058000  1.0 -0.0518069753
C  C20  1  0.53650000  0.26280000  0.20942000  1.0 -0.0518069753
C  C21  1  0.19650000  0.39010000  0.57711000  1.0 0.0218631125
C  C22  1  0.80350000  0.89010000  0.92289000  1.0 0.0218631125
C  C23  1  0.80350000  0.60990000  0.42289000  1.0 0.0218631125
C  C24  1  0.19650000  0.10990000  0.07711000  1.0 0.0218631125
C  C25  1  0.15720000  0.28100000  0.51808000  1.0 -0.0415558814
C  C26  1  0.84280000  0.78100000  0.98192000  1.0 -0.0415558814
C  C27  1  0.84280000  0.71900000  0.48192000  1.0 -0.0415558814
C  C28  1  0.15720000  0.21900000  0.01808000  1.0 -0.0415558814
C  C29  1  0.24820000  0.22660000  0.54976000  1.0 -0.1490763819
C  C30  1  0.75180000  0.72660000  0.95024000  1.0 -0.1490763819
C  C31  1  0.75180000  0.77340000  0.45024000  1.0 -0.1490763819
C  C32  1  0.24820000  0.27340000  0.04976000  1.0 -0.1490763819
C  C33  1  0.37410000  0.44040000  0.75328000  1.0 0.0333307263
C  C34  1  0.62590000  0.94040000  0.74672000  1.0 0.0333307263
C  C35  1  0.62590000  0.55960000  0.24672000  1.0 0.0333307263
C  C36  1  0.37410000  0.05960000  0.25328000  1.0 0.0333307263
C  C37  1  0.45770000  0.36670000  0.81848000  1.0 -0.0415558814
C  C38  1  0.54230000  0.86670000  0.68152000  1.0 -0.0415558814
C  C39  1  0.54230000  0.63330000  0.18152000  1.0 -0.0415558814
C  C40  1  0.45770000  0.13330000  0.31848000  1.0 -0.0415558814
C  C41  1  0.48790000  0.29730000  0.79080000  1.0 -0.1490763819
C  C42  1  0.51210000  0.79730000  0.70920000  1.0 -0.1490763819
C  C43  1  0.51210000  0.70270000  0.20920000  1.0 -0.1490763819
C  C44  1  0.48790000  0.20270000  0.29080000  1.0 -0.1490763819
C  C45  1  0.84680000  0.28660000  0.70967000  1.0 -0.0607596988
C  C46  1  0.15320000  0.78660000  0.79033000  1.0 -0.0607596988
C  C47  1  0.15320000  0.71340000  0.29033000  1.0 -0.0607596988
C  C48  1  0.84680000  0.21340000  0.20967000  1.0 -0.0607596988
C  C49  1  0.92240000  0.37480000  0.70761000  1.0 0.1288937701
C  C50  1  0.07760000  0.87480000  0.79239000  1.0 0.1288937701
C  C51  1  0.07760000  0.62520000  0.29239000  1.0 0.1288937701
C  C52  1  0.92240000  0.12520000  0.20761000  1.0 0.1288937701
C  C53  1  0.92080000  0.41520000  0.66674000  1.0 -0.2561689729
C  C54  1  0.07920000  0.91520000  0.83326000  1.0 -0.2561689729
C  C55  1  0.07920000  0.58480000  0.33326000  1.0 -0.2561689729
C  C56  1  0.92080000  0.08480000  0.16674000  1.0 -0.2561689729
C  C57  1  0.84280000  0.36140000  0.62889000  1.0 0.12042029
C  C58  1  0.15720000  0.86140000  0.87111000  1.0 0.12042029
C  C59  1  0.15720000  0.63860000  0.37111000  1.0 0.12042029
C  C60  1  0.84280000  0.13860000  0.12889000  1.0 0.12042029
C  C61  1  0.76790000  0.27220000  0.63247000  1.0 -0.0607596988
C  C62  1  0.23210000  0.77220000  0.86753000  1.0 -0.0607596988
C  C63  1  0.23210000  0.72780000  0.36753000  1.0 -0.0607596988
C  C64  1  0.76790000  0.22780000  0.13247000  1.0 -0.0607596988
C  C65  1  0.10720000  0.46860000  0.75356000  1.0 0.0371178345
C  C66  1  0.89280000  0.96860000  0.74644000  1.0 0.0371178345
C  C67  1  0.89280000  0.53140000  0.24644000  1.0 0.0371178345
C  C68  1  0.10720000  0.03140000  0.25356000  1.0 0.0371178345
C  C69  1  0.08920000  0.48480000  0.81697000  1.0 -0.0518069753
C  C70  1  0.91080000  0.98480000  0.68303000  1.0 -0.0607596988
C  C71  1  0.91080000  0.51520000  0.18303000  1.0 -0.0607596988
C  C72  1  0.08920000  0.01520000  0.31697000  1.0 -0.0518069753
C  C73  1  0.99130000  0.43570000  0.78889000  1.0 -0.1303901954
C  C74  1  0.00870000  0.93570000  0.71111000  1.0 -0.1303901954
C  C75  1  0.00870000  0.56430000  0.21111000  1.0 -0.1303901954
C  C76  1  0.99130000  0.06430000  0.28889000  1.0 -0.1303901954
C  C77  1  0.92980000  0.43320000  0.57675000  1.0 0.0371178345
C  C78  1  0.07020000  0.93320000  0.92325000  1.0 0.0371178345
C  C79  1  0.07020000  0.56680000  0.42325000  1.0 0.0371178345
C  C80  1  0.92980000  0.06680000  0.07675000  1.0 0.0371178345
C  C81  1  0.78630000  0.42460000  0.51466000  1.0 -0.0415558814
C  C82  1  0.21370000  0.92460000  0.98534000  1.0 -0.0415558814
C  C83  1  0.21370000  0.57540000  0.48534000  1.0 -0.0415558814
C  C84  1  0.78630000  0.07540000  0.01466000  1.0 -0.0415558814
C  C85  1  0.74750000  0.38900000  0.54622000  1.0 -0.1303901954
C  C86  1  0.25250000  0.88900000  0.95378000  1.0 -0.1303901954
C  C87  1  0.25250000  0.61100000  0.45378000  1.0 -0.1303901954
C  C88  1  0.74750000  0.11100000  0.04622000  1.0 -0.1303901954
N  N1  1  0.54410000  0.19280000  0.67261000  1.0 -0.1687369162
N  N2  1  0.45590000  0.69280000  0.82739000  1.0 -0.1687369162
N  N3  1  0.45590000  0.80720000  0.32739000  1.0 -0.1687369162
N  N4  1  0.54410000  0.30720000  0.17261000  1.0 -0.1687369162
N  N5  1  0.27250000  0.29740000  0.58760000  1.0 0.0101085536
N  N6  1  0.72750000  0.79740000  0.91240000  1.0 0.0101085536
N  N7  1  0.72750000  0.70260000  0.41240000  1.0 0.0101085536
N  N8  1  0.27250000  0.20260000  0.08760000  1.0 0.0101085536
N  N9  1  0.12590000  0.38310000  0.53538000  1.0 -0.2499244941
N  N10  1  0.87410000  0.88310000  0.96462000  1.0 -0.2499244941
N  N11  1  0.87410000  0.61690000  0.46462000  1.0 -0.2499244941
N  N12  1  0.12590000  0.11690000  0.03538000  1.0 -0.2499244941
N  N13  1  0.43520000  0.34540000  0.74910000  1.0 0.0101085536
N  N14  1  0.56480000  0.84540000  0.75090000  1.0 0.0101085536
N  N15  1  0.56480000  0.65460000  0.25090000  1.0 0.0101085536
N  N16  1  0.43520000  0.15460000  0.24910000  1.0 0.0101085536
N  N17  1  0.38600000  0.45720000  0.79488000  1.0 -0.2499244941
N  N18  1  0.61400000  0.95720000  0.70512000  1.0 -0.2499244941
N  N19  1  0.61400000  0.54280000  0.20512000  1.0 -0.2499244941
N  N20  1  0.38600000  0.04280000  0.29488000  1.0 -0.2499244941
N  N21  1  0.77090000  0.23610000  0.67245000  1.0 -0.1687369162
N  N22  1  0.22910000  0.73610000  0.82755000  1.0 -0.1687369162
N  N23  1  0.22910000  0.76390000  0.32755000  1.0 -0.1687369162
N  N24  1  0.77090000  0.26390000  0.17245000  1.0 -0.1687369162
N  N25  1  0.00240000  0.42510000  0.74815000  1.0 -0.0015179552
N  N26  1  0.99760000  0.92510000  0.75185000  1.0 -0.0015179552
N  N27  1  0.99760000  0.57490000  0.25185000  1.0 -0.0015179552
N  N28  1  0.00240000  0.07490000  0.24815000  1.0 -0.0015179552
N  N29  1  0.16260000  0.50320000  0.79499000  1.0 -0.2499244941
N  N30  1  0.83740000  0.00320000  0.70501000  1.0 -0.2499244941
N  N31  1  0.83740000  0.49680000  0.20501000  1.0 -0.2499244941
N  N32  1  0.16260000  0.99680000  0.29499000  1.0 -0.2499244941
N  N33  1  0.83940000  0.39490000  0.58618000  1.0 0.0045751313
N  N34  1  0.16060000  0.89490000  0.91382000  1.0 0.0045751313
N  N35  1  0.16060000  0.60510000  0.41382000  1.0 0.0045751313
N  N36  1  0.83940000  0.10510000  0.08618000  1.0 0.0045751313
N  N37  1  0.90150000  0.45120000  0.53405000  1.0 -0.2499244941
N  N38  1  0.09850000  0.95120000  0.96595000  1.0 -0.2499244941
N  N39  1  0.09850000  0.54880000  0.46595000  1.0 -0.2499244941
N  N40  1  0.90150000  0.04880000  0.03405000  1.0 -0.2499244941
