# DDEC6 charges by PACMAN v1.1 (https://github.com/mtap-research/PACMAN-charge/)
data_RATZUL_FSR_pacman
_symmetry_space_group_name_H-M   'P 1'
_cell_length_a   20.99990000
_cell_length_b   20.99990000
_cell_length_c   20.99990000
_cell_angle_alpha   60.00000000
_cell_angle_beta   60.00000000
_cell_angle_gamma   60.00000000
_symmetry_Int_Tables_number   1
_chemical_formula_structural   Zr3H24C42(N3O7)4
_chemical_formula_sum   'Zr6 H48 C84 N24 O56'
_cell_volume   6548.42235079
_cell_formula_units_Z   2
loop_
 _symmetry_equiv_pos_site_id
 _symmetry_equiv_pos_as_xyz
  1  'x, y, z'
loop_
 _atom_site_type_symbol
 _atom_site_label
 _atom_site_symmetry_multiplicity
 _atom_site_fract_x
 _atom_site_fract_y
 _atom_site_fract_z
 _atom_site_occupancy
 _atom_site_charge
Zr  Zr1  1  0.58322000  0.58322000  0.41678000  1.0 2.4033923469
Zr  Zr2  1  0.41678000  0.41678000  0.58322000  1.0 2.4033923469
Zr  Zr3  1  0.58322000  0.41678000  0.58322000  1.0 2.4033923469
Zr  Zr4  1  0.41678000  0.58322000  0.41678000  1.0 2.4033923469
Zr  Zr5  1  0.41678000  0.58322000  0.58322000  1.0 2.4033923469
Zr  Zr6  1  0.58322000  0.41678000  0.41678000  1.0 2.4033923469
H  H1  1  0.40445000  0.79447000  0.59555000  1.0 0.1372195081
H  H2  1  0.40686000  0.90666000  0.59314000  1.0 0.087496469
H  H3  1  0.59555000  0.20553000  0.40445000  1.0 0.1372195081
H  H4  1  0.59314000  0.09334000  0.40686000  1.0 0.087496469
H  H5  1  0.79447000  0.40445000  0.20553000  1.0 0.1372195081
H  H6  1  0.90666000  0.40686000  0.09334000  1.0 0.087496469
H  H7  1  0.20553000  0.59555000  0.79447000  1.0 0.1372195081
H  H8  1  0.09334000  0.59314000  0.90666000  1.0 0.087496469
H  H9  1  0.79447000  0.59555000  0.40445000  1.0 0.1372195081
H  H10  1  0.90666000  0.59314000  0.40686000  1.0 0.087496469
H  H11  1  0.20553000  0.40445000  0.59555000  1.0 0.1372195081
H  H12  1  0.09334000  0.40686000  0.59314000  1.0 0.087496469
H  H13  1  0.40445000  0.20553000  0.79447000  1.0 0.1372195081
H  H14  1  0.40686000  0.09334000  0.90666000  1.0 0.087496469
H  H15  1  0.59555000  0.79447000  0.20553000  1.0 0.1372195081
H  H16  1  0.59314000  0.90666000  0.09334000  1.0 0.087496469
H  H17  1  0.59555000  0.40445000  0.79447000  1.0 0.1372195081
H  H18  1  0.59314000  0.40686000  0.90666000  1.0 0.087496469
H  H19  1  0.40445000  0.59555000  0.20553000  1.0 0.1372195081
H  H20  1  0.40686000  0.59314000  0.09334000  1.0 0.087496469
H  H21  1  0.20553000  0.79447000  0.40445000  1.0 0.1372195081
H  H22  1  0.09334000  0.90666000  0.40686000  1.0 0.087496469
H  H23  1  0.79447000  0.20553000  0.59555000  1.0 0.1372195081
H  H24  1  0.90666000  0.09334000  0.59314000  1.0 0.087496469
H  H25  1  0.59555000  0.79447000  0.40445000  1.0 0.1372195081
H  H26  1  0.59314000  0.90666000  0.40686000  1.0 0.087496469
H  H27  1  0.40445000  0.20553000  0.59555000  1.0 0.1372195081
H  H28  1  0.40686000  0.09334000  0.59314000  1.0 0.087496469
H  H29  1  0.20553000  0.40445000  0.79447000  1.0 0.1372195081
H  H30  1  0.09334000  0.40686000  0.90666000  1.0 0.087496469
H  H31  1  0.79447000  0.59555000  0.20553000  1.0 0.1372195081
H  H32  1  0.90666000  0.59314000  0.09334000  1.0 0.087496469
H  H33  1  0.20553000  0.79447000  0.59555000  1.0 0.1372195081
H  H34  1  0.09334000  0.90666000  0.59314000  1.0 0.087496469
H  H35  1  0.79447000  0.20553000  0.40445000  1.0 0.1372195081
H  H36  1  0.90666000  0.09334000  0.40686000  1.0 0.087496469
H  H37  1  0.59555000  0.40445000  0.20553000  1.0 0.1372195081
H  H38  1  0.59314000  0.40686000  0.09334000  1.0 0.087496469
H  H39  1  0.40445000  0.59555000  0.79447000  1.0 0.1372195081
H  H40  1  0.40686000  0.59314000  0.90666000  1.0 0.087496469
H  H41  1  0.40445000  0.79447000  0.20553000  1.0 0.1372195081
H  H42  1  0.40686000  0.90666000  0.09334000  1.0 0.087496469
H  H43  1  0.59555000  0.20553000  0.79447000  1.0 0.1372195081
H  H44  1  0.59314000  0.09334000  0.90666000  1.0 0.087496469
H  H45  1  0.79447000  0.40445000  0.59555000  1.0 0.1372195081
H  H46  1  0.90666000  0.40686000  0.59314000  1.0 0.087496469
H  H47  1  0.20553000  0.59555000  0.40445000  1.0 0.1372195081
H  H48  1  0.09334000  0.59314000  0.40686000  1.0 0.087496469
C  C1  1  0.44400000  0.81640000  0.55600000  1.0 -0.079800091
C  C2  1  0.44600000  0.88400000  0.55400000  1.0 -0.191201401
C  C3  1  0.55600000  0.18360000  0.44400000  1.0 -0.079800091
C  C4  1  0.55400000  0.11600000  0.44600000  1.0 -0.191201401
C  C5  1  0.81640000  0.44400000  0.18360000  1.0 -0.079800091
C  C6  1  0.88400000  0.44600000  0.11600000  1.0 -0.191201401
C  C7  1  0.18360000  0.55600000  0.81640000  1.0 -0.079800091
C  C8  1  0.11600000  0.55400000  0.88400000  1.0 -0.191201401
C  C9  1  0.81640000  0.55600000  0.44400000  1.0 -0.079800091
C  C10  1  0.88400000  0.55400000  0.44600000  1.0 -0.191201401
C  C11  1  0.18360000  0.44400000  0.55600000  1.0 -0.079800091
C  C12  1  0.11600000  0.44600000  0.55400000  1.0 -0.191201401
C  C13  1  0.44400000  0.18360000  0.81640000  1.0 -0.079800091
C  C14  1  0.44600000  0.11600000  0.88400000  1.0 -0.191201401
C  C15  1  0.55600000  0.81640000  0.18360000  1.0 -0.079800091
C  C16  1  0.55400000  0.88400000  0.11600000  1.0 -0.191201401
C  C17  1  0.55600000  0.44400000  0.81640000  1.0 -0.079800091
C  C18  1  0.55400000  0.44600000  0.88400000  1.0 -0.191201401
C  C19  1  0.44400000  0.55600000  0.18360000  1.0 -0.079800091
C  C20  1  0.44600000  0.55400000  0.11600000  1.0 -0.191201401
C  C21  1  0.18360000  0.81640000  0.44400000  1.0 -0.079800091
C  C22  1  0.11600000  0.88400000  0.44600000  1.0 -0.191201401
C  C23  1  0.81640000  0.18360000  0.55600000  1.0 -0.079800091
C  C24  1  0.88400000  0.11600000  0.55400000  1.0 -0.191201401
C  C25  1  0.55600000  0.81640000  0.44400000  1.0 -0.079800091
C  C26  1  0.55400000  0.88400000  0.44600000  1.0 -0.191201401
C  C27  1  0.44400000  0.18360000  0.55600000  1.0 -0.079800091
C  C28  1  0.44600000  0.11600000  0.55400000  1.0 -0.191201401
C  C29  1  0.18360000  0.44400000  0.81640000  1.0 -0.079800091
C  C30  1  0.11600000  0.44600000  0.88400000  1.0 -0.191201401
C  C31  1  0.81640000  0.55600000  0.18360000  1.0 -0.079800091
C  C32  1  0.88400000  0.55400000  0.11600000  1.0 -0.191201401
C  C33  1  0.18360000  0.81640000  0.55600000  1.0 -0.079800091
C  C34  1  0.11600000  0.88400000  0.55400000  1.0 -0.191201401
C  C35  1  0.81640000  0.18360000  0.44400000  1.0 -0.079800091
C  C36  1  0.88400000  0.11600000  0.44600000  1.0 -0.191201401
C  C37  1  0.55600000  0.44400000  0.18360000  1.0 -0.079800091
C  C38  1  0.55400000  0.44600000  0.11600000  1.0 -0.191201401
C  C39  1  0.44400000  0.55600000  0.81640000  1.0 -0.079800091
C  C40  1  0.44600000  0.55400000  0.88400000  1.0 -0.191201401
C  C41  1  0.44400000  0.81640000  0.18360000  1.0 -0.079800091
C  C42  1  0.44600000  0.88400000  0.11600000  1.0 -0.191201401
C  C43  1  0.55600000  0.18360000  0.81640000  1.0 -0.079800091
C  C44  1  0.55400000  0.11600000  0.88400000  1.0 -0.191201401
C  C45  1  0.81640000  0.44400000  0.55600000  1.0 -0.079800091
C  C46  1  0.88400000  0.44600000  0.55400000  1.0 -0.191201401
C  C47  1  0.18360000  0.55600000  0.44400000  1.0 -0.079800091
C  C48  1  0.11600000  0.55400000  0.44600000  1.0 -0.191201401
C  C49  1  0.50000000  0.71192000  0.50000000  1.0 0.6460737706
C  C50  1  0.50000000  0.78380000  0.50000000  1.0 -0.0134260669
C  C51  1  0.50000000  0.91680000  0.50000000  1.0 0.0777119873
C  C52  1  0.50000000  0.28808000  0.50000000  1.0 0.6460737706
C  C53  1  0.50000000  0.21620000  0.50000000  1.0 -0.0134260669
C  C54  1  0.50000000  0.08320000  0.50000000  1.0 0.0777119873
C  C55  1  0.71192000  0.50000000  0.28808000  1.0 0.6460737706
C  C56  1  0.78380000  0.50000000  0.21620000  1.0 -0.0134260669
C  C57  1  0.91680000  0.50000000  0.08320000  1.0 0.0777119873
C  C58  1  0.28808000  0.50000000  0.71192000  1.0 0.6460737706
C  C59  1  0.21620000  0.50000000  0.78380000  1.0 -0.0134260669
C  C60  1  0.08320000  0.50000000  0.91680000  1.0 0.0777119873
C  C61  1  0.71192000  0.50000000  0.50000000  1.0 0.6460737706
C  C62  1  0.78380000  0.50000000  0.50000000  1.0 -0.0134260669
C  C63  1  0.91680000  0.50000000  0.50000000  1.0 0.0777119873
C  C64  1  0.28808000  0.50000000  0.50000000  1.0 0.6460737706
C  C65  1  0.21620000  0.50000000  0.50000000  1.0 -0.0134260669
C  C66  1  0.08320000  0.50000000  0.50000000  1.0 0.0777119873
C  C67  1  0.50000000  0.28808000  0.71192000  1.0 0.6460737706
C  C68  1  0.50000000  0.21620000  0.78380000  1.0 -0.0134260669
C  C69  1  0.50000000  0.08320000  0.91680000  1.0 0.0777119873
C  C70  1  0.50000000  0.71192000  0.28808000  1.0 0.6460737706
C  C71  1  0.50000000  0.78380000  0.21620000  1.0 -0.0134260669
C  C72  1  0.50000000  0.91680000  0.08320000  1.0 0.0777119873
C  C73  1  0.50000000  0.50000000  0.71192000  1.0 0.6460737706
C  C74  1  0.50000000  0.50000000  0.78380000  1.0 -0.0134260669
C  C75  1  0.50000000  0.50000000  0.91680000  1.0 0.0777119873
C  C76  1  0.50000000  0.50000000  0.28808000  1.0 0.6460737706
C  C77  1  0.50000000  0.50000000  0.21620000  1.0 -0.0134260669
C  C78  1  0.50000000  0.50000000  0.08320000  1.0 0.0777119873
C  C79  1  0.28808000  0.71192000  0.50000000  1.0 0.6460737706
C  C80  1  0.21620000  0.78380000  0.50000000  1.0 -0.0134260669
C  C81  1  0.08320000  0.91680000  0.50000000  1.0 0.0777119873
C  C82  1  0.71192000  0.28808000  0.50000000  1.0 0.6460737706
C  C83  1  0.78380000  0.21620000  0.50000000  1.0 -0.0134260669
C  C84  1  0.91680000  0.08320000  0.50000000  1.0 0.0777119873
N  N1  1  0.47732000  0.98072000  0.52268000  1.0 0.108921364
N  N2  1  0.52268000  0.01928000  0.47732000  1.0 0.108921364
N  N3  1  0.98072000  0.47732000  0.01928000  1.0 0.108921364
N  N4  1  0.01928000  0.52268000  0.98072000  1.0 0.108921364
N  N5  1  0.98072000  0.52268000  0.47732000  1.0 0.108921364
N  N6  1  0.01928000  0.47732000  0.52268000  1.0 0.108921364
N  N7  1  0.47732000  0.01928000  0.98072000  1.0 0.108921364
N  N8  1  0.52268000  0.98072000  0.01928000  1.0 0.108921364
N  N9  1  0.52268000  0.47732000  0.98072000  1.0 0.1033921958
N  N10  1  0.47732000  0.52268000  0.01928000  1.0 0.108921364
N  N11  1  0.01928000  0.98072000  0.47732000  1.0 0.108921364
N  N12  1  0.98072000  0.01928000  0.52268000  1.0 0.108921364
N  N13  1  0.52268000  0.98072000  0.47732000  1.0 0.108921364
N  N14  1  0.47732000  0.01928000  0.52268000  1.0 0.108921364
N  N15  1  0.01928000  0.47732000  0.98072000  1.0 0.1033921958
N  N16  1  0.98072000  0.52268000  0.01928000  1.0 0.108921364
N  N17  1  0.01928000  0.98072000  0.52268000  1.0 0.1033921958
N  N18  1  0.98072000  0.01928000  0.47732000  1.0 0.108921364
N  N19  1  0.52268000  0.47732000  0.01928000  1.0 0.1157228769
N  N20  1  0.47732000  0.52268000  0.98072000  1.0 0.108921364
N  N21  1  0.47732000  0.98072000  0.01928000  1.0 0.108921364
N  N22  1  0.52268000  0.01928000  0.98072000  1.0 0.108921364
N  N23  1  0.98072000  0.47732000  0.52268000  1.0 0.108921364
N  N24  1  0.01928000  0.52268000  0.47732000  1.0 0.108921364
O  O1  1  0.54083000  0.54083000  0.37751000  1.0 -1.1289744257
O  O2  1  0.37751000  0.54083000  0.54083000  1.0 -1.1289744257
O  O3  1  0.54083000  0.54083000  0.54083000  1.0 -1.1289744257
O  O4  1  0.54083000  0.37751000  0.54083000  1.0 -1.1289744257
O  O5  1  0.45917000  0.45917000  0.62249000  1.0 -1.1289744257
O  O6  1  0.62249000  0.45917000  0.45917000  1.0 -1.1289744257
O  O7  1  0.45917000  0.62249000  0.45917000  1.0 -1.1289744257
O  O8  1  0.45917000  0.45917000  0.45917000  1.0 -1.1289744257
O  O9  1  0.55651000  0.68523000  0.44349000  1.0 -0.6231452404
O  O10  1  0.44349000  0.31477000  0.55651000  1.0 -0.6231452404
O  O11  1  0.68523000  0.55651000  0.31477000  1.0 -0.6231452404
O  O12  1  0.31477000  0.44349000  0.68523000  1.0 -0.6231452404
O  O13  1  0.68523000  0.44349000  0.55651000  1.0 -0.6231452404
O  O14  1  0.31477000  0.55651000  0.44349000  1.0 -0.6231452404
O  O15  1  0.55651000  0.31477000  0.68523000  1.0 -0.6231452404
O  O16  1  0.44349000  0.68523000  0.31477000  1.0 -0.6231452404
O  O17  1  0.44349000  0.55651000  0.68523000  1.0 -0.6231452404
O  O18  1  0.55651000  0.44349000  0.31477000  1.0 -0.6231452404
O  O19  1  0.31477000  0.68523000  0.55651000  1.0 -0.6231452404
O  O20  1  0.68523000  0.31477000  0.44349000  1.0 -0.6231452404
O  O21  1  0.44349000  0.68523000  0.55651000  1.0 -0.6231452404
O  O22  1  0.55651000  0.31477000  0.44349000  1.0 -0.6231452404
O  O23  1  0.31477000  0.55651000  0.68523000  1.0 -0.6231452404
O  O24  1  0.68523000  0.44349000  0.31477000  1.0 -0.6231452404
O  O25  1  0.31477000  0.68523000  0.44349000  1.0 -0.6231452404
O  O26  1  0.68523000  0.31477000  0.55651000  1.0 -0.6231452404
O  O27  1  0.44349000  0.55651000  0.31477000  1.0 -0.6231452404
O  O28  1  0.55651000  0.44349000  0.68523000  1.0 -0.6231452404
O  O29  1  0.55651000  0.68523000  0.31477000  1.0 -0.6231452404
O  O30  1  0.44349000  0.31477000  0.68523000  1.0 -0.6231452404
O  O31  1  0.68523000  0.55651000  0.44349000  1.0 -0.6231452404
O  O32  1  0.31477000  0.44349000  0.55651000  1.0 -0.6231452404
O  O33  1  0.44030000  0.97830000  0.60310000  1.0 -0.0205726214
O  O34  1  0.60310000  0.97830000  0.44030000  1.0 -0.0205726214
O  O35  1  0.97830000  0.44030000  0.97830000  1.0 -0.0205726214
O  O36  1  0.97830000  0.60310000  0.97830000  1.0 -0.0205726214
O  O37  1  0.97830000  0.60310000  0.44030000  1.0 -0.0205726214
O  O38  1  0.97830000  0.44030000  0.60310000  1.0 -0.0205726214
O  O39  1  0.44030000  0.97830000  0.97830000  1.0 -0.0134260669
O  O40  1  0.60310000  0.97830000  0.97830000  1.0 -0.0134260669
O  O41  1  0.60310000  0.44030000  0.97830000  1.0 -0.0134260669
O  O42  1  0.44030000  0.60310000  0.97830000  1.0 -0.0205726214
O  O43  1  0.97830000  0.97830000  0.44030000  1.0 -0.0205726214
O  O44  1  0.97830000  0.97830000  0.60310000  1.0 -0.0205726214
O  O45  1  0.55970000  0.02170000  0.39690000  1.0 -0.0205726214
O  O46  1  0.39690000  0.02170000  0.55970000  1.0 -0.0205726214
O  O47  1  0.02170000  0.39690000  0.02170000  1.0 -0.0205726214
O  O48  1  0.02170000  0.55970000  0.02170000  1.0 -0.0205726214
O  O49  1  0.02170000  0.02170000  0.55970000  1.0 -0.0205726214
O  O50  1  0.02170000  0.02170000  0.39690000  1.0 -0.0205726214
O  O51  1  0.55970000  0.39690000  0.02170000  1.0 -0.0205726214
O  O52  1  0.39690000  0.55970000  0.02170000  1.0 -0.0134260669
O  O53  1  0.39690000  0.02170000  0.02170000  1.0 -0.0134260669
O  O54  1  0.55970000  0.02170000  0.02170000  1.0 -0.0134260669
O  O55  1  0.02170000  0.39690000  0.55970000  1.0 -0.0205726214
O  O56  1  0.02170000  0.55970000  0.39690000  1.0 -0.0205726214
