# DDEC6 charges by PACMAN v1.1 (https://github.com/mtap-research/PACMAN-charge/)
data_RAVVUH_ASR_pacman
_symmetry_space_group_name_H-M   'P 1'
_cell_length_a   21.05610000
_cell_length_b   21.05610000
_cell_length_c   21.05610000
_cell_angle_alpha   118.84000000
_cell_angle_beta   118.84000000
_cell_angle_gamma   118.84000000
_symmetry_Int_Tables_number   1
_chemical_formula_structural   MgH3C7O3
_chemical_formula_sum   'Mg6 H18 C42 O18'
_cell_volume   2598.88863116
_cell_formula_units_Z   6
loop_
 _symmetry_equiv_pos_site_id
 _symmetry_equiv_pos_as_xyz
  1  'x, y, z'
loop_
 _atom_site_type_symbol
 _atom_site_label
 _atom_site_symmetry_multiplicity
 _atom_site_fract_x
 _atom_site_fract_y
 _atom_site_fract_z
 _atom_site_occupancy
 _atom_site_charge
Mg  Mg1  1  0.82172000  0.20303000  0.51808000  1.0 1.2432051991
Mg  Mg2  1  0.20303000  0.51808000  0.82172000  1.0 1.2432051991
Mg  Mg3  1  0.51808000  0.82172000  0.20303000  1.0 1.2432051991
Mg  Mg4  1  0.17828000  0.79697000  0.48192000  1.0 1.2432051991
Mg  Mg5  1  0.79697000  0.48192000  0.17828000  1.0 1.2432051991
Mg  Mg6  1  0.48192000  0.17828000  0.79697000  1.0 1.2432051991
H  H1  1  0.73252000  0.15614000  0.61826000  1.0 0.1108415668
H  H2  1  0.15614000  0.61826000  0.73252000  1.0 0.1108415668
H  H3  1  0.61826000  0.73252000  0.15614000  1.0 0.1108415668
H  H4  1  0.26748000  0.84386000  0.38174000  1.0 0.1108415668
H  H5  1  0.84386000  0.38174000  0.26748000  1.0 0.1108415668
H  H6  1  0.38174000  0.26748000  0.84386000  1.0 0.1108415668
H  H7  1  0.01143000  0.51319000  0.91923000  1.0 0.0957407375
H  H8  1  0.51319000  0.91923000  0.01143000  1.0 0.0957407375
H  H9  1  0.91923000  0.01143000  0.51319000  1.0 0.0957407375
H  H10  1  0.98857000  0.48681000  0.08077000  1.0 0.0957407375
H  H11  1  0.48681000  0.08077000  0.98857000  1.0 0.0957407375
H  H12  1  0.08077000  0.98857000  0.48681000  1.0 0.0957407375
H  H13  1  0.15299000  0.70582000  0.16971000  1.0 0.0957407375
H  H14  1  0.70582000  0.16971000  0.15299000  1.0 0.0957407375
H  H15  1  0.16971000  0.15299000  0.70582000  1.0 0.0957407375
H  H16  1  0.84701000  0.29418000  0.83029000  1.0 0.0957407375
H  H17  1  0.29418000  0.83029000  0.84701000  1.0 0.0957407375
H  H18  1  0.83029000  0.84701000  0.29418000  1.0 0.0957407375
C  C1  1  0.18588000  0.57659000  0.94439000  1.0 0.4642728065
C  C2  1  0.57659000  0.94439000  0.18588000  1.0 0.4642728065
C  C3  1  0.94439000  0.18588000  0.57659000  1.0 0.4642728065
C  C4  1  0.81412000  0.42341000  0.05561000  1.0 0.4642728065
C  C5  1  0.42341000  0.05561000  0.81412000  1.0 0.4642728065
C  C6  1  0.05561000  0.81412000  0.42341000  1.0 0.4642728065
C  C7  1  0.28763000  0.70865000  0.11123000  1.0 -0.2309472591
C  C8  1  0.70865000  0.11123000  0.28763000  1.0 -0.2309472591
C  C9  1  0.11123000  0.28763000  0.70865000  1.0 -0.2309472591
C  C10  1  0.71237000  0.29135000  0.88877000  1.0 -0.2309472591
C  C11  1  0.29135000  0.88877000  0.71237000  1.0 -0.2309472591
C  C12  1  0.88877000  0.71237000  0.29135000  1.0 -0.2309472591
C  C13  1  0.49804000  0.90111000  0.31682000  1.0 0.2054357027
C  C14  1  0.90111000  0.31682000  0.49804000  1.0 0.2040615623
C  C15  1  0.31682000  0.49804000  0.90111000  1.0 0.2040615623
C  C16  1  0.50196000  0.09889000  0.68318000  1.0 0.2040615623
C  C17  1  0.09889000  0.68318000  0.50196000  1.0 0.2054357027
C  C18  1  0.68318000  0.50196000  0.09889000  1.0 0.2040615623
C  C19  1  0.57418000  0.01565000  0.46727000  1.0 -0.2114890124
C  C20  1  0.01565000  0.46727000  0.57418000  1.0 -0.2114890124
C  C21  1  0.46727000  0.57418000  0.01565000  1.0 -0.2114890124
C  C22  1  0.42582000  0.98435000  0.53273000  1.0 -0.2114890124
C  C23  1  0.98435000  0.53273000  0.42582000  1.0 -0.2114890124
C  C24  1  0.53273000  0.42582000  0.98435000  1.0 -0.2114890124
C  C25  1  0.45718000  0.94742000  0.42159000  1.0 0.084443966
C  C26  1  0.94742000  0.42159000  0.45718000  1.0 0.084443966
C  C27  1  0.42159000  0.45718000  0.94742000  1.0 0.084443966
C  C28  1  0.54282000  0.05258000  0.57841000  1.0 0.084443966
C  C29  1  0.05258000  0.57841000  0.54282000  1.0 0.084443966
C  C30  1  0.57841000  0.54282000  0.05258000  1.0 0.084443966
C  C31  1  0.25347000  0.76569000  0.21969000  1.0 -0.1713128294
C  C32  1  0.76569000  0.21969000  0.25347000  1.0 -0.1713128294
C  C33  1  0.21969000  0.25347000  0.76569000  1.0 -0.1713128294
C  C34  1  0.74653000  0.23431000  0.78031000  1.0 -0.1713128294
C  C35  1  0.23431000  0.78031000  0.74653000  1.0 -0.1713128294
C  C36  1  0.78031000  0.74653000  0.23431000  1.0 -0.1713128294
C  C37  1  0.16995000  0.65261000  0.07231000  1.0 -0.0530634578
C  C38  1  0.65261000  0.07231000  0.16995000  1.0 -0.0530634578
C  C39  1  0.07231000  0.16995000  0.65261000  1.0 -0.0530634578
C  C40  1  0.83005000  0.34739000  0.92769000  1.0 -0.0530634578
C  C41  1  0.34739000  0.92769000  0.83005000  1.0 -0.0530634578
C  C42  1  0.92769000  0.83005000  0.34739000  1.0 -0.0530634578
O  O1  1  0.99424000  0.40495000  0.76329000  1.0 -0.5611619259
O  O2  1  0.40495000  0.76329000  0.99424000  1.0 -0.5611619259
O  O3  1  0.76329000  0.99424000  0.40495000  1.0 -0.5611619259
O  O4  1  0.00576000  0.59505000  0.23671000  1.0 -0.5611619259
O  O5  1  0.59505000  0.23671000  0.00576000  1.0 -0.5611619259
O  O6  1  0.23671000  0.00576000  0.59505000  1.0 -0.5611619259
O  O7  1  0.28366000  0.63083000  0.97771000  1.0 -0.4786250945
O  O8  1  0.63083000  0.97771000  0.28366000  1.0 -0.4786250945
O  O9  1  0.97771000  0.28366000  0.63083000  1.0 -0.4786250945
O  O10  1  0.71634000  0.36917000  0.02229000  1.0 -0.4786250945
O  O11  1  0.36917000  0.02229000  0.71634000  1.0 -0.4786250945
O  O12  1  0.02229000  0.71634000  0.36917000  1.0 -0.4786250945
O  O13  1  0.63257000  0.98470000  0.38553000  1.0 -0.5921650435
O  O14  1  0.98470000  0.38553000  0.63257000  1.0 -0.5921650435
O  O15  1  0.38553000  0.63257000  0.98470000  1.0 -0.5921650435
O  O16  1  0.36743000  0.01530000  0.61447000  1.0 -0.5921650435
O  O17  1  0.01530000  0.61447000  0.36743000  1.0 -0.5921650435
O  O18  1  0.61447000  0.36743000  0.01530000  1.0 -0.5921650435
