# DDEC6 charges by PACMAN v1.1 (https://github.com/mtap-research/PACMAN-charge/)
data_RAWQAK_ASR_pacman
_chemical_formula_sum              "Cu32 N40 C40"
_cell_length_a       13.6304
_cell_length_b       28.236
_cell_length_c       9.4337
_cell_angle_alpha    90
_cell_angle_beta     90
_cell_angle_gamma    90

_symmetry_space_group_name_H-M    "P 1"
_symmetry_Int_Tables_number       1

loop_
  _symmetry_equiv_pos_as_xyz
  'x, y, z'

loop_
  _atom_site_type_symbol
  _atom_site_label
  _atom_site_symmetry_multiplicity
  _atom_site_fract_x
  _atom_site_fract_y
  _atom_site_fract_z
  _atom_site_occupancy
 _atom_site_charge
Cu  Cu1       1.0  0.97139  0.26673  0.23282  1.0000 0.2653710856
Cu  Cu2       1.0  0.83192  0.32814  0.29521  1.0000 0.1952169956
N   N1        1.0  0.99990  0.25570  0.42460  1.0000 -0.2627344867
C   C1        1.0  0.98650  0.25220  0.04100  1.0000 0.0406240269
N   N2        1.0  0.94360  0.35930  0.21290  1.0000 -0.2824135413
N   N3        1.0  0.76940  0.26720  0.27510  1.0000 0.064248582
C   C2        1.0  0.75120  0.36910  0.41400  1.0000 0.0906070544
C   C3        1.0  0.73060  0.23280  0.27510  1.0000 -0.3036555543
Cu  Cu3       1.0  0.97139  0.76673  0.73282  1.0000 0.2639259631
Cu  Cu4       1.0  0.83192  0.82814  0.79521  1.0000 0.1952169956
N   N4        1.0  0.99990  0.75570  0.92460  1.0000 -0.2627344867
C   C4        1.0  0.98650  0.75220  0.54100  1.0000 0.0406240269
N   N5        1.0  0.94360  0.85930  0.71290  1.0000 -0.2824135413
N   N6        1.0  0.76940  0.76720  0.77510  1.0000 0.0657161968
C   C5        1.0  0.75120  0.86910  0.91400  1.0000 0.0906070544
C   C6        1.0  0.73060  0.73280  0.77510  1.0000 -0.3036555543
Cu  Cu5       1.0  0.47139  0.26673  0.73282  1.0000 0.2653710856
Cu  Cu6       1.0  0.33192  0.32814  0.79521  1.0000 0.1952169956
N   N7        1.0  0.49990  0.25570  0.92460  1.0000 -0.2627344867
C   C7        1.0  0.48650  0.25220  0.54100  1.0000 0.0406240269
N   N8        1.0  0.44360  0.35930  0.71290  1.0000 -0.2824135413
N   N9        1.0  0.26940  0.26720  0.77510  1.0000 0.064248582
C   C8        1.0  0.25120  0.36910  0.91400  1.0000 0.0906070544
C   C9        1.0  0.23060  0.23280  0.77510  1.0000 -0.3036555543
Cu  Cu7       1.0  0.47139  0.76673  0.23282  1.0000 0.2653710856
Cu  Cu8       1.0  0.33192  0.82814  0.29521  1.0000 0.1952169956
N   N10       1.0  0.49990  0.75570  0.42460  1.0000 -0.2627344867
C   C10       1.0  0.48650  0.75220  0.04100  1.0000 0.0406240269
N   N11       1.0  0.44360  0.85930  0.21290  1.0000 -0.2824135413
N   N12       1.0  0.26940  0.76720  0.27510  1.0000 0.064248582
C   C11       1.0  0.25120  0.86910  0.41400  1.0000 0.0906070544
C   C12       1.0  0.23060  0.73280  0.27510  1.0000 -0.3102711951
Cu  Cu9       1.0  0.02861  0.73327  0.23282  1.0000 0.2653710856
Cu  Cu10      1.0  0.16808  0.67186  0.29521  1.0000 0.3514645407
N   N13       1.0  0.00010  0.74430  0.42460  1.0000 -0.2403983669
C   C13       1.0  0.01350  0.74780  0.04100  1.0000 0.0406240269
N   N14       1.0  0.05640  0.64070  0.21290  1.0000 -0.3167363002
C   C14       1.0  0.24880  0.63090  0.41400  1.0000 0.0906070544
Cu  Cu11      1.0  0.02861  0.23327  0.73282  1.0000 0.2653710856
Cu  Cu12      1.0  0.16808  0.17186  0.79521  1.0000 0.3514645407
N   N15       1.0  0.00010  0.24430  0.92460  1.0000 -0.2403983669
C   C15       1.0  0.01350  0.24780  0.54100  1.0000 0.0406240269
N   N16       1.0  0.05640  0.14070  0.71290  1.0000 -0.3167363002
C   C16       1.0  0.24880  0.13090  0.91400  1.0000 0.0906070544
Cu  Cu13      1.0  0.52861  0.73327  0.73282  1.0000 0.2653710856
Cu  Cu14      1.0  0.66808  0.67186  0.79521  1.0000 0.3514645407
N   N17       1.0  0.50010  0.74430  0.92460  1.0000 -0.2403983669
C   C17       1.0  0.51350  0.74780  0.54100  1.0000 0.0406240269
N   N18       1.0  0.55640  0.64070  0.71290  1.0000 -0.3167363002
C   C18       1.0  0.74880  0.63090  0.91400  1.0000 0.0906070544
Cu  Cu15      1.0  0.52861  0.23327  0.23282  1.0000 0.2653710856
Cu  Cu16      1.0  0.66808  0.17186  0.29521  1.0000 0.3514645407
N   N19       1.0  0.50010  0.24430  0.42460  1.0000 -0.2403983669
C   C19       1.0  0.51350  0.24780  0.04100  1.0000 0.0406240269
N   N20       1.0  0.55640  0.14070  0.21290  1.0000 -0.3167363002
C   C20       1.0  0.74880  0.13090  0.41400  1.0000 0.0906070544
Cu  Cu17      1.0  0.22139  0.98327  0.48282  1.0000 0.2653710856
Cu  Cu18      1.0  0.08192  0.92186  0.54521  1.0000 0.1952169956
N   N21       1.0  0.24990  0.99430  0.67460  1.0000 -0.2627344867
C   C21       1.0  0.23650  0.99780  0.29100  1.0000 0.0406240269
N   N22       1.0  0.19360  0.89070  0.46290  1.0000 -0.2824135413
N   N23       1.0  0.01940  0.98280  0.52510  1.0000 0.064248582
C   C22       1.0  0.00120  0.88090  0.66400  1.0000 0.0906070544
C   C23       1.0  0.98060  0.01720  0.52510  1.0000 -0.3036555543
Cu  Cu19      1.0  0.22139  0.48327  0.98282  1.0000 0.2653710856
Cu  Cu20      1.0  0.08192  0.42186  0.04521  1.0000 0.1952169956
N   N24       1.0  0.24990  0.49430  0.17460  1.0000 -0.2627344867
C   C24       1.0  0.23650  0.49780  0.79100  1.0000 0.0406240269
N   N25       1.0  0.19360  0.39070  0.96290  1.0000 -0.2824135413
N   N26       1.0  0.01940  0.48280  0.02510  1.0000 0.064248582
C   C25       1.0  0.00120  0.38090  0.16400  1.0000 0.0906070544
C   C26       1.0  0.98060  0.51720  0.02510  1.0000 -0.3036555543
Cu  Cu21      1.0  0.72139  0.98327  0.98282  1.0000 0.2653710856
Cu  Cu22      1.0  0.58192  0.92186  0.04521  1.0000 0.1952169956
N   N27       1.0  0.74990  0.99430  0.17460  1.0000 -0.2627344867
C   C27       1.0  0.73650  0.99780  0.79100  1.0000 0.0406240269
N   N28       1.0  0.69360  0.89070  0.96290  1.0000 -0.2824135413
N   N29       1.0  0.51940  0.98280  0.02510  1.0000 0.064248582
C   C28       1.0  0.50120  0.88090  0.16400  1.0000 0.0906070544
C   C29       1.0  0.48060  0.01720  0.02510  1.0000 -0.3036555543
Cu  Cu23      1.0  0.72139  0.48327  0.48282  1.0000 0.2653710856
Cu  Cu24      1.0  0.58192  0.42186  0.54521  1.0000 0.1952169956
N   N30       1.0  0.74990  0.49430  0.67460  1.0000 -0.2627344867
C   C30       1.0  0.73650  0.49780  0.29100  1.0000 0.0406240269
N   N31       1.0  0.69360  0.39070  0.46290  1.0000 -0.2824135413
N   N32       1.0  0.51940  0.48280  0.52510  1.0000 0.064248582
C   C31       1.0  0.50120  0.38090  0.66400  1.0000 0.0906070544
C   C32       1.0  0.48060  0.51720  0.52510  1.0000 -0.3036555543
Cu  Cu25      1.0  0.27861  0.51673  0.48282  1.0000 0.2653710856
Cu  Cu26      1.0  0.41808  0.57814  0.54521  1.0000 0.3514645407
N   N33       1.0  0.25010  0.50570  0.67460  1.0000 -0.2403983669
C   C33       1.0  0.26350  0.50220  0.29100  1.0000 0.0406240269
N   N34       1.0  0.30640  0.60930  0.46290  1.0000 -0.3167363002
C   C34       1.0  0.49880  0.61910  0.66400  1.0000 0.0906070544
Cu  Cu27      1.0  0.27861  0.01673  0.98282  1.0000 0.2653710856
Cu  Cu28      1.0  0.41808  0.07814  0.04521  1.0000 0.3514645407
N   N35       1.0  0.25010  0.00570  0.17460  1.0000 -0.2403983669
C   C35       1.0  0.26350  0.00220  0.79100  1.0000 0.0406240269
N   N36       1.0  0.30640  0.10930  0.96290  1.0000 -0.3167363002
C   C36       1.0  0.49880  0.11910  0.16400  1.0000 0.0950604612
Cu  Cu29      1.0  0.77861  0.51673  0.98282  1.0000 0.2653710856
Cu  Cu30      1.0  0.91808  0.57814  0.04521  1.0000 0.3514645407
N   N37       1.0  0.75010  0.50570  0.17460  1.0000 -0.2403983669
C   C37       1.0  0.76350  0.50220  0.79100  1.0000 0.0406240269
N   N38       1.0  0.80640  0.60930  0.96290  1.0000 -0.3102711951
C   C38       1.0  0.99880  0.61910  0.16400  1.0000 0.0950604612
Cu  Cu31      1.0  0.77861  0.01673  0.48282  1.0000 0.2653710856
Cu  Cu32      1.0  0.91808  0.07814  0.54521  1.0000 0.3514645407
N   N39       1.0  0.75010  0.00570  0.67460  1.0000 -0.2403983669
C   C39       1.0  0.76350  0.00220  0.29100  1.0000 0.0462756352
N   N40       1.0  0.80640  0.10930  0.46290  1.0000 -0.3167363002
C   C40       1.0  0.99880  0.11910  0.66400  1.0000 0.0906070544
  C   C41       1.0  0.76940  0.26720  0.27510  1.0000
  N   N41       1.0  0.73060  0.23280  0.27510  1.0000
  C   C42       1.0  0.76940  0.76720  0.77510  1.0000
  N   N42       1.0  0.73060  0.73280  0.77510  1.0000
  C   C43       1.0  0.26940  0.26720  0.77510  1.0000
  N   N43       1.0  0.23060  0.23280  0.77510  1.0000
  C   C44       1.0  0.26940  0.76720  0.27510  1.0000
  N   N44       1.0  0.23060  0.73280  0.27510  1.0000
  C   C45       1.0  0.01940  0.98280  0.52510  1.0000
  N   N45       1.0  0.98060  0.01720  0.52510  1.0000
  C   C46       1.0  0.01940  0.48280  0.02510  1.0000
  N   N46       1.0  0.98060  0.51720  0.02510  1.0000
  C   C47       1.0  0.51940  0.98280  0.02510  1.0000
  N   N47       1.0  0.48060  0.01720  0.02510  1.0000
  C   C48       1.0  0.51940  0.48280  0.52510  1.0000
  N   N48       1.0  0.48060  0.51720  0.52510  1.0000
