# DDEC6 charges by PACMAN v1.1 (https://github.com/mtap-research/PACMAN-charge/)
data_RAXBOJ_ion_pacman
_symmetry_space_group_name_H-M   'P 1'
_cell_length_a   13.65660000
_cell_length_b   21.25830000
_cell_length_c   14.16750000
_cell_angle_alpha   90.00000000
_cell_angle_beta   113.85000000
_cell_angle_gamma   90.00000000
_symmetry_Int_Tables_number   1
_chemical_formula_structural   Sr2MnMo6P4H13C5NO38
_chemical_formula_sum   'Sr8 Mn4 Mo24 P16 H52 C20 N4 O152'
_cell_volume   3761.82803672
_cell_formula_units_Z   4
loop_
 _symmetry_equiv_pos_site_id
 _symmetry_equiv_pos_as_xyz
  1  'x, y, z'
loop_
 _atom_site_type_symbol
 _atom_site_label
 _atom_site_symmetry_multiplicity
 _atom_site_fract_x
 _atom_site_fract_y
 _atom_site_fract_z
 _atom_site_occupancy
 _atom_site_charge
Sr  Sr1  1  0.67950000  0.64137000  0.13126000  1.0 1.4435998654
Sr  Sr2  1  0.82050000  0.14137000  0.86874000  1.0 1.4435998654
Sr  Sr3  1  0.32050000  0.35863000  0.86874000  1.0 1.4435998654
Sr  Sr4  1  0.17950000  0.85863000  0.13126000  1.0 1.4435998654
Sr  Sr5  1  0.21349000  0.51794000  0.98530000  1.0 1.3819309628
Sr  Sr6  1  0.28651000  0.01794000  0.01470000  1.0 1.3819309628
Sr  Sr7  1  0.78651000  0.48206000  0.01470000  1.0 1.3819309628
Sr  Sr8  1  0.71349000  0.98206000  0.98530000  1.0 1.3819309628
Mn  Mn1  1  0.50000000  0.50000000  0.00000000  1.0 1.2351445114
Mn  Mn2  1  0.00000000  0.00000000  0.00000000  1.0 1.2351445114
Mn  Mn3  1  0.50000000  0.50000000  0.50000000  1.0 1.3399129068
Mn  Mn4  1  0.00000000  0.00000000  0.50000000  1.0 1.3399129068
Mo  Mo1  1  0.64429000  0.41320000  0.35415000  1.0 2.0417943751
Mo  Mo2  1  0.85571000  0.91320000  0.64585000  1.0 2.0417943751
Mo  Mo3  1  0.35571000  0.58680000  0.64585000  1.0 2.0417943751
Mo  Mo4  1  0.14429000  0.08680000  0.35415000  1.0 2.0417943751
Mo  Mo5  1  0.68186000  0.57641000  0.38566000  1.0 2.0176071083
Mo  Mo6  1  0.81814000  0.07641000  0.61434000  1.0 2.0176071083
Mo  Mo7  1  0.31814000  0.42359000  0.61434000  1.0 2.0176071083
Mo  Mo8  1  0.18186000  0.92359000  0.38566000  1.0 2.0176071083
Mo  Mo9  1  0.26248000  0.58375000  0.28593000  1.0 2.0559102452
Mo  Mo10  1  0.23752000  0.08375000  0.71407000  1.0 2.0559102452
Mo  Mo11  1  0.73752000  0.41625000  0.71407000  1.0 2.0559102452
Mo  Mo12  1  0.76248000  0.91625000  0.28593000  1.0 2.0559102452
Mo  Mo13  1  0.51855000  0.64873000  0.35504000  1.0 2.0417943751
Mo  Mo14  1  0.98145000  0.14873000  0.64496000  1.0 2.0417943751
Mo  Mo15  1  0.48145000  0.35127000  0.64496000  1.0 2.0417943751
Mo  Mo16  1  0.01855000  0.85127000  0.35504000  1.0 2.0417943751
Mo  Mo17  1  0.23518000  0.46266000  0.26553000  1.0 2.0525864517
Mo  Mo18  1  0.26482000  0.96266000  0.73447000  1.0 2.0525864517
Mo  Mo19  1  0.76482000  0.53734000  0.73447000  1.0 2.0525864517
Mo  Mo20  1  0.73518000  0.03734000  0.26553000  1.0 2.0525864517
Mo  Mo21  1  0.45627000  0.36464000  0.30727000  1.0 2.0417943751
Mo  Mo22  1  0.04373000  0.86464000  0.69273000  1.0 2.0417943751
Mo  Mo23  1  0.54373000  0.63536000  0.69273000  1.0 2.0417943751
Mo  Mo24  1  0.95627000  0.13536000  0.30727000  1.0 2.0417943751
P  P1  1  0.75153000  0.49613000  0.22224000  1.0 1.5193427359
P  P2  1  0.74847000  0.99613000  0.77776000  1.0 1.5193427359
P  P3  1  0.24847000  0.50387000  0.77776000  1.0 1.5193427359
P  P4  1  0.25153000  0.00387000  0.22224000  1.0 1.5193427359
P  P5  1  0.44514000  0.51427000  0.21173000  1.0 1.567802236
P  P6  1  0.05486000  0.01427000  0.78827000  1.0 1.567802236
P  P7  1  0.55486000  0.48573000  0.78827000  1.0 1.567802236
P  P8  1  0.94514000  0.98573000  0.21173000  1.0 1.567802236
P  P9  1  0.24119000  0.36219000  0.08973000  1.0 1.5776576554
P  P10  1  0.25881000  0.86219000  0.91027000  1.0 1.5776576554
P  P11  1  0.75881000  0.63781000  0.91027000  1.0 1.5776576554
P  P12  1  0.74119000  0.13781000  0.08973000  1.0 1.5776576554
P  P13  1  0.30147000  0.71811000  0.18942000  1.0 1.5193427359
P  P14  1  0.19853000  0.21811000  0.81058000  1.0 1.5193427359
P  P15  1  0.69853000  0.28189000  0.81058000  1.0 1.5193427359
P  P16  1  0.80147000  0.78189000  0.18942000  1.0 1.5193427359
H  H1  1  0.28320000  0.74960000  0.31420000  1.0 0.404411309
H  H2  1  0.21680000  0.24960000  0.68580000  1.0 0.404411309
H  H3  1  0.71680000  0.25040000  0.68580000  1.0 0.404411309
H  H4  1  0.78320000  0.75040000  0.31420000  1.0 0.404411309
H  H5  1  0.18100000  0.28860000  0.99580000  1.0 0.3709615177
H  H6  1  0.31900000  0.78860000  0.00420000  1.0 0.3709615177
H  H7  1  0.81900000  0.71140000  0.00420000  1.0 0.3709615177
H  H8  1  0.68100000  0.21140000  0.99580000  1.0 0.3709615177
H  H9  1  0.50540000  0.72610000  0.13900000  1.0 0.3709615177
H  H10  1  0.99460000  0.22610000  0.86100000  1.0 0.3709615177
H  H11  1  0.49460000  0.27390000  0.86100000  1.0 0.3709615177
H  H12  1  0.00540000  0.77390000  0.13900000  1.0 0.3709615177
H  H13  1  0.50550000  0.75500000  0.05240000  1.0 0.3459831407
H  H14  1  0.99450000  0.25500000  0.94760000  1.0 0.3459831407
H  H15  1  0.49450000  0.24500000  0.94760000  1.0 0.3459831407
H  H16  1  0.00550000  0.74500000  0.05240000  1.0 0.3459831407
H  H17  1  0.33350000  0.63470000  0.93170000  1.0 0.3911777964
H  H18  1  0.16650000  0.13470000  0.06830000  1.0 0.3911777964
H  H19  1  0.66650000  0.36530000  0.06830000  1.0 0.3911777964
H  H20  1  0.83350000  0.86530000  0.93170000  1.0 0.3911777964
H  H21  1  0.27140000  0.66500000  0.98330000  1.0 0.3911777964
H  H22  1  0.22860000  0.16500000  0.01670000  1.0 0.3911777964
H  H23  1  0.72860000  0.33500000  0.01670000  1.0 0.3911777964
H  H24  1  0.77140000  0.83500000  0.98330000  1.0 0.3911777964
H  H25  1  0.50490000  0.37380000  0.07710000  1.0 0.3642199417
H  H26  1  0.99510000  0.87380000  0.92290000  1.0 0.3642199417
H  H27  1  0.49510000  0.62620000  0.92290000  1.0 0.3642199417
H  H28  1  0.00490000  0.12620000  0.07710000  1.0 0.3642199417
H  H29  1  0.51500000  0.37330000  0.98460000  1.0 0.2879341697
H  H30  1  0.98500000  0.87330000  0.01540000  1.0 0.2879341697
H  H31  1  0.48500000  0.62670000  0.01540000  1.0 0.2879341697
H  H32  1  0.01500000  0.12670000  0.98460000  1.0 0.2879341697
H  H33  1  0.46570000  0.20260000  0.45130000  1.0 0.3122391855
H  H34  1  0.53430000  0.79740000  0.54870000  1.0 0.3122391855
H  H35  1  0.49030000  0.16580000  0.61000000  1.0 0.1270266628
H  H36  1  0.50970000  0.83420000  0.39000000  1.0 0.1270266628
H  H37  1  0.50740000  0.05770000  0.63730000  1.0 0.142531105
H  H38  1  0.49260000  0.94230000  0.36270000  1.0 0.142531105
H  H39  1  0.45490000  0.13750000  0.31980000  1.0 0.1270266628
H  H40  1  0.54510000  0.86250000  0.68020000  1.0 0.1270266628
H  H41  1  0.47240000  0.03380000  0.34900000  1.0 0.1564256405
H  H42  1  0.52760000  0.96620000  0.65100000  1.0 0.1564256405
H  H43  1  0.03430000  0.70260000  0.54870000  1.0 0.3122391855
H  H44  1  0.96570000  0.29740000  0.45130000  1.0 0.3122391855
H  H45  1  0.00970000  0.66580000  0.39000000  1.0 0.1270266628
H  H46  1  0.99030000  0.33420000  0.61000000  1.0 0.1270266628
H  H47  1  0.99260000  0.55770000  0.36270000  1.0 0.142531105
H  H48  1  0.00740000  0.44230000  0.63730000  1.0 0.142531105
H  H49  1  0.04510000  0.63750000  0.68020000  1.0 0.1270266628
H  H50  1  0.95490000  0.36250000  0.31980000  1.0 0.1270266628
H  H51  1  0.02760000  0.53380000  0.65100000  1.0 0.1564256405
H  H52  1  0.97240000  0.46620000  0.34900000  1.0 0.1564256405
C  C1  1  0.48700000  0.13898000  0.55690000  1.0 0.0932147732
C  C2  1  0.51300000  0.86102000  0.44310000  1.0 0.0932147732
C  C3  1  0.49760000  0.07421000  0.57320000  1.0 -0.1491829897
C  C4  1  0.50240000  0.92579000  0.42680000  1.0 -0.1491829897
C  C5  1  0.46610000  0.12199000  0.38470000  1.0 0.0810399508
C  C6  1  0.53390000  0.87801000  0.61530000  1.0 0.0810399508
C  C7  1  0.47680000  0.06029000  0.40270000  1.0 -0.143348738
C  C8  1  0.52320000  0.93971000  0.59730000  1.0 -0.143348738
C  C9  1  0.49360000  0.03439000  0.49470000  1.0 0.0980347493
C  C10  1  0.50640000  0.96561000  0.50530000  1.0 0.0980347493
C  C11  1  0.01300000  0.63898000  0.44310000  1.0 0.0932147732
C  C12  1  0.98700000  0.36102000  0.55690000  1.0 0.0932147732
C  C13  1  0.00240000  0.57421000  0.42680000  1.0 -0.1491829897
C  C14  1  0.99760000  0.42579000  0.57320000  1.0 -0.1491829897
C  C15  1  0.03390000  0.62199000  0.61530000  1.0 0.0810399508
C  C16  1  0.96610000  0.37801000  0.38470000  1.0 0.0810399508
C  C17  1  0.02320000  0.56029000  0.59730000  1.0 -0.143348738
C  C18  1  0.97680000  0.43971000  0.40270000  1.0 -0.143348738
C  C19  1  0.00640000  0.53439000  0.50530000  1.0 0.0980347493
C  C20  1  0.99360000  0.46561000  0.49470000  1.0 0.0980347493
N  N1  1  0.47170000  0.16270000  0.46220000  1.0 -0.121592333
N  N2  1  0.52830000  0.83730000  0.53780000  1.0 -0.121592333
N  N3  1  0.02830000  0.66270000  0.53780000  1.0 -0.121592333
N  N4  1  0.97170000  0.33730000  0.46220000  1.0 -0.121592333
O  O1  1  0.16250000  0.60332000  0.31975000  1.0 -0.5464375759
O  O2  1  0.33750000  0.10332000  0.68025000  1.0 -0.5464375759
O  O3  1  0.83750000  0.39668000  0.68025000  1.0 -0.5464375759
O  O4  1  0.66250000  0.89668000  0.31975000  1.0 -0.5464375759
O  O5  1  0.78032000  0.61753000  0.47502000  1.0 -0.5422288472
O  O6  1  0.71968000  0.11753000  0.52498000  1.0 -0.5422288472
O  O7  1  0.21968000  0.38247000  0.52498000  1.0 -0.5422288472
O  O8  1  0.28032000  0.88247000  0.47502000  1.0 -0.5422288472
O  O9  1  0.49030000  0.29469000  0.36536000  1.0 -0.5853206957
O  O10  1  0.00970000  0.79469000  0.63464000  1.0 -0.5827089096
O  O11  1  0.50970000  0.70531000  0.63464000  1.0 -0.5827089096
O  O12  1  0.99030000  0.20531000  0.36536000  1.0 -0.5853206957
O  O13  1  0.72231000  0.35402000  0.42276000  1.0 -0.5621763462
O  O14  1  0.77769000  0.85402000  0.57724000  1.0 -0.5621763462
O  O15  1  0.27769000  0.64598000  0.57724000  1.0 -0.5621763462
O  O16  1  0.22231000  0.14598000  0.42276000  1.0 -0.5621763462
O  O17  1  0.12654000  0.45448000  0.29183000  1.0 -0.5464375759
O  O18  1  0.37346000  0.95448000  0.70817000  1.0 -0.5464375759
O  O19  1  0.87346000  0.54552000  0.70817000  1.0 -0.5464375759
O  O20  1  0.62654000  0.04552000  0.29183000  1.0 -0.5464375759
O  O21  1  0.54146000  0.42286000  0.41967000  1.0 -0.8721323306
O  O22  1  0.95854000  0.92286000  0.58033000  1.0 -0.8721323306
O  O23  1  0.45854000  0.57714000  0.58033000  1.0 -0.8721323306
O  O24  1  0.04146000  0.07714000  0.41967000  1.0 -0.8721323306
O  O25  1  0.73069000  0.48720000  0.45055000  1.0 -0.8345340634
O  O26  1  0.76931000  0.98720000  0.54945000  1.0 -0.8345340634
O  O27  1  0.26931000  0.51280000  0.54945000  1.0 -0.8345340634
O  O28  1  0.23069000  0.01280000  0.45055000  1.0 -0.8345340634
O  O29  1  0.40963000  0.57432000  0.25101000  1.0 -0.8597738497
O  O30  1  0.09037000  0.07432000  0.74899000  1.0 -0.8597738497
O  O31  1  0.59037000  0.42568000  0.74899000  1.0 -0.8597738497
O  O32  1  0.90963000  0.92568000  0.25101000  1.0 -0.8597738497
O  O33  1  0.38245000  0.64094000  0.38992000  1.0 -0.9008947605
O  O34  1  0.11755000  0.14094000  0.61008000  1.0 -0.9008947605
O  O35  1  0.61755000  0.35906000  0.61008000  1.0 -0.9008947605
O  O36  1  0.88245000  0.85906000  0.38992000  1.0 -0.9008947605
O  O37  1  0.57358000  0.57429000  0.44483000  1.0 -0.8721323306
O  O38  1  0.92642000  0.07429000  0.55517000  1.0 -0.8721323306
O  O39  1  0.42642000  0.42571000  0.55517000  1.0 -0.8721323306
O  O40  1  0.07358000  0.92571000  0.44483000  1.0 -0.8721323306
O  O41  1  0.33180000  0.51387000  0.38198000  1.0 -0.8597738497
O  O42  1  0.16820000  0.01387000  0.61802000  1.0 -0.8597738497
O  O43  1  0.66820000  0.48613000  0.61802000  1.0 -0.8597738497
O  O44  1  0.83180000  0.98613000  0.38198000  1.0 -0.8597738497
O  O45  1  0.19841000  0.53042000  0.16388000  1.0 -0.8891615117
O  O46  1  0.30159000  0.03042000  0.83612000  1.0 -0.8891615117
O  O47  1  0.80159000  0.46958000  0.83612000  1.0 -0.8891615117
O  O48  1  0.69841000  0.96958000  0.16388000  1.0 -0.8891615117
O  O49  1  0.41929000  0.52005000  0.09798000  1.0 -0.8191099261
O  O50  1  0.08071000  0.02005000  0.90202000  1.0 -0.8191099261
O  O51  1  0.58071000  0.47995000  0.90202000  1.0 -0.8191099261
O  O52  1  0.91929000  0.97995000  0.09798000  1.0 -0.8191099261
O  O53  1  0.56543000  0.50450000  0.27754000  1.0 -0.8597738497
O  O54  1  0.93457000  0.00450000  0.72246000  1.0 -0.8597738497
O  O55  1  0.43457000  0.49550000  0.72246000  1.0 -0.8597738497
O  O56  1  0.06543000  0.99550000  0.27754000  1.0 -0.8597738497
O  O57  1  0.75929000  0.55354000  0.29317000  1.0 -0.7803593819
O  O58  1  0.74071000  0.05354000  0.70683000  1.0 -0.7803593819
O  O59  1  0.24071000  0.44646000  0.70683000  1.0 -0.7803593819
O  O60  1  0.25929000  0.94646000  0.29317000  1.0 -0.7803593819
O  O61  1  0.72818000  0.43567000  0.26904000  1.0 -0.7483377302
O  O62  1  0.77182000  0.93567000  0.73096000  1.0 -0.7483377302
O  O63  1  0.27182000  0.56433000  0.73096000  1.0 -0.7483377302
O  O64  1  0.22818000  0.06433000  0.26904000  1.0 -0.7483377302
O  O65  1  0.85727000  0.48855000  0.21128000  1.0 -0.7803593819
O  O66  1  0.64273000  0.98855000  0.78872000  1.0 -0.7803593819
O  O67  1  0.14273000  0.51145000  0.78872000  1.0 -0.7803593819
O  O68  1  0.35727000  0.01145000  0.21128000  1.0 -0.7803593819
O  O69  1  0.38373000  0.45789000  0.23160000  1.0 -0.8830659235
O  O70  1  0.11627000  0.95789000  0.76840000  1.0 -0.8830659235
O  O71  1  0.61627000  0.54211000  0.76840000  1.0 -0.8830659235
O  O72  1  0.88373000  0.04211000  0.23160000  1.0 -0.8830659235
O  O73  1  0.60398000  0.63547000  0.27576000  1.0 -0.9008947605
O  O74  1  0.89602000  0.13547000  0.72424000  1.0 -0.9008947605
O  O75  1  0.39602000  0.36453000  0.72424000  1.0 -0.9008947605
O  O76  1  0.10398000  0.86453000  0.27576000  1.0 -0.9008947605
O  O77  1  0.54281000  0.37446000  0.22886000  1.0 -0.8191099261
O  O78  1  0.95719000  0.87446000  0.77114000  1.0 -0.8191099261
O  O79  1  0.45719000  0.62554000  0.77114000  1.0 -0.8191099261
O  O80  1  0.04281000  0.12554000  0.22886000  1.0 -0.8191099261
O  O81  1  0.26954000  0.39828000  0.01296000  1.0 -0.8191099261
O  O82  1  0.23046000  0.89828000  0.98704000  1.0 -0.8191099261
O  O83  1  0.73046000  0.60172000  0.98704000  1.0 -0.8191099261
O  O84  1  0.76954000  0.10172000  0.01296000  1.0 -0.8191099261
O  O85  1  0.23987000  0.65682000  0.18307000  1.0 -0.7803593819
O  O86  1  0.26013000  0.15682000  0.81693000  1.0 -0.7803593819
O  O87  1  0.76013000  0.34318000  0.81693000  1.0 -0.7803593819
O  O88  1  0.73987000  0.84318000  0.18307000  1.0 -0.7803593819
O  O89  1  0.42274000  0.70476000  0.23388000  1.0 -0.7670481051
O  O90  1  0.07726000  0.20476000  0.76612000  1.0 -0.7670481051
O  O91  1  0.57726000  0.29524000  0.76612000  1.0 -0.7670481051
O  O92  1  0.92274000  0.79524000  0.23388000  1.0 -0.7670481051
O  O93  1  0.57827000  0.70737000  0.43769000  1.0 -0.5827089096
O  O94  1  0.92173000  0.20737000  0.56231000  1.0 -0.5827089096
O  O95  1  0.42173000  0.29263000  0.56231000  1.0 -0.5827089096
O  O96  1  0.07827000  0.79263000  0.43769000  1.0 -0.5827089096
O  O97  1  0.18279000  0.40276000  0.14019000  1.0 -0.7670481051
O  O98  1  0.31721000  0.90276000  0.85981000  1.0 -0.7670481051
O  O99  1  0.81721000  0.59724000  0.85981000  1.0 -0.7670481051
O  O100  1  0.68279000  0.09724000  0.14019000  1.0 -0.7670481051
O  O101  1  0.33943000  0.33005000  0.17311000  1.0 -0.7403953666
O  O102  1  0.16057000  0.83005000  0.82689000  1.0 -0.7403953666
O  O103  1  0.66057000  0.66995000  0.82689000  1.0 -0.7403953666
O  O104  1  0.83943000  0.16995000  0.17311000  1.0 -0.7403953666
O  O105  1  0.66434000  0.51194000  0.11562000  1.0 -0.8891615117
O  O106  1  0.83566000  0.01194000  0.88438000  1.0 -0.8891615117
O  O107  1  0.33566000  0.48806000  0.88438000  1.0 -0.8891615117
O  O108  1  0.16434000  0.98806000  0.11562000  1.0 -0.8891615117
O  O109  1  0.27670000  0.76671000  0.26014000  1.0 -0.6721313143
O  O110  1  0.22330000  0.26671000  0.73986000  1.0 -0.6721313143
O  O111  1  0.72330000  0.23329000  0.73986000  1.0 -0.6721313143
O  O112  1  0.77670000  0.73329000  0.26014000  1.0 -0.6721313143
O  O113  1  0.32511000  0.38524000  0.34710000  1.0 -0.8525264109
O  O114  1  0.17489000  0.88524000  0.65290000  1.0 -0.8525264109
O  O115  1  0.67489000  0.61476000  0.65290000  1.0 -0.8597738497
O  O116  1  0.82511000  0.11476000  0.34710000  1.0 -0.8525264109
O  O117  1  0.15989000  0.30789000  0.03411000  1.0 -0.6187455798
O  O118  1  0.34011000  0.80789000  0.96589000  1.0 -0.6187455798
O  O119  1  0.84011000  0.69211000  0.96589000  1.0 -0.6187455798
O  O120  1  0.65989000  0.19211000  0.03411000  1.0 -0.6187455798
O  O121  1  0.26445000  0.74964000  0.08580000  1.0 -0.8023125673
O  O122  1  0.23555000  0.24964000  0.91420000  1.0 -0.8023125673
O  O123  1  0.73555000  0.25036000  0.91420000  1.0 -0.8023125673
O  O124  1  0.76445000  0.75036000  0.08580000  1.0 -0.8023125673
O  O125  1  0.08360000  0.61220000  0.98660000  1.0 0.2177082157
O  O126  1  0.41640000  0.11220000  0.01340000  1.0 0.2177082157
O  O127  1  0.91640000  0.38780000  0.01340000  1.0 0.2177082157
O  O128  1  0.58360000  0.88780000  0.98660000  1.0 0.2177082157
O  O129  1  0.03500000  0.45594000  0.92400000  1.0 -0.4327811593
O  O130  1  0.46500000  0.95594000  0.07600000  1.0 -0.4368447954
O  O131  1  0.96500000  0.54406000  0.07600000  1.0 -0.4368447954
O  O132  1  0.53500000  0.04406000  0.92400000  1.0 -0.4327811593
O  O133  1  0.89330000  0.63112000  0.19580000  1.0 -0.2402984383
O  O134  1  0.60670000  0.13112000  0.80420000  1.0 -0.2402984383
O  O135  1  0.10670000  0.36888000  0.80420000  1.0 -0.2402984383
O  O136  1  0.39330000  0.86888000  0.19580000  1.0 -0.2402984383
O  O137  1  0.53310000  0.72523000  0.09500000  1.0 -0.7283239732
O  O138  1  0.96690000  0.22523000  0.90500000  1.0 -0.7283239732
O  O139  1  0.46690000  0.27477000  0.90500000  1.0 -0.7283239732
O  O140  1  0.03310000  0.77477000  0.09500000  1.0 -0.7283239732
O  O141  1  0.29050000  0.63199000  0.96130000  1.0 -0.7403953666
O  O142  1  0.20950000  0.13199000  0.03870000  1.0 -0.7403953666
O  O143  1  0.70950000  0.36801000  0.03870000  1.0 -0.7403953666
O  O144  1  0.79050000  0.86801000  0.96130000  1.0 -0.7403953666
O  O145  1  0.50308000  0.39676000  0.02739000  1.0 -0.7283239732
O  O146  1  0.99692000  0.89676000  0.97261000  1.0 -0.7283239732
O  O147  1  0.49692000  0.60324000  0.97261000  1.0 -0.7283239732
O  O148  1  0.00308000  0.10324000  0.02739000  1.0 -0.7283239732
O  O149  1  0.94930000  0.40090000  0.06520000  1.0 0.2095805859
O  O150  1  0.55070000  0.90090000  0.93480000  1.0 0.2095805859
O  O151  1  0.05070000  0.59910000  0.93480000  1.0 0.2095805859
O  O152  1  0.44930000  0.09910000  0.06520000  1.0 0.2095805859
