# DDEC6 charges by PACMAN v1.1 (https://github.com/mtap-research/PACMAN-charge/)
data_RAXBOJ_ASR_pacman
_symmetry_space_group_name_H-M   'P 1'
_cell_length_a   14.16750000
_cell_length_b   21.25830000
_cell_length_c   13.65660000
_cell_angle_alpha   90.00000000
_cell_angle_beta   113.85000000
_cell_angle_gamma   90.00000000
_symmetry_Int_Tables_number   1
_chemical_formula_structural   Sr2MnMo6P4H2O31
_chemical_formula_sum   'Sr8 Mn4 Mo24 P16 H8 O124'
_cell_volume   3761.82803672
_cell_formula_units_Z   4
loop_
 _symmetry_equiv_pos_site_id
 _symmetry_equiv_pos_as_xyz
  1  'x, y, z'
loop_
 _atom_site_type_symbol
 _atom_site_label
 _atom_site_symmetry_multiplicity
 _atom_site_fract_x
 _atom_site_fract_y
 _atom_site_fract_z
 _atom_site_occupancy
 _atom_site_charge
Sr  Sr1  1  0.85502000  0.35816000  0.31444000  1.0 1.4277153007
Sr  Sr2  1  0.14498000  0.64184000  0.68556000  1.0 1.4277153007
Sr  Sr3  1  0.14498000  0.85816000  0.18556000  1.0 1.4277153007
Sr  Sr4  1  0.85502000  0.14184000  0.81444000  1.0 1.4277153007
Sr  Sr5  1  0.00949000  0.50740000  0.22797000  1.0 1.4706424169
Sr  Sr6  1  0.99051000  0.49260000  0.77203000  1.0 1.4706424169
Sr  Sr7  1  0.99051000  0.00740000  0.27203000  1.0 1.4706424169
Sr  Sr8  1  0.00949000  0.99260000  0.72797000  1.0 1.4706424169
Mn  Mn1  1  0.00000000  0.50000000  0.50000000  1.0 1.0292497865
Mn  Mn2  1  0.00000000  0.00000000  0.00000000  1.0 1.0292497865
Mn  Mn3  1  0.50000000  0.50000000  0.50000000  1.0 1.4016912571
Mn  Mn4  1  0.50000000  0.00000000  0.00000000  1.0 1.4016912571
Mo  Mo1  1  0.63186000  0.58136000  0.33911000  1.0 2.0955349199
Mo  Mo2  1  0.36814000  0.41864000  0.66089000  1.0 2.0955349199
Mo  Mo3  1  0.36814000  0.08136000  0.16089000  1.0 2.0955349199
Mo  Mo4  1  0.63186000  0.91864000  0.83911000  1.0 2.0955349199
Mo  Mo5  1  0.61135000  0.42534000  0.31842000  1.0 1.9959762088
Mo  Mo6  1  0.38865000  0.57466000  0.68158000  1.0 1.9959762088
Mo  Mo7  1  0.38865000  0.92534000  0.18158000  1.0 1.9959762088
Mo  Mo8  1  0.61135000  0.07466000  0.81842000  1.0 1.9959762088
Mo  Mo9  1  0.70937000  0.40928000  0.73007000  1.0 2.0679135314
Mo  Mo10  1  0.29063000  0.59072000  0.26993000  1.0 2.0679135314
Mo  Mo11  1  0.29063000  0.90928000  0.76993000  1.0 2.0679135314
Mo  Mo12  1  0.70937000  0.09072000  0.23007000  1.0 2.0679135314
Mo  Mo13  1  0.64357000  0.35050000  0.48460000  1.0 2.0143539897
Mo  Mo14  1  0.35643000  0.64950000  0.51540000  1.0 2.0143539897
Mo  Mo15  1  0.35643000  0.85050000  0.01540000  1.0 2.0143539897
Mo  Mo16  1  0.64357000  0.14950000  0.98460000  1.0 2.0143539897
Mo  Mo17  1  0.73149000  0.54108000  0.76105000  1.0 2.0447444908
Mo  Mo18  1  0.26851000  0.45892000  0.23895000  1.0 2.045417308
Mo  Mo19  1  0.26851000  0.04108000  0.73895000  1.0 2.045417308
Mo  Mo20  1  0.73149000  0.95892000  0.26105000  1.0 2.045417308
Mo  Mo21  1  0.69059000  0.63816000  0.55406000  1.0 2.1135757557
Mo  Mo22  1  0.30941000  0.36184000  0.44594000  1.0 2.1135757557
Mo  Mo23  1  0.30941000  0.13816000  0.94594000  1.0 2.1135757557
Mo  Mo24  1  0.69059000  0.86184000  0.05406000  1.0 2.1135757557
P  P1  1  0.78909000  0.50518000  0.25941000  1.0 1.5379761151
P  P2  1  0.21091000  0.49482000  0.74059000  1.0 1.5379761151
P  P3  1  0.21091000  0.00518000  0.24059000  1.0 1.5379761151
P  P4  1  0.78909000  0.99482000  0.75941000  1.0 1.5379761151
P  P5  1  0.79650000  0.48383000  0.54988000  1.0 1.5169845096
P  P6  1  0.20350000  0.51617000  0.45012000  1.0 1.5169845096
P  P7  1  0.20350000  0.98383000  0.95012000  1.0 1.5169845096
P  P8  1  0.79650000  0.01617000  0.04988000  1.0 1.5169845096
P  P9  1  0.91553000  0.63942000  0.76230000  1.0 1.4125835291
P  P10  1  0.08447000  0.36058000  0.23770000  1.0 1.4170284859
P  P11  1  0.08447000  0.13942000  0.73770000  1.0 1.4170284859
P  P12  1  0.91553000  0.86058000  0.26230000  1.0 1.4125835291
P  P13  1  0.81311000  0.28149000  0.69714000  1.0 1.5129384986
P  P14  1  0.18689000  0.71851000  0.30286000  1.0 1.5169845096
P  P15  1  0.18689000  0.78149000  0.80286000  1.0 1.5129384986
P  P16  1  0.81311000  0.21851000  0.19714000  1.0 1.5129384986
H  H1  1  0.66674000  0.24955000  0.71103000  1.0 0.4521292068
H  H2  1  0.33326000  0.75045000  0.28897000  1.0 0.4521292068
H  H3  1  0.33326000  0.74955000  0.78897000  1.0 0.4521292068
H  H4  1  0.66674000  0.25045000  0.21103000  1.0 0.4521292068
H  H5  1  0.01670000  0.71807000  0.81882000  1.0 0.4178606263
H  H6  1  0.98330000  0.28193000  0.18118000  1.0 0.4178606263
H  H7  1  0.98330000  0.21807000  0.68118000  1.0 0.4178606263
H  H8  1  0.01670000  0.78193000  0.31882000  1.0 0.4178606263
O  O1  1  0.67099000  0.39491000  0.82915000  1.0 -0.5377920204
O  O2  1  0.32901000  0.60509000  0.17085000  1.0 -0.5377920204
O  O3  1  0.32901000  0.89491000  0.67085000  1.0 -0.5377920204
O  O4  1  0.67099000  0.10509000  0.32915000  1.0 -0.5377920204
O  O5  1  0.52375000  0.38242000  0.22064000  1.0 -0.5292848357
O  O6  1  0.47625000  0.61758000  0.77936000  1.0 -0.5292848357
O  O7  1  0.47625000  0.88242000  0.27936000  1.0 -0.5292848357
O  O8  1  0.52375000  0.11758000  0.72064000  1.0 -0.5292848357
O  O9  1  0.62698000  0.70686000  0.52070000  1.0 -0.5377920204
O  O10  1  0.37302000  0.29314000  0.47930000  1.0 -0.5377920204
O  O11  1  0.37302000  0.20686000  0.97930000  1.0 -0.5377920204
O  O12  1  0.62698000  0.79314000  0.02070000  1.0 -0.5377920204
O  O13  1  0.56201000  0.64190000  0.26610000  1.0 -0.5475488313
O  O14  1  0.43799000  0.35810000  0.73390000  1.0 -0.5475488313
O  O15  1  0.43799000  0.14190000  0.23390000  1.0 -0.5475488313
O  O16  1  0.56201000  0.85810000  0.76610000  1.0 -0.5475488313
O  O17  1  0.69693000  0.54601000  0.86472000  1.0 -0.512724989
O  O18  1  0.30307000  0.45399000  0.13528000  1.0 -0.512724989
O  O19  1  0.30307000  0.04601000  0.63528000  1.0 -0.512724989
O  O20  1  0.69693000  0.95399000  0.36472000  1.0 -0.512724989
O  O21  1  0.58588000  0.57507000  0.46261000  1.0 -0.9373270282
O  O22  1  0.41412000  0.42493000  0.53739000  1.0 -0.9373270282
O  O23  1  0.41412000  0.07507000  0.03739000  1.0 -0.9373270282
O  O24  1  0.58588000  0.92493000  0.96261000  1.0 -0.9373270282
O  O25  1  0.55849000  0.51124000  0.27280000  1.0 -0.7424609967
O  O26  1  0.44151000  0.48876000  0.72720000  1.0 -0.7424609967
O  O27  1  0.44151000  0.01124000  0.22720000  1.0 -0.7424609967
O  O28  1  0.55849000  0.98876000  0.77280000  1.0 -0.7424609967
O  O29  1  0.77008000  0.42205000  0.59163000  1.0 -0.8288756617
O  O30  1  0.22992000  0.57795000  0.40837000  1.0 -0.8288756617
O  O31  1  0.22992000  0.92205000  0.90837000  1.0 -0.8288756617
O  O32  1  0.77008000  0.07795000  0.09163000  1.0 -0.8288756617
O  O33  1  0.62580000  0.35750000  0.61985000  1.0 -0.7691596904
O  O34  1  0.37420000  0.64250000  0.38015000  1.0 -0.7691596904
O  O35  1  0.37420000  0.85750000  0.88015000  1.0 -0.7691596904
O  O36  1  0.62580000  0.14250000  0.11985000  1.0 -0.7691596904
O  O37  1  0.55925000  0.43245000  0.43537000  1.0 -0.9344608047
O  O38  1  0.44075000  0.56755000  0.56463000  1.0 -0.9344608047
O  O39  1  0.44075000  0.93245000  0.06463000  1.0 -0.9344608047
O  O40  1  0.55925000  0.06755000  0.93537000  1.0 -0.9344608047
O  O41  1  0.62527000  0.48645000  0.65701000  1.0 -0.9104293593
O  O42  1  0.37473000  0.51355000  0.34299000  1.0 -0.9104293593
O  O43  1  0.37473000  0.98645000  0.84299000  1.0 -0.9104293593
O  O44  1  0.62527000  0.01355000  0.15701000  1.0 -0.9104293593
O  O45  1  0.82535000  0.46864000  0.79838000  1.0 -0.9194889077
O  O46  1  0.17465000  0.53136000  0.20162000  1.0 -0.9194889077
O  O47  1  0.17465000  0.96864000  0.70162000  1.0 -0.9194889077
O  O48  1  0.82535000  0.03136000  0.29838000  1.0 -0.9194889077
O  O49  1  0.91432000  0.47755000  0.56784000  1.0 -0.7897535918
O  O50  1  0.08568000  0.52245000  0.43216000  1.0 -0.7897535918
O  O51  1  0.08568000  0.97755000  0.93216000  1.0 -0.7897535918
O  O52  1  0.91432000  0.02245000  0.06784000  1.0 -0.7897535918
O  O53  1  0.72827000  0.49445000  0.43209000  1.0 -0.8203202717
O  O54  1  0.27173000  0.50555000  0.56791000  1.0 -0.8203202717
O  O55  1  0.27173000  0.99445000  0.06791000  1.0 -0.8203202717
O  O56  1  0.72827000  0.00555000  0.93209000  1.0 -0.8203202717
O  O57  1  0.71974000  0.44547000  0.24725000  1.0 -0.8556154378
O  O58  1  0.28026000  0.55453000  0.75275000  1.0 -0.8556154378
O  O59  1  0.28026000  0.94547000  0.25275000  1.0 -0.8556154378
O  O60  1  0.71974000  0.05453000  0.74725000  1.0 -0.8556154378
O  O61  1  0.73471000  0.56547000  0.27439000  1.0 -0.7194221674
O  O62  1  0.26529000  0.43453000  0.72561000  1.0 -0.7194221674
O  O63  1  0.26529000  0.06547000  0.22561000  1.0 -0.7194221674
O  O64  1  0.73471000  0.93453000  0.77439000  1.0 -0.7194221674
O  O65  1  0.82299000  0.51093000  0.16798000  1.0 -0.8066997536
O  O66  1  0.17701000  0.48907000  0.83202000  1.0 -0.8066997536
O  O67  1  0.17701000  0.01093000  0.33202000  1.0 -0.8066997536
O  O68  1  0.82299000  0.98907000  0.66798000  1.0 -0.8066997536
O  O69  1  0.79307000  0.53936000  0.62063000  1.0 -0.8434790381
O  O70  1  0.20693000  0.46064000  0.37937000  1.0 -0.8434790381
O  O71  1  0.20693000  0.03936000  0.87937000  1.0 -0.8434790381
O  O72  1  0.79307000  0.96064000  0.12063000  1.0 -0.8434790381
O  O73  1  0.72017000  0.36367000  0.39392000  1.0 -0.8958210953
O  O74  1  0.27983000  0.63633000  0.60608000  1.0 -0.8958210953
O  O75  1  0.27983000  0.86367000  0.10608000  1.0 -0.8958210953
O  O76  1  0.72017000  0.13633000  0.89392000  1.0 -0.8958210953
O  O77  1  0.74515000  0.62538000  0.45133000  1.0 -0.7897535918
O  O78  1  0.25485000  0.37462000  0.54867000  1.0 -0.7897535918
O  O79  1  0.25485000  0.12538000  0.04867000  1.0 -0.7897535918
O  O80  1  0.74515000  0.87462000  0.95133000  1.0 -0.7897535918
O  O81  1  0.99995000  0.60589000  0.73803000  1.0 -0.8884631403
O  O82  1  0.00005000  0.39411000  0.26197000  1.0 -0.8884631403
O  O83  1  0.00005000  0.10589000  0.76197000  1.0 -0.8884631403
O  O84  1  0.99995000  0.89411000  0.23803000  1.0 -0.8884631403
O  O85  1  0.82375000  0.34249000  0.76332000  1.0 -0.7424609967
O  O86  1  0.17625000  0.65751000  0.23668000  1.0 -0.7424609967
O  O87  1  0.17625000  0.84249000  0.73668000  1.0 -0.7424609967
O  O88  1  0.82375000  0.15751000  0.26332000  1.0 -0.7424609967
O  O89  1  0.76878000  0.29328000  0.57585000  1.0 -0.7424609967
O  O90  1  0.23122000  0.70672000  0.42415000  1.0 -0.7424609967
O  O91  1  0.23122000  0.79328000  0.92415000  1.0 -0.7424609967
O  O92  1  0.76878000  0.20672000  0.07585000  1.0 -0.7424609967
O  O93  1  0.55975000  0.29299000  0.42322000  1.0 -0.512724989
O  O94  1  0.44025000  0.70701000  0.57678000  1.0 -0.512724989
O  O95  1  0.44025000  0.79299000  0.07678000  1.0 -0.512724989
O  O96  1  0.55975000  0.20701000  0.92322000  1.0 -0.512724989
O  O97  1  0.86829000  0.59282000  0.81881000  1.0 -0.7897535918
O  O98  1  0.13171000  0.40718000  0.18119000  1.0 -0.7897535918
O  O99  1  0.13171000  0.09282000  0.68119000  1.0 -0.7897535918
O  O100  1  0.86829000  0.90718000  0.31881000  1.0 -0.7897535918
O  O101  1  0.82892000  0.66691000  0.65939000  1.0 -0.7194221674
O  O102  1  0.17108000  0.33309000  0.34061000  1.0 -0.7194221674
O  O103  1  0.17108000  0.16691000  0.84061000  1.0 -0.7194221674
O  O104  1  0.82892000  0.83309000  0.15939000  1.0 -0.7194221674
O  O105  1  0.89342000  0.49115000  0.36286000  1.0 -0.8203202717
O  O106  1  0.10658000  0.50885000  0.63714000  1.0 -0.8203202717
O  O107  1  0.10658000  0.99115000  0.13714000  1.0 -0.8203202717
O  O108  1  0.89342000  0.00885000  0.86286000  1.0 -0.8203202717
O  O109  1  0.73580000  0.23417000  0.72481000  1.0 -0.7194221674
O  O110  1  0.26420000  0.76583000  0.27519000  1.0 -0.7194221674
O  O111  1  0.26420000  0.73417000  0.77519000  1.0 -0.7194221674
O  O112  1  0.73580000  0.26583000  0.22481000  1.0 -0.7194221674
O  O113  1  0.66779000  0.61138000  0.67526000  1.0 -0.7579029657
O  O114  1  0.33221000  0.38862000  0.32474000  1.0 -0.7579029657
O  O115  1  0.33221000  0.11138000  0.82474000  1.0 -0.7579029657
O  O116  1  0.66779000  0.88862000  0.17526000  1.0 -0.7579029657
O  O117  1  0.96556000  0.69528000  0.84195000  1.0 -0.6098371455
O  O118  1  0.03444000  0.30472000  0.15805000  1.0 -0.6098371455
O  O119  1  0.03444000  0.19528000  0.65805000  1.0 -0.6098371455
O  O120  1  0.96556000  0.80472000  0.34195000  1.0 -0.6098371455
O  O121  1  0.91062000  0.24207000  0.73766000  1.0 -0.7691596904
O  O122  1  0.08938000  0.75793000  0.26234000  1.0 -0.7691596904
O  O123  1  0.08938000  0.74207000  0.76234000  1.0 -0.7691596904
O  O124  1  0.91062000  0.25793000  0.23766000  1.0 -0.7691596904
