# DDEC6 charges by PACMAN v1.1 (https://github.com/mtap-research/PACMAN-charge/)
data_RAXDAX_FSR_pacman
_symmetry_space_group_name_H-M   'P 1'
_cell_length_a   9.26700000
_cell_length_b   13.25700000
_cell_length_c   18.05860000
_cell_angle_alpha   90.00000000
_cell_angle_beta   115.77100000
_cell_angle_gamma   90.00000000
_symmetry_Int_Tables_number   1
_chemical_formula_structural   ZnH17C18N5O4
_chemical_formula_sum   'Zn4 H68 C72 N20 O16'
_cell_volume   1997.88735230
_cell_formula_units_Z   4
loop_
 _symmetry_equiv_pos_site_id
 _symmetry_equiv_pos_as_xyz
  1  'x, y, z'
loop_
 _atom_site_type_symbol
 _atom_site_label
 _atom_site_symmetry_multiplicity
 _atom_site_fract_x
 _atom_site_fract_y
 _atom_site_fract_z
 _atom_site_occupancy
 _atom_site_charge
Zn  Zn1  1  0.91414000  0.84477000  0.18324000  1.0 0.7624290763
Zn  Zn2  1  0.08586000  0.34477000  0.31676000  1.0 0.7624290763
Zn  Zn3  1  0.08586000  0.15523000  0.81676000  1.0 0.7624290763
Zn  Zn4  1  0.91414000  0.65523000  0.68324000  1.0 0.7624290763
H  H1  1  0.95430000  0.80260000  0.95590000  1.0 0.1202797075
H  H2  1  0.04570000  0.30260000  0.54410000  1.0 0.1202797075
H  H3  1  0.04570000  0.19740000  0.04410000  1.0 0.1202797075
H  H4  1  0.95430000  0.69740000  0.45590000  1.0 0.1202797075
H  H5  1  0.33550000  0.97450000  0.08150000  1.0 0.1202797075
H  H6  1  0.66450000  0.47450000  0.41850000  1.0 0.1202797075
H  H7  1  0.66450000  0.02550000  0.91850000  1.0 0.1202797075
H  H8  1  0.33550000  0.52550000  0.58150000  1.0 0.1202797075
H  H9  1  0.26100000  0.86540000  0.86020000  1.0 0.1202797075
H  H10  1  0.73900000  0.36540000  0.63980000  1.0 0.1202797075
H  H11  1  0.73900000  0.13460000  0.13980000  1.0 0.1202797075
H  H12  1  0.26100000  0.63460000  0.36020000  1.0 0.1202797075
H  H13  1  0.38010000  0.67600000  0.09590000  1.0 0.1266350216
H  H14  1  0.61990000  0.17600000  0.40410000  1.0 0.1266350216
H  H15  1  0.61990000  0.32400000  0.90410000  1.0 0.1266350216
H  H16  1  0.38010000  0.82400000  0.59590000  1.0 0.1266350216
H  H17  1  0.69380000  0.75280000  0.01250000  1.0 0.1202797075
H  H18  1  0.30620000  0.25280000  0.48750000  1.0 0.1202797075
H  H19  1  0.30620000  0.24720000  0.98750000  1.0 0.1202797075
H  H20  1  0.69380000  0.74720000  0.51250000  1.0 0.1202797075
H  H21  1  0.58040000  0.77730000  0.19260000  1.0 0.1414566962
H  H22  1  0.41960000  0.27730000  0.30740000  1.0 0.1414566962
H  H23  1  0.41960000  0.22270000  0.80740000  1.0 0.1414566962
H  H24  1  0.58040000  0.72270000  0.69260000  1.0 0.1414566962
H  H25  1  0.31180000  0.62390000  0.95200000  1.0 0.1202797075
H  H26  1  0.68820000  0.12390000  0.54800000  1.0 0.1202797075
H  H27  1  0.68820000  0.37610000  0.04800000  1.0 0.1202797075
H  H28  1  0.31180000  0.87610000  0.45200000  1.0 0.1202797075
H  H29  1  0.41290000  0.66690000  0.90850000  1.0 0.1266350216
H  H30  1  0.58710000  0.16690000  0.59150000  1.0 0.1266350216
H  H31  1  0.58710000  0.33310000  0.09150000  1.0 0.1266350216
H  H32  1  0.41290000  0.83310000  0.40850000  1.0 0.1266350216
H  H33  1  0.60940000  0.53920000  0.97310000  1.0 0.1021605121
H  H34  1  0.39060000  0.03920000  0.52690000  1.0 0.1021605121
H  H35  1  0.39060000  0.46080000  0.02690000  1.0 0.1021605121
H  H36  1  0.60940000  0.96080000  0.47310000  1.0 0.1021605121
H  H37  1  0.44330000  0.49230000  0.91460000  1.0 0.1021605121
H  H38  1  0.55670000  0.99230000  0.58540000  1.0 0.1021605121
H  H39  1  0.55670000  0.50770000  0.08540000  1.0 0.1021605121
H  H40  1  0.44330000  0.00770000  0.41460000  1.0 0.1021605121
H  H41  1  0.17050000  0.10880000  0.39250000  1.0 0.1094739478
H  H42  1  0.82950000  0.60880000  0.10750000  1.0 0.1094739478
H  H43  1  0.82950000  0.89120000  0.60750000  1.0 0.1094739478
H  H44  1  0.17050000  0.39120000  0.89250000  1.0 0.1094739478
H  H45  1  0.90700000  0.17010000  0.41400000  1.0 0.1202797075
H  H46  1  0.09300000  0.67010000  0.08600000  1.0 0.1202797075
H  H47  1  0.09300000  0.82990000  0.58600000  1.0 0.1202797075
H  H48  1  0.90700000  0.32990000  0.91400000  1.0 0.1202797075
H  H49  1  0.78560000  0.08100000  0.39820000  1.0 0.1021605121
H  H50  1  0.21440000  0.58100000  0.10180000  1.0 0.1021605121
H  H51  1  0.21440000  0.91900000  0.60180000  1.0 0.1021605121
H  H52  1  0.78560000  0.41900000  0.89820000  1.0 0.1021605121
H  H53  1  0.75250000  0.97590000  0.27480000  1.0 0.1202797075
H  H54  1  0.24750000  0.47590000  0.22520000  1.0 0.1202797075
H  H55  1  0.24750000  0.02410000  0.72520000  1.0 0.1202797075
H  H56  1  0.75250000  0.52410000  0.77480000  1.0 0.1202797075
H  H57  1  0.16980000  0.01010000  0.28100000  1.0 0.1414566962
H  H58  1  0.83020000  0.51010000  0.21900000  1.0 0.1414566962
H  H59  1  0.83020000  0.98990000  0.71900000  1.0 0.1414566962
H  H60  1  0.16980000  0.48990000  0.78100000  1.0 0.1414566962
H  H61  1  0.96740000  0.08400000  0.53630000  1.0 0.1094739478
H  H62  1  0.03260000  0.58400000  0.96370000  1.0 0.1094739478
H  H63  1  0.03260000  0.91600000  0.46370000  1.0 0.1094739478
H  H64  1  0.96740000  0.41600000  0.03630000  1.0 0.1094739478
H  H65  1  0.11100000  0.07650000  0.51290000  1.0 0.1021605121
H  H66  1  0.88900000  0.57650000  0.98710000  1.0 0.1021605121
H  H67  1  0.88900000  0.92350000  0.48710000  1.0 0.1021605121
H  H68  1  0.11100000  0.42350000  0.01290000  1.0 0.1021605121
C  C1  1  0.04760000  0.83360000  0.96010000  1.0 -0.1307781385
C  C2  1  0.95240000  0.33360000  0.53990000  1.0 -0.1307781385
C  C3  1  0.95240000  0.16640000  0.03990000  1.0 -0.1307781385
C  C4  1  0.04760000  0.66640000  0.46010000  1.0 -0.1307781385
C  C5  1  0.14030000  0.88880000  0.02970000  1.0 -0.0175389861
C  C6  1  0.85970000  0.38880000  0.47030000  1.0 -0.0175389861
C  C7  1  0.85970000  0.11120000  0.97030000  1.0 -0.0175389861
C  C8  1  0.14030000  0.61120000  0.52970000  1.0 -0.0175389861
C  C9  1  0.99660000  0.76270000  0.82270000  1.0 0.5435724436
C  C10  1  0.00340000  0.26270000  0.67730000  1.0 0.5435724436
C  C11  1  0.00340000  0.23730000  0.17730000  1.0 0.5435724436
C  C12  1  0.99660000  0.73730000  0.32270000  1.0 0.5435724436
C  C13  1  0.09860000  0.89290000  0.10100000  1.0 0.5472115009
C  C14  1  0.90140000  0.39290000  0.39900000  1.0 0.5472115009
C  C15  1  0.90140000  0.10710000  0.89900000  1.0 0.5472115009
C  C16  1  0.09860000  0.60710000  0.60100000  1.0 0.5472115009
C  C17  1  0.09250000  0.82420000  0.89650000  1.0 -0.0175389861
C  C18  1  0.90750000  0.32420000  0.60350000  1.0 -0.0175389861
C  C19  1  0.90750000  0.17580000  0.10350000  1.0 -0.0175389861
C  C20  1  0.09250000  0.67580000  0.39650000  1.0 -0.0175389861
C  C21  1  0.27430000  0.93640000  0.03510000  1.0 -0.1563122691
C  C22  1  0.72570000  0.43640000  0.46490000  1.0 -0.1563122691
C  C23  1  0.72570000  0.06360000  0.96490000  1.0 -0.1563122691
C  C24  1  0.27430000  0.56360000  0.53510000  1.0 -0.1563122691
C  C25  1  0.22970000  0.87160000  0.90240000  1.0 -0.1793723525
C  C26  1  0.77030000  0.37160000  0.59760000  1.0 -0.1793723525
C  C27  1  0.77030000  0.12840000  0.09760000  1.0 -0.1793723525
C  C28  1  0.22970000  0.62840000  0.40240000  1.0 -0.1793723525
C  C29  1  0.32060000  0.92850000  0.97140000  1.0 0.1548056035
C  C30  1  0.67940000  0.42850000  0.52860000  1.0 0.1548056035
C  C31  1  0.67940000  0.07150000  0.02860000  1.0 0.1548056035
C  C32  1  0.32060000  0.57150000  0.47140000  1.0 0.1548056035
C  C33  1  0.46790000  0.70410000  0.09140000  1.0 -0.1076109679
C  C34  1  0.53210000  0.20410000  0.40860000  1.0 -0.1076109679
C  C35  1  0.53210000  0.29590000  0.90860000  1.0 -0.1076109679
C  C36  1  0.46790000  0.79590000  0.59140000  1.0 -0.1076109679
C  C37  1  0.64230000  0.74730000  0.04650000  1.0 0.0937029301
C  C38  1  0.35770000  0.24730000  0.45350000  1.0 0.0937029301
C  C39  1  0.35770000  0.25270000  0.95350000  1.0 0.0937029301
C  C40  1  0.64230000  0.75270000  0.54650000  1.0 0.0937029301
C  C41  1  0.57800000  0.75900000  0.14240000  1.0 0.0117566447
C  C42  1  0.42200000  0.25900000  0.35760000  1.0 0.0117566447
C  C43  1  0.42200000  0.24100000  0.85760000  1.0 0.0117566447
C  C44  1  0.57800000  0.74100000  0.64240000  1.0 0.0117566447
C  C45  1  0.41990000  0.63320000  0.95760000  1.0 -0.1408437033
C  C46  1  0.58010000  0.13320000  0.54240000  1.0 -0.1408437033
C  C47  1  0.58010000  0.36680000  0.04240000  1.0 -0.1408437033
C  C48  1  0.41990000  0.86680000  0.45760000  1.0 -0.1408437033
C  C49  1  0.50000000  0.52960000  0.96530000  1.0 -0.2075141081
C  C50  1  0.50000000  0.02960000  0.53470000  1.0 -0.2075141081
C  C51  1  0.50000000  0.47040000  0.03470000  1.0 -0.2075141081
C  C52  1  0.50000000  0.97040000  0.46530000  1.0 -0.2075141081
C  C53  1  0.08660000  0.07010000  0.35520000  1.0 -0.0980274425
C  C54  1  0.91340000  0.57010000  0.14480000  1.0 -0.0980274425
C  C55  1  0.91340000  0.92990000  0.64480000  1.0 -0.0980274425
C  C56  1  0.08660000  0.42990000  0.85520000  1.0 -0.0980274425
C  C57  1  0.89680000  0.09730000  0.41290000  1.0 -0.1408437033
C  C58  1  0.10320000  0.59730000  0.08710000  1.0 -0.1408437033
C  C59  1  0.10320000  0.90270000  0.58710000  1.0 -0.1408437033
C  C60  1  0.89680000  0.40270000  0.91290000  1.0 -0.1408437033
C  C61  1  0.85730000  0.99660000  0.28920000  1.0 0.1094739478
C  C62  1  0.14270000  0.49660000  0.21080000  1.0 0.1094739478
C  C63  1  0.14270000  0.00340000  0.71080000  1.0 0.1094739478
C  C64  1  0.85730000  0.50340000  0.78920000  1.0 0.1094739478
C  C65  1  0.08260000  0.01600000  0.29330000  1.0 -0.0027504462
C  C66  1  0.91740000  0.51600000  0.20670000  1.0 -0.0027504462
C  C67  1  0.91740000  0.98400000  0.70670000  1.0 -0.0027504462
C  C68  1  0.08260000  0.48400000  0.79330000  1.0 -0.0027504462
C  C69  1  0.00140000  0.05520000  0.49710000  1.0 -0.2075141081
C  C70  1  0.99860000  0.55520000  0.00290000  1.0 -0.2075141081
C  C71  1  0.99860000  0.94480000  0.50290000  1.0 -0.2075141081
C  C72  1  0.00140000  0.44480000  0.99710000  1.0 -0.2075141081
N  N1  1  0.50960000  0.69660000  0.02910000  1.0 0.0447201906
N  N2  1  0.49040000  0.19660000  0.47090000  1.0 0.0447201906
N  N3  1  0.49040000  0.30340000  0.97090000  1.0 0.0447201906
N  N4  1  0.50960000  0.80340000  0.52910000  1.0 0.0447201906
N  N5  1  0.69110000  0.78920000  0.11970000  1.0 -0.2878212975
N  N6  1  0.30890000  0.28920000  0.38030000  1.0 -0.2878212975
N  N7  1  0.30890000  0.21080000  0.88030000  1.0 -0.2878212975
N  N8  1  0.69110000  0.71080000  0.61970000  1.0 -0.2878212975
N  N9  1  0.45790000  0.97450000  0.96950000  1.0 -0.1307781385
N  N10  1  0.54210000  0.47450000  0.53050000  1.0 -0.1307781385
N  N11  1  0.54210000  0.02550000  0.03050000  1.0 -0.1307781385
N  N12  1  0.45790000  0.52550000  0.46950000  1.0 -0.1307781385
N  N13  1  0.94380000  0.97060000  0.25010000  1.0 -0.2751605929
N  N14  1  0.05620000  0.47060000  0.24990000  1.0 -0.2751605929
N  N15  1  0.05620000  0.02940000  0.74990000  1.0 -0.2751605929
N  N16  1  0.94380000  0.52940000  0.75010000  1.0 -0.2751605929
N  N17  1  0.94210000  0.05610000  0.35160000  1.0 0.0584364264
N  N18  1  0.05790000  0.55610000  0.14840000  1.0 0.0584364264
N  N19  1  0.05790000  0.94390000  0.64840000  1.0 0.0584364264
N  N20  1  0.94210000  0.44390000  0.85160000  1.0 0.0584364264
O  O1  1  0.96970000  0.84750000  0.09110000  1.0 -0.5728027643
O  O2  1  0.03030000  0.34750000  0.40890000  1.0 -0.5728027643
O  O3  1  0.03030000  0.15250000  0.90890000  1.0 -0.5728027643
O  O4  1  0.96970000  0.65250000  0.59110000  1.0 -0.5728027643
O  O5  1  0.05410000  0.74770000  0.77160000  1.0 -0.5485520781
O  O6  1  0.94590000  0.24770000  0.72840000  1.0 -0.5485520781
O  O7  1  0.94590000  0.25230000  0.22840000  1.0 -0.5485520781
O  O8  1  0.05410000  0.75230000  0.27160000  1.0 -0.5485520781
O  O9  1  0.86560000  0.72720000  0.81370000  1.0 -0.5796668352
O  O10  1  0.13440000  0.22720000  0.68630000  1.0 -0.5796668352
O  O11  1  0.13440000  0.27280000  0.18630000  1.0 -0.5796668352
O  O12  1  0.86560000  0.77280000  0.31370000  1.0 -0.5796668352
O  O13  1  0.18580000  0.93530000  0.16380000  1.0 -0.5304131777
O  O14  1  0.81420000  0.43530000  0.33620000  1.0 -0.5304131777
O  O15  1  0.81420000  0.06470000  0.83620000  1.0 -0.5304131777
O  O16  1  0.18580000  0.56470000  0.66380000  1.0 -0.5304131777
