# DDEC6 charges by PACMAN v1.1 (https://github.com/mtap-research/PACMAN-charge/)
data_RAXROX_ion_pacman
_symmetry_space_group_name_H-M   'P 1'
_cell_length_a   10.56200000
_cell_length_b   15.66300000
_cell_length_c   15.10490000
_cell_angle_alpha   90.00000000
_cell_angle_beta   130.68700000
_cell_angle_gamma   90.00000000
_symmetry_Int_Tables_number   1
_chemical_formula_structural   Cu3BH9C6N9ClO2
_chemical_formula_sum   'Cu12 B4 H36 C24 N36 Cl4 O8'
_cell_volume   1894.82832773
_cell_formula_units_Z   4
loop_
 _symmetry_equiv_pos_site_id
 _symmetry_equiv_pos_as_xyz
  1  'x, y, z'
loop_
 _atom_site_type_symbol
 _atom_site_label
 _atom_site_symmetry_multiplicity
 _atom_site_fract_x
 _atom_site_fract_y
 _atom_site_fract_z
 _atom_site_occupancy
 _atom_site_charge
Cu  Cu1  1  0.90112000  0.06248000  0.90431000  1.0 0.6174184621
Cu  Cu2  1  0.09888000  0.56248000  0.59569000  1.0 0.6174184621
Cu  Cu3  1  0.09888000  0.93752000  0.09569000  1.0 0.6174184621
Cu  Cu4  1  0.90112000  0.43752000  0.40431000  1.0 0.6174184621
Cu  Cu5  1  0.86042000  0.05623000  0.45054000  1.0 0.3527561664
Cu  Cu6  1  0.13958000  0.55623000  0.04946000  1.0 0.3527561664
Cu  Cu7  1  0.13958000  0.94377000  0.54946000  1.0 0.3552507997
Cu  Cu8  1  0.86042000  0.44377000  0.95054000  1.0 0.3527561664
Cu  Cu9  1  0.86850000  0.02060000  0.50290000  1.0 0.3866188367
Cu  Cu10  1  0.13150000  0.52060000  0.99710000  1.0 0.3848856628
Cu  Cu11  1  0.13150000  0.97940000  0.49710000  1.0 0.3866188367
Cu  Cu12  1  0.86850000  0.47940000  0.00290000  1.0 0.3866188367
B  B1  1  0.61470000  0.16870000  0.46090000  1.0 0.228173399
B  B2  1  0.38530000  0.66870000  0.03910000  1.0 0.228173399
B  B3  1  0.38530000  0.83130000  0.53910000  1.0 0.228173399
B  B4  1  0.61470000  0.33130000  0.96090000  1.0 0.228173399
H  H1  1  0.54500000  0.20720000  0.46000000  1.0 -0.0521175325
H  H2  1  0.45500000  0.70720000  0.04000000  1.0 -0.0521175325
H  H3  1  0.45500000  0.79280000  0.54000000  1.0 -0.0521175325
H  H4  1  0.54500000  0.29280000  0.96000000  1.0 -0.0521175325
H  H5  1  0.06060000  0.03740000  0.77560000  1.0 0.1300248121
H  H6  1  0.93940000  0.53740000  0.72440000  1.0 0.1300248121
H  H7  1  0.93940000  0.96260000  0.22440000  1.0 0.1300248121
H  H8  1  0.06060000  0.46260000  0.27560000  1.0 0.1300248121
H  H9  1  0.67730000  0.16430000  0.66930000  1.0 0.10869531
H  H10  1  0.32270000  0.66430000  0.83070000  1.0 0.10869531
H  H11  1  0.32270000  0.83570000  0.33070000  1.0 0.10869531
H  H12  1  0.67730000  0.33570000  0.16930000  1.0 0.10869531
H  H13  1  0.95300000  0.24500000  0.41800000  1.0 0.137842386
H  H14  1  0.04700000  0.74500000  0.08200000  1.0 0.137842386
H  H15  1  0.04700000  0.75500000  0.58200000  1.0 0.137842386
H  H16  1  0.95300000  0.25500000  0.91800000  1.0 0.137842386
H  H17  1  0.62830000  0.34810000  0.41190000  1.0 0.0960883923
H  H18  1  0.37170000  0.84810000  0.08810000  1.0 0.0960883923
H  H19  1  0.37170000  0.65190000  0.58810000  1.0 0.0960883923
H  H20  1  0.62830000  0.15190000  0.91190000  1.0 0.0960883923
H  H21  1  0.51910000  0.93380000  0.24710000  1.0 0.10869531
H  H22  1  0.48090000  0.43380000  0.25290000  1.0 0.10869531
H  H23  1  0.48090000  0.06620000  0.75290000  1.0 0.10869531
H  H24  1  0.51910000  0.56620000  0.74710000  1.0 0.10869531
H  H25  1  0.27300000  0.09600000  0.28400000  1.0 0.10869531
H  H26  1  0.72700000  0.59600000  0.21600000  1.0 0.10869531
H  H27  1  0.72700000  0.90400000  0.71600000  1.0 0.10869531
H  H28  1  0.27300000  0.40400000  0.78400000  1.0 0.10869531
H  H29  1  0.95620000  0.97770000  0.92090000  1.0 0.2173014932
H  H30  1  0.04380000  0.47770000  0.57910000  1.0 0.2173014932
H  H31  1  0.04380000  0.02230000  0.07910000  1.0 0.2173014932
H  H32  1  0.95620000  0.52230000  0.42090000  1.0 0.2173014932
H  H33  1  0.11380000  0.02390000  0.60810000  1.0 0.1300248121
H  H34  1  0.88620000  0.52390000  0.89190000  1.0 0.1300248121
H  H35  1  0.88620000  0.97610000  0.39190000  1.0 0.1300248121
H  H36  1  0.11380000  0.47610000  0.10810000  1.0 0.1300248121
C  C1  1  0.94650000  0.06030000  0.72290000  1.0 0.137842386
C  C2  1  0.05350000  0.56030000  0.77710000  1.0 0.137842386
C  C3  1  0.05350000  0.93970000  0.27710000  1.0 0.137842386
C  C4  1  0.94650000  0.43970000  0.22290000  1.0 0.137842386
C  C5  1  0.74630000  0.13730000  0.67320000  1.0 0.1300248121
C  C6  1  0.25370000  0.63730000  0.82680000  1.0 0.1300248121
C  C7  1  0.25370000  0.86270000  0.32680000  1.0 0.1300248121
C  C8  1  0.74630000  0.36270000  0.17320000  1.0 0.1300248121
C  C9  1  0.88610000  0.24690000  0.41370000  1.0 0.10869531
C  C10  1  0.11390000  0.74690000  0.08630000  1.0 0.10869531
C  C11  1  0.11390000  0.75310000  0.58630000  1.0 0.10869531
C  C12  1  0.88610000  0.25310000  0.91370000  1.0 0.10869531
C  C13  1  0.71610000  0.30360000  0.42430000  1.0 0.1564066798
C  C14  1  0.28390000  0.80360000  0.07570000  1.0 0.1564066798
C  C15  1  0.28390000  0.69640000  0.57570000  1.0 0.1564066798
C  C16  1  0.71610000  0.19640000  0.92430000  1.0 0.1564066798
C  C17  1  0.50600000  0.98870000  0.27390000  1.0 0.10869531
C  C18  1  0.49400000  0.48870000  0.22610000  1.0 0.10869531
C  C19  1  0.49400000  0.01130000  0.72610000  1.0 0.10869531
C  C20  1  0.50600000  0.51130000  0.77390000  1.0 0.10869531
C  C21  1  0.36820000  0.07480000  0.29050000  1.0 0.137842386
C  C22  1  0.63180000  0.57480000  0.20950000  1.0 0.137842386
C  C23  1  0.63180000  0.92520000  0.70950000  1.0 0.137842386
C  C24  1  0.36820000  0.42520000  0.79050000  1.0 0.137842386
N  N1  1  0.73730000  0.12960000  0.58260000  1.0 -0.0521175325
N  N2  1  0.26270000  0.62960000  0.91740000  1.0 -0.0521175325
N  N3  1  0.26270000  0.87040000  0.41740000  1.0 -0.0521175325
N  N4  1  0.73730000  0.37040000  0.08260000  1.0 -0.0521175325
N  N5  1  0.86520000  0.07930000  0.61330000  1.0 -0.1831259414
N  N6  1  0.13480000  0.57930000  0.88670000  1.0 -0.1831259414
N  N7  1  0.13480000  0.92070000  0.38670000  1.0 -0.1831259414
N  N8  1  0.86520000  0.42070000  0.11330000  1.0 -0.1831259414
N  N9  1  0.87480000  0.09430000  0.76470000  1.0 -0.3178416252
N  N10  1  0.12520000  0.59430000  0.73530000  1.0 -0.3178416252
N  N11  1  0.12520000  0.90570000  0.23530000  1.0 -0.3178416252
N  N12  1  0.87480000  0.40570000  0.26470000  1.0 -0.3178416252
N  N13  1  0.71330000  0.22150000  0.43710000  1.0 -0.0521175325
N  N14  1  0.28670000  0.72150000  0.06290000  1.0 -0.0521175325
N  N15  1  0.28670000  0.77850000  0.56290000  1.0 -0.0521175325
N  N16  1  0.71330000  0.27850000  0.93710000  1.0 -0.0521175325
N  N17  1  0.82460000  0.18390000  0.43110000  1.0 -0.1703239803
N  N18  1  0.17540000  0.68390000  0.06890000  1.0 -0.1703239803
N  N19  1  0.17540000  0.81610000  0.56890000  1.0 -0.1703239803
N  N20  1  0.82460000  0.31610000  0.93110000  1.0 -0.1703239803
N  N21  1  0.82300000  0.32260000  0.40780000  1.0 -0.3128819525
N  N22  1  0.17700000  0.82260000  0.09220000  1.0 -0.3128819525
N  N23  1  0.17700000  0.67740000  0.59220000  1.0 -0.3128819525
N  N24  1  0.82300000  0.17740000  0.90780000  1.0 -0.3128819525
N  N25  1  0.52730000  0.09640000  0.36960000  1.0 -0.0701257236
N  N26  1  0.47270000  0.59640000  0.13040000  1.0 -0.0701257236
N  N27  1  0.47270000  0.90360000  0.63040000  1.0 -0.0701257236
N  N28  1  0.52730000  0.40360000  0.86960000  1.0 -0.0701257236
N  N29  1  0.61700000  0.04040000  0.35980000  1.0 -0.1641585588
N  N30  1  0.38300000  0.54040000  0.14020000  1.0 -0.1703239803
N  N31  1  0.38300000  0.95960000  0.64020000  1.0 -0.1703239803
N  N32  1  0.61700000  0.45960000  0.85980000  1.0 -0.1703239803
N  N33  1  0.34860000  0.00750000  0.22790000  1.0 -0.3351790368
N  N34  1  0.65140000  0.50750000  0.27210000  1.0 -0.3338868976
N  N35  1  0.65140000  0.99250000  0.77210000  1.0 -0.3351790368
N  N36  1  0.34860000  0.49250000  0.72790000  1.0 -0.3351790368
Cl  Cl1  1  0.00340000  0.31880000  0.71070000  1.0 -0.5952838123
Cl  Cl2  1  0.99660000  0.81880000  0.78930000  1.0 -0.5944329162
Cl  Cl3  1  0.99660000  0.68120000  0.28930000  1.0 -0.5944329162
Cl  Cl4  1  0.00340000  0.18120000  0.21070000  1.0 -0.5944329162
O  O1  1  0.06390000  0.97250000  0.95730000  1.0 -0.6778904557
O  O2  1  0.93610000  0.47250000  0.54270000  1.0 -0.6778904557
O  O3  1  0.93610000  0.02750000  0.04270000  1.0 -0.6778904557
O  O4  1  0.06390000  0.52750000  0.45730000  1.0 -0.6778904557
O  O5  1  0.09700000  0.06550000  0.53410000  1.0 -0.4164885938
O  O6  1  0.90300000  0.56550000  0.96590000  1.0 -0.4164885938
O  O7  1  0.90300000  0.93450000  0.46590000  1.0 -0.4139221966
O  O8  1  0.09700000  0.43450000  0.03410000  1.0 -0.4139221966
