# DDEC6 charges by PACMAN v1.1 (https://github.com/mtap-research/PACMAN-charge/)
data_RAYFEE_ASR_pacman
_symmetry_space_group_name_H-M   'P 1'
_cell_length_a   20.35290000
_cell_length_b   20.35290000
_cell_length_c   20.35290000
_cell_angle_alpha   115.53400000
_cell_angle_beta   115.53400000
_cell_angle_gamma   115.53400000
_symmetry_Int_Tables_number   1
_chemical_formula_structural   Cu2H5C9S2N7O8
_chemical_formula_sum   'Cu12 H30 C54 S12 N42 O48'
_cell_volume   4480.48924838
_cell_formula_units_Z   6
loop_
 _symmetry_equiv_pos_site_id
 _symmetry_equiv_pos_as_xyz
  1  'x, y, z'
loop_
 _atom_site_type_symbol
 _atom_site_label
 _atom_site_symmetry_multiplicity
 _atom_site_fract_x
 _atom_site_fract_y
 _atom_site_fract_z
 _atom_site_occupancy
 _atom_site_charge
Cu  Cu1  1  0.12852000  0.30152000  0.61287000  1.0 0.5473374639
Cu  Cu2  1  0.30152000  0.61287000  0.12852000  1.0 0.5473374639
Cu  Cu3  1  0.61287000  0.12852000  0.30152000  1.0 0.5473374639
Cu  Cu4  1  0.87148000  0.69848000  0.38713000  1.0 0.5473374639
Cu  Cu5  1  0.69848000  0.38713000  0.87148000  1.0 0.5473374639
Cu  Cu6  1  0.38713000  0.87148000  0.69848000  1.0 0.5473374639
Cu  Cu7  1  0.06815000  0.45800000  0.54640000  1.0 0.5714299692
Cu  Cu8  1  0.45800000  0.54640000  0.06815000  1.0 0.5714299692
Cu  Cu9  1  0.54640000  0.06815000  0.45800000  1.0 0.5714299692
Cu  Cu10  1  0.93185000  0.54200000  0.45360000  1.0 0.5714299692
Cu  Cu11  1  0.54200000  0.45360000  0.93185000  1.0 0.5714299692
Cu  Cu12  1  0.45360000  0.93185000  0.54200000  1.0 0.5714299692
H  H1  1  0.08510000  0.14230000  0.62540000  1.0 0.1076213533
H  H2  1  0.14230000  0.62540000  0.08510000  1.0 0.1076213533
H  H3  1  0.62540000  0.08510000  0.14230000  1.0 0.1076213533
H  H4  1  0.91490000  0.85770000  0.37460000  1.0 0.1076213533
H  H5  1  0.85770000  0.37460000  0.91490000  1.0 0.1076213533
H  H6  1  0.37460000  0.91490000  0.85770000  1.0 0.1076213533
H  H7  1  0.93600000  0.98000000  0.54290000  1.0 0.1186025554
H  H8  1  0.98000000  0.54290000  0.93600000  1.0 0.1186025554
H  H9  1  0.54290000  0.93600000  0.98000000  1.0 0.1186025554
H  H10  1  0.06400000  0.02000000  0.45710000  1.0 0.1186025554
H  H11  1  0.02000000  0.45710000  0.06400000  1.0 0.1186025554
H  H12  1  0.45710000  0.06400000  0.02000000  1.0 0.1186025554
H  H13  1  0.76160000  0.89540000  0.41520000  1.0 0.0936250055
H  H14  1  0.89540000  0.41520000  0.76160000  1.0 0.0936250055
H  H15  1  0.41520000  0.76160000  0.89540000  1.0 0.0936250055
H  H16  1  0.23840000  0.10460000  0.58480000  1.0 0.0936250055
H  H17  1  0.10460000  0.58480000  0.23840000  1.0 0.0936250055
H  H18  1  0.58480000  0.23840000  0.10460000  1.0 0.0936250055
H  H19  1  0.74510000  0.99110000  0.38670000  1.0 0.1406690211
H  H20  1  0.99110000  0.38670000  0.74510000  1.0 0.1406690211
H  H21  1  0.38670000  0.74510000  0.99110000  1.0 0.1406690211
H  H22  1  0.25490000  0.00890000  0.61330000  1.0 0.1406690211
H  H23  1  0.00890000  0.61330000  0.25490000  1.0 0.1406690211
H  H24  1  0.61330000  0.25490000  0.00890000  1.0 0.1406690211
H  H25  1  0.70480000  0.32180000  0.32670000  1.0 0.1076213533
H  H26  1  0.32180000  0.32670000  0.70480000  1.0 0.1076213533
H  H27  1  0.32670000  0.70480000  0.32180000  1.0 0.1076213533
H  H28  1  0.29520000  0.67820000  0.67330000  1.0 0.1076213533
H  H29  1  0.67820000  0.67330000  0.29520000  1.0 0.1076213533
H  H30  1  0.67330000  0.29520000  0.67820000  1.0 0.1076213533
C  C1  1  0.01530000  0.11090000  0.57630000  1.0 0.0728302711
C  C2  1  0.11090000  0.57630000  0.01530000  1.0 0.0728302711
C  C3  1  0.57630000  0.01530000  0.11090000  1.0 0.0728302711
C  C4  1  0.98470000  0.88910000  0.42370000  1.0 0.0728302711
C  C5  1  0.88910000  0.42370000  0.98470000  1.0 0.0728302711
C  C6  1  0.42370000  0.98470000  0.88910000  1.0 0.0728302711
C  C7  1  0.92640000  0.01330000  0.52640000  1.0 -0.1646427995
C  C8  1  0.01330000  0.52640000  0.92640000  1.0 -0.1654631233
C  C9  1  0.52640000  0.92640000  0.01330000  1.0 -0.1654631233
C  C10  1  0.07360000  0.98670000  0.47360000  1.0 -0.1654631233
C  C11  1  0.98670000  0.47360000  0.07360000  1.0 -0.1646427995
C  C12  1  0.47360000  0.07360000  0.98670000  1.0 -0.1654631233
C  C13  1  0.82400000  0.96430000  0.45280000  1.0 -0.0451320986
C  C14  1  0.96430000  0.45280000  0.82400000  1.0 -0.0444334912
C  C15  1  0.45280000  0.82400000  0.96430000  1.0 -0.0451320986
C  C16  1  0.17600000  0.03570000  0.54720000  1.0 -0.0444334912
C  C17  1  0.03570000  0.54720000  0.17600000  1.0 -0.0451320986
C  C18  1  0.54720000  0.17600000  0.03570000  1.0 -0.0444334912
C  C19  1  0.81390000  0.02060000  0.43420000  1.0 -0.1277803057
C  C20  1  0.02060000  0.43420000  0.81390000  1.0 -0.1277803057
C  C21  1  0.43420000  0.81390000  0.02060000  1.0 -0.1277803057
C  C22  1  0.18610000  0.97940000  0.56580000  1.0 -0.1277803057
C  C23  1  0.97940000  0.56580000  0.18610000  1.0 -0.1277803057
C  C24  1  0.56580000  0.18610000  0.97940000  1.0 -0.1277803057
C  C25  1  0.90599000  0.11781000  0.48700000  1.0 0.1406690211
C  C26  1  0.11781000  0.48700000  0.90599000  1.0 0.1406690211
C  C27  1  0.48700000  0.90599000  0.11781000  1.0 0.1406690211
C  C28  1  0.09401000  0.88219000  0.51300000  1.0 0.1406690211
C  C29  1  0.88219000  0.51300000  0.09401000  1.0 0.1406690211
C  C30  1  0.51300000  0.09401000  0.88219000  1.0 0.1406690211
C  C31  1  0.90789000  0.18336000  0.47355000  1.0 0.1747777277
C  C32  1  0.18336000  0.47355000  0.90789000  1.0 0.17530581
C  C33  1  0.47355000  0.90789000  0.18336000  1.0 0.1747777277
C  C34  1  0.09211000  0.81664000  0.52645000  1.0 0.1747777277
C  C35  1  0.81664000  0.52645000  0.09211000  1.0 0.1747777277
C  C36  1  0.52645000  0.09211000  0.81664000  1.0 0.1747777277
C  C37  1  0.87777000  0.25516000  0.44117000  1.0 0.1406690211
C  C38  1  0.25516000  0.44117000  0.87777000  1.0 0.1406690211
C  C39  1  0.44117000  0.87777000  0.25516000  1.0 0.1406690211
C  C40  1  0.12223000  0.74484000  0.55883000  1.0 0.1406690211
C  C41  1  0.74484000  0.55883000  0.12223000  1.0 0.1406690211
C  C42  1  0.55883000  0.12223000  0.74484000  1.0 0.1406690211
C  C43  1  0.84060000  0.29516000  0.41314000  1.0 0.1613595003
C  C44  1  0.29516000  0.41314000  0.84060000  1.0 0.1613595003
C  C45  1  0.41314000  0.84060000  0.29516000  1.0 0.1613595003
C  C46  1  0.15940000  0.70484000  0.58686000  1.0 0.1613595003
C  C47  1  0.70484000  0.58686000  0.15940000  1.0 0.1613595003
C  C48  1  0.58686000  0.15940000  0.70484000  1.0 0.1613595003
C  C49  1  0.75885000  0.32724000  0.35931000  1.0 0.0513329123
C  C50  1  0.32724000  0.35931000  0.75885000  1.0 0.0513329123
C  C51  1  0.35931000  0.75885000  0.32724000  1.0 0.0513329123
C  C52  1  0.24115000  0.67276000  0.64069000  1.0 0.0513329123
C  C53  1  0.67276000  0.64069000  0.24115000  1.0 0.0513329123
C  C54  1  0.64069000  0.24115000  0.67276000  1.0 0.0513329123
S  S1  1  0.27870000  0.52538000  0.70602000  1.0 0.2965486362
S  S2  1  0.52538000  0.70602000  0.27870000  1.0 0.2965486362
S  S3  1  0.70602000  0.27870000  0.52538000  1.0 0.2965486362
S  S4  1  0.72130000  0.47462000  0.29398000  1.0 0.2965486362
S  S5  1  0.47462000  0.29398000  0.72130000  1.0 0.2965486362
S  S6  1  0.29398000  0.72130000  0.47462000  1.0 0.2965486362
S  S7  1  0.25490000  0.51100000  0.67010000  1.0 0.277108174
S  S8  1  0.51100000  0.67010000  0.25490000  1.0 0.277108174
S  S9  1  0.67010000  0.25490000  0.51100000  1.0 0.277108174
S  S10  1  0.74510000  0.48900000  0.32990000  1.0 0.277108174
S  S11  1  0.48900000  0.32990000  0.74510000  1.0 0.277108174
S  S12  1  0.32990000  0.74510000  0.48900000  1.0 0.277108174
N  N1  1  0.00695000  0.16459000  0.55796000  1.0 -0.2880823164
N  N2  1  0.16459000  0.55796000  0.00695000  1.0 -0.2880823164
N  N3  1  0.55796000  0.00695000  0.16459000  1.0 -0.2880823164
N  N4  1  0.99305000  0.83541000  0.44204000  1.0 -0.2880823164
N  N5  1  0.83541000  0.44204000  0.99305000  1.0 -0.2880823164
N  N6  1  0.44204000  0.99305000  0.83541000  1.0 -0.2880823164
N  N7  1  0.00286000  0.27171000  0.52363000  1.0 -0.2310272483
N  N8  1  0.27171000  0.52363000  0.00286000  1.0 -0.2310272483
N  N9  1  0.52363000  0.00286000  0.27171000  1.0 -0.2310272483
N  N10  1  0.99714000  0.72829000  0.47637000  1.0 -0.2310272483
N  N11  1  0.72829000  0.47637000  0.99714000  1.0 -0.2310272483
N  N12  1  0.47637000  0.99714000  0.72829000  1.0 -0.2310272483
N  N13  1  0.98458000  0.32006000  0.50346000  1.0 -0.2404309969
N  N14  1  0.32006000  0.50346000  0.98458000  1.0 -0.2404309969
N  N15  1  0.50346000  0.98458000  0.32006000  1.0 -0.2404309969
N  N16  1  0.01542000  0.67994000  0.49654000  1.0 -0.2404309969
N  N17  1  0.67994000  0.49654000  0.01542000  1.0 -0.2404309969
N  N18  1  0.49654000  0.01542000  0.67994000  1.0 -0.2404309969
N  N19  1  0.82424000  0.16737000  0.41809000  1.0 -0.2880823164
N  N20  1  0.16737000  0.41809000  0.82424000  1.0 -0.2954374141
N  N21  1  0.41809000  0.82424000  0.16737000  1.0 -0.2954374141
N  N22  1  0.17576000  0.83263000  0.58191000  1.0 -0.2954374141
N  N23  1  0.83263000  0.58191000  0.17576000  1.0 -0.2880823164
N  N24  1  0.58191000  0.17576000  0.83263000  1.0 -0.2954374141
N  N25  1  0.91579000  0.38931000  0.45320000  1.0 -0.2310272483
N  N26  1  0.38931000  0.45320000  0.91579000  1.0 -0.2310272483
N  N27  1  0.45320000  0.91579000  0.38931000  1.0 -0.2310272483
N  N28  1  0.08421000  0.61069000  0.54680000  1.0 -0.2310272483
N  N29  1  0.61069000  0.54680000  0.08421000  1.0 -0.2310272483
N  N30  1  0.54680000  0.08421000  0.61069000  1.0 -0.2310272483
N  N31  1  0.86249000  0.41027000  0.41714000  1.0 -0.2310272483
N  N32  1  0.41027000  0.41714000  0.86249000  1.0 -0.2310272483
N  N33  1  0.41714000  0.86249000  0.41027000  1.0 -0.2310272483
N  N34  1  0.13751000  0.58973000  0.58286000  1.0 -0.2310272483
N  N35  1  0.58973000  0.58286000  0.13751000  1.0 -0.2310272483
N  N36  1  0.58286000  0.13751000  0.58973000  1.0 -0.2310272483
N  N37  1  0.74073000  0.25186000  0.35291000  1.0 -0.3583265728
N  N38  1  0.25186000  0.35291000  0.74073000  1.0 -0.3583265728
N  N39  1  0.35291000  0.74073000  0.25186000  1.0 -0.3583265728
N  N40  1  0.25927000  0.74814000  0.64709000  1.0 -0.3583265728
N  N41  1  0.74814000  0.64709000  0.25927000  1.0 -0.3583265728
N  N42  1  0.64709000  0.25927000  0.74814000  1.0 -0.3583265728
O  O1  1  0.23316000  0.41659000  0.64195000  1.0 -0.0983021966
O  O2  1  0.41659000  0.64195000  0.23316000  1.0 -0.0983021966
O  O3  1  0.64195000  0.23316000  0.41659000  1.0 -0.0983021966
O  O4  1  0.76684000  0.58341000  0.35805000  1.0 -0.0983021966
O  O5  1  0.58341000  0.35805000  0.76684000  1.0 -0.0983021966
O  O6  1  0.35805000  0.76684000  0.58341000  1.0 -0.0983021966
O  O7  1  0.26800000  0.54980000  0.77600000  1.0 -0.2175624257
O  O8  1  0.54980000  0.77600000  0.26800000  1.0 -0.2175624257
O  O9  1  0.77600000  0.26800000  0.54980000  1.0 -0.2175624257
O  O10  1  0.73200000  0.45020000  0.22400000  1.0 -0.2175624257
O  O11  1  0.45020000  0.22400000  0.73200000  1.0 -0.2175624257
O  O12  1  0.22400000  0.73200000  0.45020000  1.0 -0.2175624257
O  O13  1  0.39060000  0.61160000  0.76740000  1.0 -0.0691747441
O  O14  1  0.61160000  0.76740000  0.39060000  1.0 -0.0691747441
O  O15  1  0.76740000  0.39060000  0.61160000  1.0 -0.0691747441
O  O16  1  0.60940000  0.38840000  0.23260000  1.0 -0.0691747441
O  O17  1  0.38840000  0.23260000  0.60940000  1.0 -0.0691747441
O  O18  1  0.23260000  0.60940000  0.38840000  1.0 -0.0691747441
O  O19  1  0.20821000  0.51209000  0.62180000  1.0 0.0093975925
O  O20  1  0.51209000  0.62180000  0.20821000  1.0 0.0093975925
O  O21  1  0.62180000  0.20821000  0.51209000  1.0 0.0093975925
O  O22  1  0.79179000  0.48791000  0.37820000  1.0 0.0093975925
O  O23  1  0.48791000  0.37820000  0.79179000  1.0 0.0093975925
O  O24  1  0.37820000  0.79179000  0.48791000  1.0 0.0093975925
O  O25  1  0.25020000  0.44870000  0.68910000  1.0 -0.1223499066
O  O26  1  0.44870000  0.68910000  0.25020000  1.0 -0.1223499066
O  O27  1  0.68910000  0.25020000  0.44870000  1.0 -0.1223499066
O  O28  1  0.74980000  0.55130000  0.31090000  1.0 -0.1223499066
O  O29  1  0.55130000  0.31090000  0.74980000  1.0 -0.1223499066
O  O30  1  0.31090000  0.74980000  0.55130000  1.0 -0.1223499066
O  O31  1  0.21310000  0.54610000  0.69750000  1.0 -0.15050726
O  O32  1  0.54610000  0.69750000  0.21310000  1.0 -0.15050726
O  O33  1  0.69750000  0.21310000  0.54610000  1.0 -0.15050726
O  O34  1  0.78690000  0.45390000  0.30250000  1.0 -0.15050726
O  O35  1  0.45390000  0.30250000  0.78690000  1.0 -0.15050726
O  O36  1  0.30250000  0.78690000  0.45390000  1.0 -0.15050726
O  O37  1  0.35870000  0.58760000  0.71170000  1.0 -0.0288353696
O  O38  1  0.58760000  0.71170000  0.35870000  1.0 -0.0288353696
O  O39  1  0.71170000  0.35870000  0.58760000  1.0 -0.0288353696
O  O40  1  0.64130000  0.41240000  0.28830000  1.0 -0.0288353696
O  O41  1  0.41240000  0.28830000  0.64130000  1.0 -0.0288353696
O  O42  1  0.28830000  0.64130000  0.41240000  1.0 -0.0288353696
O  O43  1  0.17340000  0.45670000  0.55900000  1.0 -0.1142955607
O  O44  1  0.45670000  0.55900000  0.17340000  1.0 -0.1142955607
O  O45  1  0.55900000  0.17340000  0.45670000  1.0 -0.1142955607
O  O46  1  0.82660000  0.54330000  0.44100000  1.0 -0.1142955607
O  O47  1  0.54330000  0.44100000  0.82660000  1.0 -0.1142955607
O  O48  1  0.44100000  0.82660000  0.54330000  1.0 -0.1142955607
