# DDEC6 charges by PACMAN v1.1 (https://github.com/mtap-research/PACMAN-charge/)
data_RAYMIP_ASR_pacman
_symmetry_space_group_name_H-M   'P 1'
_cell_length_a   19.43560000
_cell_length_b   19.43560000
_cell_length_c   27.89300000
_cell_angle_alpha   90.00000000
_cell_angle_beta   90.00000000
_cell_angle_gamma   120.00000000
_symmetry_Int_Tables_number   1
_chemical_formula_structural   In3H36C66O13
_chemical_formula_sum   'In6 H72 C132 O26'
_cell_volume   9124.76657221
_cell_formula_units_Z   2
loop_
 _symmetry_equiv_pos_site_id
 _symmetry_equiv_pos_as_xyz
  1  'x, y, z'
loop_
 _atom_site_type_symbol
 _atom_site_label
 _atom_site_symmetry_multiplicity
 _atom_site_fract_x
 _atom_site_fract_y
 _atom_site_fract_z
 _atom_site_occupancy
 _atom_site_charge
In  In1  1  0.63599000  0.41882000  0.75000000  1.0 1.4855929073
In  In2  1  0.78283000  0.36401000  0.75000000  1.0 1.4855929073
In  In3  1  0.58118000  0.21717000  0.75000000  1.0 1.4855929073
In  In4  1  0.41882000  0.63599000  0.25000000  1.0 1.4781625922
In  In5  1  0.21717000  0.58118000  0.25000000  1.0 1.4781625922
In  In6  1  0.36401000  0.78283000  0.25000000  1.0 1.4781625922
H  H1  1  0.75000000  0.59030000  0.63370000  1.0 0.125331562
H  H2  1  0.84030000  0.25000000  0.86630000  1.0 0.1211310292
H  H3  1  0.40970000  0.15970000  0.63370000  1.0 0.125331562
H  H4  1  0.75000000  0.59030000  0.86630000  1.0 0.125331562
H  H5  1  0.84030000  0.25000000  0.63370000  1.0 0.125331562
H  H6  1  0.40970000  0.15970000  0.86630000  1.0 0.125331562
H  H7  1  0.59030000  0.75000000  0.13370000  1.0 0.1211310292
H  H8  1  0.15970000  0.40970000  0.36630000  1.0 0.1211310292
H  H9  1  0.25000000  0.84030000  0.13370000  1.0 0.125331562
H  H10  1  0.59030000  0.75000000  0.36630000  1.0 0.1211310292
H  H11  1  0.15970000  0.40970000  0.13370000  1.0 0.1211310292
H  H12  1  0.25000000  0.84030000  0.36630000  1.0 0.125331562
H  H13  1  0.81720000  0.68160000  0.57520000  1.0 0.1107665506
H  H14  1  0.86440000  0.18280000  0.92480000  1.0 0.1107665506
H  H15  1  0.31840000  0.13560000  0.57520000  1.0 0.1107665506
H  H16  1  0.81720000  0.68160000  0.92480000  1.0 0.1107665506
H  H17  1  0.86440000  0.18280000  0.57520000  1.0 0.1107665506
H  H18  1  0.31840000  0.13560000  0.92480000  1.0 0.1107665506
H  H19  1  0.68160000  0.81720000  0.07520000  1.0 0.1107665506
H  H20  1  0.13560000  0.31840000  0.42480000  1.0 0.1107665506
H  H21  1  0.18280000  0.86440000  0.07520000  1.0 0.1107665506
H  H22  1  0.68160000  0.81720000  0.42480000  1.0 0.1107665506
H  H23  1  0.13560000  0.31840000  0.07520000  1.0 0.1107665506
H  H24  1  0.18280000  0.86440000  0.42480000  1.0 0.1107665506
H  H25  1  0.98820000  0.62530000  0.57940000  1.0 0.1107665506
H  H26  1  0.63710000  0.01180000  0.92060000  1.0 0.1107665506
H  H27  1  0.37470000  0.36290000  0.57940000  1.0 0.1107665506
H  H28  1  0.98820000  0.62530000  0.92060000  1.0 0.1107665506
H  H29  1  0.63710000  0.01180000  0.57940000  1.0 0.1107665506
H  H30  1  0.37470000  0.36290000  0.92060000  1.0 0.1107665506
H  H31  1  0.62530000  0.98820000  0.07940000  1.0 0.1107665506
H  H32  1  0.36290000  0.37470000  0.42060000  1.0 0.1107665506
H  H33  1  0.01180000  0.63710000  0.07940000  1.0 0.1107665506
H  H34  1  0.62530000  0.98820000  0.42060000  1.0 0.1107665506
H  H35  1  0.36290000  0.37470000  0.07940000  1.0 0.1107665506
H  H36  1  0.01180000  0.63710000  0.42060000  1.0 0.1107665506
H  H37  1  0.91570000  0.52700000  0.63510000  1.0 0.125331562
H  H38  1  0.61130000  0.08430000  0.86490000  1.0 0.125331562
H  H39  1  0.47300000  0.38870000  0.63510000  1.0 0.125331562
H  H40  1  0.91570000  0.52700000  0.86490000  1.0 0.125331562
H  H41  1  0.61130000  0.08430000  0.63510000  1.0 0.125331562
H  H42  1  0.47300000  0.38870000  0.86490000  1.0 0.125331562
H  H43  1  0.52700000  0.91570000  0.13510000  1.0 0.125331562
H  H44  1  0.38870000  0.47300000  0.36490000  1.0 0.125331562
H  H45  1  0.08430000  0.61130000  0.13510000  1.0 0.1211310292
H  H46  1  0.52700000  0.91570000  0.36490000  1.0 0.125331562
H  H47  1  0.38870000  0.47300000  0.13510000  1.0 0.125331562
H  H48  1  0.08430000  0.61130000  0.36490000  1.0 0.1211310292
H  H49  1  0.00000000  0.66220000  0.50000000  1.0 0.1107665506
H  H50  1  0.66220000  0.00000000  0.00000000  1.0 0.1107665506
H  H51  1  0.33780000  0.33780000  0.50000000  1.0 0.1107665506
H  H52  1  0.00000000  0.66220000  0.00000000  1.0 0.1107665506
H  H53  1  0.66220000  0.00000000  0.50000000  1.0 0.1107665506
H  H54  1  0.33780000  0.33780000  0.00000000  1.0 0.1107665506
H  H55  1  0.92340000  0.80200000  0.55520000  1.0 0.1107665506
H  H56  1  0.87860000  0.07660000  0.94480000  1.0 0.1107665506
H  H57  1  0.19800000  0.12140000  0.55520000  1.0 0.1107665506
H  H58  1  0.92340000  0.80200000  0.94480000  1.0 0.1107665506
H  H59  1  0.87860000  0.07660000  0.55520000  1.0 0.1107665506
H  H60  1  0.19800000  0.12140000  0.94480000  1.0 0.1107665506
H  H61  1  0.80200000  0.92340000  0.05520000  1.0 0.1107665506
H  H62  1  0.12140000  0.19800000  0.44480000  1.0 0.1107665506
H  H63  1  0.07660000  0.87860000  0.05520000  1.0 0.1107665506
H  H64  1  0.80200000  0.92340000  0.44480000  1.0 0.1107665506
H  H65  1  0.12140000  0.19800000  0.05520000  1.0 0.1107665506
H  H66  1  0.07660000  0.87860000  0.44480000  1.0 0.1107665506
H  H67  1  0.11820000  0.00000000  0.50000000  1.0 0.1211310292
H  H68  1  0.88180000  0.88180000  0.00000000  1.0 0.1211310292
H  H69  1  0.00000000  0.11820000  0.50000000  1.0 0.1107665506
H  H70  1  0.11820000  0.00000000  0.00000000  1.0 0.1211310292
H  H71  1  0.88180000  0.88180000  0.50000000  1.0 0.1211310292
H  H72  1  0.00000000  0.11820000  0.00000000  1.0 0.1107665506
C  C1  1  0.78367000  0.49270000  0.68060000  1.0 0.6085823035
C  C2  1  0.70903000  0.21633000  0.81940000  1.0 0.6085823035
C  C3  1  0.50730000  0.29097000  0.68060000  1.0 0.6085823035
C  C4  1  0.78367000  0.49270000  0.81940000  1.0 0.6085823035
C  C5  1  0.70903000  0.21633000  0.68060000  1.0 0.6085823035
C  C6  1  0.50730000  0.29097000  0.81940000  1.0 0.6085823035
C  C7  1  0.49270000  0.78367000  0.18060000  1.0 0.6085823035
C  C8  1  0.29097000  0.50730000  0.31940000  1.0 0.6085823035
C  C9  1  0.21633000  0.70903000  0.18060000  1.0 0.6085823035
C  C10  1  0.49270000  0.78367000  0.31940000  1.0 0.6085823035
C  C11  1  0.29097000  0.50730000  0.18060000  1.0 0.6085823035
C  C12  1  0.21633000  0.70903000  0.31940000  1.0 0.6085823035
C  C13  1  0.82703000  0.55059000  0.64187000  1.0 -0.0545412631
C  C14  1  0.72356000  0.17297000  0.85813000  1.0 -0.0545412631
C  C15  1  0.44941000  0.27644000  0.64187000  1.0 -0.0545412631
C  C16  1  0.82703000  0.55059000  0.85813000  1.0 -0.0545412631
C  C17  1  0.72356000  0.17297000  0.64187000  1.0 -0.0545412631
C  C18  1  0.44941000  0.27644000  0.85813000  1.0 -0.0545412631
C  C19  1  0.55059000  0.82703000  0.14187000  1.0 -0.0558875272
C  C20  1  0.27644000  0.44941000  0.35813000  1.0 -0.0545412631
C  C21  1  0.17297000  0.72356000  0.14187000  1.0 -0.0558875272
C  C22  1  0.55059000  0.82703000  0.35813000  1.0 -0.0558875272
C  C23  1  0.27644000  0.44941000  0.14187000  1.0 -0.0545412631
C  C24  1  0.17297000  0.72356000  0.35813000  1.0 -0.0558875272
C  C25  1  0.79790000  0.59675000  0.62256000  1.0 -0.0911719035
C  C26  1  0.79885000  0.20210000  0.87744000  1.0 -0.0911719035
C  C27  1  0.40325000  0.20115000  0.62256000  1.0 -0.0911719035
C  C28  1  0.79790000  0.59675000  0.87744000  1.0 -0.0911719035
C  C29  1  0.79885000  0.20210000  0.62256000  1.0 -0.0911719035
C  C30  1  0.40325000  0.20115000  0.87744000  1.0 -0.0911719035
C  C31  1  0.59675000  0.79790000  0.12256000  1.0 -0.0911719035
C  C32  1  0.20115000  0.40325000  0.37744000  1.0 -0.0911719035
C  C33  1  0.20210000  0.79885000  0.12256000  1.0 -0.0911719035
C  C34  1  0.59675000  0.79790000  0.37744000  1.0 -0.0911719035
C  C35  1  0.20115000  0.40325000  0.12256000  1.0 -0.0911719035
C  C36  1  0.20210000  0.79885000  0.37744000  1.0 -0.0911719035
C  C37  1  0.83805000  0.65142000  0.58751000  1.0 -0.1535071851
C  C38  1  0.81337000  0.16195000  0.91249000  1.0 -0.1535071851
C  C39  1  0.34858000  0.18663000  0.58751000  1.0 -0.1535071851
C  C40  1  0.83805000  0.65142000  0.91249000  1.0 -0.1535071851
C  C41  1  0.81337000  0.16195000  0.58751000  1.0 -0.1535071851
C  C42  1  0.34858000  0.18663000  0.91249000  1.0 -0.1535071851
C  C43  1  0.65142000  0.83805000  0.08751000  1.0 -0.1535071851
C  C44  1  0.18663000  0.34858000  0.41249000  1.0 -0.1535071851
C  C45  1  0.16195000  0.81337000  0.08751000  1.0 -0.1535071851
C  C46  1  0.65142000  0.83805000  0.41249000  1.0 -0.1535071851
C  C47  1  0.18663000  0.34858000  0.08751000  1.0 -0.1535071851
C  C48  1  0.16195000  0.81337000  0.41249000  1.0 -0.1535071851
C  C49  1  0.90876000  0.66227000  0.57022000  1.0 0.0695047998
C  C50  1  0.75351000  0.09124000  0.92978000  1.0 0.0695047998
C  C51  1  0.33773000  0.24649000  0.57022000  1.0 0.0640895373
C  C52  1  0.90876000  0.66227000  0.92978000  1.0 0.0695047998
C  C53  1  0.75351000  0.09124000  0.57022000  1.0 0.0695047998
C  C54  1  0.33773000  0.24649000  0.92978000  1.0 0.0640895373
C  C55  1  0.66227000  0.90876000  0.07022000  1.0 0.0695047998
C  C56  1  0.24649000  0.33773000  0.42978000  1.0 0.0695047998
C  C57  1  0.09124000  0.75351000  0.07022000  1.0 0.0695047998
C  C58  1  0.66227000  0.90876000  0.42978000  1.0 0.0695047998
C  C59  1  0.24649000  0.33773000  0.07022000  1.0 0.0695047998
C  C60  1  0.09124000  0.75351000  0.42978000  1.0 0.0695047998
C  C61  1  0.93911000  0.61701000  0.58959000  1.0 -0.156233535
C  C62  1  0.67790000  0.06089000  0.91041000  1.0 -0.156233535
C  C63  1  0.38299000  0.32210000  0.58959000  1.0 -0.156233535
C  C64  1  0.93911000  0.61701000  0.91041000  1.0 -0.156233535
C  C65  1  0.67790000  0.06089000  0.58959000  1.0 -0.1535071851
C  C66  1  0.38299000  0.32210000  0.91041000  1.0 -0.156233535
C  C67  1  0.61701000  0.93911000  0.08959000  1.0 -0.156233535
C  C68  1  0.32210000  0.38299000  0.41041000  1.0 -0.156233535
C  C69  1  0.06089000  0.67790000  0.08959000  1.0 -0.156233535
C  C70  1  0.61701000  0.93911000  0.41041000  1.0 -0.156233535
C  C71  1  0.32210000  0.38299000  0.08959000  1.0 -0.156233535
C  C72  1  0.06089000  0.67790000  0.41041000  1.0 -0.156233535
C  C73  1  0.89671000  0.55955000  0.62406000  1.0 -0.0911719035
C  C74  1  0.66284000  0.10329000  0.87594000  1.0 -0.0911719035
C  C75  1  0.44045000  0.33716000  0.62406000  1.0 -0.0911719035
C  C76  1  0.89671000  0.55955000  0.87594000  1.0 -0.0911719035
C  C77  1  0.66284000  0.10329000  0.62406000  1.0 -0.0911719035
C  C78  1  0.44045000  0.33716000  0.87594000  1.0 -0.0911719035
C  C79  1  0.55955000  0.89671000  0.12406000  1.0 -0.0911719035
C  C80  1  0.33716000  0.44045000  0.37594000  1.0 -0.0911719035
C  C81  1  0.10329000  0.66284000  0.12406000  1.0 -0.0911719035
C  C82  1  0.55955000  0.89671000  0.37594000  1.0 -0.0911719035
C  C83  1  0.33716000  0.44045000  0.12406000  1.0 -0.0911719035
C  C84  1  0.10329000  0.66284000  0.37594000  1.0 -0.0911719035
C  C85  1  0.00000000  0.71007000  0.50000000  1.0 -0.208052652
C  C86  1  0.71007000  0.00000000  0.00000000  1.0 -0.208052652
C  C87  1  0.28993000  0.28993000  0.50000000  1.0 -0.208052652
C  C88  1  0.00000000  0.71007000  0.00000000  1.0 -0.208052652
C  C89  1  0.71007000  0.00000000  0.50000000  1.0 -0.208052652
C  C90  1  0.28993000  0.28993000  0.00000000  1.0 -0.208052652
C  C91  1  0.95475000  0.72309000  0.53377000  1.0 0.0695047998
C  C92  1  0.76834000  0.04525000  0.96623000  1.0 0.0695047998
C  C93  1  0.27691000  0.23166000  0.53377000  1.0 0.0695047998
C  C94  1  0.95475000  0.72309000  0.96623000  1.0 0.0695047998
C  C95  1  0.76834000  0.04525000  0.53377000  1.0 0.0695047998
C  C96  1  0.27691000  0.23166000  0.96623000  1.0 0.0695047998
C  C97  1  0.72309000  0.95475000  0.03377000  1.0 0.0695047998
C  C98  1  0.23166000  0.27691000  0.46623000  1.0 0.0695047998
C  C99  1  0.04525000  0.76834000  0.03377000  1.0 0.0695047998
C  C100  1  0.72309000  0.95475000  0.46623000  1.0 0.0695047998
C  C101  1  0.23166000  0.27691000  0.03377000  1.0 0.0695047998
C  C102  1  0.04525000  0.76834000  0.46623000  1.0 0.0695047998
C  C103  1  0.95445000  0.79370000  0.53314000  1.0 -0.2005839454
C  C104  1  0.83925000  0.04555000  0.96686000  1.0 -0.2005839454
C  C105  1  0.20630000  0.16075000  0.53314000  1.0 -0.2005839454
C  C106  1  0.95445000  0.79370000  0.96686000  1.0 -0.2005839454
C  C107  1  0.83925000  0.04555000  0.53314000  1.0 -0.2005839454
C  C108  1  0.20630000  0.16075000  0.96686000  1.0 -0.2005839454
C  C109  1  0.79370000  0.95445000  0.03314000  1.0 -0.2005839454
C  C110  1  0.16075000  0.20630000  0.46686000  1.0 -0.2005839454
C  C111  1  0.04555000  0.83925000  0.03314000  1.0 -0.2005839454
C  C112  1  0.79370000  0.95445000  0.46686000  1.0 -0.2005839454
C  C113  1  0.16075000  0.20630000  0.03314000  1.0 -0.2005839454
C  C114  1  0.04555000  0.83925000  0.46686000  1.0 -0.2005839454
C  C115  1  0.00000000  0.85303000  0.50000000  1.0 0.0695047998
C  C116  1  0.85303000  0.00000000  0.00000000  1.0 0.0695047998
C  C117  1  0.14697000  0.14697000  0.50000000  1.0 0.0695047998
C  C118  1  0.00000000  0.85303000  0.00000000  1.0 0.0695047998
C  C119  1  0.85303000  0.00000000  0.50000000  1.0 0.0695047998
C  C120  1  0.14697000  0.14697000  0.00000000  1.0 0.0695047998
C  C121  1  0.00000000  0.92933000  0.50000000  1.0 0.0640895373
C  C122  1  0.92933000  0.00000000  0.00000000  1.0 0.0695047998
C  C123  1  0.07067000  0.07067000  0.50000000  1.0 0.0640895373
C  C124  1  0.00000000  0.92933000  0.00000000  1.0 0.0640895373
C  C125  1  0.92933000  0.00000000  0.50000000  1.0 0.0695047998
C  C126  1  0.07067000  0.07067000  0.00000000  1.0 0.0640895373
C  C127  1  0.07034000  0.00000000  0.50000000  1.0 -0.1881852392
C  C128  1  0.92966000  0.92966000  0.00000000  1.0 -0.1881852392
C  C129  1  0.00000000  0.07034000  0.50000000  1.0 -0.1881852392
C  C130  1  0.07034000  0.00000000  0.00000000  1.0 -0.1881852392
C  C131  1  0.92966000  0.92966000  0.50000000  1.0 -0.1881852392
C  C132  1  0.00000000  0.07034000  0.00000000  1.0 -0.1881852392
O  O1  1  0.72109000  0.48823000  0.69530000  1.0 -0.5628542546
O  O2  1  0.76714000  0.27891000  0.80470000  1.0 -0.5628542546
O  O3  1  0.51177000  0.23286000  0.69530000  1.0 -0.5628542546
O  O4  1  0.72109000  0.48823000  0.80470000  1.0 -0.5628542546
O  O5  1  0.76714000  0.27891000  0.69530000  1.0 -0.5628542546
O  O6  1  0.51177000  0.23286000  0.80470000  1.0 -0.5628542546
O  O7  1  0.48823000  0.72109000  0.19530000  1.0 -0.5628542546
O  O8  1  0.23286000  0.51177000  0.30470000  1.0 -0.5628542546
O  O9  1  0.27891000  0.76714000  0.19530000  1.0 -0.5628542546
O  O10  1  0.48823000  0.72109000  0.30470000  1.0 -0.5628542546
O  O11  1  0.23286000  0.51177000  0.19530000  1.0 -0.5628542546
O  O12  1  0.27891000  0.76714000  0.30470000  1.0 -0.5628542546
O  O13  1  0.81421000  0.45354000  0.69541000  1.0 -0.5628542546
O  O14  1  0.63933000  0.18579000  0.80459000  1.0 -0.5628542546
O  O15  1  0.54646000  0.36067000  0.69541000  1.0 -0.5628542546
O  O16  1  0.81421000  0.45354000  0.80459000  1.0 -0.5628542546
O  O17  1  0.63933000  0.18579000  0.69541000  1.0 -0.5628542546
O  O18  1  0.54646000  0.36067000  0.80459000  1.0 -0.5628542546
O  O19  1  0.45354000  0.81421000  0.19541000  1.0 -0.5628542546
O  O20  1  0.36067000  0.54646000  0.30459000  1.0 -0.5628542546
O  O21  1  0.18579000  0.63933000  0.19541000  1.0 -0.5628542546
O  O22  1  0.45354000  0.81421000  0.30459000  1.0 -0.5628542546
O  O23  1  0.36067000  0.54646000  0.19541000  1.0 -0.5628542546
O  O24  1  0.18579000  0.63933000  0.30459000  1.0 -0.5628542546
O  O25  1  0.66666667  0.33333333  0.75000000  1.0 -1.072818234
O  O26  1  0.33333333  0.66666667  0.25000000  1.0 -1.072818234
