# DDEC6 charges by PACMAN v1.1 (https://github.com/mtap-research/PACMAN-charge/)
data_RAZXIA01_FSR_pacman
_symmetry_space_group_name_H-M   'P 1'
_cell_length_a   17.68510000
_cell_length_b   17.68510000
_cell_length_c   17.68510000
_cell_angle_alpha   136.63100000
_cell_angle_beta   136.63100000
_cell_angle_gamma   63.00630000
_symmetry_Int_Tables_number   1
_chemical_formula_structural   KCo3H8(C2O3)6
_chemical_formula_sum   'K4 Co12 H32 C48 O72'
_cell_volume   2575.44186906
_cell_formula_units_Z   4
loop_
 _symmetry_equiv_pos_site_id
 _symmetry_equiv_pos_as_xyz
  1  'x, y, z'
loop_
 _atom_site_type_symbol
 _atom_site_label
 _atom_site_symmetry_multiplicity
 _atom_site_fract_x
 _atom_site_fract_y
 _atom_site_fract_z
 _atom_site_occupancy
 _atom_site_charge
K  K1  1  0.21437000  0.12500000  0.58937000  1.0 0.7491763582
K  K2  1  0.87500000  0.46437000  0.08937000  1.0 0.7491763582
K  K3  1  0.53563000  0.62500000  0.41063000  1.0 0.7491763582
K  K4  1  0.37500000  0.78563000  0.91063000  1.0 0.7491763582
Co  Co1  1  0.41154000  0.35526000  0.84754000  1.0 0.9346610059
Co  Co2  1  0.64474000  0.49228000  0.05628000  1.0 0.9346610059
Co  Co3  1  0.50772000  0.56400000  0.15246000  1.0 0.9346610059
Co  Co4  1  0.43600000  0.58846000  0.94372000  1.0 0.9346610059
Co  Co5  1  0.24228000  0.89474000  0.55628000  1.0 0.9346610059
Co  Co6  1  0.31400000  0.75772000  0.65246000  1.0 0.9346610059
Co  Co7  1  0.33846000  0.68600000  0.44372000  1.0 0.9346610059
Co  Co8  1  0.10526000  0.66154000  0.34754000  1.0 0.9346610059
Co  Co9  1  0.30727000  0.30727000  0.00000000  1.0 0.998296683
Co  Co10  1  0.69273000  0.69273000  0.00000000  1.0 0.998296683
Co  Co11  1  0.44273000  0.94273000  0.50000000  1.0 0.998296683
Co  Co12  1  0.05727000  0.55727000  0.50000000  1.0 0.998296683
H  H1  1  0.27630000  0.63360000  0.07250000  1.0 0.1490276803
H  H2  1  0.36640000  0.43890000  0.64270000  1.0 0.1490276803
H  H3  1  0.56110000  0.20380000  0.92750000  1.0 0.1490276803
H  H4  1  0.79620000  0.72370000  0.35730000  1.0 0.1490276803
H  H5  1  0.18890000  0.61640000  0.14270000  1.0 0.1490276803
H  H6  1  0.95380000  0.81110000  0.42750000  1.0 0.1490276803
H  H7  1  0.47370000  0.04620000  0.85730000  1.0 0.1490276803
H  H8  1  0.38360000  0.52630000  0.57250000  1.0 0.1490276803
H  H9  1  0.16270000  0.54690000  0.92740000  1.0 0.1440499773
H  H10  1  0.45310000  0.38050000  0.61580000  1.0 0.1440499773
H  H11  1  0.61950000  0.23530000  0.07260000  1.0 0.1440499773
H  H12  1  0.76470000  0.83730000  0.38420000  1.0 0.1440499773
H  H13  1  0.13050000  0.70310000  0.11580000  1.0 0.1440499773
H  H14  1  0.98530000  0.86950000  0.57260000  1.0 0.1440499773
H  H15  1  0.58730000  0.01470000  0.88420000  1.0 0.1440499773
H  H16  1  0.29690000  0.41270000  0.42740000  1.0 0.1440499773
H  H17  1  0.26220000  0.68390000  0.96670000  1.0 0.1490276803
H  H18  1  0.31610000  0.28280000  0.57830000  1.0 0.1490276803
H  H19  1  0.71720000  0.29550000  0.03330000  1.0 0.1490276803
H  H20  1  0.70450000  0.73780000  0.42170000  1.0 0.1490276803
H  H21  1  0.03280000  0.56610000  0.07830000  1.0 0.1490276803
H  H22  1  0.04550000  0.96720000  0.53330000  1.0 0.1490276803
H  H23  1  0.48780000  0.95450000  0.92170000  1.0 0.1490276803
H  H24  1  0.43390000  0.51220000  0.46670000  1.0 0.1490276803
H  H25  1  0.13940000  0.62780000  0.85020000  1.0 0.1562506755
H  H26  1  0.37220000  0.22240000  0.51160000  1.0 0.1562506755
H  H27  1  0.77760000  0.28920000  0.14980000  1.0 0.1562506755
H  H28  1  0.71080000  0.86060000  0.48840000  1.0 0.1562506755
H  H29  1  0.97240000  0.62220000  0.01160000  1.0 0.1562506755
H  H30  1  0.03920000  0.02760000  0.64980000  1.0 0.1562506755
H  H31  1  0.61060000  0.96080000  0.98840000  1.0 0.1562506755
H  H32  1  0.37780000  0.38940000  0.35020000  1.0 0.1562506755
C  C1  1  0.29518000  0.48498000  0.02420000  1.0 0.668621694
C  C2  1  0.51502000  0.53922000  0.81020000  1.0 0.668621694
C  C3  1  0.46078000  0.27098000  0.97580000  1.0 0.668621694
C  C4  1  0.72902000  0.70482000  0.18980000  1.0 0.668621694
C  C5  1  0.28922000  0.76502000  0.31020000  1.0 0.668621694
C  C6  1  0.02098000  0.71078000  0.47580000  1.0 0.668621694
C  C7  1  0.45482000  0.97902000  0.68980000  1.0 0.668621694
C  C8  1  0.23498000  0.54518000  0.52420000  1.0 0.668621694
C  C9  1  0.24188000  0.55558000  0.98210000  1.0 -0.442047144
C  C10  1  0.44442000  0.42652000  0.68630000  1.0 -0.442047144
C  C11  1  0.57348000  0.25978000  0.01790000  1.0 -0.442047144
C  C12  1  0.74022000  0.75812000  0.31370000  1.0 -0.442047144
C  C13  1  0.17652000  0.69442000  0.18630000  1.0 -0.442047144
C  C14  1  0.00978000  0.82348000  0.51790000  1.0 -0.442047144
C  C15  1  0.50812000  0.99022000  0.81370000  1.0 -0.442047144
C  C16  1  0.30558000  0.49188000  0.48210000  1.0 -0.442047144
C  C17  1  0.25758000  0.52558000  0.88800000  1.0 0.2788536623
C  C18  1  0.47442000  0.36242000  0.73200000  1.0 0.2788536623
C  C19  1  0.63758000  0.36958000  0.11200000  1.0 0.2788536623
C  C20  1  0.63042000  0.74242000  0.26800000  1.0 0.2788536623
C  C21  1  0.11242000  0.72442000  0.23200000  1.0 0.2788536623
C  C22  1  0.11958000  0.88758000  0.61200000  1.0 0.2788536623
C  C23  1  0.49242000  0.88042000  0.76800000  1.0 0.2788536623
C  C24  1  0.27558000  0.50758000  0.38800000  1.0 0.2788536623
C  C25  1  0.20996000  0.61616000  0.87300000  1.0 -0.4347973118
C  C26  1  0.38384000  0.25684000  0.59380000  1.0 -0.4347973118
C  C27  1  0.74316000  0.33696000  0.12700000  1.0 -0.4347973118
C  C28  1  0.66304000  0.79004000  0.40620000  1.0 -0.4347973118
C  C29  1  0.00684000  0.63384000  0.09380000  1.0 -0.4347973118
C  C30  1  0.08696000  0.99316000  0.62700000  1.0 -0.4347973118
C  C31  1  0.54004000  0.91304000  0.90620000  1.0 -0.4347973118
C  C32  1  0.36616000  0.45996000  0.37300000  1.0 -0.4347973118
C  C33  1  0.19728000  0.59068000  0.76140000  1.0 0.6525390347
C  C34  1  0.40932000  0.17072000  0.60660000  1.0 0.6525390347
C  C35  1  0.82928000  0.43588000  0.23860000  1.0 0.6525390347
C  C36  1  0.56412000  0.80272000  0.39340000  1.0 0.6525390347
C  C37  1  0.92072000  0.65932000  0.10660000  1.0 0.6525390347
C  C38  1  0.18588000  0.07928000  0.73860000  1.0 0.6525390347
C  C39  1  0.55272000  0.81412000  0.89340000  1.0 0.6525390347
C  C40  1  0.34068000  0.44728000  0.26140000  1.0 0.6525390347
C  C41  1  0.18928000  0.40898000  0.73570000  1.0 0.526341339
C  C42  1  0.59102000  0.32672000  0.78030000  1.0 0.526341339
C  C43  1  0.67328000  0.45358000  0.26430000  1.0 0.526341339
C  C44  1  0.54642000  0.81072000  0.21970000  1.0 0.526341339
C  C45  1  0.07672000  0.84102000  0.28030000  1.0 0.526341339
C  C46  1  0.20358000  0.92328000  0.76430000  1.0 0.526341339
C  C47  1  0.56072000  0.79642000  0.71970000  1.0 0.526341339
C  C48  1  0.15898000  0.43928000  0.23570000  1.0 0.526341339
O  O1  1  0.39866000  0.49946000  0.11740000  1.0 -0.6201803634
O  O2  1  0.50054000  0.61794000  0.89920000  1.0 -0.6201803634
O  O3  1  0.38206000  0.28126000  0.88260000  1.0 -0.6201803634
O  O4  1  0.71874000  0.60134000  0.10080000  1.0 -0.6201803634
O  O5  1  0.36794000  0.75054000  0.39920000  1.0 -0.6201803634
O  O6  1  0.03126000  0.63206000  0.38260000  1.0 -0.6201803634
O  O7  1  0.35134000  0.96874000  0.60080000  1.0 -0.6201803634
O  O8  1  0.24946000  0.64866000  0.61740000  1.0 -0.6201803634
O  O9  1  0.23054000  0.40984000  0.95890000  1.0 -0.5967630992
O  O10  1  0.59016000  0.54906000  0.82070000  1.0 -0.5967630992
O  O11  1  0.45094000  0.27164000  0.04110000  1.0 -0.5967630992
O  O12  1  0.72836000  0.76946000  0.17930000  1.0 -0.5967630992
O  O13  1  0.29906000  0.84016000  0.32070000  1.0 -0.5967630992
O  O14  1  0.02164000  0.70094000  0.54110000  1.0 -0.5967630992
O  O15  1  0.51946000  0.97836000  0.67930000  1.0 -0.5967630992
O  O16  1  0.15984000  0.48054000  0.45890000  1.0 -0.5967630992
O  O17  1  0.37186000  0.52406000  0.95380000  1.0 -0.6698604475
O  O18  1  0.47594000  0.42974000  0.84780000  1.0 -0.6698604475
O  O19  1  0.57026000  0.41806000  0.04620000  1.0 -0.6698604475
O  O20  1  0.58194000  0.62814000  0.15220000  1.0 -0.6698604475
O  O21  1  0.17974000  0.72594000  0.34780000  1.0 -0.6698604475
O  O22  1  0.16806000  0.82026000  0.54620000  1.0 -0.6698604475
O  O23  1  0.37814000  0.83194000  0.65220000  1.0 -0.6698604475
O  O24  1  0.27406000  0.62186000  0.45380000  1.0 -0.6698604475
O  O25  1  0.24098000  0.33188000  0.69770000  1.0 -0.6201803634
O  O26  1  0.66812000  0.36582000  0.90910000  1.0 -0.6201803634
O  O27  1  0.63418000  0.54328000  0.30230000  1.0 -0.6201803634
O  O28  1  0.45672000  0.75902000  0.09090000  1.0 -0.6201803634
O  O29  1  0.11582000  0.91812000  0.40910000  1.0 -0.6201803634
O  O30  1  0.29328000  0.88418000  0.80230000  1.0 -0.6201803634
O  O31  1  0.50902000  0.70672000  0.59090000  1.0 -0.6201803634
O  O32  1  0.08188000  0.49098000  0.19770000  1.0 -0.6201803634
O  O33  1  0.08569000  0.39939000  0.65930000  1.0 -0.5551169167
O  O34  1  0.60061000  0.25991000  0.68630000  1.0 -0.5551169167
O  O35  1  0.74009000  0.42639000  0.34070000  1.0 -0.5551169167
O  O36  1  0.57361000  0.91431000  0.31370000  1.0 -0.5551169167
O  O37  1  0.00991000  0.85061000  0.18630000  1.0 -0.5551169167
O  O38  1  0.17639000  0.99009000  0.84070000  1.0 -0.5551169167
O  O39  1  0.66431000  0.82361000  0.81370000  1.0 -0.5551169167
O  O40  1  0.14939000  0.33569000  0.15930000  1.0 -0.5551169167
O  O41  1  0.27999000  0.57759000  0.77400000  1.0 -0.5828892763
O  O42  1  0.42241000  0.19641000  0.70240000  1.0 -0.5828892763
O  O43  1  0.80359000  0.50599000  0.22600000  1.0 -0.5828892763
O  O44  1  0.49401000  0.72001000  0.29760000  1.0 -0.5828892763
O  O45  1  0.94641000  0.67241000  0.20240000  1.0 -0.5828892763
O  O46  1  0.25599000  0.05359000  0.72600000  1.0 -0.5828892763
O  O47  1  0.47001000  0.74401000  0.79760000  1.0 -0.5828892763
O  O48  1  0.32759000  0.52999000  0.27400000  1.0 -0.5828892763
O  O49  1  0.10093000  0.58813000  0.66120000  1.0 -0.5689816723
O  O50  1  0.41187000  0.07307000  0.51280000  1.0 -0.5689816723
O  O51  1  0.92693000  0.43973000  0.33880000  1.0 -0.5689816723
O  O52  1  0.56027000  0.89907000  0.48720000  1.0 -0.5689816723
O  O53  1  0.82307000  0.66187000  0.01280000  1.0 -0.5689816723
O  O54  1  0.18973000  0.17693000  0.83880000  1.0 -0.5689816723
O  O55  1  0.64907000  0.81027000  0.98720000  1.0 -0.5689816723
O  O56  1  0.33813000  0.35093000  0.16120000  1.0 -0.5689816723
O  O57  1  0.13990000  0.03520000  0.32890000  1.0 0.2788536623
O  O58  1  0.96480000  0.29370000  0.10470000  1.0 0.2788536623
O  O59  1  0.70630000  0.81100000  0.67110000  1.0 0.2788536623
O  O60  1  0.18900000  0.86010000  0.89530000  1.0 0.2788536623
O  O61  1  0.04370000  0.21480000  0.60470000  1.0 0.2788536623
O  O62  1  0.56100000  0.95630000  0.17110000  1.0 0.2788536623
O  O63  1  0.61010000  0.43900000  0.39530000  1.0 0.2788536623
O  O64  1  0.78520000  0.38990000  0.82890000  1.0 0.2788536623
O  O65  1  0.09430000  0.06340000  0.32530000  1.0 0.2788536623
O  O66  1  0.93660000  0.26190000  0.03090000  1.0 0.2788536623
O  O67  1  0.73810000  0.76900000  0.67470000  1.0 0.2788536623
O  O68  1  0.23100000  0.90570000  0.96910000  1.0 0.2788536623
O  O69  1  0.01190000  0.18660000  0.53090000  1.0 0.2788536623
O  O70  1  0.51900000  0.98810000  0.17470000  1.0 0.2788536623
O  O71  1  0.65570000  0.48100000  0.46910000  1.0 0.2788536623
O  O72  1  0.81340000  0.34430000  0.82530000  1.0 0.2788536623
