# DDEC6 charges by PACMAN v1.1 (https://github.com/mtap-research/PACMAN-charge/)
data_RAZXIA02_FSR_pacman
_symmetry_space_group_name_H-M   'P 1'
_cell_length_a   17.67820000
_cell_length_b   17.67820000
_cell_length_c   17.67820000
_cell_angle_alpha   136.85300000
_cell_angle_beta   136.85300000
_cell_angle_gamma   62.66500000
_symmetry_Int_Tables_number   1
_chemical_formula_structural   KCo3H8(C3O4)4
_chemical_formula_sum   'K4 Co12 H32 C48 O64'
_cell_volume   2552.05251486
_cell_formula_units_Z   4
loop_
 _symmetry_equiv_pos_site_id
 _symmetry_equiv_pos_as_xyz
  1  'x, y, z'
loop_
 _atom_site_type_symbol
 _atom_site_label
 _atom_site_symmetry_multiplicity
 _atom_site_fract_x
 _atom_site_fract_y
 _atom_site_fract_z
 _atom_site_occupancy
 _atom_site_charge
K  K1  1  0.21190000  0.12500000  0.58690000  1.0 0.8685570393
K  K2  1  0.87500000  0.46190000  0.08690000  1.0 0.8685570393
K  K3  1  0.53810000  0.62500000  0.41310000  1.0 0.8685570393
K  K4  1  0.37500000  0.78810000  0.91310000  1.0 0.8685570393
Co  Co1  1  0.41095000  0.35504000  0.84671000  1.0 0.9563770402
Co  Co2  1  0.64496000  0.49167000  0.05591000  1.0 0.9563770402
Co  Co3  1  0.50833000  0.56424000  0.15329000  1.0 0.9563770402
Co  Co4  1  0.43576000  0.58905000  0.94409000  1.0 0.9563770402
Co  Co5  1  0.24167000  0.89496000  0.55591000  1.0 0.9563770402
Co  Co6  1  0.31424000  0.75833000  0.65329000  1.0 0.9563770402
Co  Co7  1  0.33905000  0.68576000  0.44409000  1.0 0.9563770402
Co  Co8  1  0.10504000  0.66095000  0.34671000  1.0 0.9563770402
Co  Co9  1  0.30781000  0.30781000  0.00000000  1.0 1.0219770555
Co  Co10  1  0.69219000  0.69219000  0.00000000  1.0 1.0219770555
Co  Co11  1  0.44219000  0.94219000  0.50000000  1.0 1.0219770555
Co  Co12  1  0.05781000  0.55781000  0.50000000  1.0 1.0219770555
H  H1  1  0.27530000  0.63630000  0.07320000  1.0 0.1681139056
H  H2  1  0.36370000  0.43690000  0.63900000  1.0 0.1681139056
H  H3  1  0.56310000  0.20210000  0.92680000  1.0 0.1681139056
H  H4  1  0.79790000  0.72470000  0.36100000  1.0 0.1681139056
H  H5  1  0.18690000  0.61370000  0.13900000  1.0 0.1681139056
H  H6  1  0.95210000  0.81310000  0.42680000  1.0 0.1681139056
H  H7  1  0.47470000  0.04790000  0.86100000  1.0 0.1681139056
H  H8  1  0.38630000  0.52530000  0.57320000  1.0 0.1681139056
H  H9  1  0.16170000  0.54970000  0.92820000  1.0 0.1635186503
H  H10  1  0.45030000  0.37850000  0.61200000  1.0 0.1635186503
H  H11  1  0.62150000  0.23350000  0.07180000  1.0 0.1635186503
H  H12  1  0.76650000  0.83830000  0.38800000  1.0 0.1635186503
H  H13  1  0.12850000  0.70030000  0.11200000  1.0 0.1635186503
H  H14  1  0.98350000  0.87150000  0.57180000  1.0 0.1635186503
H  H15  1  0.58830000  0.01650000  0.88800000  1.0 0.1635186503
H  H16  1  0.29970000  0.41170000  0.42820000  1.0 0.1635186503
H  H17  1  0.26250000  0.68450000  0.96720000  1.0 0.1635186503
H  H18  1  0.31550000  0.28270000  0.57800000  1.0 0.1635186503
H  H19  1  0.71730000  0.29530000  0.03280000  1.0 0.1635186503
H  H20  1  0.70470000  0.73750000  0.42200000  1.0 0.1635186503
H  H21  1  0.03270000  0.56550000  0.07800000  1.0 0.1635186503
H  H22  1  0.04530000  0.96730000  0.53280000  1.0 0.1635186503
H  H23  1  0.48750000  0.95470000  0.92200000  1.0 0.1635186503
H  H24  1  0.43450000  0.51250000  0.46720000  1.0 0.1635186503
H  H25  1  0.13960000  0.62830000  0.85070000  1.0 0.1681139056
H  H26  1  0.37170000  0.22240000  0.51130000  1.0 0.1681139056
H  H27  1  0.77760000  0.28890000  0.14930000  1.0 0.1681139056
H  H28  1  0.71110000  0.86040000  0.48870000  1.0 0.1635186503
H  H29  1  0.97240000  0.62170000  0.01130000  1.0 0.1681139056
H  H30  1  0.03890000  0.02760000  0.64930000  1.0 0.1681139056
H  H31  1  0.61040000  0.96110000  0.98870000  1.0 0.1635186503
H  H32  1  0.37830000  0.38960000  0.35070000  1.0 0.1635186503
C  C1  1  0.29420000  0.48480000  0.02240000  1.0 0.6841565852
C  C2  1  0.51520000  0.53760000  0.80940000  1.0 0.6841565852
C  C3  1  0.46240000  0.27180000  0.97760000  1.0 0.6841565852
C  C4  1  0.72820000  0.70580000  0.19060000  1.0 0.6841565852
C  C5  1  0.28760000  0.76520000  0.30940000  1.0 0.6841565852
C  C6  1  0.02180000  0.71240000  0.47760000  1.0 0.6841565852
C  C7  1  0.45580000  0.97820000  0.69060000  1.0 0.6841565852
C  C8  1  0.23480000  0.54420000  0.52240000  1.0 0.6841565852
C  C9  1  0.24100000  0.55840000  0.98300000  1.0 -0.4144940007
C  C10  1  0.44160000  0.42460000  0.68260000  1.0 -0.4144940007
C  C11  1  0.57540000  0.25800000  0.01700000  1.0 -0.4144940007
C  C12  1  0.74200000  0.75900000  0.31740000  1.0 -0.4144940007
C  C13  1  0.17460000  0.69160000  0.18260000  1.0 -0.4144940007
C  C14  1  0.00800000  0.82540000  0.51700000  1.0 -0.4144940007
C  C15  1  0.50900000  0.99200000  0.81740000  1.0 -0.4144940007
C  C16  1  0.30840000  0.49100000  0.48300000  1.0 -0.4144940007
C  C17  1  0.25730000  0.52540000  0.88610000  1.0 0.283991031
C  C18  1  0.47460000  0.36070000  0.73190000  1.0 0.283991031
C  C19  1  0.63930000  0.37120000  0.11390000  1.0 0.283991031
C  C20  1  0.62880000  0.74270000  0.26810000  1.0 0.283991031
C  C21  1  0.11070000  0.72460000  0.23190000  1.0 0.283991031
C  C22  1  0.12120000  0.88930000  0.61390000  1.0 0.283991031
C  C23  1  0.49270000  0.87880000  0.76810000  1.0 0.283991031
C  C24  1  0.27540000  0.50730000  0.38610000  1.0 0.283991031
C  C25  1  0.21020000  0.61670000  0.87350000  1.0 -0.41804022
C  C26  1  0.38330000  0.25680000  0.59350000  1.0 -0.41804022
C  C27  1  0.74320000  0.33670000  0.12650000  1.0 -0.41804022
C  C28  1  0.66330000  0.78980000  0.40650000  1.0 -0.41804022
C  C29  1  0.00680000  0.63330000  0.09350000  1.0 -0.41804022
C  C30  1  0.08670000  0.99320000  0.62650000  1.0 -0.41804022
C  C31  1  0.53980000  0.91330000  0.90650000  1.0 -0.41804022
C  C32  1  0.36670000  0.46020000  0.37350000  1.0 -0.41804022
C  C33  1  0.19760000  0.59360000  0.76420000  1.0 0.6708905582
C  C34  1  0.40640000  0.17060000  0.60400000  1.0 0.6708905582
C  C35  1  0.82940000  0.43340000  0.23580000  1.0 0.6708905582
C  C36  1  0.56660000  0.80240000  0.39600000  1.0 0.6708905582
C  C37  1  0.92060000  0.65640000  0.10400000  1.0 0.6708905582
C  C38  1  0.18340000  0.07940000  0.73580000  1.0 0.6708905582
C  C39  1  0.55240000  0.81660000  0.89600000  1.0 0.6708905582
C  C40  1  0.34360000  0.44760000  0.26420000  1.0 0.6708905582
C  C41  1  0.18710000  0.40990000  0.73420000  1.0 0.5116951351
C  C42  1  0.59010000  0.32430000  0.77720000  1.0 0.5116951351
C  C43  1  0.67570000  0.45290000  0.26580000  1.0 0.5116951351
C  C44  1  0.54710000  0.81290000  0.22280000  1.0 0.5116951351
C  C45  1  0.07430000  0.84010000  0.27720000  1.0 0.5116951351
C  C46  1  0.20290000  0.92570000  0.76580000  1.0 0.5116951351
C  C47  1  0.56290000  0.79710000  0.72280000  1.0 0.5116951351
C  C48  1  0.15990000  0.43710000  0.23420000  1.0 0.5116951351
O  O1  1  0.40001000  0.50031000  0.11890000  1.0 -0.6204047318
O  O2  1  0.49969000  0.61859000  0.89970000  1.0 -0.6204047318
O  O3  1  0.38141000  0.28111000  0.88110000  1.0 -0.6204047318
O  O4  1  0.71889000  0.59999000  0.10030000  1.0 -0.6204047318
O  O5  1  0.36859000  0.74969000  0.39970000  1.0 -0.6204047318
O  O6  1  0.03111000  0.63141000  0.38110000  1.0 -0.6204047318
O  O7  1  0.34999000  0.96889000  0.60030000  1.0 -0.6204047318
O  O8  1  0.25031000  0.65001000  0.61890000  1.0 -0.6204047318
O  O9  1  0.23022000  0.41062000  0.95900000  1.0 -0.5451005812
O  O10  1  0.58938000  0.54838000  0.81960000  1.0 -0.5451005812
O  O11  1  0.45162000  0.27122000  0.04100000  1.0 -0.5442896004
O  O12  1  0.72878000  0.76978000  0.18040000  1.0 -0.5451005812
O  O13  1  0.29838000  0.83938000  0.31960000  1.0 -0.5451005812
O  O14  1  0.02122000  0.70162000  0.54100000  1.0 -0.5451005812
O  O15  1  0.51978000  0.97878000  0.68040000  1.0 -0.5451005812
O  O16  1  0.16062000  0.48022000  0.45900000  1.0 -0.5451005812
O  O17  1  0.37238000  0.52558000  0.95540000  1.0 -0.6402012597
O  O18  1  0.47442000  0.42982000  0.84680000  1.0 -0.6402012597
O  O19  1  0.57018000  0.41698000  0.04460000  1.0 -0.6402012597
O  O20  1  0.58302000  0.62762000  0.15320000  1.0 -0.6402012597
O  O21  1  0.17982000  0.72442000  0.34680000  1.0 -0.6402012597
O  O22  1  0.16698000  0.82018000  0.54460000  1.0 -0.6402012597
O  O23  1  0.37762000  0.83302000  0.65320000  1.0 -0.6402012597
O  O24  1  0.27558000  0.62238000  0.45540000  1.0 -0.6402012597
O  O25  1  0.23878000  0.33288000  0.69630000  1.0 -0.5751595612
O  O26  1  0.66712000  0.36342000  0.90590000  1.0 -0.5741921033
O  O27  1  0.63658000  0.54248000  0.30370000  1.0 -0.5751595612
O  O28  1  0.45752000  0.76122000  0.09410000  1.0 -0.5751595612
O  O29  1  0.11342000  0.91712000  0.40590000  1.0 -0.5741921033
O  O30  1  0.29248000  0.88658000  0.80370000  1.0 -0.5751595612
O  O31  1  0.51122000  0.70752000  0.59410000  1.0 -0.5741921033
O  O32  1  0.08288000  0.48878000  0.19630000  1.0 -0.5741921033
O  O33  1  0.08580000  0.40510000  0.66210000  1.0 -0.4019694257
O  O34  1  0.59490000  0.25700000  0.68070000  1.0 -0.4019694257
O  O35  1  0.74300000  0.42370000  0.33790000  1.0 -0.4019694257
O  O36  1  0.57630000  0.91420000  0.31930000  1.0 -0.4019694257
O  O37  1  0.00700000  0.84490000  0.18070000  1.0 -0.4019694257
O  O38  1  0.17370000  0.99300000  0.83790000  1.0 -0.4019694257
O  O39  1  0.66420000  0.82630000  0.81930000  1.0 -0.4019694257
O  O40  1  0.15510000  0.33580000  0.16210000  1.0 -0.4019694257
O  O41  1  0.27873000  0.57923000  0.77410000  1.0 -0.5627403225
O  O42  1  0.42077000  0.19487000  0.69950000  1.0 -0.5627403225
O  O43  1  0.80513000  0.50463000  0.22590000  1.0 -0.5627403225
O  O44  1  0.49537000  0.72127000  0.30050000  1.0 -0.5627403225
O  O45  1  0.94487000  0.67077000  0.19950000  1.0 -0.5627403225
O  O46  1  0.25463000  0.05513000  0.72590000  1.0 -0.5627403225
O  O47  1  0.47127000  0.74537000  0.80050000  1.0 -0.5627403225
O  O48  1  0.32923000  0.52873000  0.27410000  1.0 -0.5627403225
O  O49  1  0.09910000  0.58960000  0.66010000  1.0 -0.5333949443
O  O50  1  0.41040000  0.07050000  0.50950000  1.0 -0.5333949443
O  O51  1  0.92950000  0.43900000  0.33990000  1.0 -0.5333949443
O  O52  1  0.56100000  0.90090000  0.49050000  1.0 -0.5333949443
O  O53  1  0.82050000  0.66040000  0.00950000  1.0 -0.5333949443
O  O54  1  0.18900000  0.17950000  0.83990000  1.0 -0.5333949443
O  O55  1  0.65090000  0.81100000  0.99050000  1.0 -0.5333949443
O  O56  1  0.33960000  0.34910000  0.16010000  1.0 -0.5333949443
O  O57  1  0.10780000  0.04050000  0.31330000  1.0 -0.0064969105
O  O58  1  0.95950000  0.27280000  0.06730000  1.0 0.0042252378
O  O59  1  0.72720000  0.79450000  0.68670000  1.0 -0.0032287867
O  O60  1  0.20550000  0.89220000  0.93270000  1.0 -0.0064969105
O  O61  1  0.02280000  0.20950000  0.56730000  1.0 -0.0064969105
O  O62  1  0.54450000  0.97720000  0.18670000  1.0 0.0042252378
O  O63  1  0.64220000  0.45550000  0.43270000  1.0 -0.0032287867
O  O64  1  0.79050000  0.35780000  0.81330000  1.0 -0.0064969105
