# DDEC6 charges by PACMAN v1.1 (https://github.com/mtap-research/PACMAN-charge/)
data_RAZXIA04_ASR_pacman
_symmetry_space_group_name_H-M   'P 1'
_cell_length_a   12.61110000
_cell_length_b   12.61110000
_cell_length_c   30.29990000
_cell_angle_alpha   90.00000000
_cell_angle_beta   90.00000000
_cell_angle_gamma   90.00000000
_symmetry_Int_Tables_number   1
_chemical_formula_structural   KCo3H8(C6O7)2
_chemical_formula_sum   'K8 Co24 H64 C96 O112'
_cell_volume   4818.89134528
_cell_formula_units_Z   8
loop_
 _symmetry_equiv_pos_site_id
 _symmetry_equiv_pos_as_xyz
  1  'x, y, z'
loop_
 _atom_site_type_symbol
 _atom_site_label
 _atom_site_symmetry_multiplicity
 _atom_site_fract_x
 _atom_site_fract_y
 _atom_site_fract_z
 _atom_site_occupancy
 _atom_site_charge
K  K1  1  0.75000000  0.82106000  0.37500000  1.0 0.9198552793
K  K2  1  0.25000000  0.17894000  0.37500000  1.0 0.9198552793
K  K3  1  0.82106000  0.25000000  0.62500000  1.0 0.9198552793
K  K4  1  0.17894000  0.75000000  0.62500000  1.0 0.9198552793
K  K5  1  0.67894000  0.25000000  0.12500000  1.0 0.9198552793
K  K6  1  0.32106000  0.75000000  0.12500000  1.0 0.9198552793
K  K7  1  0.25000000  0.32106000  0.87500000  1.0 0.9198552793
K  K8  1  0.75000000  0.67894000  0.87500000  1.0 0.9198552793
Co  Co1  1  0.89847000  0.94892000  0.45899000  1.0 0.9413745379
Co  Co2  1  0.10153000  0.05108000  0.45899000  1.0 0.9413745379
Co  Co3  1  0.94892000  0.10153000  0.54101000  1.0 0.9413745379
Co  Co4  1  0.05108000  0.89847000  0.54101000  1.0 0.9413745379
Co  Co5  1  0.60153000  0.94892000  0.29101000  1.0 0.9413745379
Co  Co6  1  0.39847000  0.05108000  0.29101000  1.0 0.9413745379
Co  Co7  1  0.55108000  0.10153000  0.20899000  1.0 0.9413745379
Co  Co8  1  0.44892000  0.89847000  0.20899000  1.0 0.9413745379
Co  Co9  1  0.39847000  0.44892000  0.95899000  1.0 0.9413745379
Co  Co10  1  0.60153000  0.55108000  0.95899000  1.0 0.9413745379
Co  Co11  1  0.44892000  0.60153000  0.04101000  1.0 0.9413745379
Co  Co12  1  0.55108000  0.39847000  0.04101000  1.0 0.9413745379
Co  Co13  1  0.10153000  0.44892000  0.79101000  1.0 0.9413745379
Co  Co14  1  0.89847000  0.55108000  0.79101000  1.0 0.9413745379
Co  Co15  1  0.05108000  0.60153000  0.70899000  1.0 0.9413745379
Co  Co16  1  0.94892000  0.39847000  0.70899000  1.0 0.9413745379
Co  Co17  1  0.00000000  0.00000000  0.30800000  1.0 1.0082424184
Co  Co18  1  0.00000000  0.00000000  0.69200000  1.0 1.0082424184
Co  Co19  1  0.50000000  0.00000000  0.44200000  1.0 1.0082424184
Co  Co20  1  0.50000000  0.00000000  0.05800000  1.0 1.0082424184
Co  Co21  1  0.50000000  0.50000000  0.80800000  1.0 1.0082424184
Co  Co22  1  0.50000000  0.50000000  0.19200000  1.0 1.0082424184
Co  Co23  1  0.00000000  0.50000000  0.94200000  1.0 1.0082424184
Co  Co24  1  0.00000000  0.50000000  0.55800000  1.0 1.0082424184
H  H1  1  0.23163000  0.86191000  0.42266000  1.0 0.1591224124
H  H2  1  0.76837000  0.13809000  0.42266000  1.0 0.1591224124
H  H3  1  0.86191000  0.76837000  0.57734000  1.0 0.1591224124
H  H4  1  0.13809000  0.23163000  0.57734000  1.0 0.1591224124
H  H5  1  0.26837000  0.86191000  0.32734000  1.0 0.1591224124
H  H6  1  0.73163000  0.13809000  0.32734000  1.0 0.1591224124
H  H7  1  0.63809000  0.76837000  0.17266000  1.0 0.1591224124
H  H8  1  0.36191000  0.23163000  0.17266000  1.0 0.1591224124
H  H9  1  0.73163000  0.36191000  0.92266000  1.0 0.1591224124
H  H10  1  0.26837000  0.63809000  0.92266000  1.0 0.1591224124
H  H11  1  0.36191000  0.26837000  0.07734000  1.0 0.1591224124
H  H12  1  0.63809000  0.73163000  0.07734000  1.0 0.1591224124
H  H13  1  0.76837000  0.36191000  0.82734000  1.0 0.1591224124
H  H14  1  0.23163000  0.63809000  0.82734000  1.0 0.1591224124
H  H15  1  0.13809000  0.26837000  0.67266000  1.0 0.1591224124
H  H16  1  0.86191000  0.73163000  0.67266000  1.0 0.1591224124
H  H17  1  0.16420000  0.76121000  0.39049000  1.0 0.1470905425
H  H18  1  0.83580000  0.23879000  0.39049000  1.0 0.1470905425
H  H19  1  0.76121000  0.83580000  0.60951000  1.0 0.1470905425
H  H20  1  0.23879000  0.16420000  0.60951000  1.0 0.1470905425
H  H21  1  0.33580000  0.76121000  0.35951000  1.0 0.1470905425
H  H22  1  0.66420000  0.23879000  0.35951000  1.0 0.1470905425
H  H23  1  0.73879000  0.83580000  0.14049000  1.0 0.1470905425
H  H24  1  0.26121000  0.16420000  0.14049000  1.0 0.1470905425
H  H25  1  0.66420000  0.26121000  0.89049000  1.0 0.1470905425
H  H26  1  0.33580000  0.73879000  0.89049000  1.0 0.1470905425
H  H27  1  0.26121000  0.33580000  0.10951000  1.0 0.1470905425
H  H28  1  0.73879000  0.66420000  0.10951000  1.0 0.1470905425
H  H29  1  0.83580000  0.26121000  0.85951000  1.0 0.1470905425
H  H30  1  0.16420000  0.73879000  0.85951000  1.0 0.1470905425
H  H31  1  0.23879000  0.33580000  0.64049000  1.0 0.1470905425
H  H32  1  0.76121000  0.66420000  0.64049000  1.0 0.1470905425
H  H33  1  0.21752000  0.77677000  0.49287000  1.0 0.1591224124
H  H34  1  0.78248000  0.22323000  0.49287000  1.0 0.1591224124
H  H35  1  0.77677000  0.78248000  0.50713000  1.0 0.1591224124
H  H36  1  0.22323000  0.21752000  0.50713000  1.0 0.1591224124
H  H37  1  0.28248000  0.77677000  0.25713000  1.0 0.1591224124
H  H38  1  0.71752000  0.22323000  0.25713000  1.0 0.1591224124
H  H39  1  0.72323000  0.78248000  0.24287000  1.0 0.1591224124
H  H40  1  0.27677000  0.21752000  0.24287000  1.0 0.1591224124
H  H41  1  0.71752000  0.27677000  0.99287000  1.0 0.1591224124
H  H42  1  0.28248000  0.72323000  0.99287000  1.0 0.1591224124
H  H43  1  0.27677000  0.28248000  0.00713000  1.0 0.1591224124
H  H44  1  0.72323000  0.71752000  0.00713000  1.0 0.1591224124
H  H45  1  0.78248000  0.27677000  0.75713000  1.0 0.1591224124
H  H46  1  0.21752000  0.72323000  0.75713000  1.0 0.1591224124
H  H47  1  0.22323000  0.28248000  0.74287000  1.0 0.1591224124
H  H48  1  0.77677000  0.71752000  0.74287000  1.0 0.1591224124
H  H49  1  0.18091000  0.66916000  0.45708000  1.0 0.1591224124
H  H50  1  0.81909000  0.33084000  0.45708000  1.0 0.1591224124
H  H51  1  0.66916000  0.81909000  0.54292000  1.0 0.1591224124
H  H52  1  0.33084000  0.18091000  0.54292000  1.0 0.1591224124
H  H53  1  0.31909000  0.66916000  0.29292000  1.0 0.1591224124
H  H54  1  0.68091000  0.33084000  0.29292000  1.0 0.1591224124
H  H55  1  0.83084000  0.81909000  0.20708000  1.0 0.1591224124
H  H56  1  0.16916000  0.18091000  0.20708000  1.0 0.1591224124
H  H57  1  0.68091000  0.16916000  0.95708000  1.0 0.1591224124
H  H58  1  0.31909000  0.83084000  0.95708000  1.0 0.1591224124
H  H59  1  0.16916000  0.31909000  0.04292000  1.0 0.1591224124
H  H60  1  0.83084000  0.68091000  0.04292000  1.0 0.1591224124
H  H61  1  0.81909000  0.16916000  0.79292000  1.0 0.1591224124
H  H62  1  0.18091000  0.83084000  0.79292000  1.0 0.1591224124
H  H63  1  0.33084000  0.31909000  0.70708000  1.0 0.1591224124
H  H64  1  0.66916000  0.68091000  0.70708000  1.0 0.1591224124
C  C1  1  0.10801000  0.92072000  0.38088000  1.0 0.6838882169
C  C2  1  0.89199000  0.07928000  0.38088000  1.0 0.6838882169
C  C3  1  0.92072000  0.89199000  0.61912000  1.0 0.6838882169
C  C4  1  0.07928000  0.10801000  0.61912000  1.0 0.6838882169
C  C5  1  0.39199000  0.92072000  0.36912000  1.0 0.6838882169
C  C6  1  0.60801000  0.07928000  0.36912000  1.0 0.6838882169
C  C7  1  0.57928000  0.89199000  0.13088000  1.0 0.6838882169
C  C8  1  0.42072000  0.10801000  0.13088000  1.0 0.6838882169
C  C9  1  0.60801000  0.42072000  0.88088000  1.0 0.6838882169
C  C10  1  0.39199000  0.57928000  0.88088000  1.0 0.6838882169
C  C11  1  0.42072000  0.39199000  0.11912000  1.0 0.6838882169
C  C12  1  0.57928000  0.60801000  0.11912000  1.0 0.6838882169
C  C13  1  0.89199000  0.42072000  0.86912000  1.0 0.6838882169
C  C14  1  0.10801000  0.57928000  0.86912000  1.0 0.6838882169
C  C15  1  0.07928000  0.39199000  0.63088000  1.0 0.6838882169
C  C16  1  0.92072000  0.60801000  0.63088000  1.0 0.6838882169
C  C17  1  0.15427000  0.83509000  0.40964000  1.0 -0.3906080789
C  C18  1  0.84573000  0.16491000  0.40964000  1.0 -0.3906080789
C  C19  1  0.83509000  0.84573000  0.59036000  1.0 -0.3906080789
C  C20  1  0.16491000  0.15427000  0.59036000  1.0 -0.3906080789
C  C21  1  0.34573000  0.83509000  0.34036000  1.0 -0.3906080789
C  C22  1  0.65427000  0.16491000  0.34036000  1.0 -0.3906080789
C  C23  1  0.66491000  0.84573000  0.15964000  1.0 -0.3906080789
C  C24  1  0.33509000  0.15427000  0.15964000  1.0 -0.3906080789
C  C25  1  0.65427000  0.33509000  0.90964000  1.0 -0.3906080789
C  C26  1  0.34573000  0.66491000  0.90964000  1.0 -0.3906080789
C  C27  1  0.33509000  0.34573000  0.09036000  1.0 -0.3906080789
C  C28  1  0.66491000  0.65427000  0.09036000  1.0 -0.3906080789
C  C29  1  0.84573000  0.33509000  0.84036000  1.0 -0.3906080789
C  C30  1  0.15427000  0.66491000  0.84036000  1.0 -0.3906080789
C  C31  1  0.16491000  0.34573000  0.65964000  1.0 -0.3906080789
C  C32  1  0.83509000  0.65427000  0.65964000  1.0 -0.3906080789
C  C33  1  0.08375000  0.80925000  0.44947000  1.0 0.2674327729
C  C34  1  0.91625000  0.19075000  0.44947000  1.0 0.2674327729
C  C35  1  0.80925000  0.91625000  0.55053000  1.0 0.2674327729
C  C36  1  0.19075000  0.08375000  0.55053000  1.0 0.2674327729
C  C37  1  0.41625000  0.80925000  0.30053000  1.0 0.2674327729
C  C38  1  0.58375000  0.19075000  0.30053000  1.0 0.2674327729
C  C39  1  0.69075000  0.91625000  0.19947000  1.0 0.2674327729
C  C40  1  0.30925000  0.08375000  0.19947000  1.0 0.2674327729
C  C41  1  0.58375000  0.30925000  0.94947000  1.0 0.2674327729
C  C42  1  0.41625000  0.69075000  0.94947000  1.0 0.2674327729
C  C43  1  0.30925000  0.41625000  0.05053000  1.0 0.2674327729
C  C44  1  0.69075000  0.58375000  0.05053000  1.0 0.2674327729
C  C45  1  0.91625000  0.30925000  0.80053000  1.0 0.2674327729
C  C46  1  0.08375000  0.69075000  0.80053000  1.0 0.2674327729
C  C47  1  0.19075000  0.41625000  0.69947000  1.0 0.2674327729
C  C48  1  0.80925000  0.58375000  0.69947000  1.0 0.2674327729
C  C49  1  0.14973000  0.73324000  0.47820000  1.0 -0.3906080789
C  C50  1  0.85027000  0.26676000  0.47820000  1.0 -0.3847619096
C  C51  1  0.73324000  0.85027000  0.52180000  1.0 -0.3847619096
C  C52  1  0.26676000  0.14973000  0.52180000  1.0 -0.3906080789
C  C53  1  0.35027000  0.73324000  0.27180000  1.0 -0.3906080789
C  C54  1  0.64973000  0.26676000  0.27180000  1.0 -0.3906080789
C  C55  1  0.76676000  0.85027000  0.22820000  1.0 -0.3847619096
C  C56  1  0.23324000  0.14973000  0.22820000  1.0 -0.3906080789
C  C57  1  0.64973000  0.23324000  0.97820000  1.0 -0.3906080789
C  C58  1  0.35027000  0.76676000  0.97820000  1.0 -0.3906080789
C  C59  1  0.23324000  0.35027000  0.02180000  1.0 -0.3847619096
C  C60  1  0.76676000  0.64973000  0.02180000  1.0 -0.3847619096
C  C61  1  0.85027000  0.23324000  0.77180000  1.0 -0.3906080789
C  C62  1  0.14973000  0.76676000  0.77180000  1.0 -0.3906080789
C  C63  1  0.26676000  0.35027000  0.72820000  1.0 -0.3906080789
C  C64  1  0.73324000  0.64973000  0.72820000  1.0 -0.3906080789
C  C65  1  0.08739000  0.68302000  0.51509000  1.0 0.6661965636
C  C66  1  0.91261000  0.31698000  0.51509000  1.0 0.6661965636
C  C67  1  0.68302000  0.91261000  0.48491000  1.0 0.6661965636
C  C68  1  0.31698000  0.08739000  0.48491000  1.0 0.6661965636
C  C69  1  0.41261000  0.68302000  0.23491000  1.0 0.6661965636
C  C70  1  0.58739000  0.31698000  0.23491000  1.0 0.6661965636
C  C71  1  0.81698000  0.91261000  0.26509000  1.0 0.6661965636
C  C72  1  0.18302000  0.08739000  0.26509000  1.0 0.6661965636
C  C73  1  0.58739000  0.18302000  0.01509000  1.0 0.6661965636
C  C74  1  0.41261000  0.81698000  0.01509000  1.0 0.6661965636
C  C75  1  0.18302000  0.41261000  0.98491000  1.0 0.6661965636
C  C76  1  0.81698000  0.58739000  0.98491000  1.0 0.6661965636
C  C77  1  0.91261000  0.18302000  0.73491000  1.0 0.6661965636
C  C78  1  0.08739000  0.81698000  0.73491000  1.0 0.6661965636
C  C79  1  0.31698000  0.41261000  0.76509000  1.0 0.6661965636
C  C80  1  0.68302000  0.58739000  0.76509000  1.0 0.6661965636
C  C81  1  0.97993000  0.75324000  0.43356000  1.0 0.5061253434
C  C82  1  0.02007000  0.24676000  0.43356000  1.0 0.5061253434
C  C83  1  0.75324000  0.02007000  0.56644000  1.0 0.5061253434
C  C84  1  0.24676000  0.97993000  0.56644000  1.0 0.5061253434
C  C85  1  0.52007000  0.75324000  0.31644000  1.0 0.5061253434
C  C86  1  0.47993000  0.24676000  0.31644000  1.0 0.5061253434
C  C87  1  0.74676000  0.02007000  0.18356000  1.0 0.5061253434
C  C88  1  0.25324000  0.97993000  0.18356000  1.0 0.5061253434
C  C89  1  0.47993000  0.25324000  0.93356000  1.0 0.5061253434
C  C90  1  0.52007000  0.74676000  0.93356000  1.0 0.5061253434
C  C91  1  0.25324000  0.52007000  0.06644000  1.0 0.5061253434
C  C92  1  0.74676000  0.47993000  0.06644000  1.0 0.5061253434
C  C93  1  0.02007000  0.25324000  0.81644000  1.0 0.5061253434
C  C94  1  0.97993000  0.74676000  0.81644000  1.0 0.5061253434
C  C95  1  0.24676000  0.52007000  0.68356000  1.0 0.5061253434
C  C96  1  0.75324000  0.47993000  0.68356000  1.0 0.5061253434
O  O1  1  0.10634000  0.01788000  0.39492000  1.0 -0.6116181413
O  O2  1  0.89366000  0.98212000  0.39492000  1.0 -0.6116181413
O  O3  1  0.01788000  0.89366000  0.60508000  1.0 -0.6116181413
O  O4  1  0.98212000  0.10634000  0.60508000  1.0 -0.6116181413
O  O5  1  0.39366000  0.01788000  0.35508000  1.0 -0.6116181413
O  O6  1  0.60634000  0.98212000  0.35508000  1.0 -0.6116181413
O  O7  1  0.48212000  0.89366000  0.14492000  1.0 -0.6116181413
O  O8  1  0.51788000  0.10634000  0.14492000  1.0 -0.6116181413
O  O9  1  0.60634000  0.51788000  0.89492000  1.0 -0.6116181413
O  O10  1  0.39366000  0.48212000  0.89492000  1.0 -0.6116181413
O  O11  1  0.51788000  0.39366000  0.10508000  1.0 -0.6116181413
O  O12  1  0.48212000  0.60634000  0.10508000  1.0 -0.6116181413
O  O13  1  0.89366000  0.51788000  0.85508000  1.0 -0.6116181413
O  O14  1  0.10634000  0.48212000  0.85508000  1.0 -0.6116181413
O  O15  1  0.98212000  0.39366000  0.64492000  1.0 -0.6116181413
O  O16  1  0.01788000  0.60634000  0.64492000  1.0 -0.6116181413
O  O17  1  0.07198000  0.89392000  0.34321000  1.0 -0.5376008997
O  O18  1  0.92802000  0.10608000  0.34321000  1.0 -0.5376008997
O  O19  1  0.89392000  0.92802000  0.65679000  1.0 -0.5376008997
O  O20  1  0.10608000  0.07198000  0.65679000  1.0 -0.5376008997
O  O21  1  0.42802000  0.89392000  0.40679000  1.0 -0.5376008997
O  O22  1  0.57198000  0.10608000  0.40679000  1.0 -0.5376008997
O  O23  1  0.60608000  0.92802000  0.09321000  1.0 -0.5376008997
O  O24  1  0.39392000  0.07198000  0.09321000  1.0 -0.5376008997
O  O25  1  0.57198000  0.39392000  0.84321000  1.0 -0.5376008997
O  O26  1  0.42802000  0.60608000  0.84321000  1.0 -0.5376008997
O  O27  1  0.39392000  0.42802000  0.15679000  1.0 -0.5376008997
O  O28  1  0.60608000  0.57198000  0.15679000  1.0 -0.5376008997
O  O29  1  0.92802000  0.39392000  0.90679000  1.0 -0.5376008997
O  O30  1  0.07198000  0.60608000  0.90679000  1.0 -0.5376008997
O  O31  1  0.10608000  0.42802000  0.59321000  1.0 -0.5376008997
O  O32  1  0.89392000  0.57198000  0.59321000  1.0 -0.5376008997
O  O33  1  0.05506000  0.90669000  0.47303000  1.0 -0.5807868285
O  O34  1  0.94494000  0.09331000  0.47303000  1.0 -0.5807868285
O  O35  1  0.90669000  0.94494000  0.52697000  1.0 -0.5807868285
O  O36  1  0.09331000  0.05506000  0.52697000  1.0 -0.5807868285
O  O37  1  0.44494000  0.90669000  0.27697000  1.0 -0.5807868285
O  O38  1  0.55506000  0.09331000  0.27697000  1.0 -0.5807868285
O  O39  1  0.59331000  0.94494000  0.22303000  1.0 -0.5807868285
O  O40  1  0.40669000  0.05506000  0.22303000  1.0 -0.5807868285
O  O41  1  0.55506000  0.40669000  0.97303000  1.0 -0.5807868285
O  O42  1  0.44494000  0.59331000  0.97303000  1.0 -0.5807868285
O  O43  1  0.40669000  0.44494000  0.02697000  1.0 -0.5807868285
O  O44  1  0.59331000  0.55506000  0.02697000  1.0 -0.5807868285
O  O45  1  0.94494000  0.40669000  0.77697000  1.0 -0.5807868285
O  O46  1  0.05506000  0.59331000  0.77697000  1.0 -0.5807868285
O  O47  1  0.09331000  0.44494000  0.72303000  1.0 -0.5807868285
O  O48  1  0.90669000  0.55506000  0.72303000  1.0 -0.5807868285
O  O49  1  0.88996000  0.80487000  0.44207000  1.0 -0.5959690689
O  O50  1  0.11004000  0.19513000  0.44207000  1.0 -0.5959690689
O  O51  1  0.80487000  0.11004000  0.55793000  1.0 -0.594875733
O  O52  1  0.19513000  0.88996000  0.55793000  1.0 -0.5959690689
O  O53  1  0.61004000  0.80487000  0.30793000  1.0 -0.5959690689
O  O54  1  0.38996000  0.19513000  0.30793000  1.0 -0.5959690689
O  O55  1  0.69513000  0.11004000  0.19207000  1.0 -0.5959690689
O  O56  1  0.30487000  0.88996000  0.19207000  1.0 -0.5959690689
O  O57  1  0.38996000  0.30487000  0.94207000  1.0 -0.5959690689
O  O58  1  0.61004000  0.69513000  0.94207000  1.0 -0.5959690689
O  O59  1  0.30487000  0.61004000  0.05793000  1.0 -0.5959690689
O  O60  1  0.69513000  0.38996000  0.05793000  1.0 -0.5959690689
O  O61  1  0.11004000  0.30487000  0.80793000  1.0 -0.5959690689
O  O62  1  0.88996000  0.69513000  0.80793000  1.0 -0.5959690689
O  O63  1  0.19513000  0.61004000  0.69207000  1.0 -0.5959690689
O  O64  1  0.80487000  0.38996000  0.69207000  1.0 -0.5959690689
O  O65  1  0.98331000  0.66733000  0.41441000  1.0 -0.434288997
O  O66  1  0.01669000  0.33267000  0.41441000  1.0 -0.434288997
O  O67  1  0.66733000  0.01669000  0.58559000  1.0 -0.434288997
O  O68  1  0.33267000  0.98331000  0.58559000  1.0 -0.434288997
O  O69  1  0.51669000  0.66733000  0.33559000  1.0 -0.434288997
O  O70  1  0.48331000  0.33267000  0.33559000  1.0 -0.434288997
O  O71  1  0.83267000  0.01669000  0.16441000  1.0 -0.434288997
O  O72  1  0.16733000  0.98331000  0.16441000  1.0 -0.434288997
O  O73  1  0.48331000  0.16733000  0.91441000  1.0 -0.434288997
O  O74  1  0.51669000  0.83267000  0.91441000  1.0 -0.4351105491
O  O75  1  0.16733000  0.51669000  0.08559000  1.0 -0.434288997
O  O76  1  0.83267000  0.48331000  0.08559000  1.0 -0.434288997
O  O77  1  0.01669000  0.16733000  0.83559000  1.0 -0.434288997
O  O78  1  0.98331000  0.83267000  0.83559000  1.0 -0.4351105491
O  O79  1  0.33267000  0.51669000  0.66441000  1.0 -0.434288997
O  O80  1  0.66733000  0.48331000  0.66441000  1.0 -0.434288997
O  O81  1  0.03703000  0.74445000  0.54307000  1.0 -0.5807868285
O  O82  1  0.96297000  0.25555000  0.54307000  1.0 -0.5807868285
O  O83  1  0.74445000  0.96297000  0.45693000  1.0 -0.5807868285
O  O84  1  0.25555000  0.03703000  0.45693000  1.0 -0.5807868285
O  O85  1  0.46297000  0.74445000  0.20693000  1.0 -0.5807868285
O  O86  1  0.53703000  0.25555000  0.20693000  1.0 -0.5807868285
O  O87  1  0.75555000  0.96297000  0.29307000  1.0 -0.5807868285
O  O88  1  0.24445000  0.03703000  0.29307000  1.0 -0.5807868285
O  O89  1  0.53703000  0.24445000  0.04307000  1.0 -0.5807868285
O  O90  1  0.46297000  0.75555000  0.04307000  1.0 -0.5807868285
O  O91  1  0.24445000  0.46297000  0.95693000  1.0 -0.5807868285
O  O92  1  0.75555000  0.53703000  0.95693000  1.0 -0.5807868285
O  O93  1  0.96297000  0.24445000  0.70693000  1.0 -0.5807868285
O  O94  1  0.03703000  0.75555000  0.70693000  1.0 -0.5807868285
O  O95  1  0.25555000  0.46297000  0.79307000  1.0 -0.5807868285
O  O96  1  0.74445000  0.53703000  0.79307000  1.0 -0.5807868285
O  O97  1  0.08745000  0.58246000  0.51787000  1.0 -0.5330497088
O  O98  1  0.91255000  0.41754000  0.51787000  1.0 -0.5330497088
O  O99  1  0.58246000  0.91255000  0.48213000  1.0 -0.5330497088
O  O100  1  0.41754000  0.08745000  0.48213000  1.0 -0.5330497088
O  O101  1  0.41255000  0.58246000  0.23213000  1.0 -0.5330497088
O  O102  1  0.58745000  0.41754000  0.23213000  1.0 -0.5330497088
O  O103  1  0.91754000  0.91255000  0.26787000  1.0 -0.5330497088
O  O104  1  0.08246000  0.08745000  0.26787000  1.0 -0.5330497088
O  O105  1  0.58745000  0.08246000  0.01787000  1.0 -0.5330497088
O  O106  1  0.41255000  0.91754000  0.01787000  1.0 -0.5330497088
O  O107  1  0.08246000  0.41255000  0.98213000  1.0 -0.5330497088
O  O108  1  0.91754000  0.58745000  0.98213000  1.0 -0.5330497088
O  O109  1  0.91255000  0.08246000  0.73213000  1.0 -0.5330497088
O  O110  1  0.08745000  0.91754000  0.73213000  1.0 -0.5330497088
O  O111  1  0.41754000  0.41255000  0.76787000  1.0 -0.5330497088
O  O112  1  0.58246000  0.58745000  0.76787000  1.0 -0.5330497088
