# DDEC6 charges by PACMAN v1.1 (https://github.com/mtap-research/PACMAN-charge/)
data_RAZXIA03_ASR_pacman
_symmetry_space_group_name_H-M   'P 1'
_cell_length_a   12.82010000
_cell_length_b   12.82010000
_cell_length_c   30.26850000
_cell_angle_alpha   90.00000000
_cell_angle_beta   90.00000000
_cell_angle_gamma   90.00000000
_symmetry_Int_Tables_number   1
_chemical_formula_structural   KCo3H8(C6O7)2
_chemical_formula_sum   'K8 Co24 H64 C96 O112'
_cell_volume   4974.77822814
_cell_formula_units_Z   8
loop_
 _symmetry_equiv_pos_site_id
 _symmetry_equiv_pos_as_xyz
  1  'x, y, z'
loop_
 _atom_site_type_symbol
 _atom_site_label
 _atom_site_symmetry_multiplicity
 _atom_site_fract_x
 _atom_site_fract_y
 _atom_site_fract_z
 _atom_site_occupancy
 _atom_site_charge
K  K1  1  0.75000000  0.82937000  0.37500000  1.0 0.9199235611
K  K2  1  0.25000000  0.17063000  0.37500000  1.0 0.9199235611
K  K3  1  0.82937000  0.25000000  0.62500000  1.0 0.9199235611
K  K4  1  0.17063000  0.75000000  0.62500000  1.0 0.9199235611
K  K5  1  0.67063000  0.25000000  0.12500000  1.0 0.9199235611
K  K6  1  0.32937000  0.75000000  0.12500000  1.0 0.9199235611
K  K7  1  0.25000000  0.32937000  0.87500000  1.0 0.9199235611
K  K8  1  0.75000000  0.67063000  0.87500000  1.0 0.9199235611
Co  Co1  1  0.89927000  0.94859000  0.45802000  1.0 0.9807774224
Co  Co2  1  0.10073000  0.05141000  0.45802000  1.0 0.9807774224
Co  Co3  1  0.94859000  0.10073000  0.54198000  1.0 0.9807774224
Co  Co4  1  0.05141000  0.89927000  0.54198000  1.0 0.9807774224
Co  Co5  1  0.60073000  0.94859000  0.29198000  1.0 0.9807774224
Co  Co6  1  0.39927000  0.05141000  0.29198000  1.0 0.9807774224
Co  Co7  1  0.55141000  0.10073000  0.20802000  1.0 0.9807774224
Co  Co8  1  0.44859000  0.89927000  0.20802000  1.0 0.9807774224
Co  Co9  1  0.39927000  0.44859000  0.95802000  1.0 0.9807774224
Co  Co10  1  0.60073000  0.55141000  0.95802000  1.0 0.9807774224
Co  Co11  1  0.44859000  0.60073000  0.04198000  1.0 0.9807774224
Co  Co12  1  0.55141000  0.39927000  0.04198000  1.0 0.9807774224
Co  Co13  1  0.10073000  0.44859000  0.79198000  1.0 0.9807774224
Co  Co14  1  0.89927000  0.55141000  0.79198000  1.0 0.9807774224
Co  Co15  1  0.05141000  0.60073000  0.70802000  1.0 0.9807774224
Co  Co16  1  0.94859000  0.39927000  0.70802000  1.0 0.9807774224
Co  Co17  1  0.00000000  0.00000000  0.30678000  1.0 1.0257145189
Co  Co18  1  0.00000000  0.00000000  0.69322000  1.0 1.0257145189
Co  Co19  1  0.50000000  0.00000000  0.44322000  1.0 1.0257145189
Co  Co20  1  0.50000000  0.00000000  0.05678000  1.0 1.0257145189
Co  Co21  1  0.50000000  0.50000000  0.80678000  1.0 1.0257145189
Co  Co22  1  0.50000000  0.50000000  0.19322000  1.0 1.0257145189
Co  Co23  1  0.00000000  0.50000000  0.94322000  1.0 1.0257145189
Co  Co24  1  0.00000000  0.50000000  0.55678000  1.0 1.0257145189
H  H1  1  0.22705000  0.86256000  0.42208000  1.0 0.1611503758
H  H2  1  0.77295000  0.13744000  0.42208000  1.0 0.1611503758
H  H3  1  0.86256000  0.77295000  0.57792000  1.0 0.1611503758
H  H4  1  0.13744000  0.22705000  0.57792000  1.0 0.1611503758
H  H5  1  0.27295000  0.86256000  0.32792000  1.0 0.1611503758
H  H6  1  0.72705000  0.13744000  0.32792000  1.0 0.1611503758
H  H7  1  0.63744000  0.77295000  0.17208000  1.0 0.1611503758
H  H8  1  0.36256000  0.22705000  0.17208000  1.0 0.1611503758
H  H9  1  0.72705000  0.36256000  0.92208000  1.0 0.1611503758
H  H10  1  0.27295000  0.63744000  0.92208000  1.0 0.1611503758
H  H11  1  0.36256000  0.27295000  0.07792000  1.0 0.1611503758
H  H12  1  0.63744000  0.72705000  0.07792000  1.0 0.1611503758
H  H13  1  0.77295000  0.36256000  0.82792000  1.0 0.1611503758
H  H14  1  0.22705000  0.63744000  0.82792000  1.0 0.1611503758
H  H15  1  0.13744000  0.27295000  0.67208000  1.0 0.1611503758
H  H16  1  0.86256000  0.72705000  0.67208000  1.0 0.1611503758
H  H17  1  0.15847000  0.76113000  0.38956000  1.0 0.1516860299
H  H18  1  0.84153000  0.23887000  0.38956000  1.0 0.1516860299
H  H19  1  0.76113000  0.84153000  0.61044000  1.0 0.1516860299
H  H20  1  0.23887000  0.15847000  0.61044000  1.0 0.1516860299
H  H21  1  0.34153000  0.76113000  0.36044000  1.0 0.1516860299
H  H22  1  0.65847000  0.23887000  0.36044000  1.0 0.1516860299
H  H23  1  0.73887000  0.84153000  0.13956000  1.0 0.1516860299
H  H24  1  0.26113000  0.15847000  0.13956000  1.0 0.1516860299
H  H25  1  0.65847000  0.26113000  0.88956000  1.0 0.1516860299
H  H26  1  0.34153000  0.73887000  0.88956000  1.0 0.1516860299
H  H27  1  0.26113000  0.34153000  0.11044000  1.0 0.1516860299
H  H28  1  0.73887000  0.65847000  0.11044000  1.0 0.1516860299
H  H29  1  0.84153000  0.26113000  0.86044000  1.0 0.1516860299
H  H30  1  0.15847000  0.73887000  0.86044000  1.0 0.1516860299
H  H31  1  0.23887000  0.34153000  0.63956000  1.0 0.1516860299
H  H32  1  0.76113000  0.65847000  0.63956000  1.0 0.1516860299
H  H33  1  0.21194000  0.77716000  0.49269000  1.0 0.1611503758
H  H34  1  0.78806000  0.22284000  0.49269000  1.0 0.1611503758
H  H35  1  0.77716000  0.78806000  0.50731000  1.0 0.1611503758
H  H36  1  0.22284000  0.21194000  0.50731000  1.0 0.1611503758
H  H37  1  0.28806000  0.77716000  0.25731000  1.0 0.1611503758
H  H38  1  0.71194000  0.22284000  0.25731000  1.0 0.1611503758
H  H39  1  0.72284000  0.78806000  0.24269000  1.0 0.1611503758
H  H40  1  0.27716000  0.21194000  0.24269000  1.0 0.1611503758
H  H41  1  0.71194000  0.27716000  0.99269000  1.0 0.1611503758
H  H42  1  0.28806000  0.72284000  0.99269000  1.0 0.1611503758
H  H43  1  0.27716000  0.28806000  0.00731000  1.0 0.1611503758
H  H44  1  0.72284000  0.71194000  0.00731000  1.0 0.1611503758
H  H45  1  0.78806000  0.27716000  0.75731000  1.0 0.1611503758
H  H46  1  0.21194000  0.72284000  0.75731000  1.0 0.1611503758
H  H47  1  0.22284000  0.28806000  0.74269000  1.0 0.1611503758
H  H48  1  0.77716000  0.71194000  0.74269000  1.0 0.1611503758
H  H49  1  0.17471000  0.67063000  0.45525000  1.0 0.1516860299
H  H50  1  0.82529000  0.32937000  0.45525000  1.0 0.1516860299
H  H51  1  0.67063000  0.82529000  0.54475000  1.0 0.1516860299
H  H52  1  0.32937000  0.17471000  0.54475000  1.0 0.1516860299
H  H53  1  0.32529000  0.67063000  0.29475000  1.0 0.1516860299
H  H54  1  0.67471000  0.32937000  0.29475000  1.0 0.1516860299
H  H55  1  0.82937000  0.82529000  0.20525000  1.0 0.1516860299
H  H56  1  0.17063000  0.17471000  0.20525000  1.0 0.1516860299
H  H57  1  0.67471000  0.17063000  0.95525000  1.0 0.1516860299
H  H58  1  0.32529000  0.82937000  0.95525000  1.0 0.1516860299
H  H59  1  0.17063000  0.32529000  0.04475000  1.0 0.1516860299
H  H60  1  0.82937000  0.67471000  0.04475000  1.0 0.1516860299
H  H61  1  0.82529000  0.17063000  0.79475000  1.0 0.1516860299
H  H62  1  0.17471000  0.82937000  0.79475000  1.0 0.1516860299
H  H63  1  0.32937000  0.32529000  0.70525000  1.0 0.1516860299
H  H64  1  0.67063000  0.67471000  0.70525000  1.0 0.1516860299
C  C1  1  0.10829000  0.92005000  0.37995000  1.0 0.6974310897
C  C2  1  0.89171000  0.07995000  0.37995000  1.0 0.6974310897
C  C3  1  0.92005000  0.89171000  0.62005000  1.0 0.6974310897
C  C4  1  0.07995000  0.10829000  0.62005000  1.0 0.6974310897
C  C5  1  0.39171000  0.92005000  0.37005000  1.0 0.6974310897
C  C6  1  0.60829000  0.07995000  0.37005000  1.0 0.6974310897
C  C7  1  0.57995000  0.89171000  0.12995000  1.0 0.6974310897
C  C8  1  0.42005000  0.10829000  0.12995000  1.0 0.6974310897
C  C9  1  0.60829000  0.42005000  0.87995000  1.0 0.6974310897
C  C10  1  0.39171000  0.57995000  0.87995000  1.0 0.6974310897
C  C11  1  0.42005000  0.39171000  0.12005000  1.0 0.6974310897
C  C12  1  0.57995000  0.60829000  0.12005000  1.0 0.6974310897
C  C13  1  0.89171000  0.42005000  0.87005000  1.0 0.6974310897
C  C14  1  0.10829000  0.57995000  0.87005000  1.0 0.6974310897
C  C15  1  0.07995000  0.39171000  0.62995000  1.0 0.6974310897
C  C16  1  0.92005000  0.60829000  0.62995000  1.0 0.6974310897
C  C17  1  0.15122000  0.83481000  0.40871000  1.0 -0.3940702952
C  C18  1  0.84878000  0.16519000  0.40871000  1.0 -0.3940702952
C  C19  1  0.83481000  0.84878000  0.59129000  1.0 -0.3940702952
C  C20  1  0.16519000  0.15122000  0.59129000  1.0 -0.3940702952
C  C21  1  0.34878000  0.83481000  0.34129000  1.0 -0.3940702952
C  C22  1  0.65122000  0.16519000  0.34129000  1.0 -0.3940702952
C  C23  1  0.66519000  0.84878000  0.15871000  1.0 -0.3940702952
C  C24  1  0.33481000  0.15122000  0.15871000  1.0 -0.3940702952
C  C25  1  0.65122000  0.33481000  0.90871000  1.0 -0.3940702952
C  C26  1  0.34878000  0.66519000  0.90871000  1.0 -0.3940702952
C  C27  1  0.33481000  0.34878000  0.09129000  1.0 -0.3940702952
C  C28  1  0.66519000  0.65122000  0.09129000  1.0 -0.3940702952
C  C29  1  0.84878000  0.33481000  0.84129000  1.0 -0.3940702952
C  C30  1  0.15122000  0.66519000  0.84129000  1.0 -0.3940702952
C  C31  1  0.16519000  0.34878000  0.65871000  1.0 -0.3940702952
C  C32  1  0.83481000  0.65122000  0.65871000  1.0 -0.3940702952
C  C33  1  0.08074000  0.81078000  0.44869000  1.0 0.2759181544
C  C34  1  0.91926000  0.18922000  0.44869000  1.0 0.2759181544
C  C35  1  0.81078000  0.91926000  0.55131000  1.0 0.2759181544
C  C36  1  0.18922000  0.08074000  0.55131000  1.0 0.2759181544
C  C37  1  0.41926000  0.81078000  0.30131000  1.0 0.2759181544
C  C38  1  0.58074000  0.18922000  0.30131000  1.0 0.2759181544
C  C39  1  0.68922000  0.91926000  0.19869000  1.0 0.2759181544
C  C40  1  0.31078000  0.08074000  0.19869000  1.0 0.2759181544
C  C41  1  0.58074000  0.31078000  0.94869000  1.0 0.2759181544
C  C42  1  0.41926000  0.68922000  0.94869000  1.0 0.2759181544
C  C43  1  0.31078000  0.41926000  0.05131000  1.0 0.2759181544
C  C44  1  0.68922000  0.58074000  0.05131000  1.0 0.2759181544
C  C45  1  0.91926000  0.31078000  0.80131000  1.0 0.2759181544
C  C46  1  0.08074000  0.68922000  0.80131000  1.0 0.2759181544
C  C47  1  0.18922000  0.41926000  0.69869000  1.0 0.2759181544
C  C48  1  0.81078000  0.58074000  0.69869000  1.0 0.2759181544
C  C49  1  0.14578000  0.73345000  0.47739000  1.0 -0.3774578847
C  C50  1  0.85422000  0.26655000  0.47739000  1.0 -0.3774578847
C  C51  1  0.73345000  0.85422000  0.52261000  1.0 -0.3774578847
C  C52  1  0.26655000  0.14578000  0.52261000  1.0 -0.3774578847
C  C53  1  0.35422000  0.73345000  0.27261000  1.0 -0.3774578847
C  C54  1  0.64578000  0.26655000  0.27261000  1.0 -0.3774578847
C  C55  1  0.76655000  0.85422000  0.22739000  1.0 -0.3774578847
C  C56  1  0.23345000  0.14578000  0.22739000  1.0 -0.3774578847
C  C57  1  0.64578000  0.23345000  0.97739000  1.0 -0.3774578847
C  C58  1  0.35422000  0.76655000  0.97739000  1.0 -0.3774578847
C  C59  1  0.23345000  0.35422000  0.02261000  1.0 -0.3774578847
C  C60  1  0.76655000  0.64578000  0.02261000  1.0 -0.3774578847
C  C61  1  0.85422000  0.23345000  0.77261000  1.0 -0.3774578847
C  C62  1  0.14578000  0.76655000  0.77261000  1.0 -0.3774578847
C  C63  1  0.26655000  0.35422000  0.72739000  1.0 -0.3774578847
C  C64  1  0.73345000  0.64578000  0.72739000  1.0 -0.3774578847
C  C65  1  0.08357000  0.68580000  0.51460000  1.0 0.6736859702
C  C66  1  0.91643000  0.31420000  0.51460000  1.0 0.6736859702
C  C67  1  0.68580000  0.91643000  0.48540000  1.0 0.6736859702
C  C68  1  0.31420000  0.08357000  0.48540000  1.0 0.6736859702
C  C69  1  0.41643000  0.68580000  0.23540000  1.0 0.6736859702
C  C70  1  0.58357000  0.31420000  0.23540000  1.0 0.6736859702
C  C71  1  0.81420000  0.91643000  0.26460000  1.0 0.6736859702
C  C72  1  0.18580000  0.08357000  0.26460000  1.0 0.6736859702
C  C73  1  0.58357000  0.18580000  0.01460000  1.0 0.6736859702
C  C74  1  0.41643000  0.81420000  0.01460000  1.0 0.6736859702
C  C75  1  0.18580000  0.41643000  0.98540000  1.0 0.6736859702
C  C76  1  0.81420000  0.58357000  0.98540000  1.0 0.6736859702
C  C77  1  0.91643000  0.18580000  0.73540000  1.0 0.6736859702
C  C78  1  0.08357000  0.81420000  0.73540000  1.0 0.6736859702
C  C79  1  0.31420000  0.41643000  0.76460000  1.0 0.6736859702
C  C80  1  0.68580000  0.58357000  0.76460000  1.0 0.6736859702
C  C81  1  0.97810000  0.75717000  0.43334000  1.0 0.5134027288
C  C82  1  0.02190000  0.24283000  0.43334000  1.0 0.5134027288
C  C83  1  0.75717000  0.02190000  0.56666000  1.0 0.5134027288
C  C84  1  0.24283000  0.97810000  0.56666000  1.0 0.5134027288
C  C85  1  0.52190000  0.75717000  0.31666000  1.0 0.5134027288
C  C86  1  0.47810000  0.24283000  0.31666000  1.0 0.5134027288
C  C87  1  0.74283000  0.02190000  0.18334000  1.0 0.5134027288
C  C88  1  0.25717000  0.97810000  0.18334000  1.0 0.5134027288
C  C89  1  0.47810000  0.25717000  0.93334000  1.0 0.5134027288
C  C90  1  0.52190000  0.74283000  0.93334000  1.0 0.5134027288
C  C91  1  0.25717000  0.52190000  0.06666000  1.0 0.5134027288
C  C92  1  0.74283000  0.47810000  0.06666000  1.0 0.5134027288
C  C93  1  0.02190000  0.25717000  0.81666000  1.0 0.5134027288
C  C94  1  0.97810000  0.74283000  0.81666000  1.0 0.5134027288
C  C95  1  0.24283000  0.52190000  0.68334000  1.0 0.5134027288
C  C96  1  0.75717000  0.47810000  0.68334000  1.0 0.5134027288
O  O1  1  0.10467000  0.01832000  0.39378000  1.0 -0.642916394
O  O2  1  0.89533000  0.98168000  0.39378000  1.0 -0.642916394
O  O3  1  0.01832000  0.89533000  0.60622000  1.0 -0.642916394
O  O4  1  0.98168000  0.10467000  0.60622000  1.0 -0.642916394
O  O5  1  0.39533000  0.01832000  0.35622000  1.0 -0.642916394
O  O6  1  0.60467000  0.98168000  0.35622000  1.0 -0.642916394
O  O7  1  0.48168000  0.89533000  0.14378000  1.0 -0.642916394
O  O8  1  0.51832000  0.10467000  0.14378000  1.0 -0.642916394
O  O9  1  0.60467000  0.51832000  0.89378000  1.0 -0.642916394
O  O10  1  0.39533000  0.48168000  0.89378000  1.0 -0.642916394
O  O11  1  0.51832000  0.39533000  0.10622000  1.0 -0.642916394
O  O12  1  0.48168000  0.60467000  0.10622000  1.0 -0.642916394
O  O13  1  0.89533000  0.51832000  0.85622000  1.0 -0.642916394
O  O14  1  0.10467000  0.48168000  0.85622000  1.0 -0.642916394
O  O15  1  0.98168000  0.39533000  0.64378000  1.0 -0.642916394
O  O16  1  0.01832000  0.60467000  0.64378000  1.0 -0.642916394
O  O17  1  0.07092000  0.89509000  0.34142000  1.0 -0.5517886482
O  O18  1  0.92908000  0.10491000  0.34142000  1.0 -0.5517886482
O  O19  1  0.89509000  0.92908000  0.65858000  1.0 -0.5517886482
O  O20  1  0.10491000  0.07092000  0.65858000  1.0 -0.5517886482
O  O21  1  0.42908000  0.89509000  0.40858000  1.0 -0.5517886482
O  O22  1  0.57092000  0.10491000  0.40858000  1.0 -0.5517886482
O  O23  1  0.60491000  0.92908000  0.09142000  1.0 -0.5517886482
O  O24  1  0.39509000  0.07092000  0.09142000  1.0 -0.5517886482
O  O25  1  0.57092000  0.39509000  0.84142000  1.0 -0.5517886482
O  O26  1  0.42908000  0.60491000  0.84142000  1.0 -0.5517886482
O  O27  1  0.39509000  0.42908000  0.15858000  1.0 -0.5517886482
O  O28  1  0.60491000  0.57092000  0.15858000  1.0 -0.5517886482
O  O29  1  0.92908000  0.39509000  0.90858000  1.0 -0.5517886482
O  O30  1  0.07092000  0.60491000  0.90858000  1.0 -0.5517886482
O  O31  1  0.10491000  0.42908000  0.59142000  1.0 -0.5517886482
O  O32  1  0.89509000  0.57092000  0.59142000  1.0 -0.5517886482
O  O33  1  0.05373000  0.90597000  0.47247000  1.0 -0.6111374587
O  O34  1  0.94627000  0.09403000  0.47247000  1.0 -0.6111374587
O  O35  1  0.90597000  0.94627000  0.52753000  1.0 -0.6111374587
O  O36  1  0.09403000  0.05373000  0.52753000  1.0 -0.6111374587
O  O37  1  0.44627000  0.90597000  0.27753000  1.0 -0.6111374587
O  O38  1  0.55373000  0.09403000  0.27753000  1.0 -0.6111374587
O  O39  1  0.59403000  0.94627000  0.22247000  1.0 -0.6111374587
O  O40  1  0.40597000  0.05373000  0.22247000  1.0 -0.6111374587
O  O41  1  0.55373000  0.40597000  0.97247000  1.0 -0.6111374587
O  O42  1  0.44627000  0.59403000  0.97247000  1.0 -0.6111374587
O  O43  1  0.40597000  0.44627000  0.02753000  1.0 -0.6111374587
O  O44  1  0.59403000  0.55373000  0.02753000  1.0 -0.6111374587
O  O45  1  0.94627000  0.40597000  0.77753000  1.0 -0.6111374587
O  O46  1  0.05373000  0.59403000  0.77753000  1.0 -0.6111374587
O  O47  1  0.09403000  0.44627000  0.72247000  1.0 -0.6111374587
O  O48  1  0.90597000  0.55373000  0.72247000  1.0 -0.6111374587
O  O49  1  0.88793000  0.80635000  0.44058000  1.0 -0.6111374587
O  O50  1  0.11207000  0.19365000  0.44058000  1.0 -0.6111374587
O  O51  1  0.80635000  0.11207000  0.55942000  1.0 -0.6111374587
O  O52  1  0.19365000  0.88793000  0.55942000  1.0 -0.6111374587
O  O53  1  0.61207000  0.80635000  0.30942000  1.0 -0.6111374587
O  O54  1  0.38793000  0.19365000  0.30942000  1.0 -0.6111374587
O  O55  1  0.69365000  0.11207000  0.19058000  1.0 -0.6111374587
O  O56  1  0.30635000  0.88793000  0.19058000  1.0 -0.6111374587
O  O57  1  0.38793000  0.30635000  0.94058000  1.0 -0.6111374587
O  O58  1  0.61207000  0.69365000  0.94058000  1.0 -0.6111374587
O  O59  1  0.30635000  0.61207000  0.05942000  1.0 -0.6111374587
O  O60  1  0.69365000  0.38793000  0.05942000  1.0 -0.6111374587
O  O61  1  0.11207000  0.30635000  0.80942000  1.0 -0.6111374587
O  O62  1  0.88793000  0.69365000  0.80942000  1.0 -0.6111374587
O  O63  1  0.19365000  0.61207000  0.69058000  1.0 -0.6111374587
O  O64  1  0.80635000  0.38793000  0.69058000  1.0 -0.6111374587
O  O65  1  0.98104000  0.67137000  0.41471000  1.0 -0.435823876
O  O66  1  0.01896000  0.32863000  0.41471000  1.0 -0.435823876
O  O67  1  0.67137000  0.01896000  0.58529000  1.0 -0.435823876
O  O68  1  0.32863000  0.98104000  0.58529000  1.0 -0.435823876
O  O69  1  0.51896000  0.67137000  0.33529000  1.0 -0.435823876
O  O70  1  0.48104000  0.32863000  0.33529000  1.0 -0.435823876
O  O71  1  0.82863000  0.01896000  0.16471000  1.0 -0.435823876
O  O72  1  0.17137000  0.98104000  0.16471000  1.0 -0.435823876
O  O73  1  0.48104000  0.17137000  0.91471000  1.0 -0.435823876
O  O74  1  0.51896000  0.82863000  0.91471000  1.0 -0.435823876
O  O75  1  0.17137000  0.51896000  0.08529000  1.0 -0.435823876
O  O76  1  0.82863000  0.48104000  0.08529000  1.0 -0.435823876
O  O77  1  0.01896000  0.17137000  0.83529000  1.0 -0.435823876
O  O78  1  0.98104000  0.82863000  0.83529000  1.0 -0.435823876
O  O79  1  0.32863000  0.51896000  0.66471000  1.0 -0.435823876
O  O80  1  0.67137000  0.48104000  0.66471000  1.0 -0.435823876
O  O81  1  0.03581000  0.74621000  0.54275000  1.0 -0.5826382764
O  O82  1  0.96419000  0.25379000  0.54275000  1.0 -0.5826382764
O  O83  1  0.74621000  0.96419000  0.45725000  1.0 -0.5826382764
O  O84  1  0.25379000  0.03581000  0.45725000  1.0 -0.5826382764
O  O85  1  0.46419000  0.74621000  0.20725000  1.0 -0.5826382764
O  O86  1  0.53581000  0.25379000  0.20725000  1.0 -0.5826382764
O  O87  1  0.75379000  0.96419000  0.29275000  1.0 -0.5826382764
O  O88  1  0.24621000  0.03581000  0.29275000  1.0 -0.5826382764
O  O89  1  0.53581000  0.24621000  0.04275000  1.0 -0.5826382764
O  O90  1  0.46419000  0.75379000  0.04275000  1.0 -0.5826382764
O  O91  1  0.24621000  0.46419000  0.95725000  1.0 -0.5826382764
O  O92  1  0.75379000  0.53581000  0.95725000  1.0 -0.5826382764
O  O93  1  0.96419000  0.24621000  0.70725000  1.0 -0.5826382764
O  O94  1  0.03581000  0.75379000  0.70725000  1.0 -0.5826382764
O  O95  1  0.25379000  0.46419000  0.79275000  1.0 -0.5826382764
O  O96  1  0.74621000  0.53581000  0.79275000  1.0 -0.5826382764
O  O97  1  0.07722000  0.58649000  0.51683000  1.0 -0.532736925
O  O98  1  0.92278000  0.41351000  0.51683000  1.0 -0.532736925
O  O99  1  0.58649000  0.92278000  0.48317000  1.0 -0.532736925
O  O100  1  0.41351000  0.07722000  0.48317000  1.0 -0.532736925
O  O101  1  0.42278000  0.58649000  0.23317000  1.0 -0.532736925
O  O102  1  0.57722000  0.41351000  0.23317000  1.0 -0.532736925
O  O103  1  0.91351000  0.92278000  0.26683000  1.0 -0.532736925
O  O104  1  0.08649000  0.07722000  0.26683000  1.0 -0.532736925
O  O105  1  0.57722000  0.08649000  0.01683000  1.0 -0.532736925
O  O106  1  0.42278000  0.91351000  0.01683000  1.0 -0.532736925
O  O107  1  0.08649000  0.42278000  0.98317000  1.0 -0.532736925
O  O108  1  0.91351000  0.57722000  0.98317000  1.0 -0.532736925
O  O109  1  0.92278000  0.08649000  0.73317000  1.0 -0.532736925
O  O110  1  0.07722000  0.91351000  0.73317000  1.0 -0.532736925
O  O111  1  0.41351000  0.42278000  0.76683000  1.0 -0.532736925
O  O112  1  0.58649000  0.57722000  0.76683000  1.0 -0.532736925
