# DDEC6 charges by PACMAN v1.1 (https://github.com/mtap-research/PACMAN-charge/)
data_RAZYOI_FSR_pacman
_symmetry_space_group_name_H-M   'P 1'
_cell_length_a   15.93270000
_cell_length_b   15.93270000
_cell_length_c   12.45220000
_cell_angle_alpha   90.00000000
_cell_angle_beta   90.00000000
_cell_angle_gamma   90.00000000
_symmetry_Int_Tables_number   1
_chemical_formula_structural   CuH18C12N2Cl
_chemical_formula_sum   'Cu8 H144 C96 N16 Cl8'
_cell_volume   3161.00254170
_cell_formula_units_Z   8
loop_
 _symmetry_equiv_pos_site_id
 _symmetry_equiv_pos_as_xyz
  1  'x, y, z'
loop_
 _atom_site_type_symbol
 _atom_site_label
 _atom_site_symmetry_multiplicity
 _atom_site_fract_x
 _atom_site_fract_y
 _atom_site_fract_z
 _atom_site_occupancy
 _atom_site_charge
Cu  Cu1  1  0.99789000  0.48435000  0.37624000  1.0 0.3665033752
Cu  Cu2  1  0.00211000  0.51565000  0.87624000  1.0 0.3636160468
Cu  Cu3  1  0.50211000  0.98435000  0.87376000  1.0 0.3636160468
Cu  Cu4  1  0.49789000  0.01565000  0.37376000  1.0 0.3636160468
Cu  Cu5  1  0.51565000  0.00211000  0.12376000  1.0 0.3636160468
Cu  Cu6  1  0.48435000  0.99789000  0.62376000  1.0 0.3665033752
Cu  Cu7  1  0.01565000  0.49789000  0.62624000  1.0 0.3636160468
Cu  Cu8  1  0.98435000  0.50211000  0.12624000  1.0 0.3636160468
H  H1  1  0.17120000  0.39710000  0.75260000  1.0 0.0831055613
H  H2  1  0.82880000  0.60290000  0.25260000  1.0 0.0831055613
H  H3  1  0.32880000  0.89710000  0.49740000  1.0 0.0831055613
H  H4  1  0.67120000  0.10290000  0.99740000  1.0 0.0831055613
H  H5  1  0.60290000  0.82880000  0.74740000  1.0 0.0831055613
H  H6  1  0.39710000  0.17120000  0.24740000  1.0 0.0831055613
H  H7  1  0.10290000  0.67120000  0.00260000  1.0 0.0831055613
H  H8  1  0.89710000  0.32880000  0.50260000  1.0 0.0831055613
H  H9  1  0.07740000  0.37010000  0.75420000  1.0 0.058474638
H  H10  1  0.92260000  0.62990000  0.25420000  1.0 0.058474638
H  H11  1  0.42260000  0.87010000  0.49580000  1.0 0.058474638
H  H12  1  0.57740000  0.12990000  0.99580000  1.0 0.058474638
H  H13  1  0.62990000  0.92260000  0.74580000  1.0 0.058474638
H  H14  1  0.37010000  0.07740000  0.24580000  1.0 0.058474638
H  H15  1  0.12990000  0.57740000  0.00420000  1.0 0.058474638
H  H16  1  0.87010000  0.42260000  0.50420000  1.0 0.058474638
H  H17  1  0.27700000  0.28100000  0.24050000  1.0 0.0481066877
H  H18  1  0.72300000  0.71900000  0.74050000  1.0 0.0481066877
H  H19  1  0.22300000  0.78100000  0.00950000  1.0 0.0481066877
H  H20  1  0.77700000  0.21900000  0.50950000  1.0 0.0481066877
H  H21  1  0.71900000  0.72300000  0.25950000  1.0 0.0481066877
H  H22  1  0.28100000  0.27700000  0.75950000  1.0 0.0481066877
H  H23  1  0.21900000  0.77700000  0.49050000  1.0 0.0481066877
H  H24  1  0.78100000  0.22300000  0.99050000  1.0 0.0481066877
H  H25  1  0.05990000  0.35050000  0.24940000  1.0 0.058474638
H  H26  1  0.94010000  0.64950000  0.74940000  1.0 0.0481066877
H  H27  1  0.44010000  0.85050000  0.00060000  1.0 0.058474638
H  H28  1  0.55990000  0.14950000  0.50060000  1.0 0.058474638
H  H29  1  0.64950000  0.94010000  0.25060000  1.0 0.0481066877
H  H30  1  0.35050000  0.05990000  0.75060000  1.0 0.058474638
H  H31  1  0.14950000  0.55990000  0.49940000  1.0 0.058474638
H  H32  1  0.85050000  0.44010000  0.99940000  1.0 0.058474638
H  H33  1  0.14850000  0.39050000  0.24020000  1.0 0.0831055613
H  H34  1  0.85150000  0.60950000  0.74020000  1.0 0.0831055613
H  H35  1  0.35150000  0.89050000  0.00980000  1.0 0.0831055613
H  H36  1  0.64850000  0.10950000  0.50980000  1.0 0.0831055613
H  H37  1  0.60950000  0.85150000  0.25980000  1.0 0.0831055613
H  H38  1  0.39050000  0.14850000  0.75980000  1.0 0.0831055613
H  H39  1  0.10950000  0.64850000  0.49020000  1.0 0.0831055613
H  H40  1  0.89050000  0.35150000  0.99020000  1.0 0.0831055613
H  H41  1  0.16130000  0.27850000  0.85680000  1.0 0.0877637716
H  H42  1  0.83870000  0.72150000  0.35680000  1.0 0.0831055613
H  H43  1  0.33870000  0.77850000  0.39320000  1.0 0.0831055613
H  H44  1  0.66130000  0.22150000  0.89320000  1.0 0.0831055613
H  H45  1  0.72150000  0.83870000  0.64320000  1.0 0.0831055613
H  H46  1  0.27850000  0.16130000  0.14320000  1.0 0.0877637716
H  H47  1  0.22150000  0.66130000  0.10680000  1.0 0.0877637716
H  H48  1  0.77850000  0.33870000  0.60680000  1.0 0.0831055613
H  H49  1  0.11650000  0.23420000  0.76210000  1.0 0.0831055613
H  H50  1  0.88350000  0.76580000  0.26210000  1.0 0.0831055613
H  H51  1  0.38350000  0.73420000  0.48790000  1.0 0.0831055613
H  H52  1  0.61650000  0.26580000  0.98790000  1.0 0.0831055613
H  H53  1  0.76580000  0.88350000  0.73790000  1.0 0.0831055613
H  H54  1  0.23420000  0.11650000  0.23790000  1.0 0.0831055613
H  H55  1  0.26580000  0.61650000  0.01210000  1.0 0.0831055613
H  H56  1  0.73420000  0.38350000  0.51210000  1.0 0.0831055613
H  H57  1  0.15630000  0.27120000  0.14560000  1.0 0.0877637716
H  H58  1  0.84370000  0.72880000  0.64560000  1.0 0.0877637716
H  H59  1  0.34370000  0.77120000  0.10440000  1.0 0.0877637716
H  H60  1  0.65630000  0.22880000  0.60440000  1.0 0.0877637716
H  H61  1  0.72880000  0.84370000  0.35440000  1.0 0.0877637716
H  H62  1  0.27120000  0.15630000  0.85440000  1.0 0.0877637716
H  H63  1  0.22880000  0.65630000  0.39560000  1.0 0.0877637716
H  H64  1  0.77120000  0.34370000  0.89560000  1.0 0.0877637716
H  H65  1  0.11640000  0.22190000  0.23980000  1.0 0.0877637716
H  H66  1  0.88360000  0.77810000  0.73980000  1.0 0.0877637716
H  H67  1  0.38360000  0.72190000  0.01020000  1.0 0.0831055613
H  H68  1  0.61640000  0.27810000  0.51020000  1.0 0.0831055613
H  H69  1  0.77810000  0.88360000  0.26020000  1.0 0.0877637716
H  H70  1  0.22190000  0.11640000  0.76020000  1.0 0.0877637716
H  H71  1  0.27810000  0.61640000  0.48980000  1.0 0.0831055613
H  H72  1  0.72190000  0.38360000  0.98980000  1.0 0.0877637716
H  H73  1  0.07490000  0.30510000  0.24830000  1.0 0.0831055613
H  H74  1  0.92510000  0.69490000  0.74830000  1.0 0.0831055613
H  H75  1  0.42510000  0.80510000  0.00170000  1.0 0.0831055613
H  H76  1  0.57490000  0.19490000  0.50170000  1.0 0.0831055613
H  H77  1  0.69490000  0.92510000  0.25170000  1.0 0.0831055613
H  H78  1  0.30510000  0.07490000  0.75170000  1.0 0.0831055613
H  H79  1  0.19490000  0.57490000  0.49830000  1.0 0.0831055613
H  H80  1  0.80510000  0.42510000  0.99830000  1.0 0.0831055613
H  H81  1  0.10220000  0.39880000  0.24400000  1.0 0.0481066877
H  H82  1  0.89780000  0.60120000  0.74400000  1.0 0.0481066877
H  H83  1  0.39780000  0.89880000  0.00600000  1.0 0.0481066877
H  H84  1  0.60220000  0.10120000  0.50600000  1.0 0.0481066877
H  H85  1  0.60120000  0.89780000  0.25600000  1.0 0.0481066877
H  H86  1  0.39880000  0.10220000  0.75600000  1.0 0.0481066877
H  H87  1  0.10120000  0.60220000  0.49400000  1.0 0.0481066877
H  H88  1  0.89880000  0.39780000  0.99400000  1.0 0.0481066877
H  H89  1  0.41180000  0.12270000  0.24850000  1.0 0.058474638
H  H90  1  0.58820000  0.87730000  0.74850000  1.0 0.058474638
H  H91  1  0.08820000  0.62270000  0.00150000  1.0 0.058474638
H  H92  1  0.91180000  0.37730000  0.50150000  1.0 0.058474638
H  H93  1  0.87730000  0.58820000  0.25150000  1.0 0.058474638
H  H94  1  0.12270000  0.41180000  0.75150000  1.0 0.058474638
H  H95  1  0.37730000  0.91180000  0.49850000  1.0 0.058474638
H  H96  1  0.62270000  0.08820000  0.99850000  1.0 0.058474638
H  H97  1  0.32070000  0.08780000  0.24280000  1.0 0.0877637716
H  H98  1  0.67930000  0.91220000  0.74280000  1.0 0.0877637716
H  H99  1  0.17930000  0.58780000  0.00720000  1.0 0.0877637716
H  H100  1  0.82070000  0.41220000  0.50720000  1.0 0.0877637716
H  H101  1  0.91220000  0.67930000  0.25720000  1.0 0.0877637716
H  H102  1  0.08780000  0.32070000  0.75720000  1.0 0.0877637716
H  H103  1  0.41220000  0.82070000  0.49280000  1.0 0.0877637716
H  H104  1  0.58780000  0.17930000  0.99280000  1.0 0.0877637716
H  H105  1  0.32110000  0.20830000  0.14400000  1.0 0.0831055613
H  H106  1  0.67890000  0.79170000  0.64400000  1.0 0.0831055613
H  H107  1  0.17890000  0.70830000  0.10600000  1.0 0.0831055613
H  H108  1  0.82110000  0.29170000  0.60600000  1.0 0.0831055613
H  H109  1  0.79170000  0.67890000  0.35600000  1.0 0.0831055613
H  H110  1  0.20830000  0.32110000  0.85600000  1.0 0.0831055613
H  H111  1  0.29170000  0.82110000  0.39400000  1.0 0.0831055613
H  H112  1  0.70830000  0.17890000  0.89400000  1.0 0.0831055613
H  H113  1  0.36050000  0.25350000  0.24190000  1.0 0.0877637716
H  H114  1  0.63950000  0.74650000  0.74190000  1.0 0.0877637716
H  H115  1  0.13950000  0.75350000  0.00810000  1.0 0.0877637716
H  H116  1  0.86050000  0.24650000  0.50810000  1.0 0.0877637716
H  H117  1  0.74650000  0.63950000  0.25810000  1.0 0.0877637716
H  H118  1  0.25350000  0.36050000  0.75810000  1.0 0.0877637716
H  H119  1  0.24650000  0.86050000  0.49190000  1.0 0.0877637716
H  H120  1  0.75350000  0.13950000  0.99190000  1.0 0.0877637716
H  H121  1  0.20090000  0.19450000  0.24030000  1.0 0.0304207565
H  H122  1  0.79910000  0.80550000  0.74030000  1.0 0.0304207565
H  H123  1  0.29910000  0.69450000  0.00970000  1.0 0.0304207565
H  H124  1  0.70090000  0.30550000  0.50970000  1.0 0.0304207565
H  H125  1  0.80550000  0.79910000  0.25970000  1.0 0.0304207565
H  H126  1  0.19450000  0.20090000  0.75970000  1.0 0.0304207565
H  H127  1  0.30550000  0.70090000  0.49030000  1.0 0.0304207565
H  H128  1  0.69450000  0.29910000  0.99030000  1.0 0.0304207565
H  H129  1  0.19630000  0.31610000  0.14710000  1.0 0.0831055613
H  H130  1  0.80370000  0.68390000  0.64710000  1.0 0.0831055613
H  H131  1  0.30370000  0.81610000  0.10290000  1.0 0.0831055613
H  H132  1  0.69630000  0.18390000  0.60290000  1.0 0.0831055613
H  H133  1  0.68390000  0.80370000  0.35290000  1.0 0.0831055613
H  H134  1  0.31610000  0.19630000  0.85290000  1.0 0.0831055613
H  H135  1  0.18390000  0.69630000  0.39710000  1.0 0.0831055613
H  H136  1  0.81610000  0.30370000  0.89710000  1.0 0.0831055613
H  H137  1  0.24290000  0.36540000  0.23580000  1.0 0.0877637716
H  H138  1  0.75710000  0.63460000  0.73580000  1.0 0.0877637716
H  H139  1  0.25710000  0.86540000  0.01420000  1.0 0.0877637716
H  H140  1  0.74290000  0.13460000  0.51420000  1.0 0.0877637716
H  H141  1  0.63460000  0.75710000  0.26420000  1.0 0.0877637716
H  H142  1  0.36540000  0.24290000  0.76420000  1.0 0.0877637716
H  H143  1  0.13460000  0.74290000  0.48580000  1.0 0.0877637716
H  H144  1  0.86540000  0.25710000  0.98580000  1.0 0.0877637716
C  C1  1  0.12540000  0.34480000  0.39240000  1.0 0.1321362235
C  C2  1  0.87460000  0.65520000  0.89240000  1.0 0.1321362235
C  C3  1  0.37460000  0.84480000  0.85760000  1.0 0.1321362235
C  C4  1  0.62540000  0.15520000  0.35760000  1.0 0.1321362235
C  C5  1  0.65520000  0.87460000  0.10760000  1.0 0.1321362235
C  C6  1  0.34480000  0.12540000  0.60760000  1.0 0.1321362235
C  C7  1  0.15520000  0.62540000  0.64240000  1.0 0.1321362235
C  C8  1  0.84480000  0.37460000  0.14240000  1.0 0.1321362235
C  C9  1  0.18240000  0.28960000  0.44410000  1.0 -0.0903691462
C  C10  1  0.81760000  0.71040000  0.94410000  1.0 -0.0903691462
C  C11  1  0.31760000  0.78960000  0.80590000  1.0 -0.0903691462
C  C12  1  0.68240000  0.21040000  0.30590000  1.0 -0.0903691462
C  C13  1  0.71040000  0.81760000  0.05590000  1.0 -0.0903691462
C  C14  1  0.28960000  0.18240000  0.55590000  1.0 -0.0903691462
C  C15  1  0.21040000  0.68240000  0.69410000  1.0 -0.0903691462
C  C16  1  0.78960000  0.31760000  0.19410000  1.0 -0.0903691462
C  C17  1  0.23760000  0.23640000  0.38510000  1.0 0.044487937
C  C18  1  0.76240000  0.76360000  0.88510000  1.0 0.044487937
C  C19  1  0.26240000  0.73640000  0.86490000  1.0 0.044487937
C  C20  1  0.73760000  0.26360000  0.36490000  1.0 0.0481066877
C  C21  1  0.76360000  0.76240000  0.11490000  1.0 0.044487937
C  C22  1  0.23640000  0.23760000  0.61490000  1.0 0.044487937
C  C23  1  0.26360000  0.73760000  0.63510000  1.0 0.044487937
C  C24  1  0.73640000  0.26240000  0.13510000  1.0 0.044487937
C  C25  1  0.18510000  0.28990000  0.55640000  1.0 -0.0903691462
C  C26  1  0.81490000  0.71010000  0.05640000  1.0 -0.0903691462
C  C27  1  0.31490000  0.78990000  0.69360000  1.0 -0.0903691462
C  C28  1  0.68510000  0.21010000  0.19360000  1.0 -0.0903691462
C  C29  1  0.71010000  0.81490000  0.94360000  1.0 -0.0903691462
C  C30  1  0.28990000  0.18510000  0.44360000  1.0 -0.0903691462
C  C31  1  0.21010000  0.68510000  0.80640000  1.0 -0.0903691462
C  C32  1  0.78990000  0.31490000  0.30640000  1.0 -0.0903691462
C  C33  1  0.13210000  0.35100000  0.61060000  1.0 0.1321362235
C  C34  1  0.86790000  0.64900000  0.11060000  1.0 0.1321362235
C  C35  1  0.36790000  0.85100000  0.63940000  1.0 0.1321362235
C  C36  1  0.63210000  0.14900000  0.13940000  1.0 0.1321362235
C  C37  1  0.64900000  0.86790000  0.88940000  1.0 0.1321362235
C  C38  1  0.35100000  0.13210000  0.38940000  1.0 0.1321362235
C  C39  1  0.14900000  0.63210000  0.86060000  1.0 0.1321362235
C  C40  1  0.85100000  0.36790000  0.36060000  1.0 0.1321362235
C  C41  1  0.13230000  0.35500000  0.72910000  1.0 -0.2140222962
C  C42  1  0.86770000  0.64500000  0.22910000  1.0 -0.2140222962
C  C43  1  0.36770000  0.85500000  0.52090000  1.0 -0.2140222962
C  C44  1  0.63230000  0.14500000  0.02090000  1.0 -0.2140222962
C  C45  1  0.64500000  0.86770000  0.77090000  1.0 -0.2140222962
C  C46  1  0.35500000  0.13230000  0.27090000  1.0 -0.2140222962
C  C47  1  0.14500000  0.63230000  0.97910000  1.0 -0.2153420126
C  C48  1  0.85500000  0.36770000  0.47910000  1.0 -0.2140222962
C  C49  1  0.23820000  0.23840000  0.26290000  1.0 0.0064755002
C  C50  1  0.76180000  0.76160000  0.76290000  1.0 0.0064755002
C  C51  1  0.26180000  0.73840000  0.98710000  1.0 0.0064755002
C  C52  1  0.73820000  0.26160000  0.48710000  1.0 0.0064755002
C  C53  1  0.76160000  0.76180000  0.23710000  1.0 0.0064755002
C  C54  1  0.23840000  0.23820000  0.73710000  1.0 0.0064755002
C  C55  1  0.26160000  0.73820000  0.51290000  1.0 0.0064755002
C  C56  1  0.73840000  0.26180000  0.01290000  1.0 0.0064755002
C  C57  1  0.11770000  0.34410000  0.26960000  1.0 -0.2140222962
C  C58  1  0.88230000  0.65590000  0.76960000  1.0 -0.2140222962
C  C59  1  0.38230000  0.84410000  0.98040000  1.0 -0.2140222962
C  C60  1  0.61770000  0.15590000  0.48040000  1.0 -0.2140222962
C  C61  1  0.65590000  0.88230000  0.23040000  1.0 -0.2140222962
C  C62  1  0.34410000  0.11770000  0.73040000  1.0 -0.2140222962
C  C63  1  0.15590000  0.61770000  0.51960000  1.0 -0.2140222962
C  C64  1  0.84410000  0.38230000  0.01960000  1.0 -0.2140222962
C  C65  1  0.15920000  0.27430000  0.78000000  1.0 -0.1281045632
C  C66  1  0.84080000  0.72570000  0.28000000  1.0 -0.1281045632
C  C67  1  0.34080000  0.77430000  0.47000000  1.0 -0.1281045632
C  C68  1  0.65920000  0.22570000  0.97000000  1.0 -0.1281045632
C  C69  1  0.72570000  0.84080000  0.72000000  1.0 -0.1281045632
C  C70  1  0.27430000  0.15920000  0.22000000  1.0 -0.1281045632
C  C71  1  0.22570000  0.65920000  0.03000000  1.0 -0.1281045632
C  C72  1  0.77430000  0.34080000  0.53000000  1.0 -0.1281045632
C  C73  1  0.15490000  0.26630000  0.22240000  1.0 -0.1364238256
C  C74  1  0.84510000  0.73370000  0.72240000  1.0 -0.1364238256
C  C75  1  0.34510000  0.76630000  0.02760000  1.0 -0.1364238256
C  C76  1  0.65490000  0.23370000  0.52760000  1.0 -0.1364238256
C  C77  1  0.73370000  0.84510000  0.27760000  1.0 -0.1364238256
C  C78  1  0.26630000  0.15490000  0.77760000  1.0 -0.1364238256
C  C79  1  0.23370000  0.65490000  0.47240000  1.0 -0.1364238256
C  C80  1  0.76630000  0.34510000  0.97240000  1.0 -0.1364238256
C  C81  1  0.32130000  0.21080000  0.22100000  1.0 -0.1226050811
C  C82  1  0.67870000  0.78920000  0.72100000  1.0 -0.1226050811
C  C83  1  0.17870000  0.71080000  0.02900000  1.0 -0.1226050811
C  C84  1  0.82130000  0.28920000  0.52900000  1.0 -0.1226050811
C  C85  1  0.78920000  0.67870000  0.27900000  1.0 -0.1226050811
C  C86  1  0.21080000  0.32130000  0.77900000  1.0 -0.1226050811
C  C87  1  0.28920000  0.82130000  0.47100000  1.0 -0.1226050811
C  C88  1  0.71080000  0.17870000  0.97100000  1.0 -0.1226050811
C  C89  1  0.20330000  0.32110000  0.22340000  1.0 -0.1281045632
C  C90  1  0.79670000  0.67890000  0.72340000  1.0 -0.1281045632
C  C91  1  0.29670000  0.82110000  0.02660000  1.0 -0.1281045632
C  C92  1  0.70330000  0.17890000  0.52660000  1.0 -0.1281045632
C  C93  1  0.67890000  0.79670000  0.27660000  1.0 -0.1281045632
C  C94  1  0.32110000  0.20330000  0.77660000  1.0 -0.1281045632
C  C95  1  0.17890000  0.70330000  0.47340000  1.0 -0.1281045632
C  C96  1  0.82110000  0.29670000  0.97340000  1.0 -0.1281045632
N  N1  1  0.07910000  0.39980000  0.44610000  1.0 -0.1971614951
N  N2  1  0.92090000  0.60020000  0.94610000  1.0 -0.1971614951
N  N3  1  0.42090000  0.89980000  0.80390000  1.0 -0.1971614951
N  N4  1  0.57910000  0.10020000  0.30390000  1.0 -0.1971614951
N  N5  1  0.60020000  0.92090000  0.05390000  1.0 -0.1971614951
N  N6  1  0.39980000  0.07910000  0.55390000  1.0 -0.1971614951
N  N7  1  0.10020000  0.57910000  0.69610000  1.0 -0.1971614951
N  N8  1  0.89980000  0.42090000  0.19610000  1.0 -0.1971614951
N  N9  1  0.08260000  0.40230000  0.55750000  1.0 -0.1971614951
N  N10  1  0.91740000  0.59770000  0.05750000  1.0 -0.1971614951
N  N11  1  0.41740000  0.90230000  0.69250000  1.0 -0.1971614951
N  N12  1  0.58260000  0.09770000  0.19250000  1.0 -0.1971614951
N  N13  1  0.59770000  0.91740000  0.94250000  1.0 -0.1971614951
N  N14  1  0.40230000  0.08260000  0.44250000  1.0 -0.1971614951
N  N15  1  0.09770000  0.58260000  0.80750000  1.0 -0.1971614951
N  N16  1  0.90230000  0.41740000  0.30750000  1.0 -0.1971614951
Cl  Cl1  1  0.07777000  0.56266000  0.25180000  1.0 -0.4815410798
Cl  Cl2  1  0.92223000  0.43734000  0.75180000  1.0 -0.4815410798
Cl  Cl3  1  0.42223000  0.06266000  0.99820000  1.0 -0.4815410798
Cl  Cl4  1  0.57777000  0.93734000  0.49820000  1.0 -0.4815410798
Cl  Cl5  1  0.43734000  0.92223000  0.24820000  1.0 -0.4815410798
Cl  Cl6  1  0.56266000  0.07777000  0.74820000  1.0 -0.4815410798
Cl  Cl7  1  0.93734000  0.57777000  0.50180000  1.0 -0.4815410798
Cl  Cl8  1  0.06266000  0.42223000  0.00180000  1.0 -0.4815410798
