# DDEC6 charges by PACMAN v1.1 (https://github.com/mtap-research/PACMAN-charge/)
data_RAZYIC_ASR_pacman
_symmetry_space_group_name_H-M   'P 1'
_cell_length_a   17.13150000
_cell_length_b   17.13150000
_cell_length_c   17.13150000
_cell_angle_alpha   98.43950000
_cell_angle_beta   98.43950000
_cell_angle_gamma   134.94800000
_symmetry_Int_Tables_number   1
_chemical_formula_structural   CuH18C12IN2
_chemical_formula_sum   'Cu8 H144 C96 I8 N16'
_cell_volume   3287.00199984
_cell_formula_units_Z   8
loop_
 _symmetry_equiv_pos_site_id
 _symmetry_equiv_pos_as_xyz
  1  'x, y, z'
loop_
 _atom_site_type_symbol
 _atom_site_label
 _atom_site_symmetry_multiplicity
 _atom_site_fract_x
 _atom_site_fract_y
 _atom_site_fract_z
 _atom_site_occupancy
 _atom_site_charge
Cu  Cu1  1  0.50805000  0.49195000  0.50000000  1.0 0.2768734591
Cu  Cu2  1  0.99195000  0.00805000  0.50000000  1.0 0.2768734591
Cu  Cu3  1  0.25805000  0.25805000  0.51610000  1.0 0.2768734591
Cu  Cu4  1  0.74195000  0.74195000  0.48390000  1.0 0.2768734591
Cu  Cu5  1  0.74195000  0.25805000  0.00000000  1.0 0.2768734591
Cu  Cu6  1  0.25805000  0.74195000  0.00000000  1.0 0.2768734591
Cu  Cu7  1  0.99195000  0.49195000  0.98390000  1.0 0.2768734591
Cu  Cu8  1  0.50805000  0.00805000  0.01610000  1.0 0.2768734591
H  H1  1  0.85210000  0.53700000  0.68490000  1.0 0.0587652117
H  H2  1  0.85210000  0.16720000  0.31510000  1.0 0.0587652117
H  H3  1  0.41720000  0.60210000  0.81510000  1.0 0.0587652117
H  H4  1  0.78700000  0.60210000  0.18490000  1.0 0.0587652117
H  H5  1  0.39790000  0.58280000  0.18490000  1.0 0.0587652117
H  H6  1  0.39790000  0.21300000  0.81510000  1.0 0.0587652117
H  H7  1  0.83280000  0.14790000  0.68490000  1.0 0.0587652117
H  H8  1  0.46300000  0.14790000  0.31510000  1.0 0.0587652117
H  H9  1  0.73230000  0.53660000  0.56750000  1.0 0.0807908643
H  H10  1  0.96910000  0.16480000  0.43250000  1.0 0.0807908643
H  H11  1  0.41480000  0.48230000  0.69570000  1.0 0.0807908643
H  H12  1  0.78660000  0.71910000  0.30430000  1.0 0.0807908643
H  H13  1  0.51770000  0.58520000  0.30430000  1.0 0.0807908643
H  H14  1  0.28090000  0.21340000  0.69570000  1.0 0.0807908643
H  H15  1  0.83520000  0.03090000  0.56750000  1.0 0.0807908643
H  H16  1  0.46340000  0.26770000  0.43250000  1.0 0.0807908643
H  H17  1  0.51770000  0.21340000  0.93250000  1.0 0.0807908643
H  H18  1  0.28090000  0.58520000  0.06750000  1.0 0.0807908643
H  H19  1  0.83520000  0.26770000  0.80430000  1.0 0.0807908643
H  H20  1  0.46340000  0.03090000  0.19570000  1.0 0.0807908643
H  H21  1  0.73230000  0.16480000  0.19570000  1.0 0.0807908643
H  H22  1  0.96910000  0.53660000  0.80430000  1.0 0.0807908643
H  H23  1  0.41480000  0.71910000  0.93250000  1.0 0.0807908643
H  H24  1  0.78660000  0.48230000  0.06750000  1.0 0.0807908643
H  H25  1  0.72180000  0.61530000  0.60410000  1.0 0.0455880696
H  H26  1  0.01120000  0.11770000  0.39590000  1.0 0.0455880696
H  H27  1  0.36770000  0.47180000  0.60650000  1.0 0.0455880696
H  H28  1  0.86530000  0.76120000  0.39350000  1.0 0.0455880696
H  H29  1  0.52820000  0.63230000  0.39350000  1.0 0.0455880696
H  H30  1  0.23880000  0.13470000  0.60650000  1.0 0.0455880696
H  H31  1  0.88230000  0.98880000  0.60410000  1.0 0.0455880696
H  H32  1  0.38470000  0.27820000  0.39590000  1.0 0.0455880696
H  H33  1  0.52820000  0.13470000  0.89590000  1.0 0.0455880696
H  H34  1  0.23880000  0.63230000  0.10410000  1.0 0.0455880696
H  H35  1  0.88230000  0.27820000  0.89350000  1.0 0.0455880696
H  H36  1  0.38470000  0.98880000  0.10650000  1.0 0.0455880696
H  H37  1  0.72180000  0.11770000  0.10650000  1.0 0.0455880696
H  H38  1  0.01120000  0.61530000  0.89350000  1.0 0.0455880696
H  H39  1  0.36770000  0.76120000  0.89590000  1.0 0.0455880696
H  H40  1  0.86530000  0.47180000  0.10410000  1.0 0.0455880696
H  H41  1  0.84150000  0.68910000  0.73400000  1.0 0.1060971851
H  H42  1  0.95510000  0.10750000  0.26600000  1.0 0.1060971851
H  H43  1  0.35750000  0.59150000  0.65240000  1.0 0.1060971851
H  H44  1  0.93910000  0.70510000  0.34760000  1.0 0.1060971851
H  H45  1  0.40850000  0.64250000  0.34760000  1.0 0.1060971851
H  H46  1  0.29490000  0.06090000  0.65240000  1.0 0.1060971851
H  H47  1  0.89250000  0.04490000  0.73400000  1.0 0.1060971851
H  H48  1  0.31090000  0.15850000  0.26600000  1.0 0.1060971851
H  H49  1  0.40850000  0.06090000  0.76600000  1.0 0.1060971851
H  H50  1  0.29490000  0.64250000  0.23400000  1.0 0.1060971851
H  H51  1  0.89250000  0.15850000  0.84760000  1.0 0.1060971851
H  H52  1  0.31090000  0.04490000  0.15240000  1.0 0.1060971851
H  H53  1  0.84150000  0.10750000  0.15240000  1.0 0.1060971851
H  H54  1  0.95510000  0.68910000  0.84760000  1.0 0.1060971851
H  H55  1  0.35750000  0.70510000  0.76600000  1.0 0.1060971851
H  H56  1  0.93910000  0.59150000  0.23400000  1.0 0.1060971851
H  H57  1  0.90380000  0.69520000  0.67500000  1.0 0.0719020216
H  H58  1  0.02020000  0.22880000  0.32500000  1.0 0.0719020216
H  H59  1  0.47880000  0.65380000  0.70860000  1.0 0.0719020216
H  H60  1  0.94520000  0.77020000  0.29140000  1.0 0.0719020216
H  H61  1  0.34620000  0.52120000  0.29140000  1.0 0.0719020216
H  H62  1  0.22980000  0.05480000  0.70860000  1.0 0.0719020216
H  H63  1  0.77120000  0.97980000  0.67500000  1.0 0.0719020216
H  H64  1  0.30480000  0.09620000  0.32500000  1.0 0.0719020216
H  H65  1  0.34620000  0.05480000  0.82500000  1.0 0.0719020216
H  H66  1  0.22980000  0.52120000  0.17500000  1.0 0.0719020216
H  H67  1  0.77120000  0.09620000  0.79140000  1.0 0.0719020216
H  H68  1  0.30480000  0.97980000  0.20860000  1.0 0.0719020216
H  H69  1  0.90380000  0.22880000  0.20860000  1.0 0.0719020216
H  H70  1  0.02020000  0.69520000  0.79140000  1.0 0.0719020216
H  H71  1  0.47880000  0.77020000  0.82500000  1.0 0.0719020216
H  H72  1  0.94520000  0.65380000  0.17500000  1.0 0.0719020216
H  H73  1  0.87230000  0.63900000  0.76670000  1.0 0.0587652117
H  H74  1  0.87230000  0.10560000  0.23330000  1.0 0.0587652117
H  H75  1  0.35560000  0.62230000  0.73330000  1.0 0.0587652117
H  H76  1  0.88900000  0.62230000  0.26670000  1.0 0.0587652117
H  H77  1  0.37770000  0.64440000  0.26670000  1.0 0.0587652117
H  H78  1  0.37770000  0.11100000  0.73330000  1.0 0.0587652117
H  H79  1  0.89440000  0.12770000  0.76670000  1.0 0.0587652117
H  H80  1  0.36100000  0.12770000  0.23330000  1.0 0.0587652117
H  H81  1  0.70830000  0.55130000  0.55660000  1.0 0.0587652117
H  H82  1  0.99470000  0.15170000  0.44340000  1.0 0.0587652117
H  H83  1  0.40170000  0.45830000  0.65700000  1.0 0.0587652117
H  H84  1  0.80130000  0.74470000  0.34300000  1.0 0.0587652117
H  H85  1  0.54170000  0.59830000  0.34300000  1.0 0.0587652117
H  H86  1  0.25530000  0.19870000  0.65700000  1.0 0.0587652117
H  H87  1  0.84830000  0.00530000  0.55660000  1.0 0.0587652117
H  H88  1  0.44870000  0.29170000  0.44340000  1.0 0.0587652117
H  H89  1  0.54170000  0.19870000  0.94340000  1.0 0.0587652117
H  H90  1  0.25530000  0.59830000  0.05660000  1.0 0.0587652117
H  H91  1  0.84830000  0.29170000  0.84300000  1.0 0.0587652117
H  H92  1  0.44870000  0.00530000  0.15700000  1.0 0.0587652117
H  H93  1  0.70830000  0.15170000  0.15700000  1.0 0.0587652117
H  H94  1  0.99470000  0.55130000  0.84300000  1.0 0.0587652117
H  H95  1  0.40170000  0.74470000  0.94340000  1.0 0.0587652117
H  H96  1  0.80130000  0.45830000  0.05660000  1.0 0.0587652117
H  H97  1  0.75190000  0.63690000  0.64240000  1.0 0.0901130883
H  H98  1  0.99450000  0.10950000  0.35760000  1.0 0.0901130883
H  H99  1  0.35950000  0.50190000  0.61500000  1.0 0.0901130883
H  H100  1  0.88690000  0.74450000  0.38500000  1.0 0.0901130883
H  H101  1  0.49810000  0.64050000  0.38500000  1.0 0.0901130883
H  H102  1  0.25550000  0.11310000  0.61500000  1.0 0.0901130883
H  H103  1  0.89050000  0.00550000  0.64240000  1.0 0.0901130883
H  H104  1  0.36310000  0.24810000  0.35760000  1.0 0.0901130883
H  H105  1  0.49810000  0.11310000  0.85760000  1.0 0.0901130883
H  H106  1  0.25550000  0.64050000  0.14240000  1.0 0.0901130883
H  H107  1  0.89050000  0.24810000  0.88500000  1.0 0.0901130883
H  H108  1  0.36310000  0.00550000  0.11500000  1.0 0.0901130883
H  H109  1  0.75190000  0.10950000  0.11500000  1.0 0.0901130883
H  H110  1  0.99450000  0.63690000  0.88500000  1.0 0.0901130883
H  H111  1  0.35950000  0.74450000  0.85760000  1.0 0.0901130883
H  H112  1  0.88690000  0.50190000  0.14240000  1.0 0.0901130883
H  H113  1  0.89810000  0.66560000  0.65190000  1.0 0.0719020216
H  H114  1  0.01370000  0.24620000  0.34810000  1.0 0.0719020216
H  H115  1  0.49620000  0.64810000  0.73250000  1.0 0.0719020216
H  H116  1  0.91560000  0.76370000  0.26750000  1.0 0.0719020216
H  H117  1  0.35190000  0.50380000  0.26750000  1.0 0.0719020216
H  H118  1  0.23630000  0.08440000  0.73250000  1.0 0.0719020216
H  H119  1  0.75380000  0.98630000  0.65190000  1.0 0.0719020216
H  H120  1  0.33440000  0.10190000  0.34810000  1.0 0.0719020216
H  H121  1  0.35190000  0.08440000  0.84810000  1.0 0.0719020216
H  H122  1  0.23630000  0.50380000  0.15190000  1.0 0.0719020216
H  H123  1  0.75380000  0.10190000  0.76750000  1.0 0.0719020216
H  H124  1  0.33440000  0.98630000  0.23250000  1.0 0.0719020216
H  H125  1  0.89810000  0.24620000  0.23250000  1.0 0.0719020216
H  H126  1  0.01370000  0.66560000  0.76750000  1.0 0.0719020216
H  H127  1  0.49620000  0.76370000  0.84810000  1.0 0.0719020216
H  H128  1  0.91560000  0.64810000  0.15190000  1.0 0.0719020216
H  H129  1  0.81600000  0.53410000  0.60470000  1.0 0.0901130883
H  H130  1  0.92940000  0.21130000  0.39530000  1.0 0.0901130883
H  H131  1  0.46130000  0.56600000  0.78190000  1.0 0.0901130883
H  H132  1  0.78410000  0.67940000  0.21810000  1.0 0.0901130883
H  H133  1  0.43400000  0.53870000  0.21810000  1.0 0.0901130883
H  H134  1  0.32060000  0.21590000  0.78190000  1.0 0.0901130883
H  H135  1  0.78870000  0.07060000  0.60470000  1.0 0.0901130883
H  H136  1  0.46590000  0.18400000  0.39530000  1.0 0.0901130883
H  H137  1  0.43400000  0.21590000  0.89530000  1.0 0.0901130883
H  H138  1  0.32060000  0.53870000  0.10470000  1.0 0.0901130883
H  H139  1  0.78870000  0.18400000  0.71810000  1.0 0.0901130883
H  H140  1  0.46590000  0.07060000  0.28190000  1.0 0.0901130883
H  H141  1  0.81600000  0.21130000  0.28190000  1.0 0.0901130883
H  H142  1  0.92940000  0.53410000  0.71810000  1.0 0.0901130883
H  H143  1  0.46130000  0.67940000  0.89530000  1.0 0.0901130883
H  H144  1  0.78410000  0.56600000  0.10470000  1.0 0.0901130883
C  C1  1  0.61880000  0.46710000  0.63050000  1.0 0.1036070552
C  C2  1  0.83660000  0.98830000  0.36950000  1.0 0.1036070552
C  C3  1  0.23830000  0.36880000  0.65170000  1.0 0.1036070552
C  C4  1  0.71710000  0.58660000  0.34830000  1.0 0.1036070552
C  C5  1  0.63120000  0.76170000  0.34830000  1.0 0.1036070552
C  C6  1  0.41340000  0.28290000  0.65170000  1.0 0.1036070552
C  C7  1  0.01170000  0.16340000  0.63050000  1.0 0.1036070552
C  C8  1  0.53290000  0.38120000  0.36950000  1.0 0.1036070552
C  C9  1  0.63120000  0.28290000  0.86950000  1.0 0.1036070552
C  C10  1  0.41340000  0.76170000  0.13050000  1.0 0.1036070552
C  C11  1  0.01170000  0.38120000  0.84830000  1.0 0.1036070552
C  C12  1  0.53290000  0.16340000  0.15170000  1.0 0.1036070552
C  C13  1  0.61880000  0.98830000  0.15170000  1.0 0.1036070552
C  C14  1  0.83660000  0.46710000  0.84830000  1.0 0.1036070552
C  C15  1  0.23830000  0.58660000  0.86950000  1.0 0.1036070552
C  C16  1  0.71710000  0.36880000  0.13050000  1.0 0.1036070552
C  C17  1  0.62460000  0.42190000  0.69090000  1.0 -0.1062696294
C  C18  1  0.73100000  0.93370000  0.30910000  1.0 -0.1062696294
C  C19  1  0.18370000  0.37460000  0.70270000  1.0 -0.1062696294
C  C20  1  0.67190000  0.48100000  0.29730000  1.0 -0.1046750164
C  C21  1  0.62540000  0.81630000  0.29730000  1.0 -0.1062696294
C  C22  1  0.51900000  0.32810000  0.70270000  1.0 -0.1062696294
C  C23  1  0.06630000  0.26900000  0.69090000  1.0 -0.1062696294
C  C24  1  0.57810000  0.37540000  0.30910000  1.0 -0.1062696294
C  C25  1  0.62540000  0.32810000  0.80910000  1.0 -0.1062696294
C  C26  1  0.51900000  0.81630000  0.19090000  1.0 -0.1062696294
C  C27  1  0.06630000  0.37540000  0.79730000  1.0 -0.1062696294
C  C28  1  0.57810000  0.26900000  0.20270000  1.0 -0.1062696294
C  C29  1  0.62460000  0.93370000  0.20270000  1.0 -0.1062696294
C  C30  1  0.73100000  0.42190000  0.79730000  1.0 -0.1062696294
C  C31  1  0.18370000  0.48100000  0.80910000  1.0 -0.1062696294
C  C32  1  0.67190000  0.37460000  0.19090000  1.0 -0.1062696294
C  C33  1  0.73280000  0.47130000  0.73850000  1.0 0.0361660048
C  C34  1  0.73280000  0.99430000  0.26150000  1.0 0.0361660048
C  C35  1  0.24430000  0.48280000  0.76150000  1.0 0.0361660048
C  C36  1  0.72130000  0.48280000  0.23850000  1.0 0.0361660048
C  C37  1  0.51720000  0.75570000  0.23850000  1.0 0.0361660048
C  C38  1  0.51720000  0.27870000  0.76150000  1.0 0.0361660048
C  C39  1  0.00570000  0.26720000  0.73850000  1.0 0.0361660048
C  C40  1  0.52870000  0.26720000  0.26150000  1.0 0.0361660048
C  C41  1  0.84550000  0.57270000  0.72720000  1.0 -0.0160148743
C  C42  1  0.84550000  0.11830000  0.27280000  1.0 -0.0160148743
C  C43  1  0.36830000  0.59550000  0.77280000  1.0 -0.0160148743
C  C44  1  0.82270000  0.59550000  0.22720000  1.0 -0.0160148743
C  C45  1  0.40450000  0.63170000  0.22720000  1.0 -0.0160148743
C  C46  1  0.40450000  0.17730000  0.77280000  1.0 -0.0160148743
C  C47  1  0.88170000  0.15450000  0.72720000  1.0 -0.0160148743
C  C48  1  0.42730000  0.15450000  0.27280000  1.0 -0.0160148743
C  C49  1  0.72750000  0.56640000  0.61570000  1.0 -0.1913077003
C  C50  1  0.95070000  0.11180000  0.38430000  1.0 -0.1913077003
C  C51  1  0.36180000  0.47750000  0.66110000  1.0 -0.1913077003
C  C52  1  0.81640000  0.70070000  0.33890000  1.0 -0.1913077003
C  C53  1  0.52250000  0.63820000  0.33890000  1.0 -0.1913077003
C  C54  1  0.29930000  0.18360000  0.66110000  1.0 -0.1913077003
C  C55  1  0.88820000  0.04930000  0.61570000  1.0 -0.1913077003
C  C56  1  0.43360000  0.27250000  0.38430000  1.0 -0.1913077003
C  C57  1  0.52250000  0.18360000  0.88430000  1.0 -0.1913077003
C  C58  1  0.29930000  0.63820000  0.11570000  1.0 -0.1913077003
C  C59  1  0.88820000  0.27250000  0.83890000  1.0 -0.1913077003
C  C60  1  0.43360000  0.04930000  0.16110000  1.0 -0.1913077003
C  C61  1  0.72750000  0.11180000  0.16110000  1.0 -0.1913077003
C  C62  1  0.95070000  0.56640000  0.83890000  1.0 -0.1913077003
C  C63  1  0.36180000  0.70070000  0.88430000  1.0 -0.1913077003
C  C64  1  0.81640000  0.47750000  0.11570000  1.0 -0.1913077003
C  C65  1  0.83670000  0.64200000  0.69150000  1.0 -0.1300963929
C  C66  1  0.95050000  0.14520000  0.30850000  1.0 -0.1300963929
C  C67  1  0.39520000  0.58670000  0.69470000  1.0 -0.1300963929
C  C68  1  0.89200000  0.70050000  0.30530000  1.0 -0.1300963929
C  C69  1  0.41330000  0.60480000  0.30530000  1.0 -0.1300963929
C  C70  1  0.29950000  0.10800000  0.69470000  1.0 -0.1300963929
C  C71  1  0.85480000  0.04950000  0.69150000  1.0 -0.1300963929
C  C72  1  0.35800000  0.16330000  0.30850000  1.0 -0.1300963929
C  C73  1  0.41330000  0.10800000  0.80850000  1.0 -0.1300963929
C  C74  1  0.29950000  0.60480000  0.19150000  1.0 -0.1300963929
C  C75  1  0.85480000  0.16330000  0.80530000  1.0 -0.1300963929
C  C76  1  0.35800000  0.04950000  0.19470000  1.0 -0.1300963929
C  C77  1  0.83670000  0.14520000  0.19470000  1.0 -0.1300963929
C  C78  1  0.95050000  0.64200000  0.80530000  1.0 -0.1300963929
C  C79  1  0.39520000  0.70050000  0.80850000  1.0 -0.1300963929
C  C80  1  0.89200000  0.58670000  0.19150000  1.0 -0.1300963929
C  C81  1  0.82690000  0.58690000  0.64680000  1.0 -0.1300963929
C  C82  1  0.94010000  0.18010000  0.35320000  1.0 -0.1300963929
C  C83  1  0.43010000  0.57690000  0.74000000  1.0 -0.1300963929
C  C84  1  0.83690000  0.69010000  0.26000000  1.0 -0.1300963929
C  C85  1  0.42310000  0.56990000  0.26000000  1.0 -0.1300963929
C  C86  1  0.30990000  0.16310000  0.74000000  1.0 -0.1300963929
C  C87  1  0.81990000  0.05990000  0.64680000  1.0 -0.1300963929
C  C88  1  0.41310000  0.17310000  0.35320000  1.0 -0.1300963929
C  C89  1  0.42310000  0.16310000  0.85320000  1.0 -0.1300963929
C  C90  1  0.30990000  0.56990000  0.14680000  1.0 -0.1300963929
C  C91  1  0.81990000  0.17310000  0.76000000  1.0 -0.1300963929
C  C92  1  0.41310000  0.05990000  0.24000000  1.0 -0.1300963929
C  C93  1  0.82690000  0.18010000  0.24000000  1.0 -0.1300963929
C  C94  1  0.94010000  0.58690000  0.76000000  1.0 -0.1300963929
C  C95  1  0.43010000  0.69010000  0.85320000  1.0 -0.1300963929
C  C96  1  0.83690000  0.57690000  0.14680000  1.0 -0.1300963929
I  I1  1  0.29222000  0.37500000  0.41722000  1.0 -0.3908943152
I  I2  1  0.95778000  0.87500000  0.58278000  1.0 -0.3908943152
I  I3  1  0.12500000  0.04222000  0.41722000  1.0 -0.3908943152
I  I4  1  0.62500000  0.70778000  0.58278000  1.0 -0.3908943152
I  I5  1  0.95778000  0.37500000  0.08278000  1.0 -0.3908943152
I  I6  1  0.29222000  0.87500000  0.91722000  1.0 -0.3908943152
I  I7  1  0.12500000  0.70778000  0.08278000  1.0 -0.3908943152
I  I8  1  0.62500000  0.04222000  0.91722000  1.0 -0.3908943152
N  N1  1  0.51830000  0.42260000  0.58490000  1.0 -0.1730385022
N  N2  1  0.83770000  0.93340000  0.41510000  1.0 -0.1730385022
N  N3  1  0.18340000  0.26830000  0.59570000  1.0 -0.1730385022
N  N4  1  0.67260000  0.58770000  0.40430000  1.0 -0.1730385022
N  N5  1  0.73170000  0.81660000  0.40430000  1.0 -0.1730385022
N  N6  1  0.41230000  0.32740000  0.59570000  1.0 -0.1730385022
N  N7  1  0.06660000  0.16230000  0.58490000  1.0 -0.1730385022
N  N8  1  0.57740000  0.48170000  0.41510000  1.0 -0.1730385022
N  N9  1  0.73170000  0.32740000  0.91510000  1.0 -0.1730385022
N  N10  1  0.41230000  0.81660000  0.08490000  1.0 -0.1730385022
N  N11  1  0.06660000  0.48170000  0.90430000  1.0 -0.1730385022
N  N12  1  0.57740000  0.16230000  0.09570000  1.0 -0.1730385022
N  N13  1  0.51830000  0.93340000  0.09570000  1.0 -0.1730385022
N  N14  1  0.83770000  0.42260000  0.90430000  1.0 -0.1730385022
N  N15  1  0.18340000  0.58770000  0.91510000  1.0 -0.1730385022
N  N16  1  0.67260000  0.26830000  0.08490000  1.0 -0.1730385022
