# DDEC6 charges by PACMAN v1.1 (https://github.com/mtap-research/PACMAN-charge/)
data_REBRUM_ASR_pacman
_symmetry_space_group_name_H-M   'P 1'
_cell_length_a   14.57570000
_cell_length_b   14.57570000
_cell_length_c   14.57570000
_cell_angle_alpha   109.47100000
_cell_angle_beta   109.47100000
_cell_angle_gamma   109.47100000
_symmetry_Int_Tables_number   1
_chemical_formula_structural   Ga3(PO4)4
_chemical_formula_sum   'Ga9 P12 O48'
_cell_volume   2383.80057286
_cell_formula_units_Z   3
loop_
 _symmetry_equiv_pos_site_id
 _symmetry_equiv_pos_as_xyz
  1  'x, y, z'
loop_
 _atom_site_type_symbol
 _atom_site_label
 _atom_site_symmetry_multiplicity
 _atom_site_fract_x
 _atom_site_fract_y
 _atom_site_fract_z
 _atom_site_occupancy
 _atom_site_charge
Ga  Ga1  1  0.00000000  0.50000000  0.50000000  1.0 1.4480281239
Ga  Ga2  1  0.50000000  0.00000000  0.50000000  1.0 1.4623914128
Ga  Ga3  1  0.50000000  0.50000000  0.00000000  1.0 1.4623914128
Ga  Ga4  1  0.25000000  0.75000000  0.50000000  1.0 1.4856712704
Ga  Ga5  1  0.75000000  0.25000000  0.50000000  1.0 1.4782554274
Ga  Ga6  1  0.50000000  0.25000000  0.75000000  1.0 1.4856712704
Ga  Ga7  1  0.50000000  0.75000000  0.25000000  1.0 1.4856712704
Ga  Ga8  1  0.75000000  0.50000000  0.25000000  1.0 1.4856712704
Ga  Ga9  1  0.25000000  0.50000000  0.75000000  1.0 1.4856712704
P  P1  1  0.00000000  0.55209000  0.30745000  1.0 1.2978550558
P  P2  1  0.24464000  0.69255000  0.69255000  1.0 1.2913559919
P  P3  1  0.75536000  0.44791000  0.44791000  1.0 1.2913559919
P  P4  1  0.00000000  0.30745000  0.55209000  1.0 1.2978550558
P  P5  1  0.30745000  0.00000000  0.55209000  1.0 1.2913559919
P  P6  1  0.69255000  0.24464000  0.69255000  1.0 1.2913559919
P  P7  1  0.44791000  0.75536000  0.44791000  1.0 1.2913559919
P  P8  1  0.55209000  0.00000000  0.30745000  1.0 1.2913559919
P  P9  1  0.55209000  0.30745000  0.00000000  1.0 1.2913559919
P  P10  1  0.69255000  0.69255000  0.24464000  1.0 1.2913559919
P  P11  1  0.44791000  0.44791000  0.75536000  1.0 1.2913559919
P  P12  1  0.30745000  0.55209000  0.00000000  1.0 1.2913559919
O  O1  1  0.00000000  0.48702000  0.20178000  1.0 -0.4373993034
O  O2  1  0.28524000  0.79822000  0.79822000  1.0 -0.4373993034
O  O3  1  0.71476000  0.51298000  0.51298000  1.0 -0.4373993034
O  O4  1  0.00000000  0.20178000  0.48702000  1.0 -0.4373993034
O  O5  1  0.20178000  0.00000000  0.48702000  1.0 -0.4373993034
O  O6  1  0.79822000  0.28524000  0.79822000  1.0 -0.4340169961
O  O7  1  0.51298000  0.71476000  0.51298000  1.0 -0.4373993034
O  O8  1  0.48702000  0.00000000  0.20178000  1.0 -0.4373993034
O  O9  1  0.48702000  0.20178000  0.00000000  1.0 -0.4340169961
O  O10  1  0.79822000  0.79822000  0.28524000  1.0 -0.4373993034
O  O11  1  0.51298000  0.51298000  0.71476000  1.0 -0.4373993034
O  O12  1  0.20178000  0.48702000  0.00000000  1.0 -0.4373993034
O  O13  1  0.10171000  0.67049000  0.38260000  1.0 -0.6468867439
O  O14  1  0.28789000  0.71911000  0.61740000  1.0 -0.6468867439
O  O15  1  0.71211000  0.32951000  0.43122000  1.0 -0.6468867439
O  O16  1  0.89829000  0.28089000  0.56878000  1.0 -0.6468867439
O  O17  1  0.38260000  0.10171000  0.67049000  1.0 -0.6468867439
O  O18  1  0.61740000  0.28789000  0.71911000  1.0 -0.6468867439
O  O19  1  0.43122000  0.71211000  0.32951000  1.0 -0.6468867439
O  O20  1  0.56878000  0.89829000  0.28089000  1.0 -0.6468867439
O  O21  1  0.67049000  0.38260000  0.10171000  1.0 -0.644360804
O  O22  1  0.71911000  0.61740000  0.28789000  1.0 -0.6468867439
O  O23  1  0.32951000  0.43122000  0.71211000  1.0 -0.6468867439
O  O24  1  0.28089000  0.56878000  0.89829000  1.0 -0.6468867439
O  O25  1  0.67049000  0.10171000  0.38260000  1.0 -0.644360804
O  O26  1  0.71911000  0.28789000  0.61740000  1.0 -0.644360804
O  O27  1  0.32951000  0.71211000  0.43122000  1.0 -0.6468867439
O  O28  1  0.28089000  0.89829000  0.56878000  1.0 -0.6468867439
O  O29  1  0.10171000  0.38260000  0.67049000  1.0 -0.6468867439
O  O30  1  0.28789000  0.61740000  0.71911000  1.0 -0.6468867439
O  O31  1  0.71211000  0.43122000  0.32951000  1.0 -0.6468867439
O  O32  1  0.89829000  0.56878000  0.28089000  1.0 -0.6468867439
O  O33  1  0.38260000  0.67049000  0.10171000  1.0 -0.6468867439
O  O34  1  0.61740000  0.71911000  0.28789000  1.0 -0.6468867439
O  O35  1  0.43122000  0.32951000  0.71211000  1.0 -0.6468867439
O  O36  1  0.56878000  0.28089000  0.89829000  1.0 -0.6468867439
O  O37  1  0.00000000  0.48748000  0.37172000  1.0 -0.6690801417
O  O38  1  0.11576000  0.62828000  0.62828000  1.0 -0.6690801417
O  O39  1  0.88424000  0.51252000  0.51252000  1.0 -0.6690801417
O  O40  1  0.00000000  0.37172000  0.48748000  1.0 -0.6690801417
O  O41  1  0.37172000  0.00000000  0.48748000  1.0 -0.6690801417
O  O42  1  0.62828000  0.11576000  0.62828000  1.0 -0.6690801417
O  O43  1  0.51252000  0.88424000  0.51252000  1.0 -0.6690801417
O  O44  1  0.48748000  0.00000000  0.37172000  1.0 -0.6690801417
O  O45  1  0.48748000  0.37172000  0.00000000  1.0 -0.6690801417
O  O46  1  0.62828000  0.62828000  0.11576000  1.0 -0.6690801417
O  O47  1  0.51252000  0.51252000  0.88424000  1.0 -0.6690801417
O  O48  1  0.37172000  0.48748000  0.00000000  1.0 -0.6690801417
