# DDEC6 charges by PACMAN v1.1 (https://github.com/mtap-research/PACMAN-charge/)
data_REBRIA_FSR_pacman
_symmetry_space_group_name_H-M   'P 1'
_cell_length_a   14.52560000
_cell_length_b   14.52560000
_cell_length_c   14.52560000
_cell_angle_alpha   109.47100000
_cell_angle_beta   109.47100000
_cell_angle_gamma   109.47100000
_symmetry_Int_Tables_number   1
_chemical_formula_structural   Al3(PO4)4
_chemical_formula_sum   'Al9 P12 O48'
_cell_volume   2359.30397035
_cell_formula_units_Z   3
loop_
 _symmetry_equiv_pos_site_id
 _symmetry_equiv_pos_as_xyz
  1  'x, y, z'
loop_
 _atom_site_type_symbol
 _atom_site_label
 _atom_site_symmetry_multiplicity
 _atom_site_fract_x
 _atom_site_fract_y
 _atom_site_fract_z
 _atom_site_occupancy
 _atom_site_charge
Al  Al1  1  0.50000000  0.00000000  0.50000000  1.0 1.6966123926
Al  Al2  1  0.50000000  0.50000000  0.00000000  1.0 1.6851166832
Al  Al3  1  0.00000000  0.50000000  0.50000000  1.0 1.6966123926
Al  Al4  1  0.50000000  0.25000000  0.75000000  1.0 1.7488915074
Al  Al5  1  0.50000000  0.75000000  0.25000000  1.0 1.7488915074
Al  Al6  1  0.75000000  0.50000000  0.25000000  1.0 1.7315689671
Al  Al7  1  0.25000000  0.50000000  0.75000000  1.0 1.7488915074
Al  Al8  1  0.25000000  0.75000000  0.50000000  1.0 1.7488915074
Al  Al9  1  0.75000000  0.25000000  0.50000000  1.0 1.7488915074
P  P1  1  0.55790000  0.24508000  0.55790000  1.0 1.323810612
P  P2  1  0.68718000  0.00000000  0.44210000  1.0 1.323810612
P  P3  1  0.31282000  0.75492000  0.31282000  1.0 1.3278868544
P  P4  1  0.44210000  0.00000000  0.68718000  1.0 1.3278868544
P  P5  1  0.55790000  0.55790000  0.24508000  1.0 1.3278868544
P  P6  1  0.44210000  0.68718000  0.00000000  1.0 1.3278868544
P  P7  1  0.31282000  0.31282000  0.75492000  1.0 1.323810612
P  P8  1  0.68718000  0.44210000  0.00000000  1.0 1.3278868544
P  P9  1  0.24508000  0.55790000  0.55790000  1.0 1.3278868544
P  P10  1  0.00000000  0.44210000  0.68718000  1.0 1.3278868544
P  P11  1  0.75492000  0.31282000  0.31282000  1.0 1.3278868544
P  P12  1  0.00000000  0.68718000  0.44210000  1.0 1.3278868544
O  O1  1  0.49530000  0.28800000  0.49530000  1.0 -0.4599953809
O  O2  1  0.79270000  0.00000000  0.50470000  1.0 -0.4599953809
O  O3  1  0.20730000  0.71200000  0.20730000  1.0 -0.45123371
O  O4  1  0.50470000  0.00000000  0.79270000  1.0 -0.4599953809
O  O5  1  0.49530000  0.49530000  0.28800000  1.0 -0.4599953809
O  O6  1  0.50470000  0.79270000  0.00000000  1.0 -0.4599953809
O  O7  1  0.20730000  0.20730000  0.71200000  1.0 -0.4599953809
O  O8  1  0.79270000  0.50470000  0.00000000  1.0 -0.4599953809
O  O9  1  0.28800000  0.49530000  0.49530000  1.0 -0.45123371
O  O10  1  0.00000000  0.50470000  0.79270000  1.0 -0.45123371
O  O11  1  0.71200000  0.20730000  0.20730000  1.0 -0.4599953809
O  O12  1  0.00000000  0.79270000  0.50470000  1.0 -0.4599953809
O  O13  1  0.57530000  0.28670000  0.67760000  1.0 -0.7109840971
O  O14  1  0.60910000  0.89770000  0.32240000  1.0 -0.7109840971
O  O15  1  0.39090000  0.71330000  0.28860000  1.0 -0.717599566
O  O16  1  0.42470000  0.10230000  0.71140000  1.0 -0.7109840971
O  O17  1  0.67760000  0.57530000  0.28670000  1.0 -0.7109840971
O  O18  1  0.32240000  0.60910000  0.89770000  1.0 -0.717599566
O  O19  1  0.28860000  0.39090000  0.71330000  1.0 -0.7109840971
O  O20  1  0.71140000  0.42470000  0.10230000  1.0 -0.7109840971
O  O21  1  0.28670000  0.67760000  0.57530000  1.0 -0.7109840971
O  O22  1  0.89770000  0.32240000  0.60910000  1.0 -0.7109840971
O  O23  1  0.71330000  0.28860000  0.39090000  1.0 -0.7109840971
O  O24  1  0.10230000  0.71140000  0.42470000  1.0 -0.7109840971
O  O25  1  0.28670000  0.57530000  0.67760000  1.0 -0.717599566
O  O26  1  0.89770000  0.60910000  0.32240000  1.0 -0.7109840971
O  O27  1  0.71330000  0.39090000  0.28860000  1.0 -0.7109840971
O  O28  1  0.10230000  0.42470000  0.71140000  1.0 -0.7109840971
O  O29  1  0.57530000  0.67760000  0.28670000  1.0 -0.7109840971
O  O30  1  0.60910000  0.32240000  0.89770000  1.0 -0.7109840971
O  O31  1  0.39090000  0.28860000  0.71330000  1.0 -0.7109840971
O  O32  1  0.42470000  0.71140000  0.10230000  1.0 -0.7109840971
O  O33  1  0.67760000  0.28670000  0.57530000  1.0 -0.7109840971
O  O34  1  0.32240000  0.89770000  0.60910000  1.0 -0.7109840971
O  O35  1  0.28860000  0.71330000  0.39090000  1.0 -0.717599566
O  O36  1  0.71140000  0.10230000  0.42470000  1.0 -0.7109840971
O  O37  1  0.49400000  0.11620000  0.49400000  1.0 -0.7381511507
O  O38  1  0.62220000  0.00000000  0.50600000  1.0 -0.7469581318
O  O39  1  0.37780000  0.88380000  0.37780000  1.0 -0.7381511507
O  O40  1  0.50600000  0.00000000  0.62220000  1.0 -0.7381511507
O  O41  1  0.49400000  0.49400000  0.11620000  1.0 -0.7381511507
O  O42  1  0.50600000  0.62220000  0.00000000  1.0 -0.7381511507
O  O43  1  0.37780000  0.37780000  0.88380000  1.0 -0.7381511507
O  O44  1  0.62220000  0.50600000  0.00000000  1.0 -0.7469581318
O  O45  1  0.11620000  0.49400000  0.49400000  1.0 -0.7469581318
O  O46  1  0.00000000  0.50600000  0.62220000  1.0 -0.7469581318
O  O47  1  0.88380000  0.37780000  0.37780000  1.0 -0.7381511507
O  O48  1  0.00000000  0.62220000  0.50600000  1.0 -0.7381511507
