# DDEC6 charges by PACMAN v1.1 (https://github.com/mtap-research/PACMAN-charge/)
data_REBROG_ASR_pacman
_symmetry_space_group_name_H-M   'P 1'
_cell_length_a   14.53400000
_cell_length_b   14.53400000
_cell_length_c   14.53400000
_cell_angle_alpha   109.47100000
_cell_angle_beta   109.47100000
_cell_angle_gamma   109.47100000
_symmetry_Int_Tables_number   1
_chemical_formula_structural   Al3(PO4)4
_chemical_formula_sum   'Al9 P12 O48'
_cell_volume   2363.39941897
_cell_formula_units_Z   3
loop_
 _symmetry_equiv_pos_site_id
 _symmetry_equiv_pos_as_xyz
  1  'x, y, z'
loop_
 _atom_site_type_symbol
 _atom_site_label
 _atom_site_symmetry_multiplicity
 _atom_site_fract_x
 _atom_site_fract_y
 _atom_site_fract_z
 _atom_site_occupancy
 _atom_site_charge
Al  Al1  1  0.00000000  0.50000000  0.50000000  1.0 1.6865038276
Al  Al2  1  0.50000000  0.00000000  0.50000000  1.0 1.6845439076
Al  Al3  1  0.50000000  0.50000000  0.00000000  1.0 1.6735791564
Al  Al4  1  0.75000000  0.25000000  0.50000000  1.0 1.7833696484
Al  Al5  1  0.25000000  0.75000000  0.50000000  1.0 1.7833696484
Al  Al6  1  0.50000000  0.75000000  0.25000000  1.0 1.7833696484
Al  Al7  1  0.50000000  0.25000000  0.75000000  1.0 1.7833696484
Al  Al8  1  0.25000000  0.50000000  0.75000000  1.0 1.7850905061
Al  Al9  1  0.75000000  0.50000000  0.25000000  1.0 1.7833696484
P  P1  1  0.00000000  0.44869000  0.69245000  1.0 1.3085904176
P  P2  1  0.75624000  0.30755000  0.30755000  1.0 1.3085904176
P  P3  1  0.24376000  0.55131000  0.55131000  1.0 1.3085904176
P  P4  1  0.00000000  0.69245000  0.44869000  1.0 1.3085904176
P  P5  1  0.69245000  0.00000000  0.44869000  1.0 1.3085904176
P  P6  1  0.30755000  0.75624000  0.30755000  1.0 1.3085904176
P  P7  1  0.55131000  0.24376000  0.55131000  1.0 1.3085904176
P  P8  1  0.44869000  0.00000000  0.69245000  1.0 1.3085904176
P  P9  1  0.44869000  0.69245000  0.00000000  1.0 1.3153677583
P  P10  1  0.30755000  0.30755000  0.75624000  1.0 1.3085904176
P  P11  1  0.55131000  0.55131000  0.24376000  1.0 1.3085904176
P  P12  1  0.69245000  0.44869000  0.00000000  1.0 1.3085904176
O  O1  1  0.00000000  0.51610000  0.79770000  1.0 -0.4417391568
O  O2  1  0.71840000  0.20230000  0.20230000  1.0 -0.4417391568
O  O3  1  0.28160000  0.48390000  0.48390000  1.0 -0.4417391568
O  O4  1  0.00000000  0.79770000  0.51610000  1.0 -0.4417391568
O  O5  1  0.79770000  0.00000000  0.51610000  1.0 -0.4417391568
O  O6  1  0.20230000  0.71840000  0.20230000  1.0 -0.4417391568
O  O7  1  0.48390000  0.28160000  0.48390000  1.0 -0.4417391568
O  O8  1  0.51610000  0.00000000  0.79770000  1.0 -0.4417391568
O  O9  1  0.51610000  0.79770000  0.00000000  1.0 -0.4417391568
O  O10  1  0.20230000  0.20230000  0.71840000  1.0 -0.4417391568
O  O11  1  0.48390000  0.48390000  0.28160000  1.0 -0.4417391568
O  O12  1  0.79770000  0.51610000  0.00000000  1.0 -0.4417391568
O  O13  1  0.89750000  0.33140000  0.61860000  1.0 -0.7183541904
O  O14  1  0.71280000  0.27890000  0.38140000  1.0 -0.7183541904
O  O15  1  0.28720000  0.66860000  0.56610000  1.0 -0.7183541904
O  O16  1  0.10250000  0.72110000  0.43390000  1.0 -0.7183541904
O  O17  1  0.61860000  0.89750000  0.33140000  1.0 -0.7183541904
O  O18  1  0.38140000  0.71280000  0.27890000  1.0 -0.7183541904
O  O19  1  0.56610000  0.28720000  0.66860000  1.0 -0.7183541904
O  O20  1  0.43390000  0.10250000  0.72110000  1.0 -0.7183541904
O  O21  1  0.33140000  0.61860000  0.89750000  1.0 -0.7183541904
O  O22  1  0.27890000  0.38140000  0.71280000  1.0 -0.7183541904
O  O23  1  0.66860000  0.56610000  0.28720000  1.0 -0.7183541904
O  O24  1  0.72110000  0.43390000  0.10250000  1.0 -0.7183541904
O  O25  1  0.33140000  0.89750000  0.61860000  1.0 -0.7183541904
O  O26  1  0.27890000  0.71280000  0.38140000  1.0 -0.7183541904
O  O27  1  0.66860000  0.28720000  0.56610000  1.0 -0.7183541904
O  O28  1  0.72110000  0.10250000  0.43390000  1.0 -0.7183541904
O  O29  1  0.89750000  0.61860000  0.33140000  1.0 -0.7183541904
O  O30  1  0.71280000  0.38140000  0.27890000  1.0 -0.7183541904
O  O31  1  0.28720000  0.56610000  0.66860000  1.0 -0.7183541904
O  O32  1  0.10250000  0.43390000  0.72110000  1.0 -0.7183541904
O  O33  1  0.61860000  0.33140000  0.89750000  1.0 -0.7183541904
O  O34  1  0.38140000  0.27890000  0.71280000  1.0 -0.7183541904
O  O35  1  0.56610000  0.66860000  0.28720000  1.0 -0.7183541904
O  O36  1  0.43390000  0.72110000  0.10250000  1.0 -0.7183541904
O  O37  1  0.00000000  0.51032000  0.62408000  1.0 -0.7418236733
O  O38  1  0.88624000  0.37592000  0.37592000  1.0 -0.7418236733
O  O39  1  0.11376000  0.48968000  0.48968000  1.0 -0.7418236733
O  O40  1  0.00000000  0.62408000  0.51032000  1.0 -0.7418236733
O  O41  1  0.62408000  0.00000000  0.51032000  1.0 -0.7418236733
O  O42  1  0.37592000  0.88624000  0.37592000  1.0 -0.7418236733
O  O43  1  0.48968000  0.11376000  0.48968000  1.0 -0.7418236733
O  O44  1  0.51032000  0.00000000  0.62408000  1.0 -0.7418236733
O  O45  1  0.51032000  0.62408000  0.00000000  1.0 -0.7462148269
O  O46  1  0.37592000  0.37592000  0.88624000  1.0 -0.7418236733
O  O47  1  0.48968000  0.48968000  0.11376000  1.0 -0.7462148269
O  O48  1  0.62408000  0.51032000  0.00000000  1.0 -0.7462148269
