# DDEC6 charges by PACMAN v1.1 (https://github.com/mtap-research/PACMAN-charge/)
data_REBSIB_FSR_pacman
_symmetry_space_group_name_H-M   'P 1'
_cell_length_a   14.58170000
_cell_length_b   14.58170000
_cell_length_c   14.58170000
_cell_angle_alpha   109.47100000
_cell_angle_beta   109.47100000
_cell_angle_gamma   109.47100000
_symmetry_Int_Tables_number   1
_chemical_formula_structural   Ga3(PO4)4
_chemical_formula_sum   'Ga9 P12 O48'
_cell_volume   2386.74561671
_cell_formula_units_Z   3
loop_
 _symmetry_equiv_pos_site_id
 _symmetry_equiv_pos_as_xyz
  1  'x, y, z'
loop_
 _atom_site_type_symbol
 _atom_site_label
 _atom_site_symmetry_multiplicity
 _atom_site_fract_x
 _atom_site_fract_y
 _atom_site_fract_z
 _atom_site_occupancy
 _atom_site_charge
Ga  Ga1  1  0.50000000  0.00000000  0.50000000  1.0 1.4718460346
Ga  Ga2  1  0.50000000  0.50000000  0.00000000  1.0 1.4718460346
Ga  Ga3  1  0.00000000  0.50000000  0.50000000  1.0 1.4718460346
Ga  Ga4  1  0.50000000  0.75000000  0.25000000  1.0 1.4829402868
Ga  Ga5  1  0.50000000  0.25000000  0.75000000  1.0 1.4829402868
Ga  Ga6  1  0.25000000  0.50000000  0.75000000  1.0 1.4829402868
Ga  Ga7  1  0.75000000  0.50000000  0.25000000  1.0 1.4829402868
Ga  Ga8  1  0.75000000  0.25000000  0.50000000  1.0 1.4829402868
Ga  Ga9  1  0.25000000  0.75000000  0.50000000  1.0 1.4829402868
P  P1  1  0.44286000  0.75276000  0.44286000  1.0 1.3022768243
P  P2  1  0.30990000  0.00000000  0.55714000  1.0 1.3022768243
P  P3  1  0.69010000  0.24724000  0.69010000  1.0 1.3022768243
P  P4  1  0.55714000  0.00000000  0.30990000  1.0 1.3022768243
P  P5  1  0.44286000  0.44286000  0.75276000  1.0 1.3022768243
P  P6  1  0.55714000  0.30990000  0.00000000  1.0 1.3022768243
P  P7  1  0.69010000  0.69010000  0.24724000  1.0 1.3022768243
P  P8  1  0.30990000  0.55714000  0.00000000  1.0 1.3022768243
P  P9  1  0.75276000  0.44286000  0.44286000  1.0 1.3022768243
P  P10  1  0.00000000  0.55714000  0.30990000  1.0 1.306453894
P  P11  1  0.24724000  0.69010000  0.69010000  1.0 1.3022768243
P  P12  1  0.00000000  0.30990000  0.55714000  1.0 1.306453894
O  O1  1  0.50287000  0.70570000  0.50287000  1.0 -0.4407343219
O  O2  1  0.20283000  0.00000000  0.49713000  1.0 -0.4407343219
O  O3  1  0.79717000  0.29430000  0.79717000  1.0 -0.4407343219
O  O4  1  0.49713000  0.00000000  0.20283000  1.0 -0.4407343219
O  O5  1  0.50287000  0.50287000  0.70570000  1.0 -0.4407343219
O  O6  1  0.49713000  0.20283000  0.00000000  1.0 -0.4407343219
O  O7  1  0.79717000  0.79717000  0.29430000  1.0 -0.4407343219
O  O8  1  0.20283000  0.49713000  0.00000000  1.0 -0.4407343219
O  O9  1  0.70570000  0.50287000  0.50287000  1.0 -0.4407343219
O  O10  1  0.00000000  0.49713000  0.20283000  1.0 -0.4457372323
O  O11  1  0.29430000  0.79717000  0.79717000  1.0 -0.4407343219
O  O12  1  0.00000000  0.20283000  0.49713000  1.0 -0.4407343219
O  O13  1  0.42385000  0.71099000  0.32280000  1.0 -0.6451434389
O  O14  1  0.38819000  0.10105000  0.67720000  1.0 -0.6451434389
O  O15  1  0.61181000  0.28901000  0.71286000  1.0 -0.6442790687
O  O16  1  0.57615000  0.89895000  0.28714000  1.0 -0.6442790687
O  O17  1  0.32280000  0.42385000  0.71099000  1.0 -0.6451434389
O  O18  1  0.67720000  0.38819000  0.10105000  1.0 -0.6442790687
O  O19  1  0.71286000  0.61181000  0.28901000  1.0 -0.6451434389
O  O20  1  0.28714000  0.57615000  0.89895000  1.0 -0.6451434389
O  O21  1  0.71099000  0.32280000  0.42385000  1.0 -0.6442790687
O  O22  1  0.10105000  0.67720000  0.38819000  1.0 -0.6451434389
O  O23  1  0.28901000  0.71286000  0.61181000  1.0 -0.6451434389
O  O24  1  0.89895000  0.28714000  0.57615000  1.0 -0.6442790687
O  O25  1  0.71099000  0.42385000  0.32280000  1.0 -0.6442790687
O  O26  1  0.10105000  0.38819000  0.67720000  1.0 -0.6451434389
O  O27  1  0.28901000  0.61181000  0.71286000  1.0 -0.6451434389
O  O28  1  0.89895000  0.57615000  0.28714000  1.0 -0.6442790687
O  O29  1  0.42385000  0.32280000  0.71099000  1.0 -0.6451434389
O  O30  1  0.38819000  0.67720000  0.10105000  1.0 -0.6451434389
O  O31  1  0.61181000  0.71286000  0.28901000  1.0 -0.6442790687
O  O32  1  0.57615000  0.28714000  0.89895000  1.0 -0.6442790687
O  O33  1  0.32280000  0.71099000  0.42385000  1.0 -0.6451434389
O  O34  1  0.67720000  0.10105000  0.38819000  1.0 -0.6442790687
O  O35  1  0.71286000  0.28901000  0.61181000  1.0 -0.6442790687
O  O36  1  0.28714000  0.89895000  0.57615000  1.0 -0.6451434389
O  O37  1  0.51171000  0.88144000  0.51171000  1.0 -0.6812609222
O  O38  1  0.36973000  0.00000000  0.48829000  1.0 -0.6812609222
O  O39  1  0.63027000  0.11856000  0.63027000  1.0 -0.6812609222
O  O40  1  0.48829000  0.00000000  0.36973000  1.0 -0.6812609222
O  O41  1  0.51171000  0.51171000  0.88144000  1.0 -0.6812609222
O  O42  1  0.48829000  0.36973000  0.00000000  1.0 -0.6872364775
O  O43  1  0.63027000  0.63027000  0.11856000  1.0 -0.6812609222
O  O44  1  0.36973000  0.48829000  0.00000000  1.0 -0.6812609222
O  O45  1  0.88144000  0.51171000  0.51171000  1.0 -0.6812609222
O  O46  1  0.00000000  0.48829000  0.36973000  1.0 -0.6812609222
O  O47  1  0.11856000  0.63027000  0.63027000  1.0 -0.6812609222
O  O48  1  0.00000000  0.36973000  0.48829000  1.0 -0.6812609222
