# DDEC6 charges by PACMAN v1.1 (https://github.com/mtap-research/PACMAN-charge/)
data_REBSAT_FSR_pacman
_symmetry_space_group_name_H-M   'P 1'
_cell_length_a   14.53940000
_cell_length_b   14.53940000
_cell_length_c   14.53940000
_cell_angle_alpha   109.47100000
_cell_angle_beta   109.47100000
_cell_angle_gamma   109.47100000
_symmetry_Int_Tables_number   1
_chemical_formula_structural   Al3(PO4)4
_chemical_formula_sum   'Al9 P12 O48'
_cell_volume   2366.03470848
_cell_formula_units_Z   3
loop_
 _symmetry_equiv_pos_site_id
 _symmetry_equiv_pos_as_xyz
  1  'x, y, z'
loop_
 _atom_site_type_symbol
 _atom_site_label
 _atom_site_symmetry_multiplicity
 _atom_site_fract_x
 _atom_site_fract_y
 _atom_site_fract_z
 _atom_site_occupancy
 _atom_site_charge
Al  Al1  1  0.00000000  0.50000000  0.50000000  1.0 1.7002851669
Al  Al2  1  0.50000000  0.00000000  0.50000000  1.0 1.7002851669
Al  Al3  1  0.50000000  0.50000000  0.00000000  1.0 1.6929222052
Al  Al4  1  0.75000000  0.25000000  0.50000000  1.0 1.7911008064
Al  Al5  1  0.25000000  0.75000000  0.50000000  1.0 1.7911008064
Al  Al6  1  0.50000000  0.75000000  0.25000000  1.0 1.7911008064
Al  Al7  1  0.50000000  0.25000000  0.75000000  1.0 1.7911008064
Al  Al8  1  0.25000000  0.50000000  0.75000000  1.0 1.7911008064
Al  Al9  1  0.75000000  0.50000000  0.25000000  1.0 1.7802084391
P  P1  1  0.00000000  0.44794000  0.69306000  1.0 1.3001867716
P  P2  1  0.75488000  0.30694000  0.30694000  1.0 1.3001867716
P  P3  1  0.24512000  0.55206000  0.55206000  1.0 1.3001867716
P  P4  1  0.00000000  0.69306000  0.44794000  1.0 1.3001867716
P  P5  1  0.69306000  0.00000000  0.44794000  1.0 1.3001867716
P  P6  1  0.30694000  0.75488000  0.30694000  1.0 1.3001867716
P  P7  1  0.55206000  0.24512000  0.55206000  1.0 1.3001867716
P  P8  1  0.44794000  0.00000000  0.69306000  1.0 1.3001867716
P  P9  1  0.44794000  0.69306000  0.00000000  1.0 1.3064882462
P  P10  1  0.30694000  0.30694000  0.75488000  1.0 1.3001867716
P  P11  1  0.55206000  0.55206000  0.24512000  1.0 1.3001867716
P  P12  1  0.69306000  0.44794000  0.00000000  1.0 1.3064882462
O  O1  1  0.00000000  0.51400000  0.79820000  1.0 -0.4419311161
O  O2  1  0.71580000  0.20180000  0.20180000  1.0 -0.4419311161
O  O3  1  0.28420000  0.48600000  0.48600000  1.0 -0.4419311161
O  O4  1  0.00000000  0.79820000  0.51400000  1.0 -0.4419311161
O  O5  1  0.79820000  0.00000000  0.51400000  1.0 -0.4464029367
O  O6  1  0.20180000  0.71580000  0.20180000  1.0 -0.4419311161
O  O7  1  0.48600000  0.28420000  0.48600000  1.0 -0.4419311161
O  O8  1  0.51400000  0.00000000  0.79820000  1.0 -0.4464029367
O  O9  1  0.51400000  0.79820000  0.00000000  1.0 -0.4419311161
O  O10  1  0.20180000  0.20180000  0.71580000  1.0 -0.4419311161
O  O11  1  0.48600000  0.48600000  0.28420000  1.0 -0.4419311161
O  O12  1  0.79820000  0.51400000  0.00000000  1.0 -0.4419311161
O  O13  1  0.89852000  0.32932000  0.61840000  1.0 -0.7125560465
O  O14  1  0.71092000  0.28012000  0.38160000  1.0 -0.7125560465
O  O15  1  0.28908000  0.67068000  0.56920000  1.0 -0.7202385838
O  O16  1  0.10148000  0.71988000  0.43080000  1.0 -0.7202385838
O  O17  1  0.61840000  0.89852000  0.32932000  1.0 -0.7202385838
O  O18  1  0.38160000  0.71092000  0.28012000  1.0 -0.7125560465
O  O19  1  0.56920000  0.28908000  0.67068000  1.0 -0.7125560465
O  O20  1  0.43080000  0.10148000  0.71988000  1.0 -0.7125560465
O  O21  1  0.32932000  0.61840000  0.89852000  1.0 -0.7125560465
O  O22  1  0.28012000  0.38160000  0.71092000  1.0 -0.7125560465
O  O23  1  0.67068000  0.56920000  0.28908000  1.0 -0.7125560465
O  O24  1  0.71988000  0.43080000  0.10148000  1.0 -0.7125560465
O  O25  1  0.32932000  0.89852000  0.61840000  1.0 -0.7125560465
O  O26  1  0.28012000  0.71092000  0.38160000  1.0 -0.7125560465
O  O27  1  0.67068000  0.28908000  0.56920000  1.0 -0.7125560465
O  O28  1  0.71988000  0.10148000  0.43080000  1.0 -0.7125560465
O  O29  1  0.89852000  0.61840000  0.32932000  1.0 -0.7125560465
O  O30  1  0.71092000  0.38160000  0.28012000  1.0 -0.7125560465
O  O31  1  0.28908000  0.56920000  0.67068000  1.0 -0.7125560465
O  O32  1  0.10148000  0.43080000  0.71988000  1.0 -0.7202385838
O  O33  1  0.61840000  0.32932000  0.89852000  1.0 -0.7125560465
O  O34  1  0.38160000  0.28012000  0.71092000  1.0 -0.7125560465
O  O35  1  0.56920000  0.67068000  0.28908000  1.0 -0.7202385838
O  O36  1  0.43080000  0.71988000  0.10148000  1.0 -0.7125560465
O  O37  1  0.00000000  0.50940000  0.62540000  1.0 -0.7499150006
O  O38  1  0.88400000  0.37460000  0.37460000  1.0 -0.7499150006
O  O39  1  0.11600000  0.49060000  0.49060000  1.0 -0.7499150006
O  O40  1  0.00000000  0.62540000  0.50940000  1.0 -0.7499150006
O  O41  1  0.62540000  0.00000000  0.50940000  1.0 -0.7499150006
O  O42  1  0.37460000  0.88400000  0.37460000  1.0 -0.7499150006
O  O43  1  0.49060000  0.11600000  0.49060000  1.0 -0.7499150006
O  O44  1  0.50940000  0.00000000  0.62540000  1.0 -0.7499150006
O  O45  1  0.50940000  0.62540000  0.00000000  1.0 -0.7499150006
O  O46  1  0.37460000  0.37460000  0.88400000  1.0 -0.7499150006
O  O47  1  0.49060000  0.49060000  0.11600000  1.0 -0.7431093748
O  O48  1  0.62540000  0.50940000  0.00000000  1.0 -0.7499150006
