# DDEC6 charges by PACMAN v1.1 (https://github.com/mtap-research/PACMAN-charge/)
data_REBSOJ_ASR_pacman
_symmetry_space_group_name_H-M   'P 1'
_cell_length_a   13.40980000
_cell_length_b   13.40980000
_cell_length_c   11.83670000
_cell_angle_alpha   90.00000000
_cell_angle_beta   90.00000000
_cell_angle_gamma   120.00000000
_symmetry_Int_Tables_number   1
_chemical_formula_structural   Co3H32C68N6O13
_chemical_formula_sum   'Co3 H32 C68 N6 O13'
_cell_volume   1843.34180936
_cell_formula_units_Z   1
loop_
 _symmetry_equiv_pos_site_id
 _symmetry_equiv_pos_as_xyz
  1  'x, y, z'
loop_
 _atom_site_type_symbol
 _atom_site_label
 _atom_site_symmetry_multiplicity
 _atom_site_fract_x
 _atom_site_fract_y
 _atom_site_fract_z
 _atom_site_occupancy
 _atom_site_charge
Co  Co1  1  0.85140000  0.85140000  0.00000000  1.0 1.0741607152
Co  Co2  1  0.00000000  0.14860000  0.00000000  1.0 1.0741607152
Co  Co3  1  0.14860000  0.00000000  0.00000000  1.0 1.0741607152
H  H1  1  0.83500000  0.60960000  0.75840000  1.0 0.1295399967
H  H2  1  0.83690000  0.49500000  0.61890000  1.0 0.1295399967
H  H3  1  0.77460000  0.16500000  0.75840000  1.0 0.1295399967
H  H4  1  0.65810000  0.16310000  0.61890000  1.0 0.1295399967
H  H5  1  0.39040000  0.22540000  0.75840000  1.0 0.1295399967
H  H6  1  0.50500000  0.34190000  0.61890000  1.0 0.1295399967
H  H7  1  0.83500000  0.60960000  0.24160000  1.0 0.1295399967
H  H8  1  0.83690000  0.49500000  0.38110000  1.0 0.1295399967
H  H9  1  0.77460000  0.16500000  0.24160000  1.0 0.1295399967
H  H10  1  0.65810000  0.16310000  0.38110000  1.0 0.1295399967
H  H11  1  0.39040000  0.22540000  0.24160000  1.0 0.1295399967
H  H12  1  0.50500000  0.34190000  0.38110000  1.0 0.1295399967
H  H13  1  0.22540000  0.39040000  0.24160000  1.0 0.1295399967
H  H14  1  0.34190000  0.50500000  0.38110000  1.0 0.1295399967
H  H15  1  0.60960000  0.83500000  0.24160000  1.0 0.1295399967
H  H16  1  0.49500000  0.83690000  0.38110000  1.0 0.1295399967
H  H17  1  0.16500000  0.77460000  0.24160000  1.0 0.1295399967
H  H18  1  0.16310000  0.65810000  0.38110000  1.0 0.1295399967
H  H19  1  0.22540000  0.39040000  0.75840000  1.0 0.1295399967
H  H20  1  0.34190000  0.50500000  0.61890000  1.0 0.1295399967
H  H21  1  0.60960000  0.83500000  0.75840000  1.0 0.1295399967
H  H22  1  0.49500000  0.83690000  0.61890000  1.0 0.1295399967
H  H23  1  0.16500000  0.77460000  0.75840000  1.0 0.1295399967
H  H24  1  0.16310000  0.65810000  0.61890000  1.0 0.1295399967
H  H25  1  0.00000000  0.19180000  0.69840000  1.0 0.1550366981
H  H26  1  0.19180000  0.00000000  0.69840000  1.0 0.1550366981
H  H27  1  0.80820000  0.80820000  0.69840000  1.0 0.1550366981
H  H28  1  0.00000000  0.19180000  0.30160000  1.0 0.1550366981
H  H29  1  0.19180000  0.00000000  0.30160000  1.0 0.1550366981
H  H30  1  0.80820000  0.80820000  0.30160000  1.0 0.1550366981
H  H31  1  0.00000000  0.00000000  0.69080000  1.0 0.1387967868
H  H32  1  0.00000000  0.00000000  0.30920000  1.0 0.1387967868
C  C1  1  0.90500000  0.62150000  0.73100000  1.0 -0.1007035198
C  C2  1  0.90600000  0.54620000  0.65400000  1.0 -0.149756317
C  C3  1  0.71650000  0.09500000  0.73100000  1.0 -0.1007035198
C  C4  1  0.64020000  0.09400000  0.65400000  1.0 -0.149756317
C  C5  1  0.37850000  0.28350000  0.73100000  1.0 -0.1007035198
C  C6  1  0.45380000  0.35980000  0.65400000  1.0 -0.149756317
C  C7  1  0.90500000  0.62150000  0.26900000  1.0 -0.1007035198
C  C8  1  0.90600000  0.54620000  0.34600000  1.0 -0.149756317
C  C9  1  0.71650000  0.09500000  0.26900000  1.0 -0.1007035198
C  C10  1  0.64020000  0.09400000  0.34600000  1.0 -0.149756317
C  C11  1  0.37850000  0.28350000  0.26900000  1.0 -0.1007035198
C  C12  1  0.45380000  0.35980000  0.34600000  1.0 -0.149756317
C  C13  1  0.28350000  0.37850000  0.26900000  1.0 -0.1007035198
C  C14  1  0.35980000  0.45380000  0.34600000  1.0 -0.149756317
C  C15  1  0.62150000  0.90500000  0.26900000  1.0 -0.1007035198
C  C16  1  0.54620000  0.90600000  0.34600000  1.0 -0.149756317
C  C17  1  0.09500000  0.71650000  0.26900000  1.0 -0.1007035198
C  C18  1  0.09400000  0.64020000  0.34600000  1.0 -0.149756317
C  C19  1  0.28350000  0.37850000  0.73100000  1.0 -0.1007035198
C  C20  1  0.35980000  0.45380000  0.65400000  1.0 -0.149756317
C  C21  1  0.62150000  0.90500000  0.73100000  1.0 -0.1007035198
C  C22  1  0.54620000  0.90600000  0.65400000  1.0 -0.149756317
C  C23  1  0.09500000  0.71650000  0.73100000  1.0 -0.1007035198
C  C24  1  0.09400000  0.64020000  0.65400000  1.0 -0.149756317
C  C25  1  0.00000000  0.79870000  0.84770000  1.0 0.5912178559
C  C26  1  0.00000000  0.70920000  0.76550000  1.0 -0.0066857005
C  C27  1  0.00000000  0.54130000  0.62520000  1.0 0.0406746333
C  C28  1  0.00000000  0.45190000  0.55920000  1.0 0.1295399967
C  C29  1  0.00000000  0.19150000  0.61980000  1.0 -0.20575953
C  C30  1  0.00000000  0.28000000  0.56040000  1.0 0.152141328
C  C31  1  0.00000000  0.10140000  0.56050000  1.0 0.0406746333
C  C32  1  0.79870000  0.00000000  0.84770000  1.0 0.5912178559
C  C33  1  0.70920000  0.00000000  0.76550000  1.0 -0.0066857005
C  C34  1  0.54130000  0.00000000  0.62520000  1.0 0.0406746333
C  C35  1  0.45190000  0.00000000  0.55920000  1.0 0.1295399967
C  C36  1  0.19150000  0.00000000  0.61980000  1.0 -0.20575953
C  C37  1  0.28000000  0.00000000  0.56040000  1.0 0.152141328
C  C38  1  0.10140000  0.00000000  0.56050000  1.0 0.0406746333
C  C39  1  0.20130000  0.20130000  0.84770000  1.0 0.5912178559
C  C40  1  0.29080000  0.29080000  0.76550000  1.0 -0.0066857005
C  C41  1  0.45870000  0.45870000  0.62520000  1.0 0.0406746333
C  C42  1  0.54810000  0.54810000  0.55920000  1.0 0.1295399967
C  C43  1  0.80850000  0.80850000  0.61980000  1.0 -0.20575953
C  C44  1  0.72000000  0.72000000  0.56040000  1.0 0.152141328
C  C45  1  0.89860000  0.89860000  0.56050000  1.0 0.0406746333
C  C46  1  0.00000000  0.79870000  0.15230000  1.0 0.5912178559
C  C47  1  0.00000000  0.70920000  0.23450000  1.0 -0.0066857005
C  C48  1  0.00000000  0.54130000  0.37480000  1.0 0.0406746333
C  C49  1  0.00000000  0.45190000  0.44080000  1.0 0.1295399967
C  C50  1  0.00000000  0.19150000  0.38020000  1.0 -0.20575953
C  C51  1  0.00000000  0.28000000  0.43960000  1.0 0.152141328
C  C52  1  0.00000000  0.10140000  0.43950000  1.0 0.0406746333
C  C53  1  0.79870000  0.00000000  0.15230000  1.0 0.5912178559
C  C54  1  0.70920000  0.00000000  0.23450000  1.0 -0.0066857005
C  C55  1  0.54130000  0.00000000  0.37480000  1.0 0.0406746333
C  C56  1  0.45190000  0.00000000  0.44080000  1.0 0.1295399967
C  C57  1  0.19150000  0.00000000  0.38020000  1.0 -0.20575953
C  C58  1  0.28000000  0.00000000  0.43960000  1.0 0.152141328
C  C59  1  0.10140000  0.00000000  0.43950000  1.0 0.0406746333
C  C60  1  0.20130000  0.20130000  0.15230000  1.0 0.5912178559
C  C61  1  0.29080000  0.29080000  0.23450000  1.0 -0.0066857005
C  C62  1  0.45870000  0.45870000  0.37480000  1.0 0.0406746333
C  C63  1  0.54810000  0.54810000  0.44080000  1.0 0.1295399967
C  C64  1  0.80850000  0.80850000  0.38020000  1.0 -0.20575953
C  C65  1  0.72000000  0.72000000  0.43960000  1.0 0.152141328
C  C66  1  0.89860000  0.89860000  0.43950000  1.0 0.0406746333
C  C67  1  0.00000000  0.00000000  0.60800000  1.0 -0.1179084974
C  C68  1  0.00000000  0.00000000  0.39200000  1.0 -0.1179084974
N  N1  1  0.00000000  0.37060000  0.61940000  1.0 -0.2894965209
N  N2  1  0.37060000  0.00000000  0.61940000  1.0 -0.2894965209
N  N3  1  0.62940000  0.62940000  0.61940000  1.0 -0.2894965209
N  N4  1  0.00000000  0.37060000  0.38060000  1.0 -0.2894965209
N  N5  1  0.37060000  0.00000000  0.38060000  1.0 -0.2894965209
N  N6  1  0.62940000  0.62940000  0.38060000  1.0 -0.2894965209
O  O1  1  0.90550000  0.78180000  0.87810000  1.0 -0.5130245285
O  O2  1  0.87630000  0.09450000  0.87810000  1.0 -0.5130245285
O  O3  1  0.21820000  0.12370000  0.87810000  1.0 -0.5130245285
O  O4  1  0.90550000  0.78180000  0.12190000  1.0 -0.5130245285
O  O5  1  0.87630000  0.09450000  0.12190000  1.0 -0.5130245285
O  O6  1  0.21820000  0.12370000  0.12190000  1.0 -0.5130245285
O  O7  1  0.12370000  0.21820000  0.12190000  1.0 -0.5130245285
O  O8  1  0.78180000  0.90550000  0.12190000  1.0 -0.5130245285
O  O9  1  0.09450000  0.87630000  0.12190000  1.0 -0.5130245285
O  O10  1  0.12370000  0.21820000  0.87810000  1.0 -0.5130245285
O  O11  1  0.78180000  0.90550000  0.87810000  1.0 -0.5130245285
O  O12  1  0.09450000  0.87630000  0.87810000  1.0 -0.5130245285
O  O13  1  0.00000000  0.00000000  0.00000000  1.0 -0.8554666238
