# DDEC6 charges by PACMAN v1.1 (https://github.com/mtap-research/PACMAN-charge/)
data_REFHUH_ASR_pacman
_symmetry_space_group_name_H-M   'P 1'
_cell_length_a   13.87500000
_cell_length_b   12.24200000
_cell_length_c   18.40800000
_cell_angle_alpha   90.00000000
_cell_angle_beta   129.93400000
_cell_angle_gamma   90.00000000
_symmetry_Int_Tables_number   1
_chemical_formula_structural   CdH26C22(NO)4
_chemical_formula_sum   'Cd4 H104 C88 N16 O16'
_cell_volume   2397.53649113
_cell_formula_units_Z   4
loop_
 _symmetry_equiv_pos_site_id
 _symmetry_equiv_pos_as_xyz
  1  'x, y, z'
loop_
 _atom_site_type_symbol
 _atom_site_label
 _atom_site_symmetry_multiplicity
 _atom_site_fract_x
 _atom_site_fract_y
 _atom_site_fract_z
 _atom_site_occupancy
 _atom_site_charge
Cd  Cd1  1  0.95603000  0.85096000  0.49087000  1.0 0.8659379353
Cd  Cd2  1  0.04397000  0.35096000  0.00913000  1.0 0.8659379353
Cd  Cd3  1  0.04397000  0.14904000  0.50913000  1.0 0.8659379353
Cd  Cd4  1  0.95603000  0.64904000  0.99087000  1.0 0.8659379353
H  H1  1  0.67720000  0.83780000  0.43240000  1.0 0.1196633855
H  H2  1  0.32280000  0.33780000  0.06760000  1.0 0.1196633855
H  H3  1  0.32280000  0.16220000  0.56760000  1.0 0.1196633855
H  H4  1  0.67720000  0.66220000  0.93240000  1.0 0.1196633855
H  H5  1  0.27590000  0.85630000  0.32390000  1.0 0.1406188254
H  H6  1  0.72410000  0.35630000  0.17610000  1.0 0.1406188254
H  H7  1  0.72410000  0.14370000  0.67610000  1.0 0.1406188254
H  H8  1  0.27590000  0.64370000  0.82390000  1.0 0.1406188254
H  H9  1  0.23140000  0.85150000  0.54090000  1.0 0.1196633855
H  H10  1  0.76860000  0.35150000  0.95910000  1.0 0.1196633855
H  H11  1  0.76860000  0.14850000  0.45910000  1.0 0.1196633855
H  H12  1  0.23140000  0.64850000  0.04090000  1.0 0.1196633855
H  H13  1  0.47770000  0.88170000  0.37730000  1.0 0.1297430801
H  H14  1  0.52230000  0.38170000  0.12270000  1.0 0.1297430801
H  H15  1  0.52230000  0.11830000  0.62270000  1.0 0.1297430801
H  H16  1  0.47770000  0.61830000  0.87730000  1.0 0.1297430801
H  H17  1  0.62070000  0.81520000  0.64160000  1.0 0.1406188254
H  H18  1  0.37930000  0.31520000  0.85840000  1.0 0.1406188254
H  H19  1  0.37930000  0.18480000  0.35840000  1.0 0.1406188254
H  H20  1  0.62070000  0.68480000  0.14160000  1.0 0.1406188254
H  H21  1  0.91780000  0.78450000  0.28960000  1.0 0.1196633855
H  H22  1  0.08220000  0.28450000  0.21040000  1.0 0.1196633855
H  H23  1  0.08220000  0.21550000  0.71040000  1.0 0.1196633855
H  H24  1  0.91780000  0.71550000  0.78960000  1.0 0.1196633855
H  H25  1  0.08630000  0.77700000  0.27930000  1.0 0.1297430801
H  H26  1  0.91370000  0.27700000  0.22070000  1.0 0.1297430801
H  H27  1  0.91370000  0.22300000  0.72070000  1.0 0.1297430801
H  H28  1  0.08630000  0.72300000  0.77930000  1.0 0.1297430801
H  H29  1  0.80040000  0.92060000  0.68640000  1.0 0.1196633855
H  H30  1  0.19960000  0.42060000  0.81360000  1.0 0.1196633855
H  H31  1  0.19960000  0.07940000  0.31360000  1.0 0.1196633855
H  H32  1  0.80040000  0.57940000  0.18640000  1.0 0.1196633855
H  H33  1  0.97340000  0.93040000  0.68510000  1.0 0.1196633855
H  H34  1  0.02660000  0.43040000  0.81490000  1.0 0.1196633855
H  H35  1  0.02660000  0.06960000  0.31490000  1.0 0.1196633855
H  H36  1  0.97340000  0.56960000  0.18510000  1.0 0.1196633855
H  H37  1  0.41950000  0.79240000  0.58920000  1.0 0.1406188254
H  H38  1  0.58050000  0.29240000  0.91080000  1.0 0.1406188254
H  H39  1  0.58050000  0.20760000  0.41080000  1.0 0.1406188254
H  H40  1  0.41950000  0.70760000  0.08920000  1.0 0.1406188254
H  H41  1  0.96200000  0.03710000  0.83360000  1.0 0.0808611895
H  H42  1  0.03800000  0.53710000  0.66640000  1.0 0.0808611895
H  H43  1  0.03800000  0.96290000  0.16640000  1.0 0.0808611895
H  H44  1  0.96200000  0.46290000  0.33360000  1.0 0.0808611895
H  H45  1  0.96840000  0.98180000  0.91320000  1.0 0.1196633855
H  H46  1  0.03160000  0.48180000  0.58680000  1.0 0.1196633855
H  H47  1  0.03160000  0.01820000  0.08680000  1.0 0.1196633855
H  H48  1  0.96840000  0.51820000  0.41320000  1.0 0.1196633855
H  H49  1  0.38750000  0.09400000  0.91480000  1.0 0.0808611895
H  H50  1  0.61250000  0.59400000  0.58520000  1.0 0.0808611895
H  H51  1  0.61250000  0.90600000  0.08520000  1.0 0.0808611895
H  H52  1  0.38750000  0.40600000  0.41480000  1.0 0.0808611895
H  H53  1  0.26080000  0.07090000  0.81480000  1.0 0.0895572921
H  H54  1  0.73920000  0.57090000  0.68520000  1.0 0.0895572921
H  H55  1  0.73920000  0.92910000  0.18520000  1.0 0.0895572921
H  H56  1  0.26080000  0.42910000  0.31480000  1.0 0.0895572921
H  H57  1  0.26090000  0.88060000  0.74870000  1.0 0.1297430801
H  H58  1  0.73910000  0.38060000  0.75130000  1.0 0.1297430801
H  H59  1  0.73910000  0.11940000  0.25130000  1.0 0.1297430801
H  H60  1  0.26090000  0.61940000  0.24870000  1.0 0.1297430801
H  H61  1  0.35230000  0.89430000  0.72710000  1.0 0.1196633855
H  H62  1  0.64770000  0.39430000  0.77290000  1.0 0.1196633855
H  H63  1  0.64770000  0.10570000  0.27290000  1.0 0.1196633855
H  H64  1  0.35230000  0.60570000  0.22710000  1.0 0.1196633855
H  H65  1  0.26130000  0.10970000  0.97530000  1.0 0.0808611895
H  H66  1  0.73870000  0.60970000  0.52470000  1.0 0.0808611895
H  H67  1  0.73870000  0.89030000  0.02470000  1.0 0.0808611895
H  H68  1  0.26130000  0.39030000  0.47530000  1.0 0.0808611895
H  H69  1  0.14890000  0.09930000  0.86530000  1.0 0.0698121508
H  H70  1  0.85110000  0.59930000  0.63470000  1.0 0.0698121508
H  H71  1  0.85110000  0.90070000  0.13470000  1.0 0.0698121508
H  H72  1  0.14890000  0.40070000  0.36530000  1.0 0.0698121508
H  H73  1  0.18670000  0.97410000  0.01120000  1.0 0.1019757428
H  H74  1  0.81330000  0.47410000  0.48880000  1.0 0.1019757428
H  H75  1  0.81330000  0.02590000  0.98880000  1.0 0.1019757428
H  H76  1  0.18670000  0.52590000  0.51120000  1.0 0.1019757428
H  H77  1  0.12500000  0.91180000  0.91580000  1.0 0.0895572921
H  H78  1  0.87500000  0.41180000  0.58420000  1.0 0.0895572921
H  H79  1  0.87500000  0.08820000  0.08420000  1.0 0.0895572921
H  H80  1  0.12500000  0.58820000  0.41580000  1.0 0.0895572921
H  H81  1  0.23480000  0.91820000  0.87660000  1.0 0.0808611895
H  H82  1  0.76520000  0.41820000  0.62340000  1.0 0.0808611895
H  H83  1  0.76520000  0.08180000  0.12340000  1.0 0.0808611895
H  H84  1  0.23480000  0.58180000  0.37660000  1.0 0.0808611895
H  H85  1  0.35640000  0.95380000  0.97760000  1.0 0.0895572921
H  H86  1  0.64360000  0.45380000  0.52240000  1.0 0.0895572921
H  H87  1  0.64360000  0.04620000  0.02240000  1.0 0.0895572921
H  H88  1  0.35640000  0.54620000  0.47760000  1.0 0.0895572921
H  H89  1  0.45720000  0.03380000  0.84020000  1.0 0.0895572921
H  H90  1  0.54280000  0.53380000  0.65980000  1.0 0.0895572921
H  H91  1  0.54280000  0.96620000  0.15980000  1.0 0.0895572921
H  H92  1  0.45720000  0.46620000  0.34020000  1.0 0.0895572921
H  H93  1  0.46190000  0.92290000  0.88580000  1.0 0.0808611895
H  H94  1  0.53810000  0.42290000  0.61420000  1.0 0.0808611895
H  H95  1  0.53810000  0.07710000  0.11420000  1.0 0.0808611895
H  H96  1  0.46190000  0.57710000  0.38580000  1.0 0.0808611895
H  H97  1  0.95110000  0.52870000  0.67820000  1.0 0.0635917504
H  H98  1  0.04890000  0.02870000  0.82180000  1.0 0.0635917504
H  H99  1  0.04890000  0.47130000  0.32180000  1.0 0.0635917504
H  H100  1  0.95110000  0.97130000  0.17820000  1.0 0.0635917504
H  H101  1  0.88450000  0.44030000  0.60070000  1.0 0.0895572921
H  H102  1  0.11550000  0.94030000  0.89930000  1.0 0.0895572921
H  H103  1  0.11550000  0.55970000  0.39930000  1.0 0.0895572921
H  H104  1  0.88450000  0.05970000  0.10070000  1.0 0.0895572921
C  C1  1  0.72980000  0.85980000  0.49540000  1.0 0.0808611895
C  C2  1  0.27020000  0.35980000  0.00460000  1.0 0.0808611895
C  C3  1  0.27020000  0.14020000  0.50460000  1.0 0.0808611895
C  C4  1  0.72980000  0.64020000  0.99540000  1.0 0.0808611895
C  C5  1  0.34500000  0.84940000  0.38800000  1.0 -0.160983784
C  C6  1  0.65500000  0.34940000  0.11200000  1.0 -0.160983784
C  C7  1  0.65500000  0.15060000  0.61200000  1.0 -0.160983784
C  C8  1  0.34500000  0.65060000  0.88800000  1.0 -0.160983784
C  C9  1  0.56880000  0.85260000  0.51480000  1.0 0.1406188254
C  C10  1  0.43120000  0.35260000  0.98520000  1.0 0.1406188254
C  C11  1  0.43120000  0.14740000  0.48520000  1.0 0.1406188254
C  C12  1  0.56880000  0.64740000  0.01480000  1.0 0.1406188254
C  C13  1  0.32960000  0.82470000  0.45190000  1.0 0.1406188254
C  C14  1  0.67040000  0.32470000  0.04810000  1.0 0.1406188254
C  C15  1  0.67040000  0.17530000  0.54810000  1.0 0.1406188254
C  C16  1  0.32960000  0.67530000  0.95190000  1.0 0.1406188254
C  C17  1  0.17420000  0.83160000  0.47740000  1.0 0.1019757428
C  C18  1  0.82580000  0.33160000  0.02260000  1.0 0.1019757428
C  C19  1  0.82580000  0.16840000  0.52260000  1.0 0.1019757428
C  C20  1  0.17420000  0.66840000  0.97740000  1.0 0.1019757428
C  C21  1  0.46580000  0.86400000  0.42020000  1.0 -0.1702414346
C  C22  1  0.53420000  0.36400000  0.07980000  1.0 -0.1702414346
C  C23  1  0.53420000  0.13600000  0.57980000  1.0 -0.1702414346
C  C24  1  0.46580000  0.63600000  0.92020000  1.0 -0.1702414346
C  C25  1  0.55170000  0.82480000  0.57790000  1.0 -0.1702414346
C  C26  1  0.44830000  0.32480000  0.92210000  1.0 -0.1702414346
C  C27  1  0.44830000  0.17520000  0.42210000  1.0 -0.1702414346
C  C28  1  0.55170000  0.67520000  0.07790000  1.0 -0.1702414346
C  C29  1  0.00290000  0.79560000  0.33970000  1.0 -0.0619877669
C  C30  1  0.99710000  0.29560000  0.16030000  1.0 -0.0619877669
C  C31  1  0.99710000  0.20440000  0.66030000  1.0 -0.0619877669
C  C32  1  0.00290000  0.70440000  0.83970000  1.0 -0.0619877669
C  C33  1  0.09570000  0.79140000  0.33310000  1.0 -0.1433586757
C  C34  1  0.90430000  0.29140000  0.16690000  1.0 -0.1433586757
C  C35  1  0.90430000  0.20860000  0.66690000  1.0 -0.1433586757
C  C36  1  0.09570000  0.70860000  0.83310000  1.0 -0.1433586757
C  C37  1  0.79670000  0.90480000  0.63530000  1.0 -0.1215639291
C  C38  1  0.20330000  0.40480000  0.86470000  1.0 -0.1215639291
C  C39  1  0.20330000  0.09520000  0.36470000  1.0 -0.1215639291
C  C40  1  0.79670000  0.59520000  0.13530000  1.0 -0.1215639291
C  C41  1  0.89130000  0.91090000  0.63380000  1.0 -0.0506500508
C  C42  1  0.10870000  0.41090000  0.86620000  1.0 -0.0506500508
C  C43  1  0.10870000  0.08910000  0.36620000  1.0 -0.0506500508
C  C44  1  0.89130000  0.58910000  0.13380000  1.0 -0.0506500508
C  C45  1  0.43160000  0.81090000  0.54660000  1.0 -0.1702414346
C  C46  1  0.56840000  0.31090000  0.95340000  1.0 -0.1702414346
C  C47  1  0.56840000  0.18910000  0.45340000  1.0 -0.1702414346
C  C48  1  0.43160000  0.68910000  0.04660000  1.0 -0.1702414346
C  C49  1  0.01590000  0.14400000  0.93950000  1.0 0.5598460605
C  C50  1  0.98410000  0.64400000  0.56050000  1.0 0.5598460605
C  C51  1  0.98410000  0.85600000  0.06050000  1.0 0.5598460605
C  C52  1  0.01590000  0.35600000  0.43950000  1.0 0.5598460605
C  C53  1  0.01160000  0.03170000  0.90170000  1.0 -0.1936901639
C  C54  1  0.98840000  0.53170000  0.59830000  1.0 -0.1936901639
C  C55  1  0.98840000  0.96830000  0.09830000  1.0 -0.1936901639
C  C56  1  0.01160000  0.46830000  0.40170000  1.0 -0.1936901639
C  C57  1  0.33333333  0.03570000  0.87150000  1.0 -0.1786734926
C  C58  1  0.66666667  0.53570000  0.62850000  1.0 -0.1786734926
C  C59  1  0.66666667  0.96430000  0.12850000  1.0 -0.1786734926
C  C60  1  0.33333333  0.46430000  0.37150000  1.0 -0.1786734926
C  C61  1  0.30970000  0.93350000  0.74510000  1.0 -0.3401163201
C  C62  1  0.69030000  0.43350000  0.75490000  1.0 -0.3401163201
C  C63  1  0.69030000  0.06650000  0.25490000  1.0 -0.3401163201
C  C64  1  0.30970000  0.56650000  0.24510000  1.0 -0.3401163201
C  C65  1  0.21920000  0.01470000  0.66690000  1.0 0.6015182306
C  C66  1  0.78080000  0.51470000  0.83310000  1.0 0.6015182306
C  C67  1  0.78080000  0.98530000  0.33310000  1.0 0.6015182306
C  C68  1  0.21920000  0.48530000  0.16690000  1.0 0.6015182306
C  C69  1  0.20770000  0.05860000  0.92360000  1.0 -0.0743823106
C  C70  1  0.79230000  0.55860000  0.57640000  1.0 -0.0751108135
C  C71  1  0.79230000  0.94140000  0.07640000  1.0 -0.0751108135
C  C72  1  0.20770000  0.44140000  0.42360000  1.0 -0.0743823106
C  C73  1  0.13700000  0.98320000  0.94330000  1.0 -0.1065247412
C  C74  1  0.86300000  0.48320000  0.55670000  1.0 -0.1065247412
C  C75  1  0.86300000  0.01680000  0.05670000  1.0 -0.1065247412
C  C76  1  0.13700000  0.51680000  0.44330000  1.0 -0.1065247412
C  C77  1  0.28600000  0.98040000  0.91500000  1.0 -0.2430036682
C  C78  1  0.71400000  0.48040000  0.58500000  1.0 -0.2430036682
C  C79  1  0.71400000  0.01960000  0.08500000  1.0 -0.2430036682
C  C80  1  0.28600000  0.51960000  0.41500000  1.0 -0.2430036682
C  C81  1  0.40680000  0.98010000  0.84130000  1.0 -0.1215639291
C  C82  1  0.59320000  0.48010000  0.65870000  1.0 -0.1215639291
C  C83  1  0.59320000  0.01990000  0.15870000  1.0 -0.1215639291
C  C84  1  0.40680000  0.51990000  0.34130000  1.0 -0.1215639291
C  C85  1  0.90100000  0.51800000  0.61100000  1.0 -0.1065247412
C  C86  1  0.09900000  0.01800000  0.88900000  1.0 -0.1065247412
C  C87  1  0.09900000  0.48200000  0.38900000  1.0 -0.1065247412
C  C88  1  0.90100000  0.98200000  0.11100000  1.0 -0.1065247412
N  N1  1  0.69310000  0.87100000  0.54720000  1.0 -0.0106337689
N  N2  1  0.30690000  0.37100000  0.95280000  1.0 -0.0106337689
N  N3  1  0.30690000  0.12900000  0.45280000  1.0 -0.0106337689
N  N4  1  0.69310000  0.62900000  0.04720000  1.0 -0.0106337689
N  N5  1  0.05360000  0.81840000  0.43050000  1.0 -0.2764436732
N  N6  1  0.94640000  0.31840000  0.06950000  1.0 -0.2764436732
N  N7  1  0.94640000  0.18160000  0.56950000  1.0 -0.2764436732
N  N8  1  0.05360000  0.68160000  0.93050000  1.0 -0.2764436732
N  N9  1  0.20550000  0.81310000  0.42270000  1.0 -0.0150279066
N  N10  1  0.79450000  0.31310000  0.07730000  1.0 -0.0150279066
N  N11  1  0.79450000  0.18690000  0.57730000  1.0 -0.0150279066
N  N12  1  0.20550000  0.68690000  0.92270000  1.0 -0.0150279066
N  N13  1  0.84950000  0.88400000  0.54510000  1.0 -0.2871129642
N  N14  1  0.15050000  0.38400000  0.95490000  1.0 -0.2871129642
N  N15  1  0.15050000  0.11600000  0.45490000  1.0 -0.2871129642
N  N16  1  0.84950000  0.61600000  0.04510000  1.0 -0.2871129642
O  O1  1  0.11430000  0.97700000  0.59520000  1.0 -0.5753941367
O  O2  1  0.88570000  0.47700000  0.90480000  1.0 -0.5748142431
O  O3  1  0.88570000  0.02300000  0.40480000  1.0 -0.5748142431
O  O4  1  0.11430000  0.52300000  0.09520000  1.0 -0.5753941367
O  O5  1  0.10040000  0.16750000  0.02350000  1.0 -0.5285229514
O  O6  1  0.89960000  0.66750000  0.47650000  1.0 -0.5285229514
O  O7  1  0.89960000  0.83250000  0.97650000  1.0 -0.5285229514
O  O8  1  0.10040000  0.33250000  0.52350000  1.0 -0.5285229514
O  O9  1  0.24640000  0.11050000  0.66980000  1.0 -0.535172088
O  O10  1  0.75360000  0.61050000  0.83020000  1.0 -0.535172088
O  O11  1  0.75360000  0.88950000  0.33020000  1.0 -0.535172088
O  O12  1  0.24640000  0.38950000  0.16980000  1.0 -0.535172088
O  O13  1  0.92800000  0.20940000  0.88150000  1.0 -0.5854486058
O  O14  1  0.07200000  0.70940000  0.61850000  1.0 -0.5854486058
O  O15  1  0.07200000  0.79060000  0.11850000  1.0 -0.5854486058
O  O16  1  0.92800000  0.29060000  0.38150000  1.0 -0.5854486058
