# DDEC6 charges by PACMAN v1.1 (https://github.com/mtap-research/PACMAN-charge/)
data_REFTUT_ASR_pacman
_symmetry_space_group_name_H-M   'P 1'
_cell_length_a   7.35853000
_cell_length_b   18.70290000
_cell_length_c   23.59650000
_cell_angle_alpha   90.00000000
_cell_angle_beta   90.00000000
_cell_angle_gamma   90.00000000
_symmetry_Int_Tables_number   1
_chemical_formula_structural   CaZn2H21(C9O4)3
_chemical_formula_sum   'Ca4 Zn8 H84 C108 O48'
_cell_volume   3247.48838692
_cell_formula_units_Z   4
loop_
 _symmetry_equiv_pos_site_id
 _symmetry_equiv_pos_as_xyz
  1  'x, y, z'
loop_
 _atom_site_type_symbol
 _atom_site_label
 _atom_site_symmetry_multiplicity
 _atom_site_fract_x
 _atom_site_fract_y
 _atom_site_fract_z
 _atom_site_occupancy
 _atom_site_charge
Ca  Ca1  1  0.50000000  0.50000000  0.00000000  1.0 1.3964205871
Ca  Ca2  1  0.00000000  0.00000000  0.00000000  1.0 1.3964205871
Ca  Ca3  1  0.00000000  0.00000000  0.50000000  1.0 1.3964205871
Ca  Ca4  1  0.50000000  0.50000000  0.50000000  1.0 1.3964205871
Zn  Zn1  1  0.14200000  0.45085000  0.08672000  1.0 0.9336820136
Zn  Zn2  1  0.35800000  0.95085000  0.91328000  1.0 0.9336820136
Zn  Zn3  1  0.64200000  0.04915000  0.41328000  1.0 0.9336820136
Zn  Zn4  1  0.85800000  0.54915000  0.58672000  1.0 0.9336820136
Zn  Zn5  1  0.85800000  0.54915000  0.91328000  1.0 0.9336820136
Zn  Zn6  1  0.64200000  0.04915000  0.08672000  1.0 0.9336820136
Zn  Zn7  1  0.35800000  0.95085000  0.58672000  1.0 0.9336820136
Zn  Zn8  1  0.14200000  0.45085000  0.41328000  1.0 0.9336820136
H  H1  1  0.22620000  0.70320000  0.97760000  1.0 0.1388304788
H  H2  1  0.27380000  0.20320000  0.02240000  1.0 0.1388304788
H  H3  1  0.72620000  0.79680000  0.52240000  1.0 0.1298623021
H  H4  1  0.77380000  0.29680000  0.47760000  1.0 0.1298623021
H  H5  1  0.77380000  0.29680000  0.02240000  1.0 0.1298623021
H  H6  1  0.72620000  0.79680000  0.97760000  1.0 0.1388304788
H  H7  1  0.27380000  0.20320000  0.47760000  1.0 0.1298623021
H  H8  1  0.22620000  0.70320000  0.52240000  1.0 0.1388304788
H  H9  1  0.00260000  0.66910000  0.13020000  1.0 0.1298623021
H  H10  1  0.49740000  0.16910000  0.86980000  1.0 0.1298623021
H  H11  1  0.50260000  0.83090000  0.36980000  1.0 0.1298623021
H  H12  1  0.99740000  0.33090000  0.63020000  1.0 0.1298623021
H  H13  1  0.99740000  0.33090000  0.86980000  1.0 0.1298623021
H  H14  1  0.50260000  0.83090000  0.13020000  1.0 0.1298623021
H  H15  1  0.49740000  0.16910000  0.63020000  1.0 0.1298623021
H  H16  1  0.00260000  0.66910000  0.36980000  1.0 0.1298623021
H  H17  1  0.09430000  0.86940000  0.07730000  1.0 0.1298623021
H  H18  1  0.40570000  0.36940000  0.92270000  1.0 0.1298623021
H  H19  1  0.59430000  0.63060000  0.42270000  1.0 0.1298623021
H  H20  1  0.90570000  0.13060000  0.57730000  1.0 0.1298623021
H  H21  1  0.90570000  0.13060000  0.92270000  1.0 0.1298623021
H  H22  1  0.59430000  0.63060000  0.07730000  1.0 0.1298623021
H  H23  1  0.40570000  0.36940000  0.57730000  1.0 0.1298623021
H  H24  1  0.09430000  0.86940000  0.42270000  1.0 0.1298623021
H  H25  1  0.07100000  0.81160000  0.19350000  1.0 0.1388304788
H  H26  1  0.42900000  0.31160000  0.80650000  1.0 0.1388304788
H  H27  1  0.57100000  0.68840000  0.30650000  1.0 0.1388304788
H  H28  1  0.92900000  0.18840000  0.69350000  1.0 0.1388304788
H  H29  1  0.92900000  0.18840000  0.80650000  1.0 0.1388304788
H  H30  1  0.57100000  0.68840000  0.19350000  1.0 0.1388304788
H  H31  1  0.42900000  0.31160000  0.69350000  1.0 0.1388304788
H  H32  1  0.07100000  0.81160000  0.30650000  1.0 0.1388304788
H  H33  1  0.89160000  0.76740000  0.18640000  1.0 0.1388304788
H  H34  1  0.60840000  0.26740000  0.81360000  1.0 0.1388304788
H  H35  1  0.39160000  0.73260000  0.31360000  1.0 0.1388304788
H  H36  1  0.10840000  0.23260000  0.68640000  1.0 0.1388304788
H  H37  1  0.10840000  0.23260000  0.81360000  1.0 0.1388304788
H  H38  1  0.39160000  0.73260000  0.18640000  1.0 0.1388304788
H  H39  1  0.60840000  0.26740000  0.68640000  1.0 0.1388304788
H  H40  1  0.89160000  0.76740000  0.31360000  1.0 0.1388304788
H  H41  1  0.90280000  0.84560000  0.16290000  1.0 0.1388304788
H  H42  1  0.59720000  0.34560000  0.83710000  1.0 0.1388304788
H  H43  1  0.40280000  0.65440000  0.33710000  1.0 0.1388304788
H  H44  1  0.09720000  0.15440000  0.66290000  1.0 0.1388304788
H  H45  1  0.09720000  0.15440000  0.83710000  1.0 0.1388304788
H  H46  1  0.40280000  0.65440000  0.16290000  1.0 0.1388304788
H  H47  1  0.59720000  0.34560000  0.66290000  1.0 0.1388304788
H  H48  1  0.90280000  0.84560000  0.33710000  1.0 0.1388304788
H  H49  1  0.36910000  0.46570000  0.25000000  1.0 0.1388304788
H  H50  1  0.13090000  0.96570000  0.75000000  1.0 0.1388304788
H  H51  1  0.86910000  0.03430000  0.25000000  1.0 0.1388304788
H  H52  1  0.63090000  0.53430000  0.75000000  1.0 0.1388304788
H  H53  1  0.79570000  0.54500000  0.16500000  1.0 0.1388304788
H  H54  1  0.70430000  0.04500000  0.83500000  1.0 0.1388304788
H  H55  1  0.29570000  0.95500000  0.33500000  1.0 0.1388304788
H  H56  1  0.20430000  0.45500000  0.66500000  1.0 0.1388304788
H  H57  1  0.20430000  0.45500000  0.83500000  1.0 0.1388304788
H  H58  1  0.29570000  0.95500000  0.16500000  1.0 0.1388304788
H  H59  1  0.70430000  0.04500000  0.66500000  1.0 0.1388304788
H  H60  1  0.79570000  0.54500000  0.33500000  1.0 0.1388304788
H  H61  1  0.09270000  0.55650000  0.22480000  1.0 0.0702185894
H  H62  1  0.40730000  0.05650000  0.77520000  1.0 0.0702185894
H  H63  1  0.59270000  0.94350000  0.27520000  1.0 0.0702185894
H  H64  1  0.90730000  0.44350000  0.72480000  1.0 0.0702185894
H  H65  1  0.90730000  0.44350000  0.77520000  1.0 0.0702185894
H  H66  1  0.59270000  0.94350000  0.22480000  1.0 0.0702185894
H  H67  1  0.40730000  0.05650000  0.72480000  1.0 0.0702185894
H  H68  1  0.09270000  0.55650000  0.27520000  1.0 0.0702185894
H  H69  1  0.06470000  0.58140000  0.28760000  1.0 0.0637426351
H  H70  1  0.43530000  0.08140000  0.71240000  1.0 0.0637426351
H  H71  1  0.56470000  0.91860000  0.21240000  1.0 0.0637426351
H  H72  1  0.93530000  0.41860000  0.78760000  1.0 0.0637426351
H  H73  1  0.93530000  0.41860000  0.71240000  1.0 0.0637426351
H  H74  1  0.56470000  0.91860000  0.28760000  1.0 0.0637426351
H  H75  1  0.43530000  0.08140000  0.78760000  1.0 0.0637426351
H  H76  1  0.06470000  0.58140000  0.21240000  1.0 0.0637426351
H  H77  1  0.00790000  0.63170000  0.23750000  1.0 0.0637426351
H  H78  1  0.49210000  0.13170000  0.76250000  1.0 0.0637426351
H  H79  1  0.50790000  0.86830000  0.26250000  1.0 0.0637426351
H  H80  1  0.99210000  0.36830000  0.73750000  1.0 0.0637426351
H  H81  1  0.99210000  0.36830000  0.76250000  1.0 0.0637426351
H  H82  1  0.50790000  0.86830000  0.23750000  1.0 0.0637426351
H  H83  1  0.49210000  0.13170000  0.73750000  1.0 0.0637426351
H  H84  1  0.00790000  0.63170000  0.26250000  1.0 0.0637426351
C  C1  1  0.17810000  0.72086000  0.01127000  1.0 -0.1119653133
C  C2  1  0.32190000  0.22086000  0.98873000  1.0 -0.1119653133
C  C3  1  0.67810000  0.77914000  0.48873000  1.0 -0.1119653133
C  C4  1  0.82190000  0.27914000  0.51127000  1.0 -0.1119653133
C  C5  1  0.82190000  0.27914000  0.98873000  1.0 -0.1119653133
C  C6  1  0.67810000  0.77914000  0.01127000  1.0 -0.1119653133
C  C7  1  0.32190000  0.22086000  0.51127000  1.0 -0.1119653133
C  C8  1  0.17810000  0.72086000  0.48873000  1.0 -0.1119653133
C  C9  1  0.12070000  0.67413000  0.05293000  1.0 -0.0278659512
C  C10  1  0.37930000  0.17413000  0.94707000  1.0 -0.0278659512
C  C11  1  0.62070000  0.82587000  0.44707000  1.0 -0.0278659512
C  C12  1  0.87930000  0.32587000  0.55293000  1.0 -0.0278659512
C  C13  1  0.87930000  0.32587000  0.94707000  1.0 -0.0278659512
C  C14  1  0.62070000  0.82587000  0.05293000  1.0 -0.0278659512
C  C15  1  0.37930000  0.17413000  0.55293000  1.0 -0.0278659512
C  C16  1  0.12070000  0.67413000  0.44707000  1.0 -0.0278659512
C  C17  1  0.04650000  0.70080000  0.10308000  1.0 -0.1506884682
C  C18  1  0.45350000  0.20080000  0.89692000  1.0 -0.1506884682
C  C19  1  0.54650000  0.79920000  0.39692000  1.0 -0.1506884682
C  C20  1  0.95350000  0.29920000  0.60308000  1.0 -0.1506884682
C  C21  1  0.95350000  0.29920000  0.89692000  1.0 -0.1506884682
C  C22  1  0.54650000  0.79920000  0.10308000  1.0 -0.1506884682
C  C23  1  0.45350000  0.20080000  0.60308000  1.0 -0.1506884682
C  C24  1  0.04650000  0.70080000  0.39692000  1.0 -0.1506884682
C  C25  1  0.15170000  0.59520000  0.04576000  1.0 0.590314879
C  C26  1  0.34830000  0.09520000  0.95424000  1.0 0.590314879
C  C27  1  0.65170000  0.90480000  0.45424000  1.0 0.590314879
C  C28  1  0.84830000  0.40480000  0.54576000  1.0 0.590314879
C  C29  1  0.84830000  0.40480000  0.95424000  1.0 0.590314879
C  C30  1  0.65170000  0.90480000  0.04576000  1.0 0.590314879
C  C31  1  0.34830000  0.09520000  0.54576000  1.0 0.590314879
C  C32  1  0.15170000  0.59520000  0.45424000  1.0 0.590314879
C  C33  1  0.22830000  0.84300000  0.97351000  1.0 0.590314879
C  C34  1  0.27170000  0.34300000  0.02649000  1.0 0.5844930301
C  C35  1  0.72830000  0.65700000  0.52649000  1.0 0.5844930301
C  C36  1  0.77170000  0.15700000  0.47351000  1.0 0.590314879
C  C37  1  0.77170000  0.15700000  0.02649000  1.0 0.5844930301
C  C38  1  0.72830000  0.65700000  0.97351000  1.0 0.590314879
C  C39  1  0.27170000  0.34300000  0.47351000  1.0 0.590314879
C  C40  1  0.22830000  0.84300000  0.52649000  1.0 0.5844930301
C  C41  1  0.16400000  0.79448000  0.01958000  1.0 -0.0278659512
C  C42  1  0.33600000  0.29448000  0.98042000  1.0 -0.0278659512
C  C43  1  0.66400000  0.70552000  0.48042000  1.0 -0.0278659512
C  C44  1  0.83600000  0.20552000  0.51958000  1.0 -0.0278659512
C  C45  1  0.83600000  0.20552000  0.98042000  1.0 -0.0278659512
C  C46  1  0.66400000  0.70552000  0.01958000  1.0 -0.0278659512
C  C47  1  0.33600000  0.29448000  0.51958000  1.0 -0.0278659512
C  C48  1  0.16400000  0.79448000  0.48042000  1.0 -0.0278659512
C  C49  1  0.09800000  0.82039000  0.07098000  1.0 -0.1609732469
C  C50  1  0.40200000  0.32039000  0.92902000  1.0 -0.1609732469
C  C51  1  0.59800000  0.67961000  0.42902000  1.0 -0.1609732469
C  C52  1  0.90200000  0.17961000  0.57098000  1.0 -0.1609732469
C  C53  1  0.90200000  0.17961000  0.92902000  1.0 -0.1609732469
C  C54  1  0.59800000  0.67961000  0.07098000  1.0 -0.1609732469
C  C55  1  0.40200000  0.32039000  0.57098000  1.0 -0.1609732469
C  C56  1  0.09800000  0.82039000  0.42902000  1.0 -0.1609732469
C  C57  1  0.03740000  0.77390000  0.11301000  1.0 0.1562556515
C  C58  1  0.46260000  0.27390000  0.88699000  1.0 0.1562556515
C  C59  1  0.53740000  0.72610000  0.38699000  1.0 0.1562556515
C  C60  1  0.96260000  0.22610000  0.61301000  1.0 0.1562556515
C  C61  1  0.96260000  0.22610000  0.88699000  1.0 0.1562556515
C  C62  1  0.53740000  0.72610000  0.11301000  1.0 0.1562556515
C  C63  1  0.46260000  0.27390000  0.61301000  1.0 0.1562556515
C  C64  1  0.03740000  0.77390000  0.38699000  1.0 0.1562556515
C  C65  1  0.96950000  0.80220000  0.16908000  1.0 -0.4582148341
C  C66  1  0.53050000  0.30220000  0.83092000  1.0 -0.4582148341
C  C67  1  0.46950000  0.69780000  0.33092000  1.0 -0.4582148341
C  C68  1  0.03050000  0.19780000  0.66908000  1.0 -0.4582148341
C  C69  1  0.03050000  0.19780000  0.83092000  1.0 -0.4582148341
C  C70  1  0.46950000  0.69780000  0.16908000  1.0 -0.4582148341
C  C71  1  0.53050000  0.30220000  0.66908000  1.0 -0.4582148341
C  C72  1  0.96950000  0.80220000  0.33092000  1.0 -0.4582148341
C  C73  1  0.47070000  0.48615000  0.14467000  1.0 0.5981251041
C  C74  1  0.02930000  0.98615000  0.85533000  1.0 0.5981251041
C  C75  1  0.97070000  0.01385000  0.35533000  1.0 0.5981251041
C  C76  1  0.52930000  0.51385000  0.64467000  1.0 0.5981251041
C  C77  1  0.52930000  0.51385000  0.85533000  1.0 0.5981251041
C  C78  1  0.97070000  0.01385000  0.14467000  1.0 0.5981251041
C  C79  1  0.02930000  0.98615000  0.64467000  1.0 0.5981251041
C  C80  1  0.47070000  0.48615000  0.35533000  1.0 0.5981251041
C  C81  1  0.48330000  0.48710000  0.25000000  1.0 -0.1008273472
C  C82  1  0.01670000  0.98710000  0.75000000  1.0 -0.1008273472
C  C83  1  0.98330000  0.01290000  0.25000000  1.0 -0.1008273472
C  C84  1  0.51670000  0.51290000  0.75000000  1.0 -0.1008273472
C  C85  1  0.56740000  0.50276000  0.19902000  1.0 -0.0382367407
C  C86  1  0.93260000  0.00276000  0.80098000  1.0 -0.0382367407
C  C87  1  0.06740000  0.99724000  0.30098000  1.0 -0.0382367407
C  C88  1  0.43260000  0.49724000  0.69902000  1.0 -0.0382367407
C  C89  1  0.43260000  0.49724000  0.80098000  1.0 -0.0382367407
C  C90  1  0.06740000  0.99724000  0.19902000  1.0 -0.0382367407
C  C91  1  0.93260000  0.00276000  0.69902000  1.0 -0.0382367407
C  C92  1  0.56740000  0.50276000  0.30098000  1.0 -0.0382367407
C  C93  1  0.73930000  0.53430000  0.19930000  1.0 -0.1506884682
C  C94  1  0.76070000  0.03430000  0.80070000  1.0 -0.1506884682
C  C95  1  0.23930000  0.96570000  0.30070000  1.0 -0.1506884682
C  C96  1  0.26070000  0.46570000  0.69930000  1.0 -0.1506884682
C  C97  1  0.26070000  0.46570000  0.80070000  1.0 -0.1506884682
C  C98  1  0.23930000  0.96570000  0.19930000  1.0 -0.1506884682
C  C99  1  0.76070000  0.03430000  0.69930000  1.0 -0.1506884682
C  C100  1  0.73930000  0.53430000  0.30070000  1.0 -0.1506884682
C  C101  1  0.82830000  0.55030000  0.25000000  1.0 0.0486492256
C  C102  1  0.67170000  0.05030000  0.75000000  1.0 0.0486492256
C  C103  1  0.32830000  0.94970000  0.25000000  1.0 0.0486492256
C  C104  1  0.17170000  0.44970000  0.75000000  1.0 0.0486492256
C  C105  1  0.01540000  0.58290000  0.25000000  1.0 -0.2858432939
C  C106  1  0.48460000  0.08290000  0.75000000  1.0 -0.2858432939
C  C107  1  0.51540000  0.91710000  0.25000000  1.0 -0.2858432939
C  C108  1  0.98460000  0.41710000  0.75000000  1.0 -0.2858432939
O  O1  1  0.25520000  0.57487000  0.00731000  1.0 -0.6285391559
O  O2  1  0.24480000  0.07487000  0.99269000  1.0 -0.6285391559
O  O3  1  0.75520000  0.92513000  0.49269000  1.0 -0.6285391559
O  O4  1  0.74480000  0.42513000  0.50731000  1.0 -0.6285391559
O  O5  1  0.74480000  0.42513000  0.99269000  1.0 -0.6285391559
O  O6  1  0.75520000  0.92513000  0.00731000  1.0 -0.6285391559
O  O7  1  0.24480000  0.07487000  0.50731000  1.0 -0.6285391559
O  O8  1  0.25520000  0.57487000  0.49269000  1.0 -0.6285391559
O  O9  1  0.07390000  0.55339000  0.08057000  1.0 -0.5480924656
O  O10  1  0.42610000  0.05339000  0.91943000  1.0 -0.5480924656
O  O11  1  0.57390000  0.94661000  0.41943000  1.0 -0.5480924656
O  O12  1  0.92610000  0.44661000  0.58057000  1.0 -0.5480924656
O  O13  1  0.92610000  0.44661000  0.91943000  1.0 -0.5480924656
O  O14  1  0.57390000  0.94661000  0.08057000  1.0 -0.5480924656
O  O15  1  0.42610000  0.05339000  0.58057000  1.0 -0.5480924656
O  O16  1  0.07390000  0.55339000  0.41943000  1.0 -0.5480924656
O  O17  1  0.22680000  0.91150000  0.98223000  1.0 -0.6577952465
O  O18  1  0.27320000  0.41150000  0.01777000  1.0 -0.6577952465
O  O19  1  0.72680000  0.58850000  0.51777000  1.0 -0.6577952465
O  O20  1  0.77320000  0.08850000  0.48223000  1.0 -0.6577952465
O  O21  1  0.77320000  0.08850000  0.01777000  1.0 -0.6577952465
O  O22  1  0.72680000  0.58850000  0.98223000  1.0 -0.6577952465
O  O23  1  0.27320000  0.41150000  0.48223000  1.0 -0.6577952465
O  O24  1  0.22680000  0.91150000  0.51777000  1.0 -0.6577952465
O  O25  1  0.28600000  0.81898000  0.92824000  1.0 -0.4858068734
O  O26  1  0.21400000  0.31898000  0.07176000  1.0 -0.4837867727
O  O27  1  0.78600000  0.68102000  0.57176000  1.0 -0.4837867727
O  O28  1  0.71400000  0.18102000  0.42824000  1.0 -0.4837867727
O  O29  1  0.71400000  0.18102000  0.07176000  1.0 -0.4858068734
O  O30  1  0.78600000  0.68102000  0.92824000  1.0 -0.4858068734
O  O31  1  0.21400000  0.31898000  0.42824000  1.0 -0.4837867727
O  O32  1  0.28600000  0.81898000  0.57176000  1.0 -0.4837867727
O  O33  1  0.54490000  0.49968000  0.09828000  1.0 -0.6179305796
O  O34  1  0.95510000  0.99968000  0.90172000  1.0 -0.6179305796
O  O35  1  0.04490000  0.00032000  0.40172000  1.0 -0.6179305796
O  O36  1  0.45510000  0.50032000  0.59828000  1.0 -0.6179305796
O  O37  1  0.45510000  0.50032000  0.90172000  1.0 -0.6179305796
O  O38  1  0.04490000  0.00032000  0.09828000  1.0 -0.6179305796
O  O39  1  0.95510000  0.99968000  0.59828000  1.0 -0.6179305796
O  O40  1  0.54490000  0.49968000  0.40172000  1.0 -0.6179305796
O  O41  1  0.31350000  0.45898000  0.14991000  1.0 -0.5480924656
O  O42  1  0.18650000  0.95898000  0.85009000  1.0 -0.5480924656
O  O43  1  0.81350000  0.04102000  0.35009000  1.0 -0.5480924656
O  O44  1  0.68650000  0.54102000  0.64991000  1.0 -0.5480924656
O  O45  1  0.68650000  0.54102000  0.85009000  1.0 -0.5480924656
O  O46  1  0.81350000  0.04102000  0.14991000  1.0 -0.5480924656
O  O47  1  0.18650000  0.95898000  0.64991000  1.0 -0.5480924656
O  O48  1  0.31350000  0.45898000  0.35009000  1.0 -0.5480924656
