# DDEC6 charges by PACMAN v1.1 (https://github.com/mtap-research/PACMAN-charge/)
data_REGQUR_ASR_pacman
_symmetry_space_group_name_H-M   'P 1'
_cell_length_a   18.59240000
_cell_length_b   18.59240000
_cell_length_c   17.96430000
_cell_angle_alpha   90.00000000
_cell_angle_beta   90.00000000
_cell_angle_gamma   120.00000000
_symmetry_Int_Tables_number   1
_chemical_formula_structural   Zn3H5C15O11
_chemical_formula_sum   'Zn18 H30 C90 O66'
_cell_volume   5377.88906502
_cell_formula_units_Z   6
loop_
 _symmetry_equiv_pos_site_id
 _symmetry_equiv_pos_as_xyz
  1  'x, y, z'
loop_
 _atom_site_type_symbol
 _atom_site_label
 _atom_site_symmetry_multiplicity
 _atom_site_fract_x
 _atom_site_fract_y
 _atom_site_fract_z
 _atom_site_occupancy
 _atom_site_charge
Zn  Zn1  1  0.90074000  0.24295000  0.38067000  1.0 0.9667666285
Zn  Zn2  1  0.75705000  0.65779000  0.38067000  1.0 0.9667666285
Zn  Zn3  1  0.34221000  0.09926000  0.38067000  1.0 0.9667666285
Zn  Zn4  1  0.09926000  0.75705000  0.88067000  1.0 0.9667666285
Zn  Zn5  1  0.24295000  0.34221000  0.88067000  1.0 0.9667666285
Zn  Zn6  1  0.65779000  0.90074000  0.88067000  1.0 0.9667666285
Zn  Zn7  1  0.75705000  0.09926000  0.88067000  1.0 0.9667666285
Zn  Zn8  1  0.34221000  0.24295000  0.88067000  1.0 0.9667666285
Zn  Zn9  1  0.90074000  0.65779000  0.88067000  1.0 0.9667666285
Zn  Zn10  1  0.24295000  0.90074000  0.38067000  1.0 0.9667666285
Zn  Zn11  1  0.65779000  0.75705000  0.38067000  1.0 0.9667666285
Zn  Zn12  1  0.09926000  0.34221000  0.38067000  1.0 0.9667666285
Zn  Zn13  1  0.65585000  0.00000000  0.72346000  1.0 1.0629027216
Zn  Zn14  1  0.00000000  0.65585000  0.72346000  1.0 1.0667202401
Zn  Zn15  1  0.34415000  0.34415000  0.72346000  1.0 1.0629027216
Zn  Zn16  1  0.34415000  0.00000000  0.22346000  1.0 1.0667202401
Zn  Zn17  1  0.00000000  0.34415000  0.22346000  1.0 1.0667202401
Zn  Zn18  1  0.65585000  0.65585000  0.22346000  1.0 1.0629027216
H  H1  1  0.79880000  0.44540000  0.41720000  1.0 0.1326913087
H  H2  1  0.55460000  0.35340000  0.41720000  1.0 0.1326913087
H  H3  1  0.64660000  0.20120000  0.41720000  1.0 0.1326913087
H  H4  1  0.20120000  0.55460000  0.91720000  1.0 0.1326913087
H  H5  1  0.44540000  0.64660000  0.91720000  1.0 0.1326913087
H  H6  1  0.35340000  0.79880000  0.91720000  1.0 0.1326913087
H  H7  1  0.55460000  0.20120000  0.91720000  1.0 0.1326913087
H  H8  1  0.64660000  0.44540000  0.91720000  1.0 0.1326913087
H  H9  1  0.79880000  0.35340000  0.91720000  1.0 0.1326913087
H  H10  1  0.44540000  0.79880000  0.41720000  1.0 0.1326913087
H  H11  1  0.35340000  0.55460000  0.41720000  1.0 0.1326913087
H  H12  1  0.20120000  0.64660000  0.41720000  1.0 0.1326913087
H  H13  1  0.87640000  0.16930000  0.60290000  1.0 0.1326913087
H  H14  1  0.83070000  0.70710000  0.60290000  1.0 0.1326913087
H  H15  1  0.29290000  0.12360000  0.60290000  1.0 0.1326913087
H  H16  1  0.12360000  0.83070000  0.10290000  1.0 0.1326913087
H  H17  1  0.16930000  0.29290000  0.10290000  1.0 0.1326913087
H  H18  1  0.70710000  0.87640000  0.10290000  1.0 0.1326913087
H  H19  1  0.83070000  0.12360000  0.10290000  1.0 0.1326913087
H  H20  1  0.29290000  0.16930000  0.10290000  1.0 0.1326913087
H  H21  1  0.87640000  0.70710000  0.10290000  1.0 0.1326913087
H  H22  1  0.16930000  0.87640000  0.60290000  1.0 0.1326913087
H  H23  1  0.70710000  0.83070000  0.60290000  1.0 0.1326913087
H  H24  1  0.12360000  0.29290000  0.60290000  1.0 0.1326913087
H  H25  1  0.00000000  0.19570000  0.79390000  1.0 0.1326913087
H  H26  1  0.80430000  0.80430000  0.79390000  1.0 0.1326913087
H  H27  1  0.19570000  0.00000000  0.79390000  1.0 0.1326913087
H  H28  1  0.00000000  0.80430000  0.29390000  1.0 0.1326913087
H  H29  1  0.19570000  0.19570000  0.29390000  1.0 0.1326913087
H  H30  1  0.80430000  0.00000000  0.29390000  1.0 0.1326913087
C  C1  1  0.80810000  0.30690000  0.41170000  1.0 0.5245039789
C  C2  1  0.69310000  0.50120000  0.41170000  1.0 0.5245039789
C  C3  1  0.49880000  0.19190000  0.41170000  1.0 0.5254641501
C  C4  1  0.19190000  0.69310000  0.91170000  1.0 0.5254641501
C  C5  1  0.30690000  0.49880000  0.91170000  1.0 0.5254641501
C  C6  1  0.50120000  0.80810000  0.91170000  1.0 0.5254641501
C  C7  1  0.69310000  0.19190000  0.91170000  1.0 0.5254641501
C  C8  1  0.49880000  0.30690000  0.91170000  1.0 0.5254641501
C  C9  1  0.80810000  0.50120000  0.91170000  1.0 0.5254641501
C  C10  1  0.30690000  0.80810000  0.41170000  1.0 0.5254641501
C  C11  1  0.50120000  0.69310000  0.41170000  1.0 0.5254641501
C  C12  1  0.19190000  0.49880000  0.41170000  1.0 0.5254641501
C  C13  1  0.73310000  0.32010000  0.41290000  1.0 -0.0008234589
C  C14  1  0.67990000  0.41300000  0.41290000  1.0 -0.0008234589
C  C15  1  0.58700000  0.26690000  0.41290000  1.0 -0.0008234589
C  C16  1  0.26690000  0.67990000  0.91290000  1.0 -0.0008234589
C  C17  1  0.32010000  0.58700000  0.91290000  1.0 -0.0008234589
C  C18  1  0.41300000  0.73310000  0.91290000  1.0 -0.0008234589
C  C19  1  0.67990000  0.26690000  0.91290000  1.0 -0.0008234589
C  C20  1  0.58700000  0.32010000  0.91290000  1.0 -0.0008234589
C  C21  1  0.73310000  0.41300000  0.91290000  1.0 -0.0008234589
C  C22  1  0.32010000  0.73310000  0.41290000  1.0 -0.0008234589
C  C23  1  0.41300000  0.67990000  0.41290000  1.0 -0.0008234589
C  C24  1  0.26690000  0.58700000  0.41290000  1.0 -0.0008234589
C  C25  1  0.74510000  0.40020000  0.41470000  1.0 -0.0961809419
C  C26  1  0.59980000  0.34490000  0.41470000  1.0 -0.0961809419
C  C27  1  0.65510000  0.25490000  0.41470000  1.0 -0.0961809419
C  C28  1  0.25490000  0.59980000  0.91470000  1.0 -0.0961809419
C  C29  1  0.40020000  0.65510000  0.91470000  1.0 -0.0961809419
C  C30  1  0.34490000  0.74510000  0.91470000  1.0 -0.0961809419
C  C31  1  0.59980000  0.25490000  0.91470000  1.0 -0.0961809419
C  C32  1  0.65510000  0.40020000  0.91470000  1.0 -0.0961809419
C  C33  1  0.74510000  0.34490000  0.91470000  1.0 -0.0961809419
C  C34  1  0.40020000  0.74510000  0.41470000  1.0 -0.0961809419
C  C35  1  0.34490000  0.59980000  0.41470000  1.0 -0.0961809419
C  C36  1  0.25490000  0.65510000  0.41470000  1.0 -0.0961809419
C  C37  1  0.84460000  0.12200000  0.74580000  1.0 0.5936139353
C  C38  1  0.87800000  0.72260000  0.74580000  1.0 0.5936139353
C  C39  1  0.27740000  0.15540000  0.74580000  1.0 0.5936139353
C  C40  1  0.15540000  0.87800000  0.24580000  1.0 0.5936139353
C  C41  1  0.12200000  0.27740000  0.24580000  1.0 0.5936139353
C  C42  1  0.72260000  0.84460000  0.24580000  1.0 0.5936139353
C  C43  1  0.87800000  0.15540000  0.24580000  1.0 0.5936139353
C  C44  1  0.27740000  0.12200000  0.24580000  1.0 0.5936139353
C  C45  1  0.84460000  0.72260000  0.24580000  1.0 0.5936139353
C  C46  1  0.12200000  0.84460000  0.74580000  1.0 0.5936139353
C  C47  1  0.72260000  0.87800000  0.74580000  1.0 0.5936139353
C  C48  1  0.15540000  0.27740000  0.74580000  1.0 0.5936139353
C  C49  1  0.92600000  0.16860000  0.70480000  1.0 -0.0221804709
C  C50  1  0.83140000  0.75740000  0.70480000  1.0 -0.0221804709
C  C51  1  0.24260000  0.07400000  0.70480000  1.0 -0.0221804709
C  C52  1  0.07400000  0.83140000  0.20480000  1.0 -0.0221804709
C  C53  1  0.16860000  0.24260000  0.20480000  1.0 -0.0221804709
C  C54  1  0.75740000  0.92600000  0.20480000  1.0 -0.0221804709
C  C55  1  0.83140000  0.07400000  0.20480000  1.0 -0.0221804709
C  C56  1  0.24260000  0.16860000  0.20480000  1.0 -0.0221804709
C  C57  1  0.92600000  0.75740000  0.20480000  1.0 -0.0221804709
C  C58  1  0.16860000  0.92600000  0.70480000  1.0 -0.0221804709
C  C59  1  0.75740000  0.83140000  0.70480000  1.0 -0.0221804709
C  C60  1  0.07400000  0.24260000  0.70480000  1.0 -0.0221804709
C  C61  1  0.92610000  0.18570000  0.62790000  1.0 -0.0961809419
C  C62  1  0.81430000  0.74040000  0.62790000  1.0 -0.0961809419
C  C63  1  0.25960000  0.07390000  0.62790000  1.0 -0.0961809419
C  C64  1  0.07390000  0.81430000  0.12790000  1.0 -0.0961809419
C  C65  1  0.18570000  0.25960000  0.12790000  1.0 -0.0961809419
C  C66  1  0.74040000  0.92610000  0.12790000  1.0 -0.0961809419
C  C67  1  0.81430000  0.07390000  0.12790000  1.0 -0.0961809419
C  C68  1  0.25960000  0.18570000  0.12790000  1.0 -0.0961809419
C  C69  1  0.92610000  0.74040000  0.12790000  1.0 -0.0961809419
C  C70  1  0.18570000  0.92610000  0.62790000  1.0 -0.0961809419
C  C71  1  0.74040000  0.81430000  0.62790000  1.0 -0.0961809419
C  C72  1  0.07390000  0.25960000  0.62790000  1.0 -0.0961809419
C  C73  1  0.00000000  0.22670000  0.59110000  1.0 -0.0221804709
C  C74  1  0.77330000  0.77330000  0.59110000  1.0 -0.0221804709
C  C75  1  0.22670000  0.00000000  0.59110000  1.0 -0.0221804709
C  C76  1  0.00000000  0.77330000  0.09110000  1.0 -0.0221804709
C  C77  1  0.22670000  0.22670000  0.09110000  1.0 -0.0221804709
C  C78  1  0.77330000  0.00000000  0.09110000  1.0 -0.0221804709
C  C79  1  0.00000000  0.24720000  0.50820000  1.0 0.5936139353
C  C80  1  0.75280000  0.75280000  0.50820000  1.0 0.5936139353
C  C81  1  0.24720000  0.00000000  0.50820000  1.0 0.5936139353
C  C82  1  0.00000000  0.75280000  0.00820000  1.0 0.5936139353
C  C83  1  0.24720000  0.24720000  0.00820000  1.0 0.5936139353
C  C84  1  0.75280000  0.00000000  0.00820000  1.0 0.5936139353
C  C85  1  0.00000000  0.20140000  0.74250000  1.0 -0.09234221
C  C86  1  0.79860000  0.79860000  0.74250000  1.0 -0.09234221
C  C87  1  0.20140000  0.00000000  0.74250000  1.0 -0.09234221
C  C88  1  0.00000000  0.79860000  0.24250000  1.0 -0.09234221
C  C89  1  0.20140000  0.20140000  0.24250000  1.0 -0.09234221
C  C90  1  0.79860000  0.00000000  0.24250000  1.0 -0.09234221
O  O1  1  0.79260000  0.23620000  0.39090000  1.0 -0.4880163211
O  O2  1  0.76380000  0.55640000  0.39090000  1.0 -0.4880163211
O  O3  1  0.44360000  0.20740000  0.39090000  1.0 -0.4880163211
O  O4  1  0.20740000  0.76380000  0.89090000  1.0 -0.4880163211
O  O5  1  0.23620000  0.44360000  0.89090000  1.0 -0.4880163211
O  O6  1  0.55640000  0.79260000  0.89090000  1.0 -0.4880163211
O  O7  1  0.76380000  0.20740000  0.89090000  1.0 -0.4833625726
O  O8  1  0.44360000  0.23620000  0.89090000  1.0 -0.4833625726
O  O9  1  0.79260000  0.55640000  0.89090000  1.0 -0.4833625726
O  O10  1  0.23620000  0.79260000  0.39090000  1.0 -0.4880163211
O  O11  1  0.55640000  0.76380000  0.39090000  1.0 -0.4880163211
O  O12  1  0.20740000  0.44360000  0.39090000  1.0 -0.4880163211
O  O13  1  0.87590000  0.36200000  0.42490000  1.0 -0.4160612297
O  O14  1  0.63800000  0.51390000  0.42490000  1.0 -0.4160612297
O  O15  1  0.48610000  0.12410000  0.42490000  1.0 -0.4149064096
O  O16  1  0.12410000  0.63800000  0.92490000  1.0 -0.4149064096
O  O17  1  0.36200000  0.48610000  0.92490000  1.0 -0.4149064096
O  O18  1  0.51390000  0.87590000  0.92490000  1.0 -0.4160612297
O  O19  1  0.63800000  0.12410000  0.92490000  1.0 -0.4160612297
O  O20  1  0.48610000  0.36200000  0.92490000  1.0 -0.4160612297
O  O21  1  0.87590000  0.51390000  0.92490000  1.0 -0.4160612297
O  O22  1  0.36200000  0.87590000  0.42490000  1.0 -0.4160612297
O  O23  1  0.51390000  0.63800000  0.42490000  1.0 -0.4160612297
O  O24  1  0.12410000  0.48610000  0.42490000  1.0 -0.4160612297
O  O25  1  0.77960000  0.09000000  0.71040000  1.0 -0.5487678221
O  O26  1  0.91000000  0.68960000  0.71040000  1.0 -0.5487678221
O  O27  1  0.31040000  0.22040000  0.71040000  1.0 -0.5487678221
O  O28  1  0.22040000  0.91000000  0.21040000  1.0 -0.5487678221
O  O29  1  0.09000000  0.31040000  0.21040000  1.0 -0.5487678221
O  O30  1  0.68960000  0.77960000  0.21040000  1.0 -0.5487678221
O  O31  1  0.91000000  0.22040000  0.21040000  1.0 -0.5487678221
O  O32  1  0.31040000  0.09000000  0.21040000  1.0 -0.5487678221
O  O33  1  0.77960000  0.68960000  0.21040000  1.0 -0.5487678221
O  O34  1  0.09000000  0.77960000  0.71040000  1.0 -0.5487678221
O  O35  1  0.68960000  0.91000000  0.71040000  1.0 -0.5487678221
O  O36  1  0.22040000  0.31040000  0.71040000  1.0 -0.5487678221
O  O37  1  0.84880000  0.12250000  0.81550000  1.0 -0.5219954026
O  O38  1  0.87750000  0.72630000  0.81550000  1.0 -0.5219954026
O  O39  1  0.27370000  0.15120000  0.81550000  1.0 -0.5219954026
O  O40  1  0.15120000  0.87750000  0.31550000  1.0 -0.5219954026
O  O41  1  0.12250000  0.27370000  0.31550000  1.0 -0.5219954026
O  O42  1  0.72630000  0.84880000  0.31550000  1.0 -0.5219954026
O  O43  1  0.87750000  0.15120000  0.31550000  1.0 -0.5219954026
O  O44  1  0.27370000  0.12250000  0.31550000  1.0 -0.5219954026
O  O45  1  0.84880000  0.72630000  0.31550000  1.0 -0.5219954026
O  O46  1  0.12250000  0.84880000  0.81550000  1.0 -0.5219954026
O  O47  1  0.72630000  0.87750000  0.81550000  1.0 -0.5219954026
O  O48  1  0.15120000  0.27370000  0.81550000  1.0 -0.5219954026
O  O49  1  0.93170000  0.21820000  0.47890000  1.0 -0.5017077472
O  O50  1  0.78180000  0.71350000  0.47890000  1.0 -0.5017077472
O  O51  1  0.28650000  0.06830000  0.47890000  1.0 -0.5017077472
O  O52  1  0.06830000  0.78180000  0.97890000  1.0 -0.5017077472
O  O53  1  0.21820000  0.28650000  0.97890000  1.0 -0.5017077472
O  O54  1  0.71350000  0.93170000  0.97890000  1.0 -0.5017077472
O  O55  1  0.78180000  0.06830000  0.97890000  1.0 -0.5017077472
O  O56  1  0.28650000  0.21820000  0.97890000  1.0 -0.5017077472
O  O57  1  0.93170000  0.71350000  0.97890000  1.0 -0.5017077472
O  O58  1  0.21820000  0.93170000  0.47890000  1.0 -0.5017077472
O  O59  1  0.71350000  0.78180000  0.47890000  1.0 -0.5017077472
O  O60  1  0.06830000  0.28650000  0.47890000  1.0 -0.5017077472
O  O61  1  0.00000000  0.33960000  0.33800000  1.0 -0.9978042614
O  O62  1  0.66040000  0.66040000  0.33800000  1.0 -0.9978042614
O  O63  1  0.33960000  0.00000000  0.33800000  1.0 -0.9978042614
O  O64  1  0.00000000  0.66040000  0.83800000  1.0 -0.9978042614
O  O65  1  0.33960000  0.33960000  0.83800000  1.0 -0.9978042614
O  O66  1  0.66040000  0.00000000  0.83800000  1.0 -0.9978042614
