# DDEC6 charges by PACMAN v1.1 (https://github.com/mtap-research/PACMAN-charge/)
data_REGRAY_ASR_pacman
_symmetry_space_group_name_H-M   'P 1'
_cell_length_a   18.06000000
_cell_length_b   12.10400000
_cell_length_c   31.65000000
_cell_angle_alpha   90.00000000
_cell_angle_beta   90.48000000
_cell_angle_gamma   90.00000000
_symmetry_Int_Tables_number   1
_chemical_formula_structural   Zn5H9C27O19
_chemical_formula_sum   'Zn20 H36 C108 O76'
_cell_volume   6918.39150921
_cell_formula_units_Z   4
loop_
 _symmetry_equiv_pos_site_id
 _symmetry_equiv_pos_as_xyz
  1  'x, y, z'
loop_
 _atom_site_type_symbol
 _atom_site_label
 _atom_site_symmetry_multiplicity
 _atom_site_fract_x
 _atom_site_fract_y
 _atom_site_fract_z
 _atom_site_occupancy
 _atom_site_charge
Zn  Zn1  1  0.95594000  0.40112000  0.48653000  1.0 0.9613247538
Zn  Zn2  1  0.04406000  0.90112000  0.01347000  1.0 0.9613247538
Zn  Zn3  1  0.04406000  0.59888000  0.51347000  1.0 0.9613247538
Zn  Zn4  1  0.95594000  0.09888000  0.98653000  1.0 0.9613247538
Zn  Zn5  1  0.45502000  0.59907000  0.51243000  1.0 0.9613247538
Zn  Zn6  1  0.54498000  0.09907000  0.98757000  1.0 0.9613247538
Zn  Zn7  1  0.54498000  0.40093000  0.48757000  1.0 0.9613247538
Zn  Zn8  1  0.45502000  0.90093000  0.01243000  1.0 0.9613247538
Zn  Zn9  1  0.66586000  0.99797000  0.69005000  1.0 0.9806382382
Zn  Zn10  1  0.33414000  0.49797000  0.80995000  1.0 0.9806382382
Zn  Zn11  1  0.33414000  0.00203000  0.30995000  1.0 0.9806382382
Zn  Zn12  1  0.66586000  0.50203000  0.19005000  1.0 0.9806382382
Zn  Zn13  1  0.75465000  0.40818000  0.26871000  1.0 0.9984686696
Zn  Zn14  1  0.24535000  0.90818000  0.23129000  1.0 0.9984686696
Zn  Zn15  1  0.24535000  0.59182000  0.73129000  1.0 0.9984686696
Zn  Zn16  1  0.75465000  0.09182000  0.76871000  1.0 0.9984686696
Zn  Zn17  1  0.14537000  0.03162000  0.30540000  1.0 0.9984686696
Zn  Zn18  1  0.85463000  0.53162000  0.19460000  1.0 0.9984686696
Zn  Zn19  1  0.85463000  0.96838000  0.69460000  1.0 0.9984686696
Zn  Zn20  1  0.14537000  0.46838000  0.80540000  1.0 0.9984686696
H  H1  1  0.95660000  0.74300000  0.27240000  1.0 0.1323637148
H  H2  1  0.04340000  0.24300000  0.22760000  1.0 0.1323637148
H  H3  1  0.04340000  0.25700000  0.72760000  1.0 0.1323637148
H  H4  1  0.95660000  0.75700000  0.77240000  1.0 0.1323637148
H  H5  1  0.88740000  0.53790000  0.36660000  1.0 0.1323637148
H  H6  1  0.11260000  0.03790000  0.13340000  1.0 0.1323637148
H  H7  1  0.11260000  0.46210000  0.63340000  1.0 0.1323637148
H  H8  1  0.88740000  0.96210000  0.86660000  1.0 0.1323637148
H  H9  1  0.05040000  0.77110000  0.39120000  1.0 0.1323637148
H  H10  1  0.94960000  0.27110000  0.10880000  1.0 0.1323637148
H  H11  1  0.94960000  0.22890000  0.60880000  1.0 0.1323637148
H  H12  1  0.05040000  0.72890000  0.89120000  1.0 0.1323637148
H  H13  1  0.44000000  0.73040000  0.38490000  1.0 0.1323637148
H  H14  1  0.56000000  0.23040000  0.11510000  1.0 0.1323637148
H  H15  1  0.56000000  0.26960000  0.61510000  1.0 0.1323637148
H  H16  1  0.44000000  0.76960000  0.88490000  1.0 0.1323637148
H  H17  1  0.59990000  0.50780000  0.35880000  1.0 0.1323637148
H  H18  1  0.40010000  0.00780000  0.14120000  1.0 0.1323637148
H  H19  1  0.40010000  0.49220000  0.64120000  1.0 0.1323637148
H  H20  1  0.59990000  0.99220000  0.85880000  1.0 0.1323637148
H  H21  1  0.51900000  0.70480000  0.26500000  1.0 0.1323637148
H  H22  1  0.48100000  0.20480000  0.23500000  1.0 0.1323637148
H  H23  1  0.48100000  0.29520000  0.73500000  1.0 0.1323637148
H  H24  1  0.51900000  0.79520000  0.76500000  1.0 0.1323637148
H  H25  1  0.85910000  0.77820000  0.59100000  1.0 0.1361910278
H  H26  1  0.14090000  0.27820000  0.90900000  1.0 0.1361910278
H  H27  1  0.14090000  0.22180000  0.40900000  1.0 0.1361910278
H  H28  1  0.85910000  0.72180000  0.09100000  1.0 0.1361910278
H  H29  1  0.63240000  0.76140000  0.58740000  1.0 0.1323637148
H  H30  1  0.36760000  0.26140000  0.91260000  1.0 0.1323637148
H  H31  1  0.36760000  0.23860000  0.41260000  1.0 0.1323637148
H  H32  1  0.63240000  0.73860000  0.08740000  1.0 0.1323637148
H  H33  1  0.75540000  0.55540000  0.51270000  1.0 0.1323637148
H  H34  1  0.24460000  0.05540000  0.98730000  1.0 0.1323637148
H  H35  1  0.24460000  0.44460000  0.48730000  1.0 0.1323637148
H  H36  1  0.75540000  0.94460000  0.01270000  1.0 0.1323637148
C  C1  1  0.00760000  0.77460000  0.32970000  1.0 -0.0311650936
C  C2  1  0.99240000  0.27460000  0.17030000  1.0 -0.0311650936
C  C3  1  0.99240000  0.22540000  0.67030000  1.0 -0.0311650936
C  C4  1  0.00760000  0.72540000  0.82970000  1.0 -0.0311650936
C  C5  1  0.95870000  0.72020000  0.30110000  1.0 -0.0728409965
C  C6  1  0.04130000  0.22020000  0.19890000  1.0 -0.0728409965
C  C7  1  0.04130000  0.27980000  0.69890000  1.0 -0.0728409965
C  C8  1  0.95870000  0.77980000  0.80110000  1.0 -0.0728409965
C  C9  1  0.91270000  0.63190000  0.31510000  1.0 -0.0801904286
C  C10  1  0.08730000  0.13190000  0.18490000  1.0 -0.0801904286
C  C11  1  0.08730000  0.36810000  0.68490000  1.0 -0.0801904286
C  C12  1  0.91270000  0.86810000  0.81510000  1.0 -0.0801904286
C  C13  1  0.91820000  0.59590000  0.35680000  1.0 -0.0728409965
C  C14  1  0.08180000  0.09590000  0.14320000  1.0 -0.0728409965
C  C15  1  0.08180000  0.40410000  0.64320000  1.0 -0.0728409965
C  C16  1  0.91820000  0.90410000  0.85680000  1.0 -0.0728409965
C  C17  1  0.97170000  0.64840000  0.38530000  1.0 -0.0111405573
C  C18  1  0.02830000  0.14840000  0.11470000  1.0 -0.0156469126
C  C19  1  0.02830000  0.35160000  0.61470000  1.0 -0.0111405573
C  C20  1  0.97170000  0.85160000  0.88530000  1.0 -0.0111405573
C  C21  1  0.01600000  0.73710000  0.37230000  1.0 -0.0899334116
C  C22  1  0.98400000  0.23710000  0.12770000  1.0 -0.0899334116
C  C23  1  0.98400000  0.26290000  0.62770000  1.0 -0.0899334116
C  C24  1  0.01600000  0.76290000  0.87230000  1.0 -0.0899334116
C  C25  1  0.05410000  0.86590000  0.31560000  1.0 0.5330576026
C  C26  1  0.94590000  0.36590000  0.18440000  1.0 0.5330576026
C  C27  1  0.94590000  0.13410000  0.68440000  1.0 0.5330576026
C  C28  1  0.05410000  0.63410000  0.81560000  1.0 0.5330576026
C  C29  1  0.86380000  0.57550000  0.28750000  1.0 0.5891604895
C  C30  1  0.13620000  0.07550000  0.21250000  1.0 0.5891604895
C  C31  1  0.13620000  0.42450000  0.71250000  1.0 0.5891604895
C  C32  1  0.86380000  0.92450000  0.78750000  1.0 0.5891604895
C  C33  1  0.98010000  0.60350000  0.42930000  1.0 0.5983020787
C  C34  1  0.01990000  0.10350000  0.07070000  1.0 0.5983020787
C  C35  1  0.01990000  0.39650000  0.57070000  1.0 0.5983020787
C  C36  1  0.98010000  0.89650000  0.92930000  1.0 0.5983020787
C  C37  1  0.47130000  0.73170000  0.32390000  1.0 -0.0111405573
C  C38  1  0.52870000  0.23170000  0.17610000  1.0 -0.0111405573
C  C39  1  0.52870000  0.26830000  0.67610000  1.0 -0.0111405573
C  C40  1  0.47130000  0.76830000  0.82390000  1.0 -0.0111405573
C  C41  1  0.47190000  0.69670000  0.36500000  1.0 -0.0899334116
C  C42  1  0.52810000  0.19670000  0.13500000  1.0 -0.0899334116
C  C43  1  0.52810000  0.30330000  0.63500000  1.0 -0.0899334116
C  C44  1  0.47190000  0.80330000  0.86500000  1.0 -0.0899334116
C  C45  1  0.52050000  0.60920000  0.37810000  1.0 -0.0111405573
C  C46  1  0.47950000  0.10920000  0.12190000  1.0 -0.0111405573
C  C47  1  0.47950000  0.39080000  0.62190000  1.0 -0.0111405573
C  C48  1  0.52050000  0.89080000  0.87810000  1.0 -0.0111405573
C  C49  1  0.56730000  0.56510000  0.34990000  1.0 -0.0801904286
C  C50  1  0.43270000  0.06510000  0.15010000  1.0 -0.0801904286
C  C51  1  0.43270000  0.43490000  0.65010000  1.0 -0.0801904286
C  C52  1  0.56730000  0.93490000  0.84990000  1.0 -0.0801904286
C  C53  1  0.56970000  0.60110000  0.30710000  1.0 -0.0311650936
C  C54  1  0.43030000  0.10110000  0.19290000  1.0 -0.0311650936
C  C55  1  0.43030000  0.39890000  0.69290000  1.0 -0.0311650936
C  C56  1  0.56970000  0.89890000  0.80710000  1.0 -0.0311650936
C  C57  1  0.52030000  0.68230000  0.29370000  1.0 -0.0801904286
C  C58  1  0.47970000  0.18230000  0.20630000  1.0 -0.0801904286
C  C59  1  0.47970000  0.31770000  0.70630000  1.0 -0.0801904286
C  C60  1  0.52030000  0.81770000  0.79370000  1.0 -0.0801904286
C  C61  1  0.41930000  0.82450000  0.30930000  1.0 0.5555909598
C  C62  1  0.58070000  0.32450000  0.19070000  1.0 0.5555909598
C  C63  1  0.58070000  0.17550000  0.69070000  1.0 0.5555909598
C  C64  1  0.41930000  0.67550000  0.80930000  1.0 0.5555909598
C  C65  1  0.51820000  0.56610000  0.42310000  1.0 0.5983020787
C  C66  1  0.48180000  0.06610000  0.07690000  1.0 0.5983020787
C  C67  1  0.48180000  0.43390000  0.57690000  1.0 0.5983020787
C  C68  1  0.51820000  0.93390000  0.92310000  1.0 0.5983020787
C  C69  1  0.62210000  0.54830000  0.27750000  1.0 0.6079141372
C  C70  1  0.37790000  0.04830000  0.22250000  1.0 0.6079141372
C  C71  1  0.37790000  0.45170000  0.72250000  1.0 0.6079141372
C  C72  1  0.62210000  0.95170000  0.77750000  1.0 0.6079141372
C  C73  1  0.81800000  0.65530000  0.54890000  1.0 -0.0311650936
C  C74  1  0.18200000  0.15530000  0.95110000  1.0 -0.0311650936
C  C75  1  0.18200000  0.34470000  0.45110000  1.0 -0.0311650936
C  C76  1  0.81800000  0.84470000  0.04890000  1.0 -0.0311650936
C  C77  1  0.81540000  0.74210000  0.58150000  1.0 -0.0899334116
C  C78  1  0.18460000  0.24210000  0.91850000  1.0 -0.0899334116
C  C79  1  0.18460000  0.25790000  0.41850000  1.0 -0.0899334116
C  C80  1  0.81540000  0.75790000  0.08150000  1.0 -0.0899334116
C  C81  1  0.74950000  0.76800000  0.59710000  1.0 -0.0156469126
C  C82  1  0.25050000  0.26800000  0.90290000  1.0 -0.0156469126
C  C83  1  0.25050000  0.23200000  0.40290000  1.0 -0.0156469126
C  C84  1  0.74950000  0.73200000  0.09710000  1.0 -0.0156469126
C  C85  1  0.67860000  0.73240000  0.57860000  1.0 -0.0801904286
C  C86  1  0.32140000  0.23240000  0.92140000  1.0 -0.0801904286
C  C87  1  0.32140000  0.26760000  0.42140000  1.0 -0.0801904286
C  C88  1  0.67860000  0.76760000  0.07860000  1.0 -0.0801904286
C  C89  1  0.68460000  0.65080000  0.54630000  1.0 -0.0453982348
C  C90  1  0.31540000  0.15080000  0.95370000  1.0 -0.0453982348
C  C91  1  0.31540000  0.34920000  0.45370000  1.0 -0.0453982348
C  C92  1  0.68460000  0.84920000  0.04630000  1.0 -0.0453982348
C  C93  1  0.75330000  0.61270000  0.53320000  1.0 -0.0801904286
C  C94  1  0.24670000  0.11270000  0.96680000  1.0 -0.0801904286
C  C95  1  0.24670000  0.38730000  0.46680000  1.0 -0.0801904286
C  C96  1  0.75330000  0.88730000  0.03320000  1.0 -0.0801904286
C  C97  1  0.88980000  0.61330000  0.53380000  1.0 0.5891604895
C  C98  1  0.11020000  0.11330000  0.96620000  1.0 0.5891604895
C  C99  1  0.11020000  0.38670000  0.46620000  1.0 0.5891604895
C  C100  1  0.88980000  0.88670000  0.03380000  1.0 0.5891604895
C  C101  1  0.74570000  0.85390000  0.63250000  1.0 0.6079141372
C  C102  1  0.25430000  0.35390000  0.86750000  1.0 0.6079141372
C  C103  1  0.25430000  0.14610000  0.36750000  1.0 0.6079141372
C  C104  1  0.74570000  0.64610000  0.13250000  1.0 0.6079141372
C  C105  1  0.61700000  0.60250000  0.52810000  1.0 0.5983020787
C  C106  1  0.38300000  0.10250000  0.97190000  1.0 0.5983020787
C  C107  1  0.38300000  0.39750000  0.47190000  1.0 0.5983020787
C  C108  1  0.61700000  0.89750000  0.02810000  1.0 0.5983020787
O  O1  1  0.09140000  0.91870000  0.34300000  1.0 -0.4668362892
O  O2  1  0.90860000  0.41870000  0.15700000  1.0 -0.4668362892
O  O3  1  0.90860000  0.08130000  0.65700000  1.0 -0.4668362892
O  O4  1  0.09140000  0.58130000  0.84300000  1.0 -0.4668362892
O  O5  1  0.05980000  0.88440000  0.27790000  1.0 -0.4639710164
O  O6  1  0.94020000  0.38440000  0.22210000  1.0 -0.4639710164
O  O7  1  0.94020000  0.11560000  0.72210000  1.0 -0.4668362892
O  O8  1  0.05980000  0.61560000  0.77790000  1.0 -0.4639710164
O  O9  1  0.84680000  0.61260000  0.25140000  1.0 -0.5395111616
O  O10  1  0.15320000  0.11260000  0.24860000  1.0 -0.5395111616
O  O11  1  0.15320000  0.38740000  0.74860000  1.0 -0.5395111616
O  O12  1  0.84680000  0.88740000  0.75140000  1.0 -0.5395111616
O  O13  1  0.83380000  0.48600000  0.30120000  1.0 -0.5212939954
O  O14  1  0.16620000  0.98600000  0.19880000  1.0 -0.5212939954
O  O15  1  0.16620000  0.51400000  0.69880000  1.0 -0.5212939954
O  O16  1  0.83380000  0.01400000  0.80120000  1.0 -0.5212939954
O  O17  1  0.95420000  0.51050000  0.43640000  1.0 -0.5261586583
O  O18  1  0.04580000  0.01050000  0.06360000  1.0 -0.5261586583
O  O19  1  0.04580000  0.48950000  0.56360000  1.0 -0.5261586583
O  O20  1  0.95420000  0.98950000  0.93640000  1.0 -0.5261586583
O  O21  1  0.01940000  0.65580000  0.45530000  1.0 -0.5097219622
O  O22  1  0.98060000  0.15580000  0.04470000  1.0 -0.5097219622
O  O23  1  0.98060000  0.34420000  0.54470000  1.0 -0.5097219622
O  O24  1  0.01940000  0.84420000  0.95530000  1.0 -0.5097219622
O  O25  1  0.39930000  0.82520000  0.27160000  1.0 -0.4817622728
O  O26  1  0.60070000  0.32520000  0.22840000  1.0 -0.4817622728
O  O27  1  0.60070000  0.17480000  0.72840000  1.0 -0.4817622728
O  O28  1  0.39930000  0.67480000  0.77160000  1.0 -0.4817622728
O  O29  1  0.39910000  0.89210000  0.33660000  1.0 -0.4972331351
O  O30  1  0.60090000  0.39210000  0.16340000  1.0 -0.4972331351
O  O31  1  0.60090000  0.10790000  0.66340000  1.0 -0.4972331351
O  O32  1  0.39910000  0.60790000  0.83660000  1.0 -0.4972331351
O  O33  1  0.48380000  0.62730000  0.45015000  1.0 -0.5498343682
O  O34  1  0.51620000  0.12730000  0.04985000  1.0 -0.5498343682
O  O35  1  0.51620000  0.37270000  0.54985000  1.0 -0.5498343682
O  O36  1  0.48380000  0.87270000  0.95015000  1.0 -0.5498343682
O  O37  1  0.55240000  0.47830000  0.43030000  1.0 -0.5097219622
O  O38  1  0.44760000  0.97830000  0.06970000  1.0 -0.5097219622
O  O39  1  0.44760000  0.52170000  0.56970000  1.0 -0.5097219622
O  O40  1  0.55240000  0.02170000  0.93030000  1.0 -0.5097219622
O  O41  1  0.66780000  0.48050000  0.29321000  1.0 -0.5395111616
O  O42  1  0.33220000  0.98050000  0.20679000  1.0 -0.5395111616
O  O43  1  0.33220000  0.51950000  0.70679000  1.0 -0.5395111616
O  O44  1  0.66780000  0.01950000  0.79321000  1.0 -0.5395111616
O  O45  1  0.62040000  0.57970000  0.23915000  1.0 -0.5261586583
O  O46  1  0.37960000  0.07970000  0.26085000  1.0 -0.5261586583
O  O47  1  0.37960000  0.42030000  0.76085000  1.0 -0.5261586583
O  O48  1  0.62040000  0.92030000  0.73915000  1.0 -0.5261586583
O  O49  1  0.88750000  0.51740000  0.51550000  1.0 -0.5716253793
O  O50  1  0.11250000  0.01740000  0.98450000  1.0 -0.5716253793
O  O51  1  0.11250000  0.48260000  0.48450000  1.0 -0.5716253793
O  O52  1  0.88750000  0.98260000  0.01550000  1.0 -0.5716253793
O  O53  1  0.95160000  0.66920000  0.53810000  1.0 -0.5498343682
O  O54  1  0.04840000  0.16920000  0.96190000  1.0 -0.5498343682
O  O55  1  0.04840000  0.33080000  0.46190000  1.0 -0.5498343682
O  O56  1  0.95160000  0.83080000  0.03810000  1.0 -0.5498343682
O  O57  1  0.80540000  0.88330000  0.64720000  1.0 -0.5097219622
O  O58  1  0.19460000  0.38330000  0.85280000  1.0 -0.5097219622
O  O59  1  0.19460000  0.11670000  0.35280000  1.0 -0.5097219622
O  O60  1  0.80540000  0.61670000  0.14720000  1.0 -0.5097219622
O  O61  1  0.68300000  0.88570000  0.64540000  1.0 -0.5212939954
O  O62  1  0.31700000  0.38570000  0.85460000  1.0 -0.5212939954
O  O63  1  0.31700000  0.11430000  0.35460000  1.0 -0.5212939954
O  O64  1  0.68300000  0.61430000  0.14540000  1.0 -0.5212939954
O  O65  1  0.55450000  0.65630000  0.53180000  1.0 -0.5570323741
O  O66  1  0.44550000  0.15630000  0.96820000  1.0 -0.5570323741
O  O67  1  0.44550000  0.34370000  0.46820000  1.0 -0.5570323741
O  O68  1  0.55450000  0.84370000  0.03180000  1.0 -0.5570323741
O  O69  1  0.62040000  0.50900000  0.51060000  1.0 -0.5395111616
O  O70  1  0.37960000  0.00900000  0.98940000  1.0 -0.5395111616
O  O71  1  0.37960000  0.49100000  0.48940000  1.0 -0.5395111616
O  O72  1  0.62040000  0.99100000  0.01060000  1.0 -0.5395111616
O  O73  1  0.76120000  0.06440000  0.70845000  1.0 -0.9860566235
O  O74  1  0.23880000  0.56440000  0.79155000  1.0 -0.9860566235
O  O75  1  0.23880000  0.93560000  0.29155000  1.0 -0.9860566235
O  O76  1  0.76120000  0.43560000  0.20845000  1.0 -0.9860566235
