# DDEC6 charges by PACMAN v1.1 (https://github.com/mtap-research/PACMAN-charge/)
data_REHHIX_FSR_pacman
_symmetry_space_group_name_H-M   'P 1'
_cell_length_a   19.87390000
_cell_length_b   19.87390000
_cell_length_c   23.45200000
_cell_angle_alpha   63.47440000
_cell_angle_beta   116.52600000
_cell_angle_gamma   125.39100000
_symmetry_Int_Tables_number   1
_chemical_formula_structural   Cd3H33C42N5O17
_chemical_formula_sum   'Cd12 H132 C168 N20 O68'
_cell_volume   6528.22174083
_cell_formula_units_Z   4
loop_
 _symmetry_equiv_pos_site_id
 _symmetry_equiv_pos_as_xyz
  1  'x, y, z'
loop_
 _atom_site_type_symbol
 _atom_site_label
 _atom_site_symmetry_multiplicity
 _atom_site_fract_x
 _atom_site_fract_y
 _atom_site_fract_z
 _atom_site_occupancy
 _atom_site_charge
Cd  Cd1  1  0.81161000  0.39461000  0.31372000  1.0 0.9135538366
Cd  Cd2  1  0.39461000  0.81161000  0.18628000  1.0 0.9135538366
Cd  Cd3  1  0.18839000  0.60539000  0.68628000  1.0 0.9135538366
Cd  Cd4  1  0.60539000  0.18839000  0.81372000  1.0 0.9135538366
Cd  Cd5  1  0.22337000  0.86985000  0.02894000  1.0 1.0911894319
Cd  Cd6  1  0.86985000  0.22337000  0.47106000  1.0 1.0911894319
Cd  Cd7  1  0.77663000  0.13015000  0.97106000  1.0 1.0911894319
Cd  Cd8  1  0.13015000  0.77663000  0.52894000  1.0 1.0911894319
Cd  Cd9  1  0.69775000  0.06307000  0.82982000  1.0 1.0230402228
Cd  Cd10  1  0.06307000  0.69775000  0.67018000  1.0 1.0230402228
Cd  Cd11  1  0.30225000  0.93693000  0.17018000  1.0 1.0230402228
Cd  Cd12  1  0.93693000  0.30225000  0.32982000  1.0 1.0230402228
H  H1  1  0.79300000  0.64140000  0.16410000  1.0 0.1120931578
H  H2  1  0.64140000  0.79300000  0.33590000  1.0 0.1120931578
H  H3  1  0.20700000  0.35860000  0.83590000  1.0 0.1120931578
H  H4  1  0.35860000  0.20700000  0.66410000  1.0 0.1120931578
H  H5  1  0.74150000  0.73430000  0.08610000  1.0 0.1198804614
H  H6  1  0.73430000  0.74150000  0.41390000  1.0 0.1198804614
H  H7  1  0.25850000  0.26570000  0.91390000  1.0 0.1198804614
H  H8  1  0.26570000  0.25850000  0.58610000  1.0 0.1198804614
H  H9  1  0.55090000  0.59950000  0.17580000  1.0 0.1198804614
H  H10  1  0.59950000  0.55090000  0.32420000  1.0 0.1198804614
H  H11  1  0.44910000  0.40050000  0.82420000  1.0 0.1198804614
H  H12  1  0.40050000  0.44910000  0.67580000  1.0 0.1198804614
H  H13  1  0.59510000  0.49650000  0.23840000  1.0 0.1198804614
H  H14  1  0.49650000  0.59510000  0.26160000  1.0 0.1198804614
H  H15  1  0.40490000  0.50350000  0.76160000  1.0 0.1198804614
H  H16  1  0.50350000  0.40490000  0.73840000  1.0 0.1198804614
H  H17  1  0.43770000  0.95090000  0.94910000  1.0 0.1296142183
H  H18  1  0.95090000  0.43770000  0.55090000  1.0 0.1296142183
H  H19  1  0.56230000  0.04910000  0.05090000  1.0 0.1296142183
H  H20  1  0.04910000  0.56230000  0.44910000  1.0 0.1296142183
H  H21  1  0.61370000  0.88210000  0.99560000  1.0 0.1513688843
H  H22  1  0.88210000  0.61370000  0.50440000  1.0 0.1513688843
H  H23  1  0.38630000  0.11790000  0.00440000  1.0 0.1513688843
H  H24  1  0.11790000  0.38630000  0.49560000  1.0 0.1513688843
H  H25  1  0.43290000  0.74090000  0.09460000  1.0 0.1296142183
H  H26  1  0.74090000  0.43290000  0.40540000  1.0 0.1296142183
H  H27  1  0.56710000  0.25910000  0.90540000  1.0 0.1296142183
H  H28  1  0.25910000  0.56710000  0.59460000  1.0 0.1296142183
H  H29  1  0.03550000  0.94850000  0.44820000  1.0 0.1383681772
H  H30  1  0.94850000  0.03550000  0.05180000  1.0 0.1383681772
H  H31  1  0.96450000  0.05150000  0.55180000  1.0 0.1383681772
H  H32  1  0.05150000  0.96450000  0.94820000  1.0 0.1383681772
H  H33  1  0.95010000  0.01230000  0.37700000  1.0 0.1296142183
H  H34  1  0.01230000  0.95010000  0.12300000  1.0 0.1296142183
H  H35  1  0.04990000  0.98770000  0.62300000  1.0 0.1296142183
H  H36  1  0.98770000  0.04990000  0.87700000  1.0 0.1296142183
H  H37  1  0.77250000  0.83870000  0.47460000  1.0 0.1198804614
H  H38  1  0.83870000  0.77250000  0.02540000  1.0 0.1198804614
H  H39  1  0.22750000  0.16130000  0.52540000  1.0 0.1198804614
H  H40  1  0.16130000  0.22750000  0.97460000  1.0 0.1198804614
H  H41  1  0.86370000  0.78590000  0.55270000  1.0 0.1296142183
H  H42  1  0.78590000  0.86370000  0.94730000  1.0 0.1296142183
H  H43  1  0.13630000  0.21410000  0.44730000  1.0 0.1296142183
H  H44  1  0.21410000  0.13630000  0.05270000  1.0 0.1296142183
H  H45  1  0.78630000  0.10470000  0.36770000  1.0 0.1296142183
H  H46  1  0.10470000  0.78630000  0.13230000  1.0 0.1296142183
H  H47  1  0.21370000  0.89530000  0.63230000  1.0 0.1296142183
H  H48  1  0.89530000  0.21370000  0.86770000  1.0 0.1296142183
H  H49  1  0.56540000  0.90360000  0.31220000  1.0 0.1296142183
H  H50  1  0.90360000  0.56540000  0.18780000  1.0 0.1198804614
H  H51  1  0.43460000  0.09640000  0.68780000  1.0 0.1296142183
H  H52  1  0.09640000  0.43460000  0.81220000  1.0 0.1296142183
H  H53  1  0.57610000  0.13190000  0.25690000  1.0 0.1383681772
H  H54  1  0.13190000  0.57610000  0.24310000  1.0 0.1383681772
H  H55  1  0.42390000  0.86810000  0.74310000  1.0 0.1383681772
H  H56  1  0.86810000  0.42390000  0.75690000  1.0 0.1383681772
H  H57  1  0.88650000  0.62330000  0.90060000  1.0 0.1198804614
H  H58  1  0.62330000  0.88650000  0.59940000  1.0 0.1198804614
H  H59  1  0.11350000  0.37670000  0.09940000  1.0 0.1198804614
H  H60  1  0.37670000  0.11350000  0.40060000  1.0 0.1198804614
H  H61  1  0.97220000  0.62320000  0.94880000  1.0 0.1383681772
H  H62  1  0.62320000  0.97220000  0.55120000  1.0 0.1296142183
H  H63  1  0.02780000  0.37680000  0.05120000  1.0 0.1296142183
H  H64  1  0.37680000  0.02780000  0.44880000  1.0 0.1296142183
H  H65  1  0.97390000  0.69790000  0.88460000  1.0 0.1296142183
H  H66  1  0.69790000  0.97390000  0.61540000  1.0 0.1296142183
H  H67  1  0.02610000  0.30210000  0.11540000  1.0 0.1296142183
H  H68  1  0.30210000  0.02610000  0.38460000  1.0 0.1296142183
H  H69  1  0.82390000  0.65570000  0.92780000  1.0 0.1198804614
H  H70  1  0.65570000  0.82390000  0.57220000  1.0 0.1198804614
H  H71  1  0.17610000  0.34430000  0.07220000  1.0 0.1120931578
H  H72  1  0.34430000  0.17610000  0.42780000  1.0 0.1198804614
H  H73  1  0.86930000  0.75030000  0.93090000  1.0 0.1198804614
H  H74  1  0.75030000  0.86930000  0.56910000  1.0 0.1198804614
H  H75  1  0.13070000  0.24970000  0.06910000  1.0 0.1198804614
H  H76  1  0.24970000  0.13070000  0.43090000  1.0 0.1198804614
H  H77  1  0.86300000  0.67660000  0.99610000  1.0 0.1198804614
H  H78  1  0.67660000  0.86300000  0.50390000  1.0 0.1198804614
H  H79  1  0.13700000  0.32340000  0.00390000  1.0 0.1198804614
H  H80  1  0.32340000  0.13700000  0.49610000  1.0 0.1198804614
H  H81  1  0.22420000  0.14920000  0.77880000  1.0 0.1296142183
H  H82  1  0.14920000  0.22420000  0.72120000  1.0 0.1296142183
H  H83  1  0.77580000  0.85080000  0.22120000  1.0 0.1296142183
H  H84  1  0.85080000  0.77580000  0.27880000  1.0 0.1296142183
H  H85  1  0.22000000  0.12760000  0.85040000  1.0 0.1383681772
H  H86  1  0.12760000  0.22000000  0.64960000  1.0 0.1383681772
H  H87  1  0.78000000  0.87240000  0.14960000  1.0 0.1383681772
H  H88  1  0.87240000  0.78000000  0.35040000  1.0 0.1383681772
H  H89  1  0.15580000  0.05960000  0.80930000  1.0 0.1513688843
H  H90  1  0.05960000  0.15580000  0.69070000  1.0 0.1513688843
H  H91  1  0.84420000  0.94040000  0.19070000  1.0 0.1513688843
H  H92  1  0.94040000  0.84420000  0.30930000  1.0 0.1513688843
H  H93  1  0.33140000  0.15200000  0.77220000  1.0 0.1198804614
H  H94  1  0.15200000  0.33140000  0.72780000  1.0 0.1198804614
H  H95  1  0.66860000  0.84800000  0.22780000  1.0 0.1198804614
H  H96  1  0.84800000  0.66860000  0.27220000  1.0 0.1198804614
H  H97  1  0.33190000  0.06450000  0.79880000  1.0 0.1383681772
H  H98  1  0.06450000  0.33190000  0.70120000  1.0 0.1383681772
H  H99  1  0.66810000  0.93550000  0.20120000  1.0 0.1383681772
H  H100  1  0.93550000  0.66810000  0.29880000  1.0 0.1383681772
H  H101  1  0.39410000  0.13270000  0.83990000  1.0 0.1198804614
H  H102  1  0.13270000  0.39410000  0.66010000  1.0 0.1198804614
H  H103  1  0.60590000  0.86730000  0.16010000  1.0 0.1198804614
H  H104  1  0.86730000  0.60590000  0.33990000  1.0 0.1198804614
H  H105  1  0.89490000  0.33630000  0.63710000  1.0 0.1383681772
H  H106  1  0.33630000  0.89490000  0.86290000  1.0 0.1383681772
H  H107  1  0.10510000  0.66370000  0.36290000  1.0 0.1383681772
H  H108  1  0.66370000  0.10510000  0.13710000  1.0 0.1383681772
H  H109  1  0.90480000  0.28520000  0.71150000  1.0 0.1383681772
H  H110  1  0.28520000  0.90480000  0.78850000  1.0 0.1383681772
H  H111  1  0.09520000  0.71480000  0.28850000  1.0 0.1383681772
H  H112  1  0.71480000  0.09520000  0.21150000  1.0 0.1383681772
H  H113  1  0.85990000  0.23730000  0.65630000  1.0 0.1565462452
H  H114  1  0.23730000  0.85990000  0.84370000  1.0 0.1565462452
H  H115  1  0.14010000  0.76270000  0.34370000  1.0 0.1565462452
H  H116  1  0.76270000  0.14010000  0.15630000  1.0 0.1565462452
H  H117  1  0.80710000  0.38130000  0.59790000  1.0 0.1296142183
H  H118  1  0.38130000  0.80710000  0.90210000  1.0 0.1296142183
H  H119  1  0.19290000  0.61870000  0.40210000  1.0 0.1296142183
H  H120  1  0.61870000  0.19290000  0.09790000  1.0 0.1296142183
H  H121  1  0.71050000  0.31270000  0.59010000  1.0 0.1513688843
H  H122  1  0.31270000  0.71050000  0.90990000  1.0 0.1513688843
H  H123  1  0.28950000  0.68730000  0.40990000  1.0 0.1513688843
H  H124  1  0.68730000  0.28950000  0.09010000  1.0 0.1513688843
H  H125  1  0.75900000  0.35840000  0.64700000  1.0 0.1513688843
H  H126  1  0.35840000  0.75900000  0.85300000  1.0 0.1513688843
H  H127  1  0.24100000  0.64160000  0.35300000  1.0 0.1513688843
H  H128  1  0.64160000  0.24100000  0.14700000  1.0 0.1513688843
H  H129  1  0.83100000  0.03500000  0.35000000  1.0 0.095419581
H  H130  1  0.03500000  0.83100000  0.15000000  1.0 0.095419581
H  H131  1  0.16900000  0.96500000  0.65000000  1.0 0.095419581
H  H132  1  0.96500000  0.16900000  0.85000000  1.0 0.095419581
C  C1  1  0.73230000  0.49010000  0.24530000  1.0 0.3611331609
C  C2  1  0.49010000  0.73230000  0.25470000  1.0 0.3611331609
C  C3  1  0.26770000  0.50990000  0.75470000  1.0 0.3611331609
C  C4  1  0.50990000  0.26770000  0.74530000  1.0 0.3611331609
C  C5  1  0.69520000  0.55060000  0.20240000  1.0 -0.1091008925
C  C6  1  0.55060000  0.69520000  0.29760000  1.0 -0.1091008925
C  C7  1  0.30480000  0.44940000  0.79760000  1.0 -0.1091008925
C  C8  1  0.44940000  0.30480000  0.70240000  1.0 -0.1091008925
C  C9  1  0.73850000  0.62790000  0.16130000  1.0 -0.1375626314
C  C10  1  0.62790000  0.73850000  0.33870000  1.0 -0.1375626314
C  C11  1  0.26150000  0.37210000  0.83870000  1.0 -0.1375626314
C  C12  1  0.37210000  0.26150000  0.66130000  1.0 -0.1375626314
C  C13  1  0.71170000  0.68790000  0.11650000  1.0 -0.1375626314
C  C14  1  0.68790000  0.71170000  0.38350000  1.0 -0.1375626314
C  C15  1  0.28830000  0.31210000  0.88350000  1.0 -0.1375626314
C  C16  1  0.31210000  0.28830000  0.61650000  1.0 -0.1375626314
C  C17  1  0.63660000  0.67180000  0.12150000  1.0 0.0511441034
C  C18  1  0.67180000  0.63660000  0.37850000  1.0 0.0511441034
C  C19  1  0.36340000  0.32820000  0.87850000  1.0 0.0511441034
C  C20  1  0.32820000  0.36340000  0.62150000  1.0 0.0511441034
C  C21  1  0.59650000  0.60430000  0.16930000  1.0 -0.1595343771
C  C22  1  0.60430000  0.59650000  0.33070000  1.0 -0.1595343771
C  C23  1  0.40350000  0.39570000  0.83070000  1.0 -0.1595343771
C  C24  1  0.39570000  0.40350000  0.66930000  1.0 -0.1595343771
C  C25  1  0.62460000  0.54320000  0.20810000  1.0 -0.1492469917
C  C26  1  0.54320000  0.62460000  0.29190000  1.0 -0.1492469917
C  C27  1  0.37540000  0.45680000  0.79190000  1.0 -0.1492469917
C  C28  1  0.45680000  0.37540000  0.70810000  1.0 -0.1492469917
C  C29  1  0.60220000  0.73380000  0.07920000  1.0 0.0610270683
C  C30  1  0.73380000  0.60220000  0.42080000  1.0 0.0610270683
C  C31  1  0.39780000  0.26620000  0.92080000  1.0 0.0610270683
C  C32  1  0.26620000  0.39780000  0.57920000  1.0 0.0610270683
C  C33  1  0.34580000  0.82820000  0.03420000  1.0 0.5786622939
C  C34  1  0.82820000  0.34580000  0.46580000  1.0 0.5786622939
C  C35  1  0.65420000  0.17180000  0.96580000  1.0 0.5786622939
C  C36  1  0.17180000  0.65420000  0.53420000  1.0 0.5786622939
C  C37  1  0.42280000  0.84340000  0.02320000  1.0 -0.0075190106
C  C38  1  0.84340000  0.42280000  0.47680000  1.0 -0.0075190106
C  C39  1  0.57720000  0.15660000  0.97680000  1.0 -0.0075190106
C  C40  1  0.15660000  0.57720000  0.52320000  1.0 -0.0075190106
C  C41  1  0.46070000  0.91390000  0.97500000  1.0 -0.1375626314
C  C42  1  0.91390000  0.46070000  0.52500000  1.0 -0.130374563
C  C43  1  0.53930000  0.08610000  0.02500000  1.0 -0.130374563
C  C44  1  0.08610000  0.53930000  0.47500000  1.0 -0.1375626314
C  C45  1  0.53250000  0.92910000  0.96550000  1.0 -0.0038795891
C  C46  1  0.92910000  0.53250000  0.53450000  1.0 -0.0038795891
C  C47  1  0.46750000  0.07090000  0.03450000  1.0 -0.0038795891
C  C48  1  0.07090000  0.46750000  0.46550000  1.0 -0.0038795891
C  C49  1  0.56580000  0.87240000  0.00250000  1.0 -0.2183170441
C  C50  1  0.87240000  0.56580000  0.49750000  1.0 -0.2183170441
C  C51  1  0.43420000  0.12760000  0.99750000  1.0 -0.2183170441
C  C52  1  0.12760000  0.43420000  0.50250000  1.0 -0.2183170441
C  C53  1  0.52630000  0.80030000  0.05030000  1.0 0.1296142183
C  C54  1  0.80030000  0.52630000  0.44970000  1.0 0.1296142183
C  C55  1  0.47370000  0.19970000  0.94970000  1.0 0.1296142183
C  C56  1  0.19970000  0.47370000  0.55030000  1.0 0.1296142183
C  C57  1  0.45720000  0.78720000  0.06150000  1.0 -0.2069931152
C  C58  1  0.78720000  0.45720000  0.43850000  1.0 -0.2069931152
C  C59  1  0.54280000  0.21280000  0.93850000  1.0 -0.2069931152
C  C60  1  0.21280000  0.54280000  0.56150000  1.0 -0.2069931152
C  C61  1  0.57750000  0.00850000  0.91760000  1.0 0.5881914896
C  C62  1  0.00850000  0.57750000  0.58240000  1.0 0.5881914896
C  C63  1  0.42250000  0.99150000  0.08240000  1.0 0.5881914896
C  C64  1  0.99150000  0.42250000  0.41760000  1.0 0.5881914896
C  C65  1  0.01540000  0.82200000  0.55720000  1.0 0.5786622939
C  C66  1  0.82200000  0.01540000  0.94280000  1.0 0.5786622939
C  C67  1  0.98460000  0.17800000  0.44280000  1.0 0.5786622939
C  C68  1  0.17800000  0.98460000  0.05720000  1.0 0.5786622939
C  C69  1  0.95800000  0.86080000  0.50690000  1.0 -0.0177788803
C  C70  1  0.86080000  0.95800000  0.99310000  1.0 -0.0177788803
C  C71  1  0.04200000  0.13920000  0.49310000  1.0 -0.0177788803
C  C72  1  0.13920000  0.04200000  0.00690000  1.0 -0.0177788803
C  C73  1  0.98320000  0.92760000  0.45490000  1.0 -0.0931181099
C  C74  1  0.92760000  0.98320000  0.04510000  1.0 -0.0931181099
C  C75  1  0.01680000  0.07240000  0.54510000  1.0 -0.0931181099
C  C76  1  0.07240000  0.01680000  0.95490000  1.0 -0.0931181099
C  C77  1  0.93110000  0.96490000  0.41150000  1.0 -0.1492469917
C  C78  1  0.96490000  0.93110000  0.08850000  1.0 -0.1492469917
C  C79  1  0.06890000  0.03510000  0.58850000  1.0 -0.1492469917
C  C80  1  0.03510000  0.06890000  0.91150000  1.0 -0.1492469917
C  C81  1  0.85220000  0.93280000  0.41890000  1.0 0.076708625
C  C82  1  0.93280000  0.85220000  0.08110000  1.0 0.076708625
C  C83  1  0.14780000  0.06720000  0.58110000  1.0 0.076708625
C  C84  1  0.06720000  0.14780000  0.91890000  1.0 0.076708625
C  C85  1  0.82710000  0.86370000  0.47030000  1.0 -0.130374563
C  C86  1  0.86370000  0.82710000  0.02970000  1.0 -0.130374563
C  C87  1  0.17290000  0.13630000  0.52970000  1.0 -0.130374563
C  C88  1  0.13630000  0.17290000  0.97030000  1.0 -0.130374563
C  C89  1  0.88030000  0.82990000  0.51580000  1.0 -0.1019572082
C  C90  1  0.82990000  0.88030000  0.98420000  1.0 -0.1019572082
C  C91  1  0.11970000  0.17010000  0.48420000  1.0 -0.1019572082
C  C92  1  0.17010000  0.11970000  0.01580000  1.0 -0.1019572082
C  C93  1  0.79950000  0.97550000  0.37540000  1.0 0.0610270683
C  C94  1  0.97550000  0.79950000  0.12460000  1.0 0.0610270683
C  C95  1  0.20050000  0.02450000  0.62460000  1.0 0.0610270683
C  C96  1  0.02450000  0.20050000  0.87540000  1.0 0.0610270683
C  C97  1  0.73700000  0.22320000  0.31440000  1.0 0.5881914896
C  C98  1  0.22320000  0.73700000  0.18560000  1.0 0.5881914896
C  C99  1  0.26300000  0.77680000  0.68560000  1.0 0.5881914896
C  C100  1  0.77680000  0.26300000  0.81440000  1.0 0.5881914896
C  C101  1  0.68910000  0.13250000  0.31220000  1.0 -0.0177788803
C  C102  1  0.13250000  0.68910000  0.18780000  1.0 -0.0177788803
C  C103  1  0.31090000  0.86750000  0.68780000  1.0 -0.0177788803
C  C104  1  0.86750000  0.31090000  0.81220000  1.0 -0.0177788803
C  C105  1  0.72900000  0.08160000  0.34480000  1.0 -0.1787936958
C  C106  1  0.08160000  0.72900000  0.15520000  1.0 -0.1787936958
C  C107  1  0.27100000  0.91840000  0.65520000  1.0 -0.1787936958
C  C108  1  0.91840000  0.27100000  0.84480000  1.0 -0.1787936958
C  C109  1  0.68410000  0.99670000  0.34330000  1.0 0.1998970163
C  C110  1  0.99670000  0.68410000  0.15670000  1.0 0.1998970163
C  C111  1  0.31590000  0.00330000  0.65670000  1.0 0.1998970163
C  C112  1  0.00330000  0.31590000  0.84330000  1.0 0.1998970163
C  C113  1  0.59690000  0.96130000  0.31130000  1.0 -0.1925227019
C  C114  1  0.96130000  0.59690000  0.18870000  1.0 -0.1925227019
C  C115  1  0.40310000  0.03870000  0.68870000  1.0 -0.1925227019
C  C116  1  0.03870000  0.40310000  0.81130000  1.0 -0.1925227019
C  C117  1  0.55750000  0.01270000  0.27810000  1.0 -0.0075190106
C  C118  1  0.01270000  0.55750000  0.22190000  1.0 -0.0075190106
C  C119  1  0.44250000  0.98730000  0.72190000  1.0 -0.0075190106
C  C120  1  0.98730000  0.44250000  0.77810000  1.0 -0.0075190106
C  C121  1  0.60300000  0.09800000  0.27870000  1.0 -0.1231937829
C  C122  1  0.09800000  0.60300000  0.22130000  1.0 -0.1231937829
C  C123  1  0.39700000  0.90200000  0.72130000  1.0 -0.1231937829
C  C124  1  0.90200000  0.39700000  0.77870000  1.0 -0.1231937829
C  C125  1  0.46500000  0.97780000  0.24220000  1.0 0.5726039288
C  C126  1  0.97780000  0.46500000  0.25780000  1.0 0.5726039288
C  C127  1  0.53500000  0.02220000  0.75780000  1.0 0.5726039288
C  C128  1  0.02220000  0.53500000  0.74220000  1.0 0.5726039288
C  C129  1  0.02410000  0.75750000  0.98930000  1.0 0.1198804614
C  C130  1  0.75750000  0.02410000  0.51070000  1.0 0.1296142183
C  C131  1  0.97590000  0.24250000  0.01070000  1.0 0.1296142183
C  C132  1  0.24250000  0.97590000  0.48930000  1.0 0.1296142183
C  C133  1  0.94550000  0.65850000  0.91930000  1.0 -0.2911984745
C  C134  1  0.65850000  0.94550000  0.58070000  1.0 -0.2911984745
C  C135  1  0.05450000  0.34150000  0.08070000  1.0 -0.2911984745
C  C136  1  0.34150000  0.05450000  0.41930000  1.0 -0.2911984745
C  C137  1  0.86980000  0.69660000  0.95250000  1.0 -0.3196323524
C  C138  1  0.69660000  0.86980000  0.54750000  1.0 -0.3196323524
C  C139  1  0.13020000  0.30340000  0.04750000  1.0 -0.3196323524
C  C140  1  0.30340000  0.13020000  0.45250000  1.0 -0.3196323524
C  C141  1  0.26990000  0.00910000  0.89990000  1.0 0.2901984033
C  C142  1  0.00910000  0.26990000  0.60010000  1.0 0.2901984033
C  C143  1  0.73010000  0.99090000  0.10010000  1.0 0.2901984033
C  C144  1  0.99090000  0.73010000  0.39990000  1.0 0.2901984033
C  C145  1  0.21310000  0.10490000  0.81860000  1.0 -0.3331521723
C  C146  1  0.10490000  0.21310000  0.68140000  1.0 -0.3331521723
C  C147  1  0.78690000  0.89510000  0.18140000  1.0 -0.3331521723
C  C148  1  0.89510000  0.78690000  0.31860000  1.0 -0.3331521723
C  C149  1  0.33830000  0.10830000  0.81110000  1.0 -0.3591776016
C  C150  1  0.10830000  0.33830000  0.68890000  1.0 -0.3591776016
C  C151  1  0.66170000  0.89170000  0.18890000  1.0 -0.3591776016
C  C152  1  0.89170000  0.66170000  0.31110000  1.0 -0.3591776016
C  C153  1  0.73810000  0.19870000  0.70180000  1.0 0.1998970163
C  C154  1  0.19870000  0.73810000  0.79820000  1.0 0.1998970163
C  C155  1  0.26190000  0.80130000  0.29820000  1.0 0.1998970163
C  C156  1  0.80130000  0.26190000  0.20180000  1.0 0.1998970163
C  C157  1  0.86850000  0.28310000  0.66760000  1.0 -0.2986251536
C  C158  1  0.28310000  0.86850000  0.83240000  1.0 -0.2986251536
C  C159  1  0.13150000  0.71690000  0.33240000  1.0 -0.2986251536
C  C160  1  0.71690000  0.13150000  0.16760000  1.0 -0.2986251536
C  C161  1  0.76420000  0.33620000  0.62120000  1.0 -0.3196323524
C  C162  1  0.33620000  0.76420000  0.87880000  1.0 -0.3196323524
C  C163  1  0.23580000  0.66380000  0.37880000  1.0 -0.3196323524
C  C164  1  0.66380000  0.23580000  0.12120000  1.0 -0.3196323524
C  C165  1  0.54680000  0.68100000  0.11730000  1.0 0.0610270683
C  C166  1  0.68100000  0.54680000  0.38270000  1.0 0.0610270683
C  C167  1  0.45320000  0.31900000  0.88270000  1.0 0.0610270683
C  C168  1  0.31900000  0.45320000  0.61730000  1.0 0.0610270683
N  N1  1  0.55830000  0.74070000  0.09000000  1.0 -0.0556379735
N  N2  1  0.74070000  0.55830000  0.41000000  1.0 -0.0556379735
N  N3  1  0.44170000  0.25930000  0.91000000  1.0 -0.0556379735
N  N4  1  0.25930000  0.44170000  0.59000000  1.0 -0.0556379735
N  N5  1  0.72370000  0.94450000  0.37820000  1.0 -0.275513691
N  N6  1  0.94450000  0.72370000  0.12180000  1.0 -0.275513691
N  N7  1  0.27630000  0.05550000  0.62180000  1.0 -0.275513691
N  N8  1  0.05550000  0.27630000  0.87820000  1.0 -0.2748396221
N  N9  1  0.95160000  0.70780000  0.95680000  1.0 0.0190775002
N  N10  1  0.70780000  0.95160000  0.54320000  1.0 0.0190775002
N  N11  1  0.04840000  0.29220000  0.04320000  1.0 0.0190775002
N  N12  1  0.29220000  0.04840000  0.45680000  1.0 0.0190775002
N  N13  1  0.27350000  0.07130000  0.84510000  1.0 0.0061244214
N  N14  1  0.07130000  0.27350000  0.65490000  1.0 0.0061244214
N  N15  1  0.72650000  0.92870000  0.15490000  1.0 0.0061244214
N  N16  1  0.92870000  0.72650000  0.34510000  1.0 0.0061244214
N  N17  1  0.78860000  0.26940000  0.66450000  1.0 0.0190775002
N  N18  1  0.26940000  0.78860000  0.83550000  1.0 0.0190775002
N  N19  1  0.21140000  0.73060000  0.33550000  1.0 0.0190775002
N  N20  1  0.73060000  0.21140000  0.16450000  1.0 0.0190775002
O  O1  1  0.79960000  0.51040000  0.24370000  1.0 0.0363581431
O  O2  1  0.51040000  0.79960000  0.25630000  1.0 0.0363581431
O  O3  1  0.20040000  0.48960000  0.75630000  1.0 0.0363581431
O  O4  1  0.48960000  0.20040000  0.74370000  1.0 0.0363581431
O  O5  1  0.69010000  0.41970000  0.28590000  1.0 -0.2025986548
O  O6  1  0.41970000  0.69010000  0.21410000  1.0 -0.2025986548
O  O7  1  0.30990000  0.58030000  0.71410000  1.0 -0.2025986548
O  O8  1  0.58030000  0.30990000  0.78590000  1.0 -0.2025986548
O  O9  1  0.30814000  0.87046000  0.99050000  1.0 -0.5595857325
O  O10  1  0.87046000  0.30814000  0.50950000  1.0 -0.5595857325
O  O11  1  0.69186000  0.12954000  0.00950000  1.0 -0.5595857325
O  O12  1  0.12954000  0.69186000  0.49050000  1.0 -0.5595857325
O  O13  1  0.32336000  0.77584000  0.08680000  1.0 -0.574629021
O  O14  1  0.77584000  0.32336000  0.41320000  1.0 -0.574629021
O  O15  1  0.67664000  0.22416000  0.91320000  1.0 -0.574629021
O  O16  1  0.22416000  0.67664000  0.58680000  1.0 -0.574629021
O  O17  1  0.65187000  0.02613000  0.92070000  1.0 -0.6138215187
O  O18  1  0.02613000  0.65187000  0.57930000  1.0 -0.6138215187
O  O19  1  0.34813000  0.97387000  0.07930000  1.0 -0.6138215187
O  O20  1  0.97387000  0.34813000  0.42070000  1.0 -0.6138215187
O  O21  1  0.54196000  0.05324000  0.88000000  1.0 -0.5381770107
O  O22  1  0.05324000  0.54196000  0.62000000  1.0 -0.5381770107
O  O23  1  0.45804000  0.94676000  0.12000000  1.0 -0.5381770107
O  O24  1  0.94676000  0.45804000  0.38000000  1.0 -0.5381770107
O  O25  1  0.08273000  0.84607000  0.54630000  1.0 -0.5595857325
O  O26  1  0.84607000  0.08273000  0.95370000  1.0 -0.5595857325
O  O27  1  0.91727000  0.15393000  0.45370000  1.0 -0.5595857325
O  O28  1  0.15393000  0.91727000  0.04630000  1.0 -0.5595857325
O  O29  1  0.99023000  0.76657000  0.60760000  1.0 -0.5266134861
O  O30  1  0.76657000  0.99023000  0.89240000  1.0 -0.5266134861
O  O31  1  0.00977000  0.23343000  0.39240000  1.0 -0.5266134861
O  O32  1  0.23343000  0.00977000  0.10760000  1.0 -0.5266134861
O  O33  1  0.81213000  0.24907000  0.35480000  1.0 -0.6261647466
O  O34  1  0.24907000  0.81213000  0.14520000  1.0 -0.6261647466
O  O35  1  0.18787000  0.75093000  0.64520000  1.0 -0.6261647466
O  O36  1  0.75093000  0.18787000  0.85480000  1.0 -0.6261647466
O  O37  1  0.70802000  0.27338000  0.27730000  1.0 -0.4923554408
O  O38  1  0.27338000  0.70802000  0.22270000  1.0 -0.4923554408
O  O39  1  0.29198000  0.72662000  0.72270000  1.0 -0.4923554408
O  O40  1  0.72662000  0.29198000  0.77730000  1.0 -0.4923554408
O  O41  1  0.43481000  0.02819000  0.21030000  1.0 -0.5173273805
O  O42  1  0.02819000  0.43481000  0.28970000  1.0 -0.5173273805
O  O43  1  0.56519000  0.97181000  0.78970000  1.0 -0.5173273805
O  O44  1  0.97181000  0.56519000  0.71030000  1.0 -0.5173273805
O  O45  1  0.41968000  0.89772000  0.24690000  1.0 -0.5986291888
O  O46  1  0.89772000  0.41968000  0.25310000  1.0 -0.5986291888
O  O47  1  0.58032000  0.10228000  0.75310000  1.0 -0.5986291888
O  O48  1  0.10228000  0.58032000  0.74690000  1.0 -0.5986291888
O  O49  1  0.09810000  0.76210000  0.99860000  1.0 -0.5381770107
O  O50  1  0.76210000  0.09810000  0.50140000  1.0 -0.5381770107
O  O51  1  0.90190000  0.23790000  0.00140000  1.0 -0.5381770107
O  O52  1  0.23790000  0.90190000  0.49860000  1.0 -0.5381770107
O  O53  1  0.21610000  0.97310000  0.93100000  1.0 -0.466879529
O  O54  1  0.97310000  0.21610000  0.56900000  1.0 -0.466879529
O  O55  1  0.78390000  0.02690000  0.06900000  1.0 -0.466879529
O  O56  1  0.02690000  0.78390000  0.43100000  1.0 -0.466879529
O  O57  1  0.75890000  0.14310000  0.74460000  1.0 -0.5098661604
O  O58  1  0.14310000  0.75890000  0.75540000  1.0 -0.5098661604
O  O59  1  0.24110000  0.85690000  0.25540000  1.0 -0.5098661604
O  O60  1  0.85690000  0.24110000  0.24460000  1.0 -0.5098661604
O  O61  1  0.75950000  0.47850000  0.29110000  1.0 0.0340098579
O  O62  1  0.47850000  0.75950000  0.20890000  1.0 0.0340098579
O  O63  1  0.24050000  0.52150000  0.70890000  1.0 0.0340098579
O  O64  1  0.52150000  0.24050000  0.79110000  1.0 0.0340098579
O  O65  1  0.77080000  0.48060000  0.20670000  1.0 -0.1019572082
O  O66  1  0.48060000  0.77080000  0.29330000  1.0 -0.1091008925
O  O67  1  0.22920000  0.51940000  0.79330000  1.0 -0.1091008925
O  O68  1  0.51940000  0.22920000  0.70670000  1.0 -0.1091008925
