# DDEC6 charges by PACMAN v1.1 (https://github.com/mtap-research/PACMAN-charge/)
data_REHHOD_ASR_pacman
_symmetry_space_group_name_H-M   'P 1'
_cell_length_a   19.69760000
_cell_length_b   19.69760000
_cell_length_c   23.03100000
_cell_angle_alpha   64.82580000
_cell_angle_beta   115.17400000
_cell_angle_gamma   124.09300000
_symmetry_Int_Tables_number   1
_chemical_formula_structural   Cd3H14C32(NO7)2
_chemical_formula_sum   'Cd12 H56 C128 N8 O56'
_cell_volume   6485.56546161
_cell_formula_units_Z   4
loop_
 _symmetry_equiv_pos_site_id
 _symmetry_equiv_pos_as_xyz
  1  'x, y, z'
loop_
 _atom_site_type_symbol
 _atom_site_label
 _atom_site_symmetry_multiplicity
 _atom_site_fract_x
 _atom_site_fract_y
 _atom_site_fract_z
 _atom_site_occupancy
 _atom_site_charge
Cd  Cd1  1  0.09959000  0.67925000  0.30573000  1.0 0.9356810463
Cd  Cd2  1  0.67925000  0.09959000  0.19427000  1.0 0.9356810463
Cd  Cd3  1  0.90041000  0.32075000  0.69427000  1.0 0.9348066462
Cd  Cd4  1  0.32075000  0.90041000  0.80573000  1.0 0.9348066462
Cd  Cd5  1  0.62178000  0.26896000  0.03547000  1.0 1.0868480814
Cd  Cd6  1  0.26896000  0.62178000  0.46453000  1.0 1.084465803
Cd  Cd7  1  0.37822000  0.73104000  0.96453000  1.0 1.0868480814
Cd  Cd8  1  0.73104000  0.37822000  0.53547000  1.0 1.084465803
Cd  Cd9  1  0.44278000  0.80114000  0.82219000  1.0 1.0271822227
Cd  Cd10  1  0.80114000  0.44278000  0.67781000  1.0 1.0271822227
Cd  Cd11  1  0.55722000  0.19886000  0.17781000  1.0 1.0271822227
Cd  Cd12  1  0.19886000  0.55722000  0.32219000  1.0 1.0271822227
H  H1  1  0.92450000  0.77870000  0.09160000  1.0 0.1290640844
H  H2  1  0.77870000  0.92450000  0.40840000  1.0 0.1290640844
H  H3  1  0.07550000  0.22130000  0.90840000  1.0 0.1290640844
H  H4  1  0.22130000  0.07550000  0.59160000  1.0 0.1290640844
H  H5  1  0.83750000  0.84370000  0.02710000  1.0 0.1205108235
H  H6  1  0.84370000  0.83750000  0.47290000  1.0 0.1205108235
H  H7  1  0.16250000  0.15630000  0.97290000  1.0 0.1205108235
H  H8  1  0.15630000  0.16250000  0.52710000  1.0 0.1205108235
H  H9  1  0.86180000  0.89100000  0.19090000  1.0 0.1105145813
H  H10  1  0.89100000  0.86180000  0.30910000  1.0 0.1105145813
H  H11  1  0.13820000  0.10900000  0.80910000  1.0 0.1105145813
H  H12  1  0.10900000  0.13820000  0.69090000  1.0 0.1105145813
H  H13  1  0.94520000  0.82420000  0.25330000  1.0 0.1105145813
H  H14  1  0.82420000  0.94520000  0.24670000  1.0 0.1105145813
H  H15  1  0.05480000  0.17580000  0.74670000  1.0 0.1105145813
H  H16  1  0.17580000  0.05480000  0.75330000  1.0 0.1105145813
H  H17  1  0.54900000  0.05980000  0.95010000  1.0 0.1290640844
H  H18  1  0.05980000  0.54900000  0.54990000  1.0 0.1290640844
H  H19  1  0.45100000  0.94020000  0.04990000  1.0 0.1290640844
H  H20  1  0.94020000  0.45100000  0.45010000  1.0 0.1290640844
H  H21  1  0.62200000  0.88740000  0.98930000  1.0 0.1290640844
H  H22  1  0.88740000  0.62200000  0.51070000  1.0 0.1290640844
H  H23  1  0.37800000  0.11260000  0.01070000  1.0 0.1290640844
H  H24  1  0.11260000  0.37800000  0.48930000  1.0 0.1290640844
H  H25  1  0.75260000  0.05700000  0.09870000  1.0 0.1205108235
H  H26  1  0.05700000  0.75260000  0.40130000  1.0 0.1205108235
H  H27  1  0.24740000  0.94300000  0.90130000  1.0 0.1205108235
H  H28  1  0.94300000  0.24740000  0.59870000  1.0 0.1205108235
H  H29  1  0.55570000  0.46850000  0.45890000  1.0 0.1290640844
H  H30  1  0.46850000  0.55570000  0.04110000  1.0 0.1290640844
H  H31  1  0.44430000  0.53150000  0.54110000  1.0 0.1290640844
H  H32  1  0.53150000  0.44430000  0.95890000  1.0 0.1290640844
H  H33  1  0.49440000  0.55460000  0.38310000  1.0 0.1205108235
H  H34  1  0.55460000  0.49440000  0.11690000  1.0 0.1205108235
H  H35  1  0.50560000  0.44540000  0.61690000  1.0 0.1205108235
H  H36  1  0.44540000  0.50560000  0.88310000  1.0 0.1205108235
H  H37  1  0.67170000  0.74110000  0.47220000  1.0 0.1105145813
H  H38  1  0.74110000  0.67170000  0.02780000  1.0 0.1105145813
H  H39  1  0.32830000  0.25890000  0.52780000  1.0 0.1105145813
H  H40  1  0.25890000  0.32830000  0.97220000  1.0 0.1105145813
H  H41  1  0.73160000  0.65580000  0.54630000  1.0 0.1290640844
H  H42  1  0.65580000  0.73160000  0.95370000  1.0 0.1290640844
H  H43  1  0.26840000  0.34420000  0.45370000  1.0 0.1290640844
H  H44  1  0.34420000  0.26840000  0.04630000  1.0 0.1290640844
H  H45  1  0.36350000  0.92290000  0.26290000  1.0 0.1290640844
H  H46  1  0.92290000  0.36350000  0.23710000  1.0 0.1290640844
H  H47  1  0.63650000  0.07710000  0.73710000  1.0 0.1290640844
H  H48  1  0.07710000  0.63650000  0.76290000  1.0 0.1290640844
H  H49  1  0.59540000  0.93920000  0.31730000  1.0 0.1290640844
H  H50  1  0.93920000  0.59540000  0.18270000  1.0 0.1290640844
H  H51  1  0.40460000  0.06080000  0.68270000  1.0 0.1290640844
H  H52  1  0.06080000  0.40460000  0.81730000  1.0 0.1290640844
H  H53  1  0.39530000  0.71490000  0.36510000  1.0 0.1205108235
H  H54  1  0.71490000  0.39530000  0.13490000  1.0 0.1205108235
H  H55  1  0.60470000  0.28510000  0.63490000  1.0 0.1205108235
H  H56  1  0.28510000  0.60470000  0.86510000  1.0 0.1205108235
C  C1  1  0.99980000  0.75340000  0.22140000  1.0 0.3613022802
C  C2  1  0.75340000  0.99980000  0.27860000  1.0 0.3613022802
C  C3  1  0.00020000  0.24660000  0.77860000  1.0 0.3613022802
C  C4  1  0.24660000  0.00020000  0.72140000  1.0 0.3613022802
C  C5  1  0.94270000  0.79470000  0.17820000  1.0 -0.0677763714
C  C6  1  0.79470000  0.94270000  0.32180000  1.0 -0.0677763714
C  C7  1  0.05730000  0.20530000  0.82180000  1.0 -0.0677763714
C  C8  1  0.20530000  0.05730000  0.67820000  1.0 -0.0677763714
C  C9  1  0.91080000  0.80040000  0.11150000  1.0 -0.1106422149
C  C10  1  0.80040000  0.91080000  0.38850000  1.0 -0.1106422149
C  C11  1  0.08920000  0.19960000  0.88850000  1.0 -0.1106422149
C  C12  1  0.19960000  0.08920000  0.61150000  1.0 -0.1106422149
C  C13  1  0.85760000  0.83840000  0.07270000  1.0 -0.1484066533
C  C14  1  0.83840000  0.85760000  0.42730000  1.0 -0.1484066533
C  C15  1  0.14240000  0.16160000  0.92730000  1.0 -0.1484066533
C  C16  1  0.16160000  0.14240000  0.57270000  1.0 -0.1484066533
C  C17  1  0.83550000  0.86830000  0.10380000  1.0 0.0609373285
C  C18  1  0.86830000  0.83550000  0.39620000  1.0 0.0609373285
C  C19  1  0.16450000  0.13170000  0.89620000  1.0 0.0609373285
C  C20  1  0.13170000  0.16450000  0.60380000  1.0 0.0609373285
C  C21  1  0.87210000  0.86630000  0.17100000  1.0 -0.1106422149
C  C22  1  0.86630000  0.87210000  0.32900000  1.0 -0.1106422149
C  C23  1  0.12790000  0.13370000  0.82900000  1.0 -0.1106422149
C  C24  1  0.13370000  0.12790000  0.67100000  1.0 -0.1106422149
C  C25  1  0.92330000  0.82790000  0.20790000  1.0 -0.1484066533
C  C26  1  0.82790000  0.92330000  0.29210000  1.0 -0.1484066533
C  C27  1  0.07670000  0.17210000  0.79210000  1.0 -0.1484066533
C  C28  1  0.17210000  0.07670000  0.70790000  1.0 -0.1484066533
C  C29  1  0.77910000  0.90750000  0.06300000  1.0 0.1205108235
C  C30  1  0.90750000  0.77910000  0.43700000  1.0 0.1205108235
C  C31  1  0.22090000  0.09250000  0.93700000  1.0 0.1205108235
C  C32  1  0.09250000  0.22090000  0.56300000  1.0 0.1205108235
C  C33  1  0.66626000  0.14474000  0.04120000  1.0 0.5808758098
C  C34  1  0.14474000  0.66626000  0.45880000  1.0 0.5914992306
C  C35  1  0.33374000  0.85526000  0.95880000  1.0 0.5808758098
C  C36  1  0.85526000  0.33374000  0.54120000  1.0 0.5808758098
C  C37  1  0.65349000  0.07151000  0.02570000  1.0 -0.021074169
C  C38  1  0.07151000  0.65349000  0.47430000  1.0 -0.021074169
C  C39  1  0.34651000  0.92849000  0.97430000  1.0 -0.021074169
C  C40  1  0.92849000  0.34651000  0.52570000  1.0 -0.021074169
C  C41  1  0.58610000  0.03670000  0.97510000  1.0 -0.121257343
C  C42  1  0.03670000  0.58610000  0.52490000  1.0 -0.121257343
C  C43  1  0.41390000  0.96330000  0.02490000  1.0 -0.121257343
C  C44  1  0.96330000  0.41390000  0.47510000  1.0 -0.121257343
C  C45  1  0.57351000  0.96749000  0.96170000  1.0 -0.00271297
C  C46  1  0.96749000  0.57351000  0.53830000  1.0 -0.00271297
C  C47  1  0.42649000  0.03251000  0.03830000  1.0 -0.00271297
C  C48  1  0.03251000  0.42649000  0.46170000  1.0 -0.00271297
C  C49  1  0.63011000  0.93349000  0.99830000  1.0 -0.1961615818
C  C50  1  0.93349000  0.63011000  0.50170000  1.0 -0.1961615818
C  C51  1  0.36989000  0.06651000  0.00170000  1.0 -0.1961615818
C  C52  1  0.06651000  0.36989000  0.49830000  1.0 -0.1961615818
C  C53  1  0.69790000  0.96850000  0.04790000  1.0 0.2126084579
C  C54  1  0.96850000  0.69790000  0.45210000  1.0 0.2126084579
C  C55  1  0.30210000  0.03150000  0.95210000  1.0 0.2126084579
C  C56  1  0.03150000  0.30210000  0.54790000  1.0 0.2126084579
C  C57  1  0.70877000  0.03583000  0.06340000  1.0 -0.1816324877
C  C58  1  0.03583000  0.70877000  0.43660000  1.0 -0.1816324877
C  C59  1  0.29123000  0.96417000  0.93660000  1.0 -0.1816324877
C  C60  1  0.96417000  0.29123000  0.56340000  1.0 -0.1816324877
C  C61  1  0.49671000  0.92609000  0.91030000  1.0 0.5914992306
C  C62  1  0.92609000  0.49671000  0.58970000  1.0 0.5914992306
C  C63  1  0.50329000  0.07391000  0.08970000  1.0 0.5914992306
C  C64  1  0.07391000  0.50329000  0.41030000  1.0 0.5914992306
C  C65  1  0.68580000  0.49660000  0.56310000  1.0 0.5808758098
C  C66  1  0.49660000  0.68580000  0.93690000  1.0 0.5808758098
C  C67  1  0.31420000  0.50340000  0.43690000  1.0 0.5808758098
C  C68  1  0.50340000  0.31420000  0.06310000  1.0 0.5808758098
C  C69  1  0.64860000  0.55260000  0.51100000  1.0 -0.0293815067
C  C70  1  0.55260000  0.64860000  0.98900000  1.0 -0.0293815067
C  C71  1  0.35140000  0.44740000  0.48900000  1.0 -0.0293815067
C  C72  1  0.44740000  0.35140000  0.01100000  1.0 -0.0293815067
C  C73  1  0.57900000  0.52340000  0.46210000  1.0 -0.1106422149
C  C74  1  0.52340000  0.57900000  0.03790000  1.0 -0.1106422149
C  C75  1  0.42100000  0.47660000  0.53790000  1.0 -0.1106422149
C  C76  1  0.47660000  0.42100000  0.96210000  1.0 -0.1106422149
C  C77  1  0.54210000  0.57510000  0.41670000  1.0 -0.135438426
C  C78  1  0.57510000  0.54210000  0.08330000  1.0 -0.135438426
C  C79  1  0.45790000  0.42490000  0.58330000  1.0 -0.135438426
C  C80  1  0.42490000  0.45790000  0.91670000  1.0 -0.135438426
C  C81  1  0.57540000  0.65620000  0.42090000  1.0 0.0609373285
C  C82  1  0.65620000  0.57540000  0.07910000  1.0 0.0609373285
C  C83  1  0.42460000  0.34380000  0.57910000  1.0 0.0609373285
C  C84  1  0.34380000  0.42460000  0.92090000  1.0 0.0609373285
C  C85  1  0.64720000  0.68600000  0.46940000  1.0 -0.1270765929
C  C86  1  0.68600000  0.64720000  0.03060000  1.0 -0.1270765929
C  C87  1  0.35280000  0.31400000  0.53060000  1.0 -0.1270765929
C  C88  1  0.31400000  0.35280000  0.96940000  1.0 -0.1270765929
C  C89  1  0.68290000  0.63470000  0.51360000  1.0 -0.1106422149
C  C90  1  0.63470000  0.68290000  0.98640000  1.0 -0.1106422149
C  C91  1  0.31710000  0.36530000  0.48640000  1.0 -0.1106422149
C  C92  1  0.36530000  0.31710000  0.01360000  1.0 -0.1106422149
C  C93  1  0.52980000  0.70680000  0.37630000  1.0 0.038799913
C  C94  1  0.70680000  0.52980000  0.12370000  1.0 0.038799913
C  C95  1  0.47020000  0.29320000  0.62370000  1.0 0.038799913
C  C96  1  0.29320000  0.47020000  0.87630000  1.0 0.038799913
C  C97  1  0.27368000  0.76012000  0.31380000  1.0 0.5914992306
C  C98  1  0.76012000  0.27368000  0.18620000  1.0 0.5914992306
C  C99  1  0.72632000  0.23988000  0.68620000  1.0 0.5914992306
C  C100  1  0.23988000  0.72632000  0.81380000  1.0 0.5914992306
C  C101  1  0.36525000  0.81015000  0.31420000  1.0 -0.021074169
C  C102  1  0.81015000  0.36525000  0.18580000  1.0 -0.021074169
C  C103  1  0.63475000  0.18985000  0.68580000  1.0 -0.021074169
C  C104  1  0.18985000  0.63475000  0.81420000  1.0 -0.021074169
C  C105  1  0.39842000  0.89718000  0.28360000  1.0 -0.0977934251
C  C106  1  0.89718000  0.39842000  0.21640000  1.0 -0.0977934251
C  C107  1  0.60158000  0.10282000  0.71640000  1.0 -0.0977934251
C  C108  1  0.10282000  0.60158000  0.78360000  1.0 -0.0977934251
C  C109  1  0.48475000  0.94485000  0.28460000  1.0 -0.0115696761
C  C110  1  0.94485000  0.48475000  0.21540000  1.0 -0.0115696761
C  C111  1  0.51525000  0.05515000  0.71540000  1.0 -0.0115696761
C  C112  1  0.05515000  0.51525000  0.78460000  1.0 -0.0115696761
C  C113  1  0.53798000  0.90722000  0.31610000  1.0 -0.1906587543
C  C114  1  0.90722000  0.53798000  0.18390000  1.0 -0.1906587543
C  C115  1  0.46202000  0.09278000  0.68390000  1.0 -0.1906587543
C  C116  1  0.09278000  0.46202000  0.81610000  1.0 -0.1906587543
C  C117  1  0.50310000  0.81950000  0.34610000  1.0 0.2256159535
C  C118  1  0.81950000  0.50310000  0.15390000  1.0 0.2256159535
C  C119  1  0.49690000  0.18050000  0.65390000  1.0 0.2256159535
C  C120  1  0.18050000  0.49690000  0.84610000  1.0 0.2256159535
C  C121  1  0.41761000  0.77259000  0.34490000  1.0 -0.1906587543
C  C122  1  0.77259000  0.41761000  0.15510000  1.0 -0.1906587543
C  C123  1  0.58239000  0.22741000  0.65510000  1.0 -0.1906587543
C  C124  1  0.22741000  0.58239000  0.84490000  1.0 -0.1906587543
C  C125  1  0.51817000  0.03783000  0.25140000  1.0 0.5808758098
C  C126  1  0.03783000  0.51817000  0.24860000  1.0 0.5808758098
C  C127  1  0.48183000  0.96217000  0.74860000  1.0 0.5808758098
C  C128  1  0.96217000  0.48183000  0.75140000  1.0 0.5808758098
N  N1  1  0.75643000  0.93597000  0.08920000  1.0 -0.3098123396
N  N2  1  0.93597000  0.75643000  0.41080000  1.0 -0.3098123396
N  N3  1  0.24357000  0.06403000  0.91080000  1.0 -0.3098123396
N  N4  1  0.06403000  0.24357000  0.58920000  1.0 -0.3098123396
N  N5  1  0.55773000  0.78227000  0.38040000  1.0 -0.3098123396
N  N6  1  0.78227000  0.55773000  0.11960000  1.0 -0.3098123396
N  N7  1  0.44227000  0.21773000  0.61960000  1.0 -0.3098123396
N  N8  1  0.21773000  0.44227000  0.88040000  1.0 -0.3098123396
O  O1  1  0.02945000  0.73755000  0.19180000  1.0 -0.2553968119
O  O2  1  0.73755000  0.02945000  0.30820000  1.0 -0.2530394631
O  O3  1  0.97055000  0.26245000  0.80820000  1.0 -0.2530394631
O  O4  1  0.26245000  0.97055000  0.69180000  1.0 -0.2530394631
O  O5  1  0.01158000  0.73242000  0.28100000  1.0 0.0544767989
O  O6  1  0.73242000  0.01158000  0.21900000  1.0 0.0653201354
O  O7  1  0.98842000  0.26758000  0.71900000  1.0 0.0609373285
O  O8  1  0.26758000  0.98842000  0.78100000  1.0 0.0609373285
O  O9  1  0.62271000  0.18289000  0.99780000  1.0 -0.5843055831
O  O10  1  0.18289000  0.62271000  0.50220000  1.0 -0.5919009898
O  O11  1  0.37729000  0.81711000  0.00220000  1.0 -0.5843055831
O  O12  1  0.81711000  0.37729000  0.49780000  1.0 -0.5843055831
O  O13  1  0.71613000  0.16567000  0.09430000  1.0 -0.5743407594
O  O14  1  0.16567000  0.71613000  0.40570000  1.0 -0.5743407594
O  O15  1  0.28387000  0.83433000  0.90570000  1.0 -0.5743407594
O  O16  1  0.83433000  0.28387000  0.59430000  1.0 -0.5743407594
O  O17  1  0.48021000  0.85315000  0.91060000  1.0 -0.621777116
O  O18  1  0.85315000  0.48021000  0.58940000  1.0 -0.621777116
O  O19  1  0.51979000  0.14685000  0.08940000  1.0 -0.621777116
O  O20  1  0.14685000  0.51979000  0.41060000  1.0 -0.621777116
O  O21  1  0.45362000  0.96398000  0.87190000  1.0 -0.5519975411
O  O22  1  0.96398000  0.45362000  0.62810000  1.0 -0.5519975411
O  O23  1  0.54638000  0.03602000  0.12810000  1.0 -0.5519975411
O  O24  1  0.03602000  0.54638000  0.37190000  1.0 -0.5519975411
O  O25  1  0.73937000  0.52163000  0.61370000  1.0 -0.5135967719
O  O26  1  0.52163000  0.73937000  0.88630000  1.0 -0.5150858747
O  O27  1  0.26063000  0.47837000  0.38630000  1.0 -0.5150858747
O  O28  1  0.47837000  0.26063000  0.11370000  1.0 -0.5135967719
O  O29  1  0.66215000  0.42565000  0.55650000  1.0 -0.5919009898
O  O30  1  0.42565000  0.66215000  0.94350000  1.0 -0.5919009898
O  O31  1  0.33785000  0.57435000  0.44350000  1.0 -0.5919009898
O  O32  1  0.57435000  0.33785000  0.05650000  1.0 -0.5919009898
O  O33  1  0.24767000  0.68213000  0.34830000  1.0 -0.6631620513
O  O34  1  0.68213000  0.24767000  0.15170000  1.0 -0.6631620513
O  O35  1  0.75233000  0.31787000  0.65170000  1.0 -0.6631620513
O  O36  1  0.31787000  0.75233000  0.84830000  1.0 -0.6631620513
O  O37  1  0.22455000  0.79045000  0.27890000  1.0 -0.4774045633
O  O38  1  0.79045000  0.22455000  0.22110000  1.0 -0.4774045633
O  O39  1  0.77545000  0.20955000  0.72110000  1.0 -0.4774045633
O  O40  1  0.20955000  0.77545000  0.77890000  1.0 -0.4774045633
O  O41  1  0.46659000  0.06741000  0.22420000  1.0 -0.532847284
O  O42  1  0.06741000  0.46659000  0.27580000  1.0 -0.532847284
O  O43  1  0.53341000  0.93259000  0.77580000  1.0 -0.532847284
O  O44  1  0.93259000  0.53341000  0.72420000  1.0 -0.532847284
O  O45  1  0.59597000  0.08263000  0.25240000  1.0 -0.5919009898
O  O46  1  0.08263000  0.59597000  0.24760000  1.0 -0.5919009898
O  O47  1  0.40403000  0.91737000  0.74760000  1.0 -0.5919009898
O  O48  1  0.91737000  0.40403000  0.75240000  1.0 -0.5919009898
O  O49  1  0.98760000  0.69640000  0.24010000  1.0 0.0067453378
O  O50  1  0.69640000  0.98760000  0.25990000  1.0 0.0039049637
O  O51  1  0.01240000  0.30360000  0.75990000  1.0 0.0039049637
O  O52  1  0.30360000  0.01240000  0.74010000  1.0 0.0067453378
O  O53  1  0.07260000  0.79940000  0.28440000  1.0 -0.1270765929
O  O54  1  0.79940000  0.07260000  0.21560000  1.0 -0.1270765929
O  O55  1  0.92740000  0.20060000  0.71560000  1.0 -0.1270765929
O  O56  1  0.20060000  0.92740000  0.78440000  1.0 -0.1270765929
