# DDEC6 charges by PACMAN v1.1 (https://github.com/mtap-research/PACMAN-charge/)
data_REHHUJ_ASR_pacman
_symmetry_space_group_name_H-M   'P 1'
_cell_length_a   19.43110000
_cell_length_b   19.43110000
_cell_length_c   22.36660000
_cell_angle_alpha   67.05850000
_cell_angle_beta   112.94100000
_cell_angle_gamma   122.27000000
_symmetry_Int_Tables_number   1
_chemical_formula_structural   Cd3H20C36(NO7)2
_chemical_formula_sum   'Cd12 H80 C144 N8 O56'
_cell_volume   6394.25148767
_cell_formula_units_Z   4
loop_
 _symmetry_equiv_pos_site_id
 _symmetry_equiv_pos_as_xyz
  1  'x, y, z'
loop_
 _atom_site_type_symbol
 _atom_site_label
 _atom_site_symmetry_multiplicity
 _atom_site_fract_x
 _atom_site_fract_y
 _atom_site_fract_z
 _atom_site_occupancy
 _atom_site_charge
Cd  Cd1  1  0.58809000  0.16349000  0.29885000  1.0 0.9273318733
Cd  Cd2  1  0.16349000  0.58809000  0.20115000  1.0 0.9273318733
Cd  Cd3  1  0.41191000  0.83651000  0.70115000  1.0 0.9273318733
Cd  Cd4  1  0.83651000  0.41191000  0.79885000  1.0 0.9273318733
Cd  Cd5  1  0.11276000  0.76232000  0.04820000  1.0 1.0879584338
Cd  Cd6  1  0.76232000  0.11276000  0.45180000  1.0 1.0879584338
Cd  Cd7  1  0.88724000  0.23768000  0.95180000  1.0 1.0879584338
Cd  Cd8  1  0.23768000  0.88724000  0.54820000  1.0 1.0879584338
Cd  Cd9  1  0.96751000  0.31843000  0.81158000  1.0 1.0193827237
Cd  Cd10  1  0.31843000  0.96751000  0.68842000  1.0 1.0193827237
Cd  Cd11  1  0.03249000  0.68157000  0.18842000  1.0 1.0193827237
Cd  Cd12  1  0.68157000  0.03249000  0.31158000  1.0 1.0193827237
H  H1  1  0.43260000  0.30720000  0.25630000  1.0 0.0984429898
H  H2  1  0.30720000  0.43260000  0.24370000  1.0 0.0984429898
H  H3  1  0.56740000  0.69280000  0.74370000  1.0 0.0984429898
H  H4  1  0.69280000  0.56740000  0.75630000  1.0 0.0984429898
H  H5  1  0.34720000  0.37040000  0.19720000  1.0 0.0685495856
H  H6  1  0.37040000  0.34720000  0.30280000  1.0 0.0685495856
H  H7  1  0.65280000  0.62960000  0.80280000  1.0 0.0685495856
H  H8  1  0.62960000  0.65280000  0.69720000  1.0 0.0685495856
H  H9  1  0.33650000  0.33590000  0.02800000  1.0 0.0984429898
H  H10  1  0.33590000  0.33650000  0.47200000  1.0 0.0984429898
H  H11  1  0.66350000  0.66410000  0.97200000  1.0 0.0984429898
H  H12  1  0.66410000  0.66350000  0.52800000  1.0 0.0984429898
H  H13  1  0.41700000  0.26340000  0.08930000  1.0 0.1128127107
H  H14  1  0.26340000  0.41700000  0.41070000  1.0 0.1128127107
H  H15  1  0.58300000  0.73660000  0.91070000  1.0 0.1128127107
H  H16  1  0.73660000  0.58300000  0.58930000  1.0 0.1128127107
H  H17  1  0.05490000  0.56530000  0.95150000  1.0 0.128654974
H  H18  1  0.56530000  0.05490000  0.54850000  1.0 0.128654974
H  H19  1  0.94510000  0.43470000  0.04850000  1.0 0.128654974
H  H20  1  0.43470000  0.94510000  0.45150000  1.0 0.128654974
H  H21  1  0.12670000  0.38970000  0.98740000  1.0 0.1213963146
H  H22  1  0.38970000  0.12670000  0.51260000  1.0 0.1213963146
H  H23  1  0.87330000  0.61030000  0.01260000  1.0 0.1213963146
H  H24  1  0.61030000  0.87330000  0.48740000  1.0 0.1213963146
H  H25  1  0.24920000  0.55380000  0.10390000  1.0 0.1213963146
H  H26  1  0.55380000  0.24920000  0.39610000  1.0 0.1213963146
H  H27  1  0.75080000  0.44620000  0.89610000  1.0 0.1213963146
H  H28  1  0.44620000  0.75080000  0.60390000  1.0 0.1213963146
H  H29  1  0.08350000  0.97870000  0.47450000  1.0 0.1213963146
H  H30  1  0.97870000  0.08350000  0.02550000  1.0 0.1213963146
H  H31  1  0.91650000  0.02130000  0.52550000  1.0 0.1213963146
H  H32  1  0.02130000  0.91650000  0.97450000  1.0 0.1213963146
H  H33  1  0.01120000  0.05120000  0.39000000  1.0 0.1128127107
H  H34  1  0.05120000  0.01120000  0.11000000  1.0 0.1128127107
H  H35  1  0.98880000  0.94880000  0.61000000  1.0 0.1128127107
H  H36  1  0.94880000  0.98880000  0.89000000  1.0 0.1128127107
H  H37  1  0.15310000  0.23970000  0.48180000  1.0 0.1128127107
H  H38  1  0.23970000  0.15310000  0.01820000  1.0 0.1128127107
H  H39  1  0.84690000  0.76030000  0.51820000  1.0 0.1128127107
H  H40  1  0.76030000  0.84690000  0.98180000  1.0 0.1128127107
H  H41  1  0.22640000  0.16820000  0.56070000  1.0 0.128654974
H  H42  1  0.16820000  0.22640000  0.93930000  1.0 0.128654974
H  H43  1  0.77360000  0.83180000  0.43930000  1.0 0.128654974
H  H44  1  0.83180000  0.77360000  0.06070000  1.0 0.128654974
H  H45  1  0.84240000  0.39820000  0.24930000  1.0 0.128654974
H  H46  1  0.39820000  0.84240000  0.25070000  1.0 0.128654974
H  H47  1  0.15760000  0.60180000  0.75070000  1.0 0.128654974
H  H48  1  0.60180000  0.15760000  0.74930000  1.0 0.128654974
H  H49  1  0.07670000  0.42590000  0.31780000  1.0 0.1213963146
H  H50  1  0.42590000  0.07670000  0.18220000  1.0 0.1213963146
H  H51  1  0.92330000  0.57410000  0.68220000  1.0 0.1213963146
H  H52  1  0.57410000  0.92330000  0.81780000  1.0 0.1213963146
H  H53  1  0.88140000  0.19780000  0.34870000  1.0 0.1213963146
H  H54  1  0.19780000  0.88140000  0.15130000  1.0 0.1213963146
H  H55  1  0.11860000  0.80220000  0.65130000  1.0 0.1213963146
H  H56  1  0.80220000  0.11860000  0.84870000  1.0 0.1213963146
H  H57  1  0.25200000  0.39200000  0.02700000  1.0 0.0984429898
H  H58  1  0.39200000  0.25200000  0.47300000  1.0 0.0984429898
H  H59  1  0.74800000  0.60800000  0.97300000  1.0 0.0984429898
H  H60  1  0.60800000  0.74800000  0.52700000  1.0 0.0984429898
H  H61  1  0.05700000  0.17700000  0.37200000  1.0 0.0939742635
H  H62  1  0.17700000  0.05700000  0.12800000  1.0 0.0939742635
H  H63  1  0.94300000  0.82300000  0.62800000  1.0 0.0939742635
H  H64  1  0.82300000  0.94300000  0.87200000  1.0 0.0939742635
H  H65  1  0.51170000  0.40550000  0.22350000  1.0 0.0984429898
H  H66  1  0.40550000  0.51170000  0.27650000  1.0 0.0984429898
H  H67  1  0.48830000  0.59450000  0.77650000  1.0 0.0984429898
H  H68  1  0.59450000  0.48830000  0.72350000  1.0 0.0984429898
H  H69  1  0.43940000  0.38840000  0.32640000  1.0 0.0685495856
H  H70  1  0.38840000  0.43940000  0.17360000  1.0 0.0685495856
H  H71  1  0.56060000  0.61160000  0.67360000  1.0 0.0685495856
H  H72  1  0.61160000  0.56060000  0.82640000  1.0 0.0685495856
H  H73  1  0.23920000  0.23840000  0.11490000  1.0 0.0984429898
H  H74  1  0.23840000  0.23920000  0.38510000  1.0 0.0984429898
H  H75  1  0.76080000  0.76160000  0.88510000  1.0 0.0984429898
H  H76  1  0.76160000  0.76080000  0.61490000  1.0 0.0984429898
H  H77  1  0.33590000  0.18650000  0.17710000  1.0 0.0984429898
H  H78  1  0.18650000  0.33590000  0.32290000  1.0 0.0984429898
H  H79  1  0.66410000  0.81350000  0.82290000  1.0 0.0984429898
H  H80  1  0.81350000  0.66410000  0.67710000  1.0 0.0984429898
C  C1  1  0.49070000  0.23970000  0.22450000  1.0 0.3732327383
C  C2  1  0.23970000  0.49070000  0.27550000  1.0 0.3732327383
C  C3  1  0.50930000  0.76030000  0.77550000  1.0 0.3732327383
C  C4  1  0.76030000  0.50930000  0.72450000  1.0 0.3732327383
C  C5  1  0.41320000  0.31140000  0.21050000  1.0 -0.0376671738
C  C6  1  0.31140000  0.41320000  0.28950000  1.0 -0.0376671738
C  C7  1  0.58680000  0.68860000  0.78950000  1.0 -0.0376671738
C  C8  1  0.68860000  0.58680000  0.71050000  1.0 -0.0376671738
C  C9  1  0.43550000  0.28330000  0.18440000  1.0 -0.0318851705
C  C10  1  0.28330000  0.43550000  0.31560000  1.0 -0.0318851705
C  C11  1  0.56450000  0.71670000  0.81560000  1.0 -0.0318851705
C  C12  1  0.71670000  0.56450000  0.68440000  1.0 -0.0318851705
C  C13  1  0.36010000  0.34930000  0.17430000  1.0 -0.0197050247
C  C14  1  0.34930000  0.36010000  0.32570000  1.0 -0.0197050247
C  C15  1  0.63990000  0.65070000  0.82570000  1.0 -0.0197050247
C  C16  1  0.65070000  0.63990000  0.67430000  1.0 -0.0197050247
C  C17  1  0.32790000  0.35670000  0.11060000  1.0 0.0429408829
C  C18  1  0.35670000  0.32790000  0.38940000  1.0 0.0429408829
C  C19  1  0.67210000  0.64330000  0.88940000  1.0 0.0429408829
C  C20  1  0.64330000  0.67210000  0.61060000  1.0 0.0429408829
C  C21  1  0.35380000  0.32720000  0.07430000  1.0 -0.1000900395
C  C22  1  0.32720000  0.35380000  0.42570000  1.0 -0.1000900395
C  C23  1  0.64620000  0.67280000  0.92570000  1.0 -0.1000900395
C  C24  1  0.67280000  0.64620000  0.57430000  1.0 -0.1000900395
C  C25  1  0.26980000  0.39420000  0.07260000  1.0 0.0527346014
C  C26  1  0.39420000  0.26980000  0.42740000  1.0 0.0527346014
C  C27  1  0.73020000  0.60580000  0.92740000  1.0 0.0527346014
C  C28  1  0.60580000  0.73020000  0.57260000  1.0 0.0527346014
C  C29  1  0.40370000  0.28690000  0.10970000  1.0 -0.1196440106
C  C30  1  0.28690000  0.40370000  0.39030000  1.0 -0.1196440106
C  C31  1  0.59630000  0.71310000  0.89030000  1.0 -0.1196440106
C  C32  1  0.71310000  0.59630000  0.60970000  1.0 -0.1196440106
C  C33  1  0.16350000  0.64250000  0.04790000  1.0 0.5823131289
C  C34  1  0.64250000  0.16350000  0.45210000  1.0 0.5823131289
C  C35  1  0.83650000  0.35750000  0.95210000  1.0 0.5823131289
C  C36  1  0.35750000  0.83650000  0.54790000  1.0 0.5823131289
C  C37  1  0.15420000  0.57160000  0.02970000  1.0 -0.0197050247
C  C38  1  0.57160000  0.15420000  0.47030000  1.0 -0.0197050247
C  C39  1  0.84580000  0.42840000  0.97030000  1.0 -0.0197050247
C  C40  1  0.42840000  0.84580000  0.52970000  1.0 -0.0197050247
C  C41  1  0.09010000  0.54030000  0.97680000  1.0 -0.1279492107
C  C42  1  0.54030000  0.09010000  0.52320000  1.0 -0.1279492107
C  C43  1  0.90990000  0.45970000  0.02320000  1.0 -0.1279492107
C  C44  1  0.45970000  0.90990000  0.47680000  1.0 -0.1279492107
C  C45  1  0.07850000  0.47090000  0.96140000  1.0 -0.0125458073
C  C46  1  0.47090000  0.07850000  0.53860000  1.0 -0.0125458073
C  C47  1  0.92150000  0.52910000  0.03860000  1.0 -0.0125458073
C  C48  1  0.52910000  0.92150000  0.46140000  1.0 -0.0125458073
C  C49  1  0.13350000  0.43490000  0.99820000  1.0 -0.2101353098
C  C50  1  0.43490000  0.13350000  0.50180000  1.0 -0.2101353098
C  C51  1  0.86650000  0.56510000  0.00180000  1.0 -0.2101353098
C  C52  1  0.56510000  0.86650000  0.49820000  1.0 -0.2101353098
C  C53  1  0.19940000  0.46760000  0.05190000  1.0 0.1912884201
C  C54  1  0.46760000  0.19940000  0.44810000  1.0 0.1912884201
C  C55  1  0.80060000  0.53240000  0.94810000  1.0 0.1912884201
C  C56  1  0.53240000  0.80060000  0.55190000  1.0 0.1912884201
C  C57  1  0.20750000  0.53370000  0.06750000  1.0 -0.1975212906
C  C58  1  0.53370000  0.20750000  0.43250000  1.0 -0.1975212906
C  C59  1  0.79250000  0.46630000  0.93250000  1.0 -0.1975212906
C  C60  1  0.46630000  0.79250000  0.56750000  1.0 -0.1975212906
C  C61  1  0.00590000  0.43290000  0.90820000  1.0 0.5917406763
C  C62  1  0.43290000  0.00590000  0.59180000  1.0 0.5917406763
C  C63  1  0.99410000  0.56710000  0.09180000  1.0 0.5917406763
C  C64  1  0.56710000  0.99410000  0.40820000  1.0 0.5917406763
C  C65  1  0.20510000  0.01610000  0.58110000  1.0 0.5742790337
C  C66  1  0.01610000  0.20510000  0.91890000  1.0 0.5742790337
C  C67  1  0.79490000  0.98390000  0.41890000  1.0 0.5742790337
C  C68  1  0.98390000  0.79490000  0.08110000  1.0 0.5742790337
C  C69  1  0.16000000  0.06500000  0.52670000  1.0 -0.0197050247
C  C70  1  0.06500000  0.16000000  0.97330000  1.0 -0.0197050247
C  C71  1  0.84000000  0.93500000  0.47330000  1.0 -0.0197050247
C  C72  1  0.93500000  0.84000000  0.02670000  1.0 -0.0197050247
C  C73  1  0.09790000  0.03210000  0.47590000  1.0 -0.1138620888
C  C74  1  0.03210000  0.09790000  0.02410000  1.0 -0.1138620888
C  C75  1  0.90210000  0.96790000  0.52410000  1.0 -0.1138620888
C  C76  1  0.96790000  0.90210000  0.97590000  1.0 -0.1138620888
C  C77  1  0.05350000  0.07530000  0.42440000  1.0 -0.1407873546
C  C78  1  0.07530000  0.05350000  0.07560000  1.0 -0.1407873546
C  C79  1  0.94650000  0.92470000  0.57560000  1.0 -0.1407873546
C  C80  1  0.92470000  0.94650000  0.92440000  1.0 -0.1407873546
C  C81  1  0.07570000  0.15450000  0.42750000  1.0 -0.0022520705
C  C82  1  0.15450000  0.07570000  0.07250000  1.0 -0.0022520705
C  C83  1  0.92430000  0.84550000  0.57250000  1.0 -0.0022520705
C  C84  1  0.84550000  0.92430000  0.92750000  1.0 -0.0022520705
C  C85  1  0.13870000  0.18690000  0.47900000  1.0 -0.1196440106
C  C86  1  0.18690000  0.13870000  0.02100000  1.0 -0.1196440106
C  C87  1  0.86130000  0.81310000  0.52100000  1.0 -0.1196440106
C  C88  1  0.81310000  0.86130000  0.97900000  1.0 -0.1196440106
C  C89  1  0.18200000  0.14320000  0.52760000  1.0 -0.1196440106
C  C90  1  0.14320000  0.18200000  0.97240000  1.0 -0.1196440106
C  C91  1  0.81800000  0.85680000  0.47240000  1.0 -0.1196440106
C  C92  1  0.85680000  0.81800000  0.02760000  1.0 -0.1196440106
C  C93  1  0.02710000  0.19930000  0.37700000  1.0 0.0349546495
C  C94  1  0.19930000  0.02710000  0.12300000  1.0 0.0429408829
C  C95  1  0.97290000  0.80070000  0.62300000  1.0 0.0349546495
C  C96  1  0.80070000  0.97290000  0.87700000  1.0 0.0349546495
C  C97  1  0.75770000  0.23830000  0.29680000  1.0 0.5823131289
C  C98  1  0.23830000  0.75770000  0.20320000  1.0 0.5823131289
C  C99  1  0.24230000  0.76170000  0.70320000  1.0 0.5823131289
C  C100  1  0.76170000  0.24230000  0.79680000  1.0 0.5823131289
C  C101  1  0.84780000  0.29040000  0.29840000  1.0 -0.0376671738
C  C102  1  0.29040000  0.84780000  0.20160000  1.0 -0.0376671738
C  C103  1  0.15220000  0.70960000  0.70160000  1.0 -0.0376671738
C  C104  1  0.70960000  0.15220000  0.79840000  1.0 -0.0376671738
C  C105  1  0.87920000  0.37480000  0.27220000  1.0 -0.1000900395
C  C106  1  0.37480000  0.87920000  0.22780000  1.0 -0.1000900395
C  C107  1  0.12080000  0.62520000  0.72780000  1.0 -0.1000900395
C  C108  1  0.62520000  0.12080000  0.77220000  1.0 -0.1000900395
C  C109  1  0.96410000  0.42630000  0.27860000  1.0 -0.0197050247
C  C110  1  0.42630000  0.96410000  0.22140000  1.0 -0.0197050247
C  C111  1  0.03590000  0.57370000  0.72140000  1.0 -0.0197050247
C  C112  1  0.57370000  0.03590000  0.77860000  1.0 -0.0197050247
C  C113  1  0.01930000  0.39170000  0.31240000  1.0 -0.1807405435
C  C114  1  0.39170000  0.01930000  0.18760000  1.0 -0.1807405435
C  C115  1  0.98070000  0.60830000  0.68760000  1.0 -0.1807405435
C  C116  1  0.60830000  0.98070000  0.81240000  1.0 -0.1807405435
C  C117  1  0.98850000  0.30530000  0.33820000  1.0 0.2050869103
C  C118  1  0.30530000  0.98850000  0.16180000  1.0 0.2046775903
C  C119  1  0.01150000  0.69470000  0.66180000  1.0 0.2050869103
C  C120  1  0.69470000  0.01150000  0.83820000  1.0 0.2050869103
C  C121  1  0.90220000  0.25540000  0.33110000  1.0 -0.1807405435
C  C122  1  0.25540000  0.90220000  0.16890000  1.0 -0.1807405435
C  C123  1  0.09780000  0.74460000  0.66890000  1.0 -0.1807405435
C  C124  1  0.74460000  0.09780000  0.83110000  1.0 -0.1807405435
C  C125  1  0.99460000  0.51880000  0.25290000  1.0 0.5742790337
C  C126  1  0.51880000  0.99460000  0.24710000  1.0 0.5742790337
C  C127  1  0.00540000  0.48120000  0.74710000  1.0 0.5742790337
C  C128  1  0.48120000  0.00540000  0.75290000  1.0 0.5742790337
C  C129  1  0.46080000  0.37440000  0.19770000  1.0 -0.0318851705
C  C130  1  0.37440000  0.46080000  0.30230000  1.0 -0.0318851705
C  C131  1  0.53920000  0.62560000  0.80230000  1.0 -0.0318851705
C  C132  1  0.62560000  0.53920000  0.69770000  1.0 -0.0318851705
C  C133  1  0.39940000  0.39100000  0.33740000  1.0 -0.0797383328
C  C134  1  0.39100000  0.39940000  0.16260000  1.0 -0.0797383328
C  C135  1  0.60060000  0.60900000  0.66260000  1.0 -0.0797383328
C  C136  1  0.60900000  0.60060000  0.83740000  1.0 -0.0797383328
C  C137  1  0.29590000  0.27370000  0.12700000  1.0 -0.1000900395
C  C138  1  0.27370000  0.29590000  0.37300000  1.0 -0.1000900395
C  C139  1  0.70410000  0.72630000  0.87300000  1.0 -0.1000900395
C  C140  1  0.72630000  0.70410000  0.62700000  1.0 -0.1000900395
C  C141  1  0.35730000  0.24450000  0.16480000  1.0 -0.0597573657
C  C142  1  0.24450000  0.35730000  0.33520000  1.0 -0.0597573657
C  C143  1  0.64270000  0.75550000  0.83520000  1.0 -0.0597573657
C  C144  1  0.75550000  0.64270000  0.66480000  1.0 -0.0597573657
N  N1  1  0.25550000  0.43330000  0.09050000  1.0 -0.2347577874
N  N2  1  0.43330000  0.25550000  0.40950000  1.0 -0.2347577874
N  N3  1  0.74450000  0.56670000  0.90950000  1.0 -0.2347577874
N  N4  1  0.56670000  0.74450000  0.59050000  1.0 -0.2347577874
N  N5  1  0.04561000  0.27139000  0.37850000  1.0 -0.2741170292
N  N6  1  0.27139000  0.04561000  0.12150000  1.0 -0.2741170292
N  N7  1  0.95439000  0.72861000  0.62150000  1.0 -0.2741170292
N  N8  1  0.72861000  0.95439000  0.87850000  1.0 -0.2741170292
O  O1  1  0.49970000  0.21370000  0.27930000  1.0 0.0115127513
O  O2  1  0.21370000  0.49970000  0.22070000  1.0 0.0115127513
O  O3  1  0.50030000  0.78630000  0.72070000  1.0 0.0115127513
O  O4  1  0.78630000  0.50030000  0.77930000  1.0 0.0115127513
O  O5  1  0.51760000  0.21820000  0.18780000  1.0 -0.3383536453
O  O6  1  0.21820000  0.51760000  0.31220000  1.0 -0.3330985819
O  O7  1  0.48240000  0.78180000  0.81220000  1.0 -0.3383536453
O  O8  1  0.78180000  0.48240000  0.68780000  1.0 -0.3383536453
O  O9  1  0.12259000  0.68161000  0.00630000  1.0 -0.5727549408
O  O10  1  0.68161000  0.12259000  0.49370000  1.0 -0.5727549408
O  O11  1  0.87741000  0.31839000  0.99370000  1.0 -0.5727549408
O  O12  1  0.31839000  0.87741000  0.50630000  1.0 -0.5727549408
O  O13  1  0.21141000  0.66099000  0.10320000  1.0 -0.583161435
O  O14  1  0.66099000  0.21141000  0.39680000  1.0 -0.583161435
O  O15  1  0.78859000  0.33901000  0.89680000  1.0 -0.583161435
O  O16  1  0.33901000  0.78859000  0.60320000  1.0 -0.583161435
O  O17  1  0.99183000  0.36177000  0.90510000  1.0 -0.6176022802
O  O18  1  0.36177000  0.99183000  0.59490000  1.0 -0.6255161677
O  O19  1  0.00817000  0.63823000  0.09490000  1.0 -0.6255161677
O  O20  1  0.63823000  0.00817000  0.40510000  1.0 -0.6255161677
O  O21  1  0.96283000  0.47057000  0.87100000  1.0 -0.5512846027
O  O22  1  0.47057000  0.96283000  0.62900000  1.0 -0.5512846027
O  O23  1  0.03717000  0.52943000  0.12900000  1.0 -0.5512846027
O  O24  1  0.52943000  0.03717000  0.37100000  1.0 -0.5512846027
O  O25  1  0.17950000  0.94230000  0.57600000  1.0 -0.6176022802
O  O26  1  0.94230000  0.17950000  0.92400000  1.0 -0.6176022802
O  O27  1  0.82050000  0.05770000  0.42400000  1.0 -0.6176022802
O  O28  1  0.05770000  0.82050000  0.07600000  1.0 -0.6176022802
O  O29  1  0.26350000  0.05310000  0.62540000  1.0 -0.5330653105
O  O30  1  0.05310000  0.26350000  0.87460000  1.0 -0.5330653105
O  O31  1  0.73650000  0.94690000  0.37460000  1.0 -0.5330653105
O  O32  1  0.94690000  0.73650000  0.12540000  1.0 -0.5330653105
O  O33  1  0.73375000  0.16405000  0.33510000  1.0 -0.6577011262
O  O34  1  0.16405000  0.73375000  0.16490000  1.0 -0.6577011262
O  O35  1  0.26625000  0.83595000  0.66490000  1.0 -0.6577011262
O  O36  1  0.83595000  0.26625000  0.83510000  1.0 -0.6577011262
O  O37  1  0.70675000  0.26645000  0.26040000  1.0 -0.4726311182
O  O38  1  0.26645000  0.70675000  0.23960000  1.0 -0.4726311182
O  O39  1  0.29325000  0.73355000  0.73960000  1.0 -0.4726311182
O  O40  1  0.73355000  0.29325000  0.76040000  1.0 -0.4726311182
O  O41  1  0.94342000  0.54798000  0.22510000  1.0 -0.5163422142
O  O42  1  0.54798000  0.94342000  0.27490000  1.0 -0.5163422142
O  O43  1  0.05658000  0.45202000  0.77490000  1.0 -0.5163422142
O  O44  1  0.45202000  0.05658000  0.72510000  1.0 -0.5163422142
O  O45  1  0.07331000  0.56609000  0.25860000  1.0 -0.5990981226
O  O46  1  0.56609000  0.07331000  0.24140000  1.0 -0.5990981226
O  O47  1  0.92669000  0.43391000  0.74140000  1.0 -0.5990981226
O  O48  1  0.43391000  0.92669000  0.75860000  1.0 -0.5990981226
O  O49  1  0.56470000  0.29470000  0.26290000  1.0 -0.318658403
O  O50  1  0.29470000  0.56470000  0.23710000  1.0 -0.318658403
O  O51  1  0.43530000  0.70530000  0.73710000  1.0 -0.318658403
O  O52  1  0.70530000  0.43530000  0.76290000  1.0 -0.318658403
O  O53  1  0.47040000  0.17840000  0.24050000  1.0 0.0685495856
O  O54  1  0.17840000  0.47040000  0.25950000  1.0 0.0685495856
O  O55  1  0.52960000  0.82160000  0.75950000  1.0 0.0685495856
O  O56  1  0.82160000  0.52960000  0.74050000  1.0 0.0685495856
