# DDEC6 charges by PACMAN v1.1 (https://github.com/mtap-research/PACMAN-charge/)
data_REHJAR_ASR_pacman
_symmetry_space_group_name_H-M   'P 1'
_cell_length_a   19.33400000
_cell_length_b   19.33400000
_cell_length_c   21.21740000
_cell_angle_alpha   67.11970000
_cell_angle_beta   112.88000000
_cell_angle_gamma   122.75800000
_symmetry_Int_Tables_number   1
_chemical_formula_structural   Cd3H24C42N4O15
_chemical_formula_sum   'Cd12 H96 C168 N16 O60'
_cell_volume   5979.85861986
_cell_formula_units_Z   4
loop_
 _symmetry_equiv_pos_site_id
 _symmetry_equiv_pos_as_xyz
  1  'x, y, z'
loop_
 _atom_site_type_symbol
 _atom_site_label
 _atom_site_symmetry_multiplicity
 _atom_site_fract_x
 _atom_site_fract_y
 _atom_site_fract_z
 _atom_site_occupancy
 _atom_site_charge
Cd  Cd1  1  0.19139000  0.61109000  0.19922000  1.0 0.9204396666
Cd  Cd2  1  0.61109000  0.19139000  0.30078000  1.0 0.9204396666
Cd  Cd3  1  0.80861000  0.38891000  0.80078000  1.0 0.9204396666
Cd  Cd4  1  0.38891000  0.80861000  0.69922000  1.0 0.9204396666
Cd  Cd5  1  0.28874000  0.93364000  0.69349000  1.0 0.9732022049
Cd  Cd6  1  0.93364000  0.28874000  0.80651000  1.0 0.9732022049
Cd  Cd7  1  0.71126000  0.06636000  0.30651000  1.0 0.9732022049
Cd  Cd8  1  0.06636000  0.71126000  0.19349000  1.0 0.9732022049
Cd  Cd9  1  0.22886000  0.87292000  0.53928000  1.0 1.0176161291
Cd  Cd10  1  0.87292000  0.22886000  0.96072000  1.0 1.0176161291
Cd  Cd11  1  0.77114000  0.12708000  0.46072000  1.0 1.0176161291
Cd  Cd12  1  0.12708000  0.77114000  0.03928000  1.0 1.0176161291
H  H1  1  0.22180000  0.36580000  0.32830000  1.0 0.0789344437
H  H2  1  0.36580000  0.22180000  0.17170000  1.0 0.0789344437
H  H3  1  0.77820000  0.63420000  0.67170000  1.0 0.0789344437
H  H4  1  0.63420000  0.77820000  0.82830000  1.0 0.0789344437
H  H5  1  0.30960000  0.27740000  0.38780000  1.0 0.1106181974
H  H6  1  0.27740000  0.30960000  0.11220000  1.0 0.1106181974
H  H7  1  0.69040000  0.72260000  0.61220000  1.0 0.1106181974
H  H8  1  0.72260000  0.69040000  0.88780000  1.0 0.1106181974
H  H9  1  0.51050000  0.47430000  0.31540000  1.0 0.1106181974
H  H10  1  0.47430000  0.51050000  0.18460000  1.0 0.1106181974
H  H11  1  0.48950000  0.52570000  0.68460000  1.0 0.1106181974
H  H12  1  0.52570000  0.48950000  0.81540000  1.0 0.1106181974
H  H13  1  0.43510000  0.55030000  0.26440000  1.0 0.0991455402
H  H14  1  0.55030000  0.43510000  0.23560000  1.0 0.0991455402
H  H15  1  0.56490000  0.44970000  0.73560000  1.0 0.0991455402
H  H16  1  0.44970000  0.56490000  0.76440000  1.0 0.0991455402
H  H17  1  0.14920000  0.22560000  0.92000000  1.0 0.1411201888
H  H18  1  0.22560000  0.14920000  0.58000000  1.0 0.1411201888
H  H19  1  0.85080000  0.77440000  0.08000000  1.0 0.1411201888
H  H20  1  0.77440000  0.85080000  0.42000000  1.0 0.1411201888
H  H21  1  0.17490000  0.10810000  0.96190000  1.0 0.1289239764
H  H22  1  0.10810000  0.17490000  0.53810000  1.0 0.1289239764
H  H23  1  0.82510000  0.89190000  0.03810000  1.0 0.1289239764
H  H24  1  0.89190000  0.82510000  0.46190000  1.0 0.1289239764
H  H25  1  0.08560000  0.02660000  0.12170000  1.0 0.1289239764
H  H26  1  0.02660000  0.08560000  0.37830000  1.0 0.1289239764
H  H27  1  0.91440000  0.97340000  0.87830000  1.0 0.1289239764
H  H28  1  0.97340000  0.91440000  0.62170000  1.0 0.1289239764
H  H29  1  0.98470000  0.07290000  0.04990000  1.0 0.1289239764
H  H30  1  0.07290000  0.98470000  0.45010000  1.0 0.1289239764
H  H31  1  0.01530000  0.92710000  0.95010000  1.0 0.1289239764
H  H32  1  0.92710000  0.01530000  0.54990000  1.0 0.1289239764
H  H33  1  0.43410000  0.88110000  0.23760000  1.0 0.1289239764
H  H34  1  0.88110000  0.43410000  0.26240000  1.0 0.1289239764
H  H35  1  0.56590000  0.11890000  0.76240000  1.0 0.1289239764
H  H36  1  0.11890000  0.56590000  0.73760000  1.0 0.1289239764
H  H37  1  0.44440000  0.10980000  0.16110000  1.0 0.1106181974
H  H38  1  0.10980000  0.44440000  0.33890000  1.0 0.1106181974
H  H39  1  0.55560000  0.89020000  0.83890000  1.0 0.1106181974
H  H40  1  0.89020000  0.55560000  0.66110000  1.0 0.1106181974
H  H41  1  0.22200000  0.90520000  0.13100000  1.0 0.0991455402
H  H42  1  0.90520000  0.22200000  0.36900000  1.0 0.0991455402
H  H43  1  0.77800000  0.09480000  0.86900000  1.0 0.0991455402
H  H44  1  0.09480000  0.77800000  0.63100000  1.0 0.0991455402
H  H45  1  0.25800000  0.41440000  0.38950000  1.0 0.0991455402
H  H46  1  0.41440000  0.25800000  0.11050000  1.0 0.0991455402
H  H47  1  0.74200000  0.58560000  0.61050000  1.0 0.0991455402
H  H48  1  0.58560000  0.74200000  0.88950000  1.0 0.0991455402
H  H49  1  0.31050000  0.32510000  0.47680000  1.0 0.1106181974
H  H50  1  0.32510000  0.31050000  0.02320000  1.0 0.1106181974
H  H51  1  0.68950000  0.67490000  0.52320000  1.0 0.1106181974
H  H52  1  0.67490000  0.68950000  0.97680000  1.0 0.1106181974
H  H53  1  0.38020000  0.35160000  0.29340000  1.0 0.0789344437
H  H54  1  0.35160000  0.38020000  0.20660000  1.0 0.0789344437
H  H55  1  0.61980000  0.64840000  0.70660000  1.0 0.0789344437
H  H56  1  0.64840000  0.61980000  0.79340000  1.0 0.0789344437
H  H57  1  0.38410000  0.48250000  0.29010000  1.0 0.0909579756
H  H58  1  0.48250000  0.38410000  0.20990000  1.0 0.0909579756
H  H59  1  0.61590000  0.51750000  0.70990000  1.0 0.0909579756
H  H60  1  0.51750000  0.61590000  0.79010000  1.0 0.0909579756
H  H61  1  0.38160000  0.11780000  0.52260000  1.0 0.1289239764
H  H62  1  0.11780000  0.38160000  0.97740000  1.0 0.1289239764
H  H63  1  0.61840000  0.88220000  0.47740000  1.0 0.1289239764
H  H64  1  0.88220000  0.61840000  0.02260000  1.0 0.1289239764
H  H65  1  0.56910000  0.25970000  0.41750000  1.0 0.1289239764
H  H66  1  0.25970000  0.56910000  0.08250000  1.0 0.1289239764
H  H67  1  0.43090000  0.74030000  0.58250000  1.0 0.1289239764
H  H68  1  0.74030000  0.43090000  0.91750000  1.0 0.1289239764
H  H69  1  0.55590000  0.04350000  0.55880000  1.0 0.1197269117
H  H70  1  0.04350000  0.55590000  0.94120000  1.0 0.1197269117
H  H71  1  0.44410000  0.95650000  0.44120000  1.0 0.1197269117
H  H72  1  0.95650000  0.44410000  0.05880000  1.0 0.1197269117
H  H73  1  0.23320000  0.62760000  0.90110000  1.0 0.1289239764
H  H74  1  0.62760000  0.23320000  0.59890000  1.0 0.1289239764
H  H75  1  0.76680000  0.37240000  0.09890000  1.0 0.1289239764
H  H76  1  0.37240000  0.76680000  0.40110000  1.0 0.1289239764
H  H77  1  0.26840000  0.68240000  0.83320000  1.0 0.1411201888
H  H78  1  0.68240000  0.26840000  0.66680000  1.0 0.1411201888
H  H79  1  0.73160000  0.31760000  0.16680000  1.0 0.1411201888
H  H80  1  0.31760000  0.73160000  0.33320000  1.0 0.1411201888
H  H81  1  0.32630000  0.70030000  0.90690000  1.0 0.1482171865
H  H82  1  0.70030000  0.32630000  0.59310000  1.0 0.1482171865
H  H83  1  0.67370000  0.29970000  0.09310000  1.0 0.1482171865
H  H84  1  0.29970000  0.67370000  0.40690000  1.0 0.1482171865
H  H85  1  0.11930000  0.67790000  0.87370000  1.0 0.1289239764
H  H86  1  0.67790000  0.11930000  0.62630000  1.0 0.1289239764
H  H87  1  0.88070000  0.32210000  0.12630000  1.0 0.1289239764
H  H88  1  0.32210000  0.88070000  0.37370000  1.0 0.1289239764
H  H89  1  0.15480000  0.77600000  0.85770000  1.0 0.1482171865
H  H90  1  0.77600000  0.15480000  0.64230000  1.0 0.1482171865
H  H91  1  0.84520000  0.22400000  0.14230000  1.0 0.1482171865
H  H92  1  0.22400000  0.84520000  0.35770000  1.0 0.1482171865
H  H93  1  0.13460000  0.73360000  0.79890000  1.0 0.1411201888
H  H94  1  0.73360000  0.13460000  0.70110000  1.0 0.1411201888
H  H95  1  0.86540000  0.26640000  0.20110000  1.0 0.1411201888
H  H96  1  0.26640000  0.86540000  0.29890000  1.0 0.1411201888
C  C1  1  0.27240000  0.51700000  0.26600000  1.0 0.3764020415
C  C2  1  0.51700000  0.27240000  0.23400000  1.0 0.3764020415
C  C3  1  0.72760000  0.48300000  0.73400000  1.0 0.3764020415
C  C4  1  0.48300000  0.72760000  0.76600000  1.0 0.3764020415
C  C5  1  0.32520000  0.46880000  0.29040000  1.0 0.0089827608
C  C6  1  0.46880000  0.32520000  0.20960000  1.0 0.0089827608
C  C7  1  0.67480000  0.53120000  0.70960000  1.0 0.0089827608
C  C8  1  0.53120000  0.67480000  0.79040000  1.0 0.0089827608
C  C9  1  0.27700000  0.38700000  0.32560000  1.0 -0.0495036059
C  C10  1  0.38700000  0.27700000  0.17440000  1.0 -0.0495036059
C  C11  1  0.72300000  0.61300000  0.67440000  1.0 -0.0495036059
C  C12  1  0.61300000  0.72300000  0.82560000  1.0 -0.0495036059
C  C13  1  0.33290000  0.33310000  0.36230000  1.0 0.0411619978
C  C14  1  0.33310000  0.33290000  0.13770000  1.0 0.0411619978
C  C15  1  0.66710000  0.66690000  0.63770000  1.0 0.0411619978
C  C16  1  0.66690000  0.66710000  0.86230000  1.0 0.0411619978
C  C17  1  0.41000000  0.37080000  0.35430000  1.0 -0.0197458209
C  C18  1  0.37080000  0.41000000  0.14570000  1.0 -0.0197458209
C  C19  1  0.59000000  0.62920000  0.64570000  1.0 -0.0197458209
C  C20  1  0.62920000  0.59000000  0.85430000  1.0 -0.0197458209
C  C21  1  0.45540000  0.45180000  0.31890000  1.0 -0.158390732
C  C22  1  0.45180000  0.45540000  0.18110000  1.0 -0.158390732
C  C23  1  0.54460000  0.54820000  0.68110000  1.0 -0.158390732
C  C24  1  0.54820000  0.54460000  0.81890000  1.0 -0.158390732
C  C25  1  0.40740000  0.49460000  0.28910000  1.0 -0.1148536889
C  C26  1  0.49460000  0.40740000  0.21090000  1.0 -0.1148536889
C  C27  1  0.59260000  0.50540000  0.71090000  1.0 -0.1148536889
C  C28  1  0.50540000  0.59260000  0.78910000  1.0 -0.1148536889
C  C29  1  0.43500000  0.31100000  0.38500000  1.0 0.000360247
C  C30  1  0.31100000  0.43500000  0.11500000  1.0 -0.0006268797
C  C31  1  0.56500000  0.68900000  0.61500000  1.0 0.000360247
C  C32  1  0.68900000  0.56500000  0.88500000  1.0 0.000360247
C  C33  1  0.42130000  0.99070000  0.59790000  1.0 0.578867829
C  C34  1  0.99070000  0.42130000  0.90210000  1.0 0.578867829
C  C35  1  0.57870000  0.00930000  0.40210000  1.0 0.578867829
C  C36  1  0.00930000  0.57870000  0.09790000  1.0 0.578867829
C  C37  1  0.46650000  0.06990000  0.55280000  1.0 -0.0495036059
C  C38  1  0.06990000  0.46650000  0.94720000  1.0 -0.0495036059
C  C39  1  0.53350000  0.93010000  0.44720000  1.0 -0.0495036059
C  C40  1  0.93010000  0.53350000  0.05280000  1.0 -0.0495036059
C  C41  1  0.43060000  0.12760000  0.51490000  1.0 -0.180377075
C  C42  1  0.12760000  0.43060000  0.98510000  1.0 -0.180377075
C  C43  1  0.56940000  0.87240000  0.48510000  1.0 -0.180377075
C  C44  1  0.87240000  0.56940000  0.01490000  1.0 -0.180377075
C  C45  1  0.47270000  0.19970000  0.46550000  1.0 0.1482171865
C  C46  1  0.19970000  0.47270000  0.03450000  1.0 0.1482171865
C  C47  1  0.52730000  0.80030000  0.53450000  1.0 0.1411201888
C  C48  1  0.80030000  0.52730000  0.96550000  1.0 0.1411201888
C  C49  1  0.54270000  0.21170000  0.45020000  1.0 -0.158390732
C  C50  1  0.21170000  0.54270000  0.04980000  1.0 -0.158390732
C  C51  1  0.45730000  0.78830000  0.54980000  1.0 -0.158390732
C  C52  1  0.78830000  0.45730000  0.95020000  1.0 -0.158390732
C  C53  1  0.57430000  0.15210000  0.48320000  1.0 -0.0582358636
C  C54  1  0.15210000  0.57430000  0.01680000  1.0 -0.0582358636
C  C55  1  0.42570000  0.84790000  0.51680000  1.0 -0.0582358636
C  C56  1  0.84790000  0.42570000  0.98320000  1.0 -0.0582358636
C  C57  1  0.53490000  0.08250000  0.53530000  1.0 -0.0998537386
C  C58  1  0.08250000  0.53490000  0.96470000  1.0 -0.0998537386
C  C59  1  0.46510000  0.91750000  0.46470000  1.0 -0.0998537386
C  C60  1  0.91750000  0.46510000  0.03530000  1.0 -0.0998537386
C  C61  1  0.64580000  0.16460000  0.46630000  1.0 0.5585633875
C  C62  1  0.16460000  0.64580000  0.03370000  1.0 0.5585633875
C  C63  1  0.35420000  0.83540000  0.53370000  1.0 0.5585633875
C  C64  1  0.83540000  0.35420000  0.96630000  1.0 0.5585633875
C  C65  1  0.98850000  0.17990000  0.92080000  1.0 0.5389626385
C  C66  1  0.17990000  0.98850000  0.57920000  1.0 0.5389626385
C  C67  1  0.01150000  0.82010000  0.07920000  1.0 0.5389626385
C  C68  1  0.82010000  0.01150000  0.42080000  1.0 0.5389626385
C  C69  1  0.04780000  0.13600000  0.97030000  1.0 -0.0197458209
C  C70  1  0.13600000  0.04780000  0.52970000  1.0 -0.0197458209
C  C71  1  0.95220000  0.86400000  0.02970000  1.0 -0.0197458209
C  C72  1  0.86400000  0.95220000  0.47030000  1.0 -0.0197458209
C  C73  1  0.12580000  0.17440000  0.95140000  1.0 -0.0998537386
C  C74  1  0.17440000  0.12580000  0.54860000  1.0 -0.0998537386
C  C75  1  0.87420000  0.82560000  0.04860000  1.0 -0.0998537386
C  C76  1  0.82560000  0.87420000  0.45140000  1.0 -0.0998537386
C  C77  1  0.15670000  0.12330000  0.98680000  1.0 -0.1189675493
C  C78  1  0.12330000  0.15670000  0.51320000  1.0 -0.1189675493
C  C79  1  0.84330000  0.87670000  0.01320000  1.0 -0.1189675493
C  C80  1  0.87670000  0.84330000  0.48680000  1.0 -0.1189675493
C  C81  1  0.16490000  0.08870000  0.05390000  1.0 -0.0388521808
C  C82  1  0.08870000  0.16490000  0.44610000  1.0 -0.0388521808
C  C83  1  0.83510000  0.91130000  0.94610000  1.0 -0.0388521808
C  C84  1  0.91130000  0.83510000  0.55390000  1.0 -0.0388521808
C  C85  1  0.09190000  0.06190000  0.07730000  1.0 -0.1501317336
C  C86  1  0.06190000  0.09190000  0.42270000  1.0 -0.1501317336
C  C87  1  0.90810000  0.93810000  0.92270000  1.0 -0.1501317336
C  C88  1  0.93810000  0.90810000  0.57730000  1.0 -0.1501317336
C  C89  1  0.03160000  0.08700000  0.03580000  1.0 -0.1189675493
C  C90  1  0.08700000  0.03160000  0.46420000  1.0 -0.1189675493
C  C91  1  0.96840000  0.91300000  0.96420000  1.0 -0.1189675493
C  C92  1  0.91300000  0.96840000  0.53580000  1.0 -0.1189675493
C  C93  1  0.22100000  0.05000000  0.08950000  1.0 0.2150668563
C  C94  1  0.05000000  0.22100000  0.41050000  1.0 0.2150668563
C  C95  1  0.77900000  0.95000000  0.91050000  1.0 0.2150668563
C  C96  1  0.95000000  0.77900000  0.58950000  1.0 0.2150668563
C  C97  1  0.27300000  0.78860000  0.19160000  1.0 0.5475998284
C  C98  1  0.78860000  0.27300000  0.30840000  1.0 0.5475998284
C  C99  1  0.72700000  0.21140000  0.80840000  1.0 0.5475998284
C  C100  1  0.21140000  0.72700000  0.69160000  1.0 0.5475998284
C  C101  1  0.32100000  0.87820000  0.18220000  1.0 -0.0495036059
C  C102  1  0.87820000  0.32100000  0.31780000  1.0 -0.0495036059
C  C103  1  0.67900000  0.12180000  0.81780000  1.0 -0.0495036059
C  C104  1  0.12180000  0.67900000  0.68220000  1.0 -0.0495036059
C  C105  1  0.40780000  0.91520000  0.21090000  1.0 -0.0914028598
C  C106  1  0.91520000  0.40780000  0.28910000  1.0 -0.0914028598
C  C107  1  0.59220000  0.08480000  0.78910000  1.0 -0.0914028598
C  C108  1  0.08480000  0.59220000  0.71090000  1.0 -0.0914028598
C  C109  1  0.45590000  0.00330000  0.19990000  1.0 -0.0197458209
C  C110  1  0.00330000  0.45590000  0.30010000  1.0 -0.0197458209
C  C111  1  0.54410000  0.99670000  0.80010000  1.0 -0.0197458209
C  C112  1  0.99670000  0.54410000  0.69990000  1.0 -0.0197458209
C  C113  1  0.41350000  0.05130000  0.16770000  1.0 -0.1963723986
C  C114  1  0.05130000  0.41350000  0.33230000  1.0 -0.1963723986
C  C115  1  0.58650000  0.94870000  0.83230000  1.0 -0.1963723986
C  C116  1  0.94870000  0.58650000  0.66770000  1.0 -0.1963723986
C  C117  1  0.32680000  0.01540000  0.14480000  1.0 0.2059002393
C  C118  1  0.01540000  0.32680000  0.35520000  1.0 0.2059002393
C  C119  1  0.67320000  0.98460000  0.85520000  1.0 0.2059002393
C  C120  1  0.98460000  0.67320000  0.64480000  1.0 0.2059002393
C  C121  1  0.28020000  0.92920000  0.14950000  1.0 -0.2555644153
C  C122  1  0.92920000  0.28020000  0.35050000  1.0 -0.2547466098
C  C123  1  0.71980000  0.07080000  0.85050000  1.0 -0.2547466098
C  C124  1  0.07080000  0.71980000  0.64950000  1.0 -0.2547466098
C  C125  1  0.54870000  0.03970000  0.22580000  1.0 0.5585633875
C  C126  1  0.03970000  0.54870000  0.27420000  1.0 0.5585633875
C  C127  1  0.45130000  0.96030000  0.77420000  1.0 0.5585633875
C  C128  1  0.96030000  0.45130000  0.72580000  1.0 0.5585633875
C  C129  1  0.25550000  0.81330000  0.81030000  1.0 0.3631796153
C  C130  1  0.81330000  0.25550000  0.68970000  1.0 0.3631796153
C  C131  1  0.74450000  0.18670000  0.18970000  1.0 0.3631796153
C  C132  1  0.18670000  0.74450000  0.31030000  1.0 0.3631796153
C  C133  1  0.26930000  0.68270000  0.87860000  1.0 -0.347598338
C  C134  1  0.68270000  0.26930000  0.62140000  1.0 -0.347598338
C  C135  1  0.73070000  0.31730000  0.12140000  1.0 -0.347598338
C  C136  1  0.31730000  0.73070000  0.37860000  1.0 -0.347598338
C  C137  1  0.15480000  0.73120000  0.84800000  1.0 -0.347598338
C  C138  1  0.73120000  0.15480000  0.65200000  1.0 -0.347598338
C  C139  1  0.84520000  0.26880000  0.15200000  1.0 -0.347598338
C  C140  1  0.26880000  0.84520000  0.34800000  1.0 -0.347598338
C  C141  1  0.29030000  0.43770000  0.31740000  1.0 -0.0327026513
C  C142  1  0.43770000  0.29030000  0.18260000  1.0 -0.0327026513
C  C143  1  0.70970000  0.56230000  0.68260000  1.0 -0.0327026513
C  C144  1  0.56230000  0.70970000  0.81740000  1.0 -0.0327026513
C  C145  1  0.28810000  0.40190000  0.37420000  1.0 -0.0582358636
C  C146  1  0.40190000  0.28810000  0.12580000  1.0 -0.0582358636
C  C147  1  0.71190000  0.59810000  0.62580000  1.0 -0.0582358636
C  C148  1  0.59810000  0.71190000  0.87420000  1.0 -0.0582358636
C  C149  1  0.31530000  0.34470000  0.43000000  1.0 -0.2987564964
C  C150  1  0.34470000  0.31530000  0.07000000  1.0 -0.2987564964
C  C151  1  0.68470000  0.65530000  0.57000000  1.0 -0.2987564964
C  C152  1  0.65530000  0.68470000  0.93000000  1.0 -0.2987564964
C  C153  1  0.36240000  0.32040000  0.38700000  1.0 -0.0130465402
C  C154  1  0.32040000  0.36240000  0.11300000  1.0 -0.0130465402
C  C155  1  0.63760000  0.67960000  0.61300000  1.0 -0.0130465402
C  C156  1  0.67960000  0.63760000  0.88700000  1.0 -0.0130465402
C  C157  1  0.36610000  0.36190000  0.32500000  1.0 -0.0130465402
C  C158  1  0.36190000  0.36610000  0.17500000  1.0 -0.0130465402
C  C159  1  0.63390000  0.63810000  0.67500000  1.0 -0.0130465402
C  C160  1  0.63810000  0.63390000  0.82500000  1.0 -0.0130465402
C  C161  1  0.34500000  0.43100000  0.31000000  1.0 0.0340768141
C  C162  1  0.43100000  0.34500000  0.19000000  1.0 0.0340768141
C  C163  1  0.65500000  0.56900000  0.69000000  1.0 0.0340768141
C  C164  1  0.56900000  0.65500000  0.81000000  1.0 0.0340768141
C  C165  1  0.38350000  0.26250000  0.42060000  1.0 0.000360247
C  C166  1  0.26250000  0.38350000  0.07940000  1.0 0.000360247
C  C167  1  0.61650000  0.73750000  0.57940000  1.0 0.000360247
C  C168  1  0.73750000  0.61650000  0.92060000  1.0 0.000360247
N  N1  1  0.43660000  0.25660000  0.42550000  1.0 -0.0759997009
N  N2  1  0.25660000  0.43660000  0.07450000  1.0 -0.0759997009
N  N3  1  0.56340000  0.74340000  0.57450000  1.0 -0.0759997009
N  N4  1  0.74340000  0.56340000  0.92550000  1.0 -0.0759997009
N  N5  1  0.28480000  0.06640000  0.10280000  1.0 0.0089827608
N  N6  1  0.06640000  0.28480000  0.39720000  1.0 0.0089827608
N  N7  1  0.71520000  0.93360000  0.89720000  1.0 0.0089827608
N  N8  1  0.93360000  0.71520000  0.60280000  1.0 0.0089827608
N  N9  1  0.24070000  0.74210000  0.87060000  1.0 0.0607717918
N  N10  1  0.74210000  0.24070000  0.62940000  1.0 0.0607717918
N  N11  1  0.75930000  0.25790000  0.12940000  1.0 0.0607717918
N  N12  1  0.25790000  0.75930000  0.37060000  1.0 0.0607717918
N  N13  1  0.27460000  0.05540000  0.14100000  1.0 -0.1370189831
N  N14  1  0.05540000  0.27460000  0.35900000  1.0 -0.1370189831
N  N15  1  0.72540000  0.94460000  0.85900000  1.0 -0.1370189831
N  N16  1  0.94460000  0.72540000  0.64100000  1.0 -0.1370189831
O  O1  1  0.24980000  0.53520000  0.30690000  1.0 -0.1370189831
O  O2  1  0.53520000  0.24980000  0.19310000  1.0 -0.1370189831
O  O3  1  0.75020000  0.46480000  0.69310000  1.0 -0.1290920912
O  O4  1  0.46480000  0.75020000  0.80690000  1.0 -0.1370189831
O  O5  1  0.31730000  0.58950000  0.21730000  1.0 -0.5864927409
O  O6  1  0.58950000  0.31730000  0.28270000  1.0 -0.5864927409
O  O7  1  0.68270000  0.41050000  0.78270000  1.0 -0.5864927409
O  O8  1  0.41050000  0.68270000  0.71730000  1.0 -0.5864927409
O  O9  1  0.45660000  0.94500000  0.63690000  1.0 -0.5367033122
O  O10  1  0.94500000  0.45660000  0.86310000  1.0 -0.5367033122
O  O11  1  0.54340000  0.05500000  0.36310000  1.0 -0.5367033122
O  O12  1  0.05500000  0.54340000  0.13690000  1.0 -0.5367033122
O  O13  1  0.34870000  0.97510000  0.60190000  1.0 -0.630339974
O  O14  1  0.97510000  0.34870000  0.89810000  1.0 -0.630339974
O  O15  1  0.65130000  0.02490000  0.39810000  1.0 -0.630339974
O  O16  1  0.02490000  0.65130000  0.10190000  1.0 -0.630339974
O  O17  1  0.67250000  0.21610000  0.41330000  1.0 -0.5300784348
O  O18  1  0.21610000  0.67250000  0.08670000  1.0 -0.5300784348
O  O19  1  0.32750000  0.78390000  0.58670000  1.0 -0.5300784348
O  O20  1  0.78390000  0.32750000  0.91330000  1.0 -0.5300784348
O  O21  1  0.68430000  0.11970000  0.51020000  1.0 -0.5665837763
O  O22  1  0.11970000  0.68430000  0.98980000  1.0 -0.5665837763
O  O23  1  0.31570000  0.88030000  0.48980000  1.0 -0.5665837763
O  O24  1  0.88030000  0.31570000  0.01020000  1.0 -0.5665837763
O  O25  1  0.92780000  0.16880000  0.92500000  1.0 -0.4035966484
O  O26  1  0.16880000  0.92780000  0.57500000  1.0 -0.4035966484
O  O27  1  0.07220000  0.83120000  0.07500000  1.0 -0.4066651104
O  O28  1  0.83120000  0.07220000  0.42500000  1.0 -0.4066651104
O  O29  1  0.00870000  0.22970000  0.86080000  1.0 -0.4627440883
O  O30  1  0.22970000  0.00870000  0.63920000  1.0 -0.4627440883
O  O31  1  0.99130000  0.77030000  0.13920000  1.0 -0.4627440883
O  O32  1  0.77030000  0.99130000  0.36080000  1.0 -0.4627440883
O  O33  1  0.30430000  0.73870000  0.22520000  1.0 -0.4750584303
O  O34  1  0.73870000  0.30430000  0.27480000  1.0 -0.4750584303
O  O35  1  0.69570000  0.26130000  0.77480000  1.0 -0.4750584303
O  O36  1  0.26130000  0.69570000  0.72520000  1.0 -0.4750584303
O  O37  1  0.19120000  0.75560000  0.15980000  1.0 -0.6506481557
O  O38  1  0.75560000  0.19120000  0.34020000  1.0 -0.6506481557
O  O39  1  0.80880000  0.24440000  0.84020000  1.0 -0.6506481557
O  O40  1  0.24440000  0.80880000  0.65980000  1.0 -0.6506481557
O  O41  1  0.59250000  0.11830000  0.22420000  1.0 -0.5971704958
O  O42  1  0.11830000  0.59250000  0.27580000  1.0 -0.5971704958
O  O43  1  0.40750000  0.88170000  0.77580000  1.0 -0.5971704958
O  O44  1  0.88170000  0.40750000  0.72420000  1.0 -0.5971704958
O  O45  1  0.58040000  0.99180000  0.25040000  1.0 -0.488940203
O  O46  1  0.99180000  0.58040000  0.24960000  1.0 -0.488940203
O  O47  1  0.41960000  0.00820000  0.74960000  1.0 -0.488940203
O  O48  1  0.00820000  0.41960000  0.75040000  1.0 -0.488940203
O  O49  1  0.21890000  0.85830000  0.77650000  1.0 -0.5191007046
O  O50  1  0.85830000  0.21890000  0.72350000  1.0 -0.5191007046
O  O51  1  0.78110000  0.14170000  0.22350000  1.0 -0.5191007046
O  O52  1  0.14170000  0.78110000  0.27650000  1.0 -0.5191007046
O  O53  1  0.21480000  0.50100000  0.26950000  1.0 0.1596678147
O  O54  1  0.50100000  0.21480000  0.23050000  1.0 0.1596678147
O  O55  1  0.78520000  0.49900000  0.73050000  1.0 0.1596678147
O  O56  1  0.49900000  0.78520000  0.76950000  1.0 0.1596678147
O  O57  1  0.48110000  0.19550000  0.26570000  1.0 -0.217419011
O  O58  1  0.19550000  0.48110000  0.23430000  1.0 -0.217419011
O  O59  1  0.51890000  0.80450000  0.73430000  1.0 -0.217419011
O  O60  1  0.80450000  0.51890000  0.76570000  1.0 -0.217419011
