# DDEC6 charges by PACMAN v1.1 (https://github.com/mtap-research/PACMAN-charge/)
data_REHJEV_ion_pacman
_symmetry_space_group_name_H-M   'P 1'
_cell_length_a   14.26190000
_cell_length_b   14.26190000
_cell_length_c   23.79600000
_cell_angle_alpha   68.00220000
_cell_angle_beta   111.99800000
_cell_angle_gamma   130.53200000
_symmetry_Int_Tables_number   1
_chemical_formula_structural   Ag3H48C50(N5O7)2
_chemical_formula_sum   'Ag6 H96 C100 N20 O28'
_cell_volume   3351.31502226
_cell_formula_units_Z   2
loop_
 _symmetry_equiv_pos_site_id
 _symmetry_equiv_pos_as_xyz
  1  'x, y, z'
loop_
 _atom_site_type_symbol
 _atom_site_label
 _atom_site_symmetry_multiplicity
 _atom_site_fract_x
 _atom_site_fract_y
 _atom_site_fract_z
 _atom_site_occupancy
 _atom_site_charge
Ag  Ag1  1  0.76809000  0.85328000  0.08375000  1.0 0.2511386038
Ag  Ag2  1  0.85328000  0.76809000  0.41625000  1.0 0.2511386038
Ag  Ag3  1  0.23190000  0.14671000  0.91625000  1.0 0.2511386038
Ag  Ag4  1  0.14672000  0.23191000  0.58375000  1.0 0.2511386038
Ag  Ag5  1  0.00000000  0.50000000  0.50000000  1.0 0.2511386038
Ag  Ag6  1  0.50000000  0.00000000  0.00000000  1.0 0.2511386038
H  H1  1  0.44320000  0.82180000  0.40000000  1.0 0.1079584613
H  H2  1  0.82180000  0.44320000  0.10000000  1.0 0.1079584613
H  H3  1  0.55680000  0.17820000  0.60000000  1.0 0.1079584613
H  H4  1  0.17820000  0.55680000  0.90000000  1.0 0.1079584613
H  H5  1  0.32750000  0.82690000  0.37650000  1.0 0.0982258687
H  H6  1  0.82690000  0.32750000  0.12350000  1.0 0.0982258687
H  H7  1  0.67250000  0.17310000  0.62350000  1.0 0.0982258687
H  H8  1  0.17310000  0.67250000  0.87650000  1.0 0.0982258687
H  H9  1  0.34570000  0.92490000  0.21450000  1.0 0.0982258687
H  H10  1  0.92490000  0.34570000  0.28550000  1.0 0.0982258687
H  H11  1  0.65430000  0.07510000  0.78550000  1.0 0.0982258687
H  H12  1  0.07510000  0.65430000  0.71450000  1.0 0.0982258687
H  H13  1  0.25190000  0.79090000  0.25010000  1.0 0.1079584613
H  H14  1  0.79090000  0.25190000  0.24990000  1.0 0.1079584613
H  H15  1  0.74810000  0.20910000  0.74990000  1.0 0.1079584613
H  H16  1  0.20910000  0.74810000  0.75010000  1.0 0.1079584613
H  H17  1  0.13130000  0.81870000  0.16470000  1.0 0.1320413809
H  H18  1  0.81870000  0.13130000  0.33530000  1.0 0.1320413809
H  H19  1  0.86870000  0.18130000  0.83530000  1.0 0.1320413809
H  H20  1  0.18130000  0.86870000  0.66470000  1.0 0.1320413809
H  H21  1  0.55250000  0.86070000  0.32740000  1.0 0.1079584613
H  H22  1  0.86070000  0.55250000  0.17260000  1.0 0.1079584613
H  H23  1  0.44750000  0.13930000  0.67260000  1.0 0.1079584613
H  H24  1  0.13930000  0.44750000  0.82740000  1.0 0.1079584613
H  H25  1  0.43060000  0.77740000  0.28180000  1.0 0.0982258687
H  H26  1  0.77740000  0.43060000  0.21820000  1.0 0.0982258687
H  H27  1  0.56940000  0.22260000  0.71820000  1.0 0.0982258687
H  H28  1  0.22260000  0.56940000  0.78180000  1.0 0.0982258687
H  H29  1  0.78420000  0.07460000  0.45540000  1.0 0.1576662913
H  H30  1  0.07460000  0.78420000  0.04460000  1.0 0.1576662913
H  H31  1  0.21580000  0.92540000  0.54460000  1.0 0.1576662913
H  H32  1  0.92540000  0.21580000  0.95540000  1.0 0.1576662913
H  H33  1  0.54090000  0.09030000  0.27970000  1.0 0.1079584613
H  H34  1  0.09030000  0.54090000  0.22030000  1.0 0.1079584613
H  H35  1  0.45910000  0.90970000  0.72030000  1.0 0.1079584613
H  H36  1  0.90970000  0.45910000  0.77970000  1.0 0.1079584613
H  H37  1  0.46560000  0.04980000  0.32890000  1.0 0.0982258687
H  H38  1  0.04980000  0.46560000  0.17110000  1.0 0.0982258687
H  H39  1  0.53440000  0.95020000  0.67110000  1.0 0.0982258687
H  H40  1  0.95020000  0.53440000  0.82890000  1.0 0.0982258687
H  H41  1  0.63420000  0.25460000  0.33870000  1.0 0.1415937147
H  H42  1  0.25460000  0.63420000  0.16130000  1.0 0.1415937147
H  H43  1  0.36580000  0.74540000  0.66130000  1.0 0.1415937147
H  H44  1  0.74540000  0.36580000  0.83870000  1.0 0.1415937147
H  H45  1  0.92500000  0.24520000  0.50490000  1.0 0.0827537549
H  H46  1  0.24520000  0.92500000  0.99510000  1.0 0.0827537549
H  H47  1  0.07500000  0.75480000  0.49510000  1.0 0.0827537549
H  H48  1  0.75480000  0.07500000  0.00490000  1.0 0.0827537549
H  H49  1  0.56230000  0.76150000  0.26260000  1.0 0.1503039162
H  H50  1  0.76150000  0.56230000  0.23740000  1.0 0.1503039162
H  H51  1  0.43770000  0.23850000  0.73740000  1.0 0.1503039162
H  H52  1  0.23850000  0.43770000  0.76260000  1.0 0.1503039162
H  H53  1  0.95110000  0.79050000  0.10470000  1.0 0.1079584613
H  H54  1  0.79050000  0.95110000  0.39530000  1.0 0.1079584613
H  H55  1  0.04890000  0.20950000  0.89530000  1.0 0.1079584613
H  H56  1  0.20950000  0.04890000  0.60470000  1.0 0.1079584613
H  H57  1  0.65930000  0.09350000  0.15200000  1.0 0.1415937147
H  H58  1  0.09350000  0.65930000  0.34800000  1.0 0.1415937147
H  H59  1  0.34070000  0.90650000  0.84800000  1.0 0.1415937147
H  H60  1  0.90650000  0.34070000  0.65200000  1.0 0.1415937147
H  H61  1  0.78000000  0.41520000  0.39200000  1.0 0.0982258687
H  H62  1  0.41520000  0.78000000  0.10800000  1.0 0.0982258687
H  H63  1  0.22000000  0.58480000  0.60800000  1.0 0.0982258687
H  H64  1  0.58480000  0.22000000  0.89200000  1.0 0.0982258687
H  H65  1  0.13870000  0.99450000  0.26490000  1.0 0.1415937147
H  H66  1  0.99450000  0.13870000  0.23510000  1.0 0.1415937147
H  H67  1  0.86130000  0.00550000  0.73510000  1.0 0.1415937147
H  H68  1  0.00550000  0.86130000  0.76490000  1.0 0.1503039162
H  H69  1  0.96100000  0.96640000  0.19910000  1.0 0.0885631267
H  H70  1  0.96640000  0.96100000  0.30090000  1.0 0.0885631267
H  H71  1  0.03900000  0.03360000  0.80090000  1.0 0.0885631267
H  H72  1  0.03360000  0.03900000  0.69910000  1.0 0.0885631267
H  H73  1  0.11720000  0.29080000  0.43760000  1.0 0.1079584613
H  H74  1  0.29080000  0.11720000  0.06240000  1.0 0.1079584613
H  H75  1  0.88280000  0.70920000  0.56240000  1.0 0.1079584613
H  H76  1  0.70920000  0.88280000  0.93760000  1.0 0.1079584613
H  H77  1  0.64760000  0.74660000  0.20660000  1.0 0.0982258687
H  H78  1  0.74660000  0.64760000  0.29340000  1.0 0.0982258687
H  H79  1  0.35240000  0.25340000  0.79340000  1.0 0.0982258687
H  H80  1  0.25340000  0.35240000  0.70660000  1.0 0.0982258687
H  H81  1  0.17300000  0.45480000  0.35740000  1.0 0.1576662913
H  H82  1  0.45480000  0.17300000  0.14260000  1.0 0.1576662913
H  H83  1  0.82700000  0.54520000  0.64260000  1.0 0.1576662913
H  H84  1  0.54520000  0.82700000  0.85740000  1.0 0.1576662913
H  H85  1  0.27040000  0.51240000  0.55130000  1.0 0.0982258687
H  H86  1  0.51240000  0.27040000  0.94870000  1.0 0.0982258687
H  H87  1  0.72960000  0.48760000  0.44870000  1.0 0.0982258687
H  H88  1  0.48760000  0.72960000  0.05130000  1.0 0.0982258687
H  H89  1  0.33010000  0.68350000  0.47430000  1.0 0.1415937147
H  H90  1  0.68350000  0.33010000  0.02570000  1.0 0.1415937147
H  H91  1  0.66990000  0.31650000  0.52570000  1.0 0.1415937147
H  H92  1  0.31650000  0.66990000  0.97430000  1.0 0.1415937147
H  H93  1  0.75020000  0.06900000  0.10280000  1.0 0.0885631267
H  H94  1  0.06900000  0.75020000  0.39720000  1.0 0.0885631267
H  H95  1  0.24980000  0.93100000  0.89720000  1.0 0.0885631267
H  H96  1  0.93100000  0.24980000  0.60280000  1.0 0.0885631267
C  C1  1  0.69140000  0.14460000  0.39210000  1.0 0.2807865005
C  C2  1  0.14460000  0.69140000  0.10790000  1.0 0.2807865005
C  C3  1  0.30860000  0.85540000  0.60790000  1.0 0.2807865005
C  C4  1  0.85540000  0.30860000  0.89210000  1.0 0.2807865005
C  C5  1  0.15600000  0.90980000  0.22176000  1.0 0.2733710866
C  C6  1  0.90980000  0.15600000  0.27824000  1.0 0.2733710866
C  C7  1  0.84400000  0.09020000  0.77824000  1.0 0.2733710866
C  C8  1  0.09020000  0.84400000  0.72176000  1.0 0.2733710866
C  C9  1  0.37370000  0.80930000  0.36630000  1.0 -0.0913594559
C  C10  1  0.80930000  0.37370000  0.13370000  1.0 -0.0913594559
C  C11  1  0.62630000  0.19070000  0.63370000  1.0 -0.0913594559
C  C12  1  0.19070000  0.62630000  0.86630000  1.0 -0.0913594559
C  C13  1  0.31441000  0.87899000  0.25292000  1.0 -0.0966002203
C  C14  1  0.87899000  0.31441000  0.24708000  1.0 -0.0966002203
C  C15  1  0.68559000  0.12101000  0.74708000  1.0 -0.0966002203
C  C16  1  0.12101000  0.68559000  0.75292000  1.0 -0.0966002203
C  C17  1  0.09770000  0.84910000  0.17300000  1.0 -0.2796824691
C  C18  1  0.84910000  0.09770000  0.32700000  1.0 -0.2796824691
C  C19  1  0.90230000  0.15090000  0.82700000  1.0 -0.2796824691
C  C20  1  0.15090000  0.90230000  0.67300000  1.0 -0.2796824691
C  C21  1  0.49000000  0.86060000  0.29210000  1.0 -0.0966002203
C  C22  1  0.86060000  0.49000000  0.20790000  1.0 -0.0966002203
C  C23  1  0.51000000  0.13940000  0.70790000  1.0 -0.0966002203
C  C24  1  0.13940000  0.51000000  0.79210000  1.0 -0.0966002203
C  C25  1  0.78090000  0.14270000  0.44180000  1.0 -0.2726255644
C  C26  1  0.14270000  0.78090000  0.05820000  1.0 -0.2726255644
C  C27  1  0.21910000  0.85730000  0.55820000  1.0 -0.2726255644
C  C28  1  0.85730000  0.21910000  0.94180000  1.0 -0.2726255644
C  C29  1  0.50985000  0.03175000  0.31710000  1.0 -0.0913594559
C  C30  1  0.03175000  0.50985000  0.18290000  1.0 -0.0913594559
C  C31  1  0.49015000  0.96825000  0.68290000  1.0 -0.0913594559
C  C32  1  0.96825000  0.49015000  0.81710000  1.0 -0.0913594559
C  C33  1  0.42237000  0.89583000  0.30674000  1.0 0.0827537549
C  C34  1  0.89583000  0.42237000  0.19326000  1.0 0.0827537549
C  C35  1  0.57763000  0.10417000  0.69326000  1.0 0.0827537549
C  C36  1  0.10417000  0.57763000  0.80674000  1.0 0.0827537549
C  C37  1  0.25982000  0.58878000  0.40680000  1.0 0.2807865005
C  C38  1  0.58878000  0.25982000  0.09320000  1.0 0.2807865005
C  C39  1  0.74018000  0.41122000  0.59320000  1.0 0.2807865005
C  C40  1  0.41122000  0.74018000  0.90680000  1.0 0.2807865005
C  C41  1  0.69190000  0.24970000  0.37240000  1.0 -0.2796824691
C  C42  1  0.24970000  0.69190000  0.12760000  1.0 -0.2796824691
C  C43  1  0.30810000  0.75030000  0.62760000  1.0 -0.2796824691
C  C44  1  0.75030000  0.30810000  0.87240000  1.0 -0.2796824691
C  C45  1  0.86600000  0.24660000  0.47080000  1.0 0.065756933
C  C46  1  0.24660000  0.86600000  0.02920000  1.0 0.065756933
C  C47  1  0.13400000  0.75340000  0.52920000  1.0 0.065756933
C  C48  1  0.75340000  0.13400000  0.97080000  1.0 0.065756933
C  C49  1  0.59770000  0.82470000  0.22940000  1.0 -0.2796824691
C  C50  1  0.82470000  0.59770000  0.27060000  1.0 -0.2796824691
C  C51  1  0.40230000  0.17530000  0.77060000  1.0 -0.2796824691
C  C52  1  0.17530000  0.40230000  0.72940000  1.0 -0.2796824691
C  C53  1  0.59926000  0.93054000  0.21300000  1.0 0.2807865005
C  C54  1  0.93054000  0.59926000  0.28700000  1.0 0.2807865005
C  C55  1  0.40074000  0.06946000  0.78700000  1.0 0.2807865005
C  C56  1  0.06946000  0.40074000  0.71300000  1.0 0.2807865005
C  C57  1  0.99040000  0.83380000  0.13690000  1.0 0.0827537549
C  C58  1  0.83380000  0.99040000  0.36310000  1.0 0.0827537549
C  C59  1  0.00960000  0.16620000  0.86310000  1.0 0.0827537549
C  C60  1  0.16620000  0.00960000  0.63690000  1.0 0.0827537549
C  C61  1  0.65630000  0.02170000  0.16440000  1.0 -0.2726255644
C  C62  1  0.02170000  0.65630000  0.33560000  1.0 -0.2726255644
C  C63  1  0.34370000  0.97830000  0.83560000  1.0 -0.2726255644
C  C64  1  0.97830000  0.34370000  0.66440000  1.0 -0.2726255644
C  C65  1  0.78050000  0.34530000  0.40470000  1.0 0.0601707515
C  C66  1  0.34530000  0.78050000  0.09530000  1.0 0.0477970916
C  C67  1  0.21950000  0.65470000  0.59530000  1.0 0.0601707515
C  C68  1  0.65470000  0.21950000  0.90470000  1.0 0.0601707515
C  C69  1  0.10300000  0.95380000  0.23210000  1.0 -0.2565447528
C  C70  1  0.95380000  0.10300000  0.26790000  1.0 -0.2565447528
C  C71  1  0.89700000  0.04620000  0.76790000  1.0 -0.2565447528
C  C72  1  0.04620000  0.89700000  0.73210000  1.0 -0.2565447528
C  C73  1  0.99620000  0.93560000  0.19250000  1.0 0.0477970916
C  C74  1  0.93560000  0.99620000  0.30750000  1.0 0.0477970916
C  C75  1  0.00380000  0.06440000  0.80750000  1.0 0.0477970916
C  C76  1  0.06440000  0.00380000  0.69250000  1.0 0.0477970916
C  C77  1  0.16060000  0.37080000  0.44490000  1.0 0.0601707515
C  C78  1  0.37080000  0.16060000  0.05510000  1.0 0.0601707515
C  C79  1  0.83940000  0.62920000  0.55510000  1.0 0.0601707515
C  C80  1  0.62920000  0.83940000  0.94490000  1.0 0.0601707515
C  C81  1  0.64960000  0.81760000  0.19530000  1.0 0.0601707515
C  C82  1  0.81760000  0.64960000  0.30470000  1.0 0.0601707515
C  C83  1  0.35040000  0.18240000  0.80470000  1.0 0.0601707515
C  C84  1  0.18240000  0.35040000  0.69530000  1.0 0.0601707515
C  C85  1  0.19400000  0.46820000  0.39700000  1.0 -0.2336077716
C  C86  1  0.46820000  0.19400000  0.10300000  1.0 -0.2336077716
C  C87  1  0.80600000  0.53180000  0.60300000  1.0 -0.2336077716
C  C88  1  0.53180000  0.80600000  0.89700000  1.0 -0.2336077716
C  C89  1  0.25040000  0.50080000  0.51140000  1.0 0.0827537549
C  C90  1  0.50080000  0.25040000  0.98860000  1.0 0.0827537549
C  C91  1  0.74960000  0.49920000  0.48860000  1.0 0.0827537549
C  C92  1  0.49920000  0.74960000  0.01140000  1.0 0.0827537549
C  C93  1  0.28750000  0.60470000  0.46570000  1.0 -0.2796824691
C  C94  1  0.60470000  0.28750000  0.03430000  1.0 -0.2796824691
C  C95  1  0.71250000  0.39530000  0.53430000  1.0 -0.2726255644
C  C96  1  0.39530000  0.71250000  0.96570000  1.0 -0.2726255644
C  C97  1  0.70840000  0.00500000  0.13430000  1.0 0.0192495931
C  C98  1  0.00500000  0.70840000  0.36570000  1.0 0.0192495931
C  C99  1  0.29160000  0.99500000  0.86570000  1.0 0.0192495931
C  C100  1  0.99500000  0.29160000  0.63430000  1.0 0.0192495931
N  N1  1  0.86725000  0.34675000  0.45268000  1.0 -0.2099700149
N  N2  1  0.34675000  0.86725000  0.04732000  1.0 -0.2099700149
N  N3  1  0.13275000  0.65325000  0.54732000  1.0 -0.2099700149
N  N4  1  0.65325000  0.13275000  0.95268000  1.0 -0.2099700149
N  N5  1  0.93903000  0.87677000  0.14504000  1.0 -0.1956823926
N  N6  1  0.87677000  0.93903000  0.35496000  1.0 -0.1956823926
N  N7  1  0.06097000  0.12323000  0.85496000  1.0 -0.1956823926
N  N8  1  0.12323000  0.06097000  0.64504000  1.0 -0.1956823926
N  N9  1  0.18837000  0.38563000  0.50350000  1.0 -0.2099700149
N  N10  1  0.38563000  0.18837000  0.99650000  1.0 -0.2099700149
N  N11  1  0.81163000  0.61437000  0.49650000  1.0 -0.2099700149
N  N12  1  0.61437000  0.81163000  0.00350000  1.0 -0.2099700149
N  N13  1  0.70270000  0.90070000  0.14790000  1.0 -0.2726255644
N  N14  1  0.90070000  0.70270000  0.35210000  1.0 -0.2726255644
N  N15  1  0.29730000  0.09930000  0.85210000  1.0 -0.2726255644
N  N16  1  0.09930000  0.29730000  0.64790000  1.0 -0.2726255644
N  N17  1  0.65930000  0.59270000  0.02900000  1.0 0.7036557656
N  N18  1  0.59270000  0.65930000  0.47100000  1.0 0.7036557656
N  N19  1  0.34070000  0.40730000  0.97100000  1.0 0.7036557656
N  N20  1  0.40730000  0.34070000  0.52900000  1.0 0.7036557656
O  O1  1  0.61195000  0.04225000  0.36579000  1.0 -0.1737302829
O  O2  1  0.04225000  0.61195000  0.13421000  1.0 -0.1737302829
O  O3  1  0.38805000  0.95775000  0.63421000  1.0 -0.1737302829
O  O4  1  0.95775000  0.38805000  0.86579000  1.0 -0.1737302829
O  O5  1  0.25951000  0.92489000  0.26303000  1.0 -0.177405401
O  O6  1  0.92489000  0.25951000  0.23697000  1.0 -0.177405401
O  O7  1  0.74049000  0.07511000  0.73697000  1.0 -0.177405401
O  O8  1  0.07511000  0.74049000  0.76303000  1.0 -0.177405401
O  O9  1  0.29341000  0.68319000  0.35630000  1.0 -0.1882166852
O  O10  1  0.68319000  0.29341000  0.14370000  1.0 -0.1882166852
O  O11  1  0.70659000  0.31681000  0.64370000  1.0 -0.1882166852
O  O12  1  0.31681000  0.70659000  0.85630000  1.0 -0.1882166852
O  O13  1  0.54949000  0.95311000  0.23992000  1.0 -0.1956823926
O  O14  1  0.95311000  0.54949000  0.26008000  1.0 -0.1956823926
O  O15  1  0.45051000  0.04689000  0.76008000  1.0 -0.1882166852
O  O16  1  0.04689000  0.45051000  0.73992000  1.0 -0.1956823926
O  O17  1  0.61960000  0.54640000  0.07940000  1.0 -0.4783401925
O  O18  1  0.76790000  0.62810000  0.02990000  1.0 -0.4783401925
O  O19  1  0.59950000  0.60450000  0.97460000  1.0 -0.4113989908
O  O20  1  0.54640000  0.61960000  0.42060000  1.0 -0.4783401925
O  O21  1  0.62810000  0.76790000  0.47010000  1.0 -0.4783401925
O  O22  1  0.60450000  0.59950000  0.52540000  1.0 -0.4113989908
O  O23  1  0.38040000  0.45360000  0.92060000  1.0 -0.4783401925
O  O24  1  0.23210000  0.37190000  0.97010000  1.0 -0.4783401925
O  O25  1  0.40050000  0.39550000  0.02540000  1.0 -0.4113989908
O  O26  1  0.45360000  0.38040000  0.57940000  1.0 -0.4783401925
O  O27  1  0.37190000  0.23210000  0.52990000  1.0 -0.4783401925
O  O28  1  0.39550000  0.40050000  0.47460000  1.0 -0.4113989908
