# DDEC6 charges by PACMAN v1.1 (https://github.com/mtap-research/PACMAN-charge/)
data_REHTUV_ASR_pacman
_symmetry_space_group_name_H-M   'P 1'
_cell_length_a   11.39750000
_cell_length_b   11.39750000
_cell_length_c   26.99400000
_cell_angle_alpha   79.26640000
_cell_angle_beta   100.73400000
_cell_angle_gamma   128.27500000
_symmetry_Int_Tables_number   1
_chemical_formula_structural   CoH25C35(NO)5
_chemical_formula_sum   'Co4 H100 C140 N20 O20'
_cell_volume   2693.23598712
_cell_formula_units_Z   4
loop_
 _symmetry_equiv_pos_site_id
 _symmetry_equiv_pos_as_xyz
  1  'x, y, z'
loop_
 _atom_site_type_symbol
 _atom_site_label
 _atom_site_symmetry_multiplicity
 _atom_site_fract_x
 _atom_site_fract_y
 _atom_site_fract_z
 _atom_site_occupancy
 _atom_site_charge
Co  Co1  1  0.90601000  0.18815000  0.82287000  1.0 0.6536616589
Co  Co2  1  0.81185000  0.09399000  0.32287000  1.0 0.6536616589
Co  Co3  1  0.18815000  0.90601000  0.67713000  1.0 0.6536616589
Co  Co4  1  0.09399000  0.81185000  0.17713000  1.0 0.6536616589
H  H1  1  0.89590000  0.06930000  0.07700000  1.0 0.2018043873
H  H2  1  0.93070000  0.10410000  0.57700000  1.0 0.2018043873
H  H3  1  0.79060000  0.71660000  0.82450000  1.0 0.11147246
H  H4  1  0.28340000  0.20940000  0.32450000  1.0 0.11147246
H  H5  1  0.42700000  0.70140000  0.82550000  1.0 0.1197016348
H  H6  1  0.29860000  0.57300000  0.32550000  1.0 0.1197016348
H  H7  1  0.37390000  0.31950000  0.81710000  1.0 0.11147246
H  H8  1  0.68050000  0.62610000  0.31710000  1.0 0.11147246
H  H9  1  0.94980000  0.48580000  0.78240000  1.0 0.11147246
H  H10  1  0.51420000  0.05020000  0.28240000  1.0 0.11147246
H  H11  1  0.84490000  0.60530000  0.78300000  1.0 0.11147246
H  H12  1  0.39470000  0.15510000  0.28300000  1.0 0.1197016348
H  H13  1  0.50000000  0.22380000  0.85210000  1.0 0.11147246
H  H14  1  0.77620000  0.50000000  0.35210000  1.0 0.11147246
H  H15  1  0.61470000  0.11450000  0.84970000  1.0 0.11147246
H  H16  1  0.88550000  0.38530000  0.34970000  1.0 0.11147246
H  H17  1  0.76280000  0.25980000  0.22520000  1.0 0.1197016348
H  H18  1  0.74020000  0.23720000  0.72520000  1.0 0.1197016348
H  H19  1  0.79680000  0.31180000  0.13960000  1.0 0.0892675476
H  H20  1  0.68820000  0.20320000  0.63960000  1.0 0.0892675476
H  H21  1  0.92080000  0.04320000  0.15670000  1.0 0.0976626285
H  H22  1  0.95680000  0.07920000  0.65670000  1.0 0.0976626285
H  H23  1  0.87020000  0.98660000  0.24060000  1.0 0.11147246
H  H24  1  0.01340000  0.12980000  0.74060000  1.0 0.11147246
H  H25  1  0.00050000  0.39150000  0.90600000  1.0 0.136546526
H  H26  1  0.60850000  0.99950000  0.40600000  1.0 0.136546526
H  H27  1  0.99490000  0.38590000  0.99120000  1.0 0.0892675476
H  H28  1  0.61410000  0.00510000  0.49120000  1.0 0.0892675476
H  H29  1  0.86060000  0.96040000  0.00570000  1.0 0.0648196842
H  H30  1  0.03960000  0.13940000  0.50570000  1.0 0.0648196842
H  H31  1  0.86800000  0.97980000  0.91920000  1.0 0.0756933061
H  H32  1  0.02020000  0.13200000  0.41920000  1.0 0.0756933061
H  H33  1  0.82280000  0.28580000  0.13510000  1.0 0.0976626285
H  H34  1  0.71420000  0.17720000  0.63510000  1.0 0.0976626285
H  H35  1  0.87980000  0.96680000  0.16870000  1.0 0.0756933061
H  H36  1  0.03320000  0.12020000  0.66870000  1.0 0.0756933061
H  H37  1  0.84340000  0.94980000  0.25280000  1.0 0.0756933061
H  H38  1  0.05020000  0.15660000  0.75280000  1.0 0.0756933061
H  H39  1  0.00790000  0.41510000  0.89500000  1.0 0.11147246
H  H40  1  0.58490000  0.99210000  0.39500000  1.0 0.11147246
H  H41  1  0.02890000  0.44410000  0.98020000  1.0 0.0688703935
H  H42  1  0.55590000  0.97110000  0.48020000  1.0 0.0688703935
H  H43  1  0.85570000  0.00990000  0.01370000  1.0 0.0892675476
H  H44  1  0.99010000  0.14430000  0.51370000  1.0 0.0892675476
H  H45  1  0.86620000  0.00040000  0.93030000  1.0 0.1197016348
H  H46  1  0.99960000  0.13380000  0.43030000  1.0 0.1197016348
H  H47  1  0.85720000  0.05060000  0.08400000  1.0 0.2018043873
H  H48  1  0.94940000  0.14280000  0.58400000  1.0 0.2018043873
H  H49  1  0.76710000  0.24530000  0.21650000  1.0 0.136546526
H  H50  1  0.75470000  0.23290000  0.71650000  1.0 0.136546526
H  H51  1  0.06930000  0.89590000  0.42300000  1.0 0.2018043873
H  H52  1  0.10410000  0.93070000  0.92300000  1.0 0.2018043873
H  H53  1  0.71660000  0.79060000  0.67550000  1.0 0.11147246
H  H54  1  0.20940000  0.28340000  0.17550000  1.0 0.11147246
H  H55  1  0.70140000  0.42700000  0.67450000  1.0 0.1197016348
H  H56  1  0.57300000  0.29860000  0.17450000  1.0 0.1197016348
H  H57  1  0.31950000  0.37390000  0.68290000  1.0 0.11147246
H  H58  1  0.62610000  0.68050000  0.18290000  1.0 0.11147246
H  H59  1  0.48580000  0.94980000  0.71760000  1.0 0.11147246
H  H60  1  0.05020000  0.51420000  0.21760000  1.0 0.11147246
H  H61  1  0.60530000  0.84490000  0.71700000  1.0 0.1197016348
H  H62  1  0.15510000  0.39470000  0.21700000  1.0 0.11147246
H  H63  1  0.22380000  0.50000000  0.64790000  1.0 0.11147246
H  H64  1  0.50000000  0.77620000  0.14790000  1.0 0.11147246
H  H65  1  0.11450000  0.61470000  0.65030000  1.0 0.11147246
H  H66  1  0.38530000  0.88550000  0.15030000  1.0 0.11147246
H  H67  1  0.25980000  0.76280000  0.27480000  1.0 0.1197016348
H  H68  1  0.23720000  0.74020000  0.77480000  1.0 0.1197016348
H  H69  1  0.31180000  0.79680000  0.36040000  1.0 0.0892675476
H  H70  1  0.20320000  0.68820000  0.86040000  1.0 0.0892675476
H  H71  1  0.04320000  0.92080000  0.34330000  1.0 0.0976626285
H  H72  1  0.07920000  0.95680000  0.84330000  1.0 0.0976626285
H  H73  1  0.98660000  0.87020000  0.25940000  1.0 0.11147246
H  H74  1  0.12980000  0.01340000  0.75940000  1.0 0.11147246
H  H75  1  0.39150000  0.00050000  0.59400000  1.0 0.136546526
H  H76  1  0.99950000  0.60850000  0.09400000  1.0 0.136546526
H  H77  1  0.38590000  0.99490000  0.50880000  1.0 0.0892675476
H  H78  1  0.00510000  0.61410000  0.00880000  1.0 0.0892675476
H  H79  1  0.96040000  0.86060000  0.49430000  1.0 0.0648196842
H  H80  1  0.13940000  0.03960000  0.99430000  1.0 0.0648196842
H  H81  1  0.97980000  0.86800000  0.58080000  1.0 0.0756933061
H  H82  1  0.13200000  0.02020000  0.08080000  1.0 0.0756933061
H  H83  1  0.28580000  0.82280000  0.36490000  1.0 0.0976626285
H  H84  1  0.17720000  0.71420000  0.86490000  1.0 0.0976626285
H  H85  1  0.96680000  0.87980000  0.33130000  1.0 0.0756933061
H  H86  1  0.12020000  0.03320000  0.83130000  1.0 0.0756933061
H  H87  1  0.94980000  0.84340000  0.24720000  1.0 0.0756933061
H  H88  1  0.15660000  0.05020000  0.74720000  1.0 0.0756933061
H  H89  1  0.41510000  0.00790000  0.60500000  1.0 0.11147246
H  H90  1  0.99210000  0.58490000  0.10500000  1.0 0.11147246
H  H91  1  0.44410000  0.02890000  0.51980000  1.0 0.0688703935
H  H92  1  0.97110000  0.55590000  0.01980000  1.0 0.0688703935
H  H93  1  0.00990000  0.85570000  0.48630000  1.0 0.0892675476
H  H94  1  0.14430000  0.99010000  0.98630000  1.0 0.0892675476
H  H95  1  0.00040000  0.86620000  0.56970000  1.0 0.1197016348
H  H96  1  0.13380000  0.99960000  0.06970000  1.0 0.1197016348
H  H97  1  0.05060000  0.85720000  0.41600000  1.0 0.2018043873
H  H98  1  0.14280000  0.94940000  0.91600000  1.0 0.2018043873
H  H99  1  0.24530000  0.76710000  0.28350000  1.0 0.136546526
H  H100  1  0.23290000  0.75470000  0.78350000  1.0 0.136546526
C  C1  1  0.59311000  0.50569000  0.82046000  1.0 0.0892675476
C  C2  1  0.49431000  0.40689000  0.32046000  1.0 0.0892675476
C  C3  1  0.68486000  0.66034000  0.82361000  1.0 -0.2271220927
C  C4  1  0.33966000  0.31514000  0.32361000  1.0 -0.2271220927
C  C5  1  0.62277000  0.73283000  0.82551000  1.0 0.0198896024
C  C6  1  0.26717000  0.37723000  0.32551000  1.0 0.0198896024
C  C7  1  0.46892000  0.65148000  0.82442000  1.0 -0.1333816565
C  C8  1  0.34852000  0.53108000  0.32442000  1.0 -0.1333816565
C  C9  1  0.37481000  0.49679000  0.82178000  1.0 0.010311974
C  C10  1  0.50321000  0.62519000  0.32178000  1.0 0.010311974
C  C11  1  0.43758000  0.42482000  0.81944000  1.0 -0.1740485971
C  C12  1  0.57518000  0.56242000  0.31944000  1.0 -0.1740485971
C  C13  1  0.85783000  0.43217000  0.79721000  1.0 -0.0194641808
C  C14  1  0.56783000  0.14217000  0.29721000  1.0 -0.0194641808
C  C15  1  0.79562000  0.50438000  0.79734000  1.0 -0.2236410138
C  C16  1  0.49562000  0.20438000  0.29734000  1.0 -0.2236410138
C  C17  1  0.66059000  0.42941000  0.81851000  1.0 0.1338032092
C  C18  1  0.57059000  0.33941000  0.31851000  1.0 0.1338032092
C  C19  1  0.59333000  0.28067000  0.83789000  1.0 -0.2136844267
C  C20  1  0.71933000  0.40667000  0.33789000  1.0 -0.2136844267
C  C21  1  0.66274000  0.21606000  0.83637000  1.0 0.010311974
C  C22  1  0.78394000  0.33726000  0.33637000  1.0 0.010311974
C  C23  1  0.90530000  0.23970000  0.08550000  1.0 0.2018043873
C  C24  1  0.76030000  0.09470000  0.58550000  1.0 0.2018043873
C  C25  1  0.79190000  0.21190000  0.21100000  1.0 -0.0897289826
C  C26  1  0.78810000  0.20810000  0.71100000  1.0 -0.0897289826
C  C27  1  0.81480000  0.24600000  0.16000000  1.0 -0.0897289826
C  C28  1  0.75400000  0.18520000  0.66000000  1.0 -0.0897289826
C  C29  1  0.86410000  0.18390000  0.13920000  1.0 0.0392142315
C  C30  1  0.81610000  0.13590000  0.63920000  1.0 0.0392142315
C  C31  1  0.88580000  0.08740000  0.16970000  1.0 -0.006089868
C  C32  1  0.91260000  0.11420000  0.66970000  1.0 -0.006089868
C  C33  1  0.85570000  0.05510000  0.22030000  1.0 -0.0194641808
C  C34  1  0.94490000  0.14430000  0.72030000  1.0 -0.0194641808
C  C35  1  0.72402000  0.90078000  0.82676000  1.0 0.4735651891
C  C36  1  0.09922000  0.27598000  0.32676000  1.0 0.4735651891
C  C37  1  0.96730000  0.30030000  0.92630000  1.0 -0.0652864893
C  C38  1  0.69970000  0.03270000  0.42630000  1.0 -0.0652864893
C  C39  1  0.96590000  0.29950000  0.97750000  1.0 -0.0194641808
C  C40  1  0.70050000  0.03410000  0.47750000  1.0 -0.0194641808
C  C41  1  0.92060000  0.16880000  0.00810000  1.0 0.0459966393
C  C42  1  0.83120000  0.07940000  0.50810000  1.0 0.0459966393
C  C43  1  0.88680000  0.05000000  0.98560000  1.0 -0.1123727188
C  C44  1  0.95000000  0.11320000  0.48560000  1.0 -0.1123727188
C  C45  1  0.89120000  0.06180000  0.93420000  1.0 -0.0897289826
C  C46  1  0.93820000  0.10880000  0.43420000  1.0 -0.099080765
C  C47  1  0.20810000  0.41010000  0.82108000  1.0 0.4855063315
C  C48  1  0.58990000  0.79190000  0.32108000  1.0 0.4855063315
C  C49  1  0.93440000  0.25240000  0.05930000  1.0 0.2018043873
C  C50  1  0.74760000  0.06560000  0.55930000  1.0 0.2018043873
C  C51  1  0.79820000  0.19180000  0.20790000  1.0 -0.0607612557
C  C52  1  0.80820000  0.20180000  0.70790000  1.0 -0.0607612557
C  C53  1  0.82620000  0.21400000  0.15820000  1.0 -0.0361009567
C  C54  1  0.78600000  0.17380000  0.65820000  1.0 -0.0361009567
C  C55  1  0.85850000  0.13050000  0.14310000  1.0 0.0459966393
C  C56  1  0.86950000  0.14150000  0.64310000  1.0 0.0459966393
C  C57  1  0.86180000  0.03000000  0.17840000  1.0 -0.099080765
C  C58  1  0.97000000  0.13820000  0.67840000  1.0 -0.099080765
C  C59  1  0.83920000  0.01880000  0.22830000  1.0 -0.0607612557
C  C60  1  0.98120000  0.16080000  0.72830000  1.0 -0.0607612557
C  C61  1  0.97980000  0.33220000  0.91970000  1.0 -0.1333816565
C  C62  1  0.66780000  0.02020000  0.41970000  1.0 -0.1333816565
C  C63  1  0.98920000  0.34940000  0.97020000  1.0 -0.0897289826
C  C64  1  0.65060000  0.01080000  0.47020000  1.0 -0.0897289826
C  C65  1  0.94080000  0.22880000  0.00520000  1.0 0.0392142315
C  C66  1  0.77120000  0.05920000  0.50520000  1.0 0.0392142315
C  C67  1  0.89110000  0.09630000  0.99030000  1.0 -0.0194641808
C  C68  1  0.90370000  0.10890000  0.49030000  1.0 -0.0194641808
C  C69  1  0.89410000  0.09190000  0.93910000  1.0 -0.0194641808
C  C70  1  0.90810000  0.10590000  0.43910000  1.0 -0.0194641808
C  C71  1  0.50569000  0.59311000  0.67954000  1.0 0.0892675476
C  C72  1  0.40689000  0.49431000  0.17954000  1.0 0.0892675476
C  C73  1  0.66034000  0.68486000  0.67639000  1.0 -0.2271220927
C  C74  1  0.31514000  0.33966000  0.17639000  1.0 -0.2271220927
C  C75  1  0.73283000  0.62277000  0.67449000  1.0 0.0198896024
C  C76  1  0.37723000  0.26717000  0.17449000  1.0 0.0198896024
C  C77  1  0.65148000  0.46892000  0.67558000  1.0 -0.1333816565
C  C78  1  0.53108000  0.34852000  0.17558000  1.0 -0.1333816565
C  C79  1  0.49679000  0.37481000  0.67822000  1.0 0.010311974
C  C80  1  0.62519000  0.50321000  0.17822000  1.0 0.010311974
C  C81  1  0.42482000  0.43758000  0.68056000  1.0 -0.1740485971
C  C82  1  0.56242000  0.57518000  0.18056000  1.0 -0.1740485971
C  C83  1  0.43217000  0.85783000  0.70279000  1.0 -0.0194641808
C  C84  1  0.14217000  0.56783000  0.20279000  1.0 -0.0194641808
C  C85  1  0.50438000  0.79562000  0.70266000  1.0 -0.2236410138
C  C86  1  0.20438000  0.49562000  0.20266000  1.0 -0.2236410138
C  C87  1  0.42941000  0.66059000  0.68149000  1.0 0.1338032092
C  C88  1  0.33941000  0.57059000  0.18149000  1.0 0.1338032092
C  C89  1  0.28067000  0.59333000  0.66211000  1.0 -0.2136844267
C  C90  1  0.40667000  0.71933000  0.16211000  1.0 -0.2136844267
C  C91  1  0.21606000  0.66274000  0.66363000  1.0 0.010311974
C  C92  1  0.33726000  0.78394000  0.16363000  1.0 0.010311974
C  C93  1  0.23970000  0.90530000  0.41450000  1.0 0.2018043873
C  C94  1  0.09470000  0.76030000  0.91450000  1.0 0.2018043873
C  C95  1  0.21190000  0.79190000  0.28900000  1.0 -0.0897289826
C  C96  1  0.20810000  0.78810000  0.78900000  1.0 -0.0897289826
C  C97  1  0.24600000  0.81480000  0.34000000  1.0 -0.0897289826
C  C98  1  0.18520000  0.75400000  0.84000000  1.0 -0.0897289826
C  C99  1  0.18390000  0.86410000  0.36080000  1.0 0.0392142315
C  C100  1  0.13590000  0.81610000  0.86080000  1.0 0.0392142315
C  C101  1  0.08740000  0.88580000  0.33030000  1.0 -0.006089868
C  C102  1  0.11420000  0.91260000  0.83030000  1.0 -0.006089868
C  C103  1  0.05510000  0.85570000  0.27970000  1.0 -0.0194641808
C  C104  1  0.14430000  0.94490000  0.77970000  1.0 -0.0194641808
C  C105  1  0.90078000  0.72402000  0.67324000  1.0 0.4735651891
C  C106  1  0.27598000  0.09922000  0.17324000  1.0 0.4735651891
C  C107  1  0.30030000  0.96730000  0.57370000  1.0 -0.0652864893
C  C108  1  0.03270000  0.69970000  0.07370000  1.0 -0.0652864893
C  C109  1  0.29950000  0.96590000  0.52250000  1.0 -0.0194641808
C  C110  1  0.03410000  0.70050000  0.02250000  1.0 -0.0194641808
C  C111  1  0.16880000  0.92060000  0.49190000  1.0 0.0459966393
C  C112  1  0.07940000  0.83120000  0.99190000  1.0 0.0459966393
C  C113  1  0.05000000  0.88680000  0.51440000  1.0 -0.1123727188
C  C114  1  0.11320000  0.95000000  0.01440000  1.0 -0.1123727188
C  C115  1  0.06180000  0.89120000  0.56580000  1.0 -0.099080765
C  C116  1  0.10880000  0.93820000  0.06580000  1.0 -0.099080765
C  C117  1  0.41010000  0.20810000  0.67892000  1.0 0.4855063315
C  C118  1  0.79190000  0.58990000  0.17892000  1.0 0.4855063315
C  C119  1  0.25240000  0.93440000  0.44070000  1.0 0.2018043873
C  C120  1  0.06560000  0.74760000  0.94070000  1.0 0.2018043873
C  C121  1  0.19180000  0.79820000  0.29210000  1.0 -0.0607612557
C  C122  1  0.20180000  0.80820000  0.79210000  1.0 -0.0607612557
C  C123  1  0.21400000  0.82620000  0.34180000  1.0 -0.0361009567
C  C124  1  0.17380000  0.78600000  0.84180000  1.0 -0.0361009567
C  C125  1  0.13050000  0.85850000  0.35690000  1.0 0.0459966393
C  C126  1  0.14150000  0.86950000  0.85690000  1.0 0.0459966393
C  C127  1  0.03000000  0.86180000  0.32160000  1.0 -0.099080765
C  C128  1  0.13820000  0.97000000  0.82160000  1.0 -0.099080765
C  C129  1  0.01880000  0.83920000  0.27170000  1.0 -0.0607612557
C  C130  1  0.16080000  0.98120000  0.77170000  1.0 -0.0607612557
C  C131  1  0.33220000  0.97980000  0.58030000  1.0 -0.1354008709
C  C132  1  0.02020000  0.66780000  0.08030000  1.0 -0.1333816565
C  C133  1  0.34940000  0.98920000  0.52980000  1.0 -0.0897289826
C  C134  1  0.01080000  0.65060000  0.02980000  1.0 -0.0897289826
C  C135  1  0.22880000  0.94080000  0.49480000  1.0 0.0392142315
C  C136  1  0.05920000  0.77120000  0.99480000  1.0 0.0392142315
C  C137  1  0.09630000  0.89110000  0.50970000  1.0 -0.0194641808
C  C138  1  0.10890000  0.90370000  0.00970000  1.0 -0.0194641808
C  C139  1  0.09190000  0.89410000  0.56090000  1.0 -0.0194641808
C  C140  1  0.10590000  0.90810000  0.06090000  1.0 -0.0194641808
N  N1  1  0.79521000  0.29027000  0.81690000  1.0 -0.28222459
N  N2  1  0.70973000  0.20479000  0.31690000  1.0 -0.28222459
N  N3  1  0.90578000  0.14802000  0.05970000  1.0 -0.099080765
N  N4  1  0.85198000  0.09422000  0.55970000  1.0 -0.099080765
N  N5  1  0.80927000  0.11155000  0.24218000  1.0 -0.1187229232
N  N6  1  0.88845000  0.19073000  0.74218000  1.0 -0.1187229232
N  N7  1  0.92899000  0.19141000  0.90368000  1.0 -0.1333816565
N  N8  1  0.80859000  0.07101000  0.40368000  1.0 -0.1333816565
N  N9  1  0.88060000  0.13320000  0.09330000  1.0 -0.1187229232
N  N10  1  0.86680000  0.11940000  0.59330000  1.0 -0.1187229232
N  N11  1  0.29027000  0.79521000  0.68310000  1.0 -0.28222459
N  N12  1  0.20479000  0.70973000  0.18310000  1.0 -0.28222459
N  N13  1  0.14802000  0.90578000  0.44030000  1.0 -0.099080765
N  N14  1  0.09422000  0.85198000  0.94030000  1.0 -0.099080765
N  N15  1  0.11155000  0.80927000  0.25782000  1.0 -0.1187229232
N  N16  1  0.19073000  0.88845000  0.75782000  1.0 -0.1187229232
N  N17  1  0.19141000  0.92899000  0.59632000  1.0 -0.1333816565
N  N18  1  0.07101000  0.80859000  0.09632000  1.0 -0.1333816565
N  N19  1  0.13320000  0.88060000  0.40670000  1.0 -0.1187229232
N  N20  1  0.11940000  0.86680000  0.90670000  1.0 -0.1187229232
O  O1  1  0.86408000  0.97136000  0.83040000  1.0 -0.5494360571
O  O2  1  0.02864000  0.13592000  0.33040000  1.0 -0.5494360571
O  O3  1  0.66744000  0.96746000  0.82354000  1.0 -0.4860825931
O  O4  1  0.03254000  0.33256000  0.32354000  1.0 -0.4860825931
O  O5  1  0.12921000  0.26729000  0.82680000  1.0 -0.5494360571
O  O6  1  0.73271000  0.87079000  0.32680000  1.0 -0.5494360571
O  O7  1  0.15204000  0.47600000  0.81581000  1.0 -0.5090231393
O  O8  1  0.52400000  0.84796000  0.31581000  1.0 -0.5090231393
O  O9  1  0.94692000  0.36388000  0.06798000  1.0 -0.3503679653
O  O10  1  0.63612000  0.05308000  0.56798000  1.0 -0.3503679653
O  O11  1  0.97136000  0.86408000  0.66960000  1.0 -0.5494360571
O  O12  1  0.13592000  0.02864000  0.16960000  1.0 -0.5494360571
O  O13  1  0.96746000  0.66744000  0.67646000  1.0 -0.4860825931
O  O14  1  0.33256000  0.03254000  0.17646000  1.0 -0.4860825931
O  O15  1  0.26729000  0.12921000  0.67320000  1.0 -0.5494360571
O  O16  1  0.87079000  0.73271000  0.17320000  1.0 -0.5494360571
O  O17  1  0.47600000  0.15204000  0.68419000  1.0 -0.5090231393
O  O18  1  0.84796000  0.52400000  0.18419000  1.0 -0.5090231393
O  O19  1  0.36388000  0.94692000  0.43202000  1.0 -0.3503679653
O  O20  1  0.05308000  0.63612000  0.93202000  1.0 -0.3503679653
