# DDEC6 charges by PACMAN v1.1 (https://github.com/mtap-research/PACMAN-charge/)
data_REKCUG_ASR_pacman
_symmetry_space_group_name_H-M   'P 1'
_cell_length_a   8.98840000
_cell_length_b   10.32600000
_cell_length_c   11.91700000
_cell_angle_alpha   113.02000000
_cell_angle_beta   89.01000000
_cell_angle_gamma   101.02000000
_symmetry_Int_Tables_number   1
_chemical_formula_structural   Zn3P4(HO3)4
_chemical_formula_sum   'Zn6 P8 H8 O24'
_cell_volume   997.19386940
_cell_formula_units_Z   2
loop_
 _symmetry_equiv_pos_site_id
 _symmetry_equiv_pos_as_xyz
  1  'x, y, z'
loop_
 _atom_site_type_symbol
 _atom_site_label
 _atom_site_symmetry_multiplicity
 _atom_site_fract_x
 _atom_site_fract_y
 _atom_site_fract_z
 _atom_site_occupancy
 _atom_site_charge
Zn  Zn1  1  0.11020000  0.00457000  0.23775000  1.0 1.1375983147
Zn  Zn2  1  0.88980000  0.99543000  0.76225000  1.0 1.1375983147
Zn  Zn3  1  0.58932000  0.02832000  0.35138000  1.0 1.0870573906
Zn  Zn4  1  0.41068000  0.97168000  0.64862000  1.0 1.0870573906
Zn  Zn5  1  0.13211000  0.63274000  0.92778000  1.0 1.1182892112
Zn  Zn6  1  0.86789000  0.36726000  0.07222000  1.0 1.1182892112
P  P1  1  0.38455000  0.85492000  0.11442000  1.0 1.1375983147
P  P2  1  0.61545000  0.14508000  0.88558000  1.0 1.1346103338
P  P3  1  0.32356000  0.14251000  0.48953000  1.0 1.2728693275
P  P4  1  0.67644000  0.85749000  0.51047000  1.0 1.2728693275
P  P5  1  0.84472000  0.14548000  0.19829000  1.0 1.1894892244
P  P6  1  0.15528000  0.85452000  0.80171000  1.0 1.1894892244
P  P7  1  0.88938000  0.69585000  0.13232000  1.0 1.2246050028
P  P8  1  0.11062000  0.30415000  0.86768000  1.0 1.2268689064
H  H1  1  0.48300000  0.89500000  0.04800000  1.0 -0.0603793511
H  H2  1  0.51700000  0.10500000  0.95200000  1.0 -0.0603793511
H  H3  1  0.31900000  0.26000000  0.59600000  1.0 -0.1144378992
H  H4  1  0.68100000  0.74000000  0.40400000  1.0 -0.1144378992
H  H5  1  0.76700000  0.04400000  0.09900000  1.0 -0.1150181504
H  H6  1  0.23300000  0.95600000  0.90100000  1.0 -0.1144378992
H  H7  1  0.74800000  0.72400000  0.12600000  1.0 -0.0833285549
H  H8  1  0.25200000  0.27600000  0.87400000  1.0 -0.0833285549
O  O1  1  0.28110000  0.96120000  0.14180000  1.0 -0.6844234379
O  O2  1  0.71890000  0.03880000  0.85820000  1.0 -0.6844234379
O  O3  1  0.18210000  0.12050000  0.41010000  1.0 -0.6284604954
O  O4  1  0.81790000  0.87950000  0.58990000  1.0 -0.6284604954
O  O5  1  0.00660000  0.12450000  0.19380000  1.0 -0.6213839861
O  O6  1  0.99340000  0.87550000  0.80620000  1.0 -0.6213839861
O  O7  1  0.98240000  0.82760000  0.23320000  1.0 -0.6599552246
O  O8  1  0.01760000  0.17240000  0.76680000  1.0 -0.6599552246
O  O9  1  0.47190000  0.86370000  0.22540000  1.0 -0.6402199926
O  O10  1  0.52810000  0.13630000  0.77460000  1.0 -0.6402199926
O  O11  1  0.47170000  0.17750000  0.43410000  1.0 -0.6670856686
O  O12  1  0.52830000  0.82250000  0.56590000  1.0 -0.6670856686
O  O13  1  0.31720000  0.01540000  0.52420000  1.0 -0.6670856686
O  O14  1  0.68280000  0.98460000  0.47580000  1.0 -0.6670856686
O  O15  1  0.76900000  0.12890000  0.30790000  1.0 -0.6284604954
O  O16  1  0.23100000  0.87110000  0.69210000  1.0 -0.6284604954
O  O17  1  0.30770000  0.70090000  0.04230000  1.0 -0.6402199926
O  O18  1  0.69230000  0.29910000  0.95770000  1.0 -0.6402199926
O  O19  1  0.87450000  0.57010000  0.16830000  1.0 -0.6284604954
O  O20  1  0.12550000  0.42990000  0.83170000  1.0 -0.6284604954
O  O21  1  0.83540000  0.29040000  0.19750000  1.0 -0.6284604954
O  O22  1  0.16460000  0.70960000  0.80250000  1.0 -0.6284604954
O  O23  1  0.94270000  0.66810000  0.00500000  1.0 -0.7000549646
O  O24  1  0.05730000  0.33190000  0.99500000  1.0 -0.7000549646
