# DDEC6 charges by PACMAN v1.1 (https://github.com/mtap-research/PACMAN-charge/)
data_REQXEU_FSR_pacman
_symmetry_space_group_name_H-M   'P 1'
_cell_length_a   9.85559000
_cell_length_b   9.85559000
_cell_length_c   9.59720000
_cell_angle_alpha   86.14880000
_cell_angle_beta   93.85120000
_cell_angle_gamma   102.19900000
_symmetry_Int_Tables_number   1
_chemical_formula_structural   CuH36C22NO4
_chemical_formula_sum   'Cu2 H72 C44 N2 O8'
_cell_volume   907.75231423
_cell_formula_units_Z   2
loop_
 _symmetry_equiv_pos_site_id
 _symmetry_equiv_pos_as_xyz
  1  'x, y, z'
loop_
 _atom_site_type_symbol
 _atom_site_label
 _atom_site_symmetry_multiplicity
 _atom_site_fract_x
 _atom_site_fract_y
 _atom_site_fract_z
 _atom_site_occupancy
 _atom_site_charge
Cu  Cu1  1  0.99460000  0.00540000  0.36230000  1.0 0.3963192444
Cu  Cu2  1  0.00540000  0.99460000  0.63770000  1.0 0.3963192444
H  H1  1  0.44646000  0.83810000  0.60945000  1.0 0.0949003663
H  H2  1  0.43277000  0.84001000  0.43973000  1.0 0.0845046354
H  H3  1  0.58151000  0.19421000  0.58598000  1.0 0.0684642475
H  H4  1  0.53148000  0.05310000  0.68653000  1.0 0.0509550699
H  H5  1  0.47864000  0.03618000  0.29908000  1.0 0.0509550699
H  H6  1  0.54565000  0.18017000  0.38401000  1.0 0.0684642475
H  H7  1  0.20349000  0.97675000  0.13948000  1.0 0.0509550699
H  H8  1  0.09339000  0.83105000  0.13904000  1.0 0.0564188476
H  H9  1  0.95620000  0.19604000  0.10173000  1.0 0.0509550699
H  H10  1  0.11932000  0.19714000  0.10155000  1.0 0.0564188476
H  H11  1  0.84020000  0.82694000  0.12785000  1.0 0.0564188476
H  H12  1  0.78655000  0.96965000  0.10138000  1.0 0.0509550699
H  H13  1  0.84422000  0.81154000  0.89125000  1.0 0.0684642475
H  H14  1  0.78572000  0.94524000  0.87885000  1.0 0.0425551258
H  H15  1  0.20495000  0.98879000  0.90680000  1.0 0.0684642475
H  H16  1  0.10005000  0.83427000  0.90954000  1.0 0.0509550699
H  H17  1  0.94553000  0.18503000  0.86597000  1.0 0.0684642475
H  H18  1  0.10790000  0.19274000  0.88180000  1.0 0.0425551258
H  H19  1  0.83810000  0.44646000  0.39055000  1.0 0.0949003663
H  H20  1  0.84001000  0.43277000  0.56027000  1.0 0.0845046354
H  H21  1  0.19421000  0.58151000  0.41402000  1.0 0.0684642475
H  H22  1  0.05310000  0.53148000  0.31347000  1.0 0.0509550699
H  H23  1  0.03618000  0.47864000  0.70092000  1.0 0.0509550699
H  H24  1  0.18017000  0.54565000  0.61599000  1.0 0.0684642475
H  H25  1  0.97675000  0.20349000  0.86052000  1.0 0.0509550699
H  H26  1  0.83105000  0.09339000  0.86096000  1.0 0.0564188476
H  H27  1  0.19604000  0.95620000  0.89827000  1.0 0.0509550699
H  H28  1  0.19714000  0.11932000  0.89845000  1.0 0.0564188476
H  H29  1  0.82694000  0.84020000  0.87215000  1.0 0.0564188476
H  H30  1  0.96965000  0.78655000  0.89862000  1.0 0.0509550699
H  H31  1  0.81154000  0.84422000  0.10875000  1.0 0.0684642475
H  H32  1  0.94524000  0.78572000  0.12115000  1.0 0.0425551258
H  H33  1  0.98879000  0.20495000  0.09320000  1.0 0.0684642475
H  H34  1  0.83427000  0.10005000  0.09046000  1.0 0.0509550699
H  H35  1  0.18503000  0.94553000  0.13403000  1.0 0.0684642475
H  H36  1  0.19274000  0.10790000  0.11820000  1.0 0.0425551258
H  H37  1  0.55354000  0.16190000  0.39055000  1.0 0.0949003663
H  H38  1  0.56723000  0.15999000  0.56027000  1.0 0.0845046354
H  H39  1  0.41849000  0.80579000  0.41402000  1.0 0.0684642475
H  H40  1  0.46852000  0.94690000  0.31347000  1.0 0.0509550699
H  H41  1  0.52136000  0.96382000  0.70092000  1.0 0.0509550699
H  H42  1  0.45435000  0.81983000  0.61599000  1.0 0.0684642475
H  H43  1  0.79651000  0.02325000  0.86052000  1.0 0.0509550699
H  H44  1  0.90661000  0.16895000  0.86096000  1.0 0.0564188476
H  H45  1  0.04380000  0.80396000  0.89827000  1.0 0.0509550699
H  H46  1  0.88068000  0.80286000  0.89845000  1.0 0.0564188476
H  H47  1  0.15980000  0.17306000  0.87215000  1.0 0.0564188476
H  H48  1  0.21345000  0.03035000  0.89862000  1.0 0.0509550699
H  H49  1  0.15578000  0.18846000  0.10875000  1.0 0.0684642475
H  H50  1  0.21428000  0.05476000  0.12115000  1.0 0.0425551258
H  H51  1  0.79505000  0.01121000  0.09320000  1.0 0.0684642475
H  H52  1  0.89995000  0.16573000  0.09046000  1.0 0.0509550699
H  H53  1  0.05447000  0.81497000  0.13403000  1.0 0.0684642475
H  H54  1  0.89210000  0.80726000  0.11820000  1.0 0.0425551258
H  H55  1  0.16190000  0.55354000  0.60945000  1.0 0.0949003663
H  H56  1  0.15999000  0.56723000  0.43973000  1.0 0.0845046354
H  H57  1  0.80579000  0.41849000  0.58598000  1.0 0.0684642475
H  H58  1  0.94690000  0.46852000  0.68653000  1.0 0.0509550699
H  H59  1  0.96382000  0.52136000  0.29908000  1.0 0.0509550699
H  H60  1  0.81983000  0.45435000  0.38401000  1.0 0.0684642475
H  H61  1  0.02325000  0.79651000  0.13948000  1.0 0.0509550699
H  H62  1  0.16895000  0.90661000  0.13904000  1.0 0.0564188476
H  H63  1  0.80396000  0.04380000  0.10173000  1.0 0.0509550699
H  H64  1  0.80286000  0.88068000  0.10155000  1.0 0.0564188476
H  H65  1  0.17306000  0.15980000  0.12785000  1.0 0.0564188476
H  H66  1  0.03035000  0.21345000  0.10138000  1.0 0.0509550699
H  H67  1  0.18846000  0.15578000  0.89125000  1.0 0.0684642475
H  H68  1  0.05476000  0.21428000  0.87885000  1.0 0.0425551258
H  H69  1  0.01121000  0.79505000  0.90680000  1.0 0.0684642475
H  H70  1  0.16573000  0.89995000  0.90954000  1.0 0.0509550699
H  H71  1  0.81497000  0.05447000  0.86597000  1.0 0.0684642475
H  H72  1  0.80726000  0.89210000  0.88180000  1.0 0.0425551258
C  C1  1  0.25000000  0.02000000  0.51100000  1.0 0.3319243457
C  C2  1  0.41300000  0.02300000  0.50500000  1.0 0.0845046354
C  C3  1  0.46200000  0.89600000  0.52300000  1.0 -0.1493372616
C  C4  1  0.54000000  0.09200000  0.59100000  1.0 -0.1281708125
C  C5  1  0.50400000  0.07800000  0.39000000  1.0 -0.1249211911
C  C6  1  0.11200000  0.92800000  0.10000000  1.0 -0.0906161507
C  C7  1  0.02600000  0.14600000  0.07100000  1.0 -0.0906161507
C  C8  1  0.86000000  0.92000000  0.08000000  1.0 -0.0906161507
C  C9  1  0.86000000  0.90800000  0.92100000  1.0 -0.07378884
C  C10  1  0.11400000  0.93000000  0.93900000  1.0 -0.07378884
C  C11  1  0.01400000  0.14000000  0.91000000  1.0 -0.0639005188
C  C12  1  0.02000000  0.25000000  0.48900000  1.0 0.3319243457
C  C13  1  0.02300000  0.41300000  0.49500000  1.0 0.0845046354
C  C14  1  0.89600000  0.46200000  0.47700000  1.0 -0.1493372616
C  C15  1  0.09200000  0.54000000  0.40900000  1.0 -0.1281708125
C  C16  1  0.07800000  0.50400000  0.61000000  1.0 -0.1249211911
C  C17  1  0.92800000  0.11200000  0.90000000  1.0 -0.0906161507
C  C18  1  0.14600000  0.02600000  0.92900000  1.0 -0.0906161507
C  C19  1  0.92000000  0.86000000  0.92000000  1.0 -0.0906161507
C  C20  1  0.90800000  0.86000000  0.07900000  1.0 -0.07378884
C  C21  1  0.93000000  0.11400000  0.06100000  1.0 -0.07378884
C  C22  1  0.14000000  0.01400000  0.09000000  1.0 -0.0639005188
C  C23  1  0.75000000  0.98000000  0.48900000  1.0 0.3319243457
C  C24  1  0.58700000  0.97700000  0.49500000  1.0 0.0845046354
C  C25  1  0.53800000  0.10400000  0.47700000  1.0 -0.1493372616
C  C26  1  0.46000000  0.90800000  0.40900000  1.0 -0.1281708125
C  C27  1  0.49600000  0.92200000  0.61000000  1.0 -0.1281708125
C  C28  1  0.88800000  0.07200000  0.90000000  1.0 -0.0906161507
C  C29  1  0.97400000  0.85400000  0.92900000  1.0 -0.0906161507
C  C30  1  0.14000000  0.08000000  0.92000000  1.0 -0.0906161507
C  C31  1  0.14000000  0.09200000  0.07900000  1.0 -0.07378884
C  C32  1  0.88600000  0.07000000  0.06100000  1.0 -0.07378884
C  C33  1  0.98600000  0.86000000  0.09000000  1.0 -0.0639005188
C  C34  1  0.98000000  0.75000000  0.51100000  1.0 0.3319243457
C  C35  1  0.97700000  0.58700000  0.50500000  1.0 0.0845046354
C  C36  1  0.10400000  0.53800000  0.52300000  1.0 -0.1493372616
C  C37  1  0.90800000  0.46000000  0.59100000  1.0 -0.1281708125
C  C38  1  0.92200000  0.49600000  0.39000000  1.0 -0.1249211911
C  C39  1  0.07200000  0.88800000  0.10000000  1.0 -0.0906161507
C  C40  1  0.85400000  0.97400000  0.07100000  1.0 -0.0906161507
C  C41  1  0.08000000  0.14000000  0.08000000  1.0 -0.0906161507
C  C42  1  0.09200000  0.14000000  0.92100000  1.0 -0.07378884
C  C43  1  0.07000000  0.88600000  0.93900000  1.0 -0.07378884
C  C44  1  0.86000000  0.98600000  0.91000000  1.0 -0.0639005188
N  N1  1  0.00000000  0.00000000  0.13400000  1.0 -0.0810776238
N  N2  1  0.00000000  0.00000000  0.86600000  1.0 -0.0810776238
O  O1  1  0.19700000  0.03300000  0.39300000  1.0 -0.3833018501
O  O2  1  0.20590000  0.01210000  0.63200000  1.0 -0.3860030729
O  O3  1  0.03300000  0.19700000  0.60700000  1.0 -0.3833018501
O  O4  1  0.01210000  0.20590000  0.36800000  1.0 -0.3860030729
O  O5  1  0.80300000  0.96700000  0.60700000  1.0 -0.3833018501
O  O6  1  0.79410000  0.98790000  0.36800000  1.0 -0.3860030729
O  O7  1  0.96700000  0.80300000  0.39300000  1.0 -0.3833018501
O  O8  1  0.98790000  0.79410000  0.63200000  1.0 -0.3860030729
