# DDEC6 charges by PACMAN v1.1 (https://github.com/mtap-research/PACMAN-charge/)
data_REQXUK_FSR_pacman
_symmetry_space_group_name_H-M   'P 1'
_cell_length_a   9.60230000
_cell_length_b   12.26560000
_cell_length_c   15.40350000
_cell_angle_alpha   90.00000000
_cell_angle_beta   94.39400000
_cell_angle_gamma   90.00000000
_symmetry_Int_Tables_number   1
_chemical_formula_structural   CuH18C13NO4
_chemical_formula_sum   'Cu4 H72 C52 N4 O16'
_cell_volume   1808.86066355
_cell_formula_units_Z   4
loop_
 _symmetry_equiv_pos_site_id
 _symmetry_equiv_pos_as_xyz
  1  'x, y, z'
loop_
 _atom_site_type_symbol
 _atom_site_label
 _atom_site_symmetry_multiplicity
 _atom_site_fract_x
 _atom_site_fract_y
 _atom_site_fract_z
 _atom_site_occupancy
 _atom_site_charge
Cu  Cu1  1  0.86161000  0.49922000  0.49358000  1.0 0.6952655402
Cu  Cu2  1  0.13839000  0.99922000  0.00642000  1.0 0.6932755796
Cu  Cu3  1  0.13839000  0.50078000  0.50642000  1.0 0.6952655402
Cu  Cu4  1  0.86161000  0.00078000  0.99358000  1.0 0.6952655402
H  H1  1  0.79626000  0.26367000  0.22479000  1.0 0.1093873061
H  H2  1  0.87145000  0.36737000  0.17833000  1.0 0.1093873061
H  H3  1  0.93235000  0.13872000  0.29731000  1.0 0.1093873061
H  H4  1  0.10369000  0.15230000  0.30511000  1.0 0.1093873061
H  H5  1  0.20193000  0.30064000  0.23819000  1.0 0.1093873061
H  H6  1  0.09449000  0.38697000  0.18489000  1.0 0.1093873061
H  H7  1  0.59913000  0.42127000  0.38415000  1.0 0.0799161604
H  H8  1  0.60833000  0.34160000  0.46679000  1.0 0.0799161604
H  H9  1  0.61443000  0.66515000  0.50628000  1.0 0.0799161604
H  H10  1  0.59961000  0.61949000  0.40864000  1.0 0.0994346803
H  H11  1  0.63139000  0.41159000  0.61111000  1.0 0.0994346803
H  H12  1  0.63372000  0.54053000  0.62834000  1.0 0.0879604307
H  H13  1  0.37211000  0.42943000  0.38511000  1.0 0.0994346803
H  H14  1  0.37813000  0.34219000  0.46256000  1.0 0.0799161604
H  H15  1  0.38175000  0.67345000  0.49775000  1.0 0.0748825812
H  H16  1  0.37187000  0.60296000  0.41007000  1.0 0.1093873061
H  H17  1  0.40184000  0.52639000  0.63838000  1.0 0.0748825812
H  H18  1  0.39808000  0.40747000  0.59552000  1.0 0.1093873061
H  H19  1  0.20374000  0.76367000  0.27521000  1.0 0.1093873061
H  H20  1  0.12855000  0.86737000  0.32167000  1.0 0.1093873061
H  H21  1  0.06765000  0.63872000  0.20269000  1.0 0.1093873061
H  H22  1  0.89631000  0.65230000  0.19489000  1.0 0.1093873061
H  H23  1  0.79807000  0.80064000  0.26181000  1.0 0.1093873061
H  H24  1  0.90551000  0.88697000  0.31511000  1.0 0.1093873061
H  H25  1  0.40087000  0.92127000  0.11585000  1.0 0.0799161604
H  H26  1  0.39167000  0.84160000  0.03321000  1.0 0.0799161604
H  H27  1  0.38557000  0.16515000  0.99372000  1.0 0.0799161604
H  H28  1  0.40039000  0.11949000  0.09136000  1.0 0.0994346803
H  H29  1  0.36861000  0.91159000  0.88889000  1.0 0.0994346803
H  H30  1  0.36628000  0.04053000  0.87166000  1.0 0.0879604307
H  H31  1  0.62789000  0.92943000  0.11489000  1.0 0.0994346803
H  H32  1  0.62187000  0.84219000  0.03744000  1.0 0.0799161604
H  H33  1  0.61825000  0.17345000  0.00225000  1.0 0.0748825812
H  H34  1  0.62813000  0.10296000  0.08993000  1.0 0.1093873061
H  H35  1  0.59816000  0.02639000  0.86162000  1.0 0.0748825812
H  H36  1  0.60192000  0.90747000  0.90448000  1.0 0.1093873061
H  H37  1  0.20374000  0.73633000  0.77521000  1.0 0.1093873061
H  H38  1  0.12855000  0.63263000  0.82167000  1.0 0.1093873061
H  H39  1  0.06765000  0.86128000  0.70269000  1.0 0.1093873061
H  H40  1  0.89631000  0.84770000  0.69489000  1.0 0.1093873061
H  H41  1  0.79807000  0.69936000  0.76181000  1.0 0.1093873061
H  H42  1  0.90551000  0.61303000  0.81511000  1.0 0.1093873061
H  H43  1  0.40087000  0.57873000  0.61585000  1.0 0.0799161604
H  H44  1  0.39167000  0.65840000  0.53321000  1.0 0.0799161604
H  H45  1  0.38557000  0.33485000  0.49372000  1.0 0.0799161604
H  H46  1  0.40039000  0.38051000  0.59136000  1.0 0.0994346803
H  H47  1  0.36861000  0.58841000  0.38889000  1.0 0.0994346803
H  H48  1  0.36628000  0.45947000  0.37166000  1.0 0.0879604307
H  H49  1  0.62789000  0.57057000  0.61489000  1.0 0.0994346803
H  H50  1  0.62187000  0.65781000  0.53744000  1.0 0.0799161604
H  H51  1  0.61825000  0.32655000  0.50225000  1.0 0.0748825812
H  H52  1  0.62813000  0.39704000  0.58993000  1.0 0.1093873061
H  H53  1  0.59816000  0.47361000  0.36162000  1.0 0.0748825812
H  H54  1  0.60192000  0.59253000  0.40448000  1.0 0.1093873061
H  H55  1  0.79626000  0.23633000  0.72479000  1.0 0.1093873061
H  H56  1  0.87145000  0.13263000  0.67833000  1.0 0.1093873061
H  H57  1  0.93235000  0.36128000  0.79731000  1.0 0.1093873061
H  H58  1  0.10369000  0.34770000  0.80511000  1.0 0.1093873061
H  H59  1  0.20193000  0.19936000  0.73819000  1.0 0.1093873061
H  H60  1  0.09449000  0.11303000  0.68489000  1.0 0.1093873061
H  H61  1  0.59913000  0.07873000  0.88415000  1.0 0.0799161604
H  H62  1  0.60833000  0.15840000  0.96679000  1.0 0.0799161604
H  H63  1  0.61443000  0.83485000  0.00628000  1.0 0.0799161604
H  H64  1  0.59961000  0.88051000  0.90864000  1.0 0.0994346803
H  H65  1  0.63139000  0.08841000  0.11111000  1.0 0.0994346803
H  H66  1  0.63372000  0.95947000  0.12834000  1.0 0.0879604307
H  H67  1  0.37211000  0.07057000  0.88511000  1.0 0.0994346803
H  H68  1  0.37813000  0.15781000  0.96256000  1.0 0.0799161604
H  H69  1  0.38175000  0.82655000  0.99775000  1.0 0.0748825812
H  H70  1  0.37187000  0.89704000  0.91007000  1.0 0.1093873061
H  H71  1  0.40184000  0.97361000  0.13838000  1.0 0.0748825812
H  H72  1  0.39808000  0.09253000  0.09552000  1.0 0.1093873061
C  C1  1  0.99420000  0.37200000  0.37180000  1.0 0.527034947
C  C2  1  0.99710000  0.30560000  0.29110000  1.0 0.0994346803
C  C3  1  0.88510000  0.30010000  0.21340000  1.0 -0.2892811837
C  C4  1  0.01300000  0.18300000  0.28190000  1.0 -0.2892811837
C  C5  1  0.10370000  0.31960000  0.22020000  1.0 -0.2892811837
C  C6  1  0.00720000  0.22340000  0.18940000  1.0 0.0994346803
C  C7  1  0.00760000  0.15030000  0.11120000  1.0 0.5395221201
C  C8  1  0.57200000  0.41260000  0.44450000  1.0 -0.055585208
C  C9  1  0.57400000  0.60560000  0.46880000  1.0 -0.1216941957
C  C10  1  0.59390000  0.48250000  0.58930000  1.0 -0.1269708934
C  C11  1  0.41170000  0.41340000  0.44430000  1.0 -0.109335316
C  C12  1  0.41230000  0.60630000  0.47040000  1.0 -0.109335316
C  C13  1  0.43110000  0.48250000  0.58980000  1.0 -0.1216941957
C  C14  1  0.00580000  0.87200000  0.12820000  1.0 0.527034947
C  C15  1  0.00290000  0.80560000  0.20890000  1.0 0.0994346803
C  C16  1  0.11490000  0.80010000  0.28660000  1.0 -0.2892811837
C  C17  1  0.98700000  0.68300000  0.21810000  1.0 -0.2892811837
C  C18  1  0.89630000  0.81960000  0.27980000  1.0 -0.2892811837
C  C19  1  0.99280000  0.72340000  0.31060000  1.0 0.0994346803
C  C20  1  0.99240000  0.65030000  0.38880000  1.0 0.5395221201
C  C21  1  0.42800000  0.91260000  0.05550000  1.0 -0.0546246903
C  C22  1  0.42600000  0.10560000  0.03120000  1.0 -0.1216941957
C  C23  1  0.40610000  0.98250000  0.91070000  1.0 -0.1269708934
C  C24  1  0.58830000  0.91340000  0.05570000  1.0 -0.109335316
C  C25  1  0.58770000  0.10630000  0.02960000  1.0 -0.109335316
C  C26  1  0.56890000  0.98250000  0.91020000  1.0 -0.1216941957
C  C27  1  0.00580000  0.62800000  0.62820000  1.0 0.527034947
C  C28  1  0.00290000  0.69440000  0.70890000  1.0 0.0994346803
C  C29  1  0.11490000  0.69990000  0.78660000  1.0 -0.2845975074
C  C30  1  0.98700000  0.81700000  0.71810000  1.0 -0.2892811837
C  C31  1  0.89630000  0.68040000  0.77980000  1.0 -0.2950911137
C  C32  1  0.99280000  0.77660000  0.81060000  1.0 0.0994346803
C  C33  1  0.99240000  0.84970000  0.88880000  1.0 0.5395221201
C  C34  1  0.42800000  0.58740000  0.55550000  1.0 -0.0546246903
C  C35  1  0.42600000  0.39440000  0.53120000  1.0 -0.1216941957
C  C36  1  0.40610000  0.51750000  0.41070000  1.0 -0.1269708934
C  C37  1  0.58830000  0.58660000  0.55570000  1.0 -0.109335316
C  C38  1  0.58770000  0.39370000  0.52960000  1.0 -0.109335316
C  C39  1  0.56890000  0.51750000  0.41020000  1.0 -0.1216941957
C  C40  1  0.99420000  0.12800000  0.87180000  1.0 0.527034947
C  C41  1  0.99710000  0.19440000  0.79110000  1.0 0.0994346803
C  C42  1  0.88510000  0.19990000  0.71340000  1.0 -0.2892811837
C  C43  1  0.01300000  0.31700000  0.78190000  1.0 -0.2892811837
C  C44  1  0.10370000  0.18040000  0.72020000  1.0 -0.2892811837
C  C45  1  0.00720000  0.27660000  0.68940000  1.0 0.0994346803
C  C46  1  0.00760000  0.34970000  0.61120000  1.0 0.5395221201
C  C47  1  0.57200000  0.08740000  0.94450000  1.0 -0.055585208
C  C48  1  0.57400000  0.89440000  0.96880000  1.0 -0.1216941957
C  C49  1  0.59390000  0.01750000  0.08930000  1.0 -0.1269708934
C  C50  1  0.41170000  0.08660000  0.94430000  1.0 -0.109335316
C  C51  1  0.41230000  0.89370000  0.97040000  1.0 -0.109335316
C  C52  1  0.43110000  0.01750000  0.08980000  1.0 -0.1216941957
N  N1  1  0.63510000  0.50130000  0.49930000  1.0 -0.0867762441
N  N2  1  0.36490000  0.00130000  0.00070000  1.0 -0.0867762441
N  N3  1  0.36490000  0.49870000  0.50070000  1.0 -0.0867762441
N  N4  1  0.63510000  0.99870000  0.99930000  1.0 -0.0867762441
O  O1  1  0.87720000  0.39760000  0.39500000  1.0 -0.511021516
O  O2  1  0.10800000  0.39830000  0.40890000  1.0 -0.511021516
O  O3  1  0.89070000  0.12190000  0.07630000  1.0 -0.5368863108
O  O4  1  0.12680000  0.11960000  0.09020000  1.0 -0.533021635
O  O5  1  0.12280000  0.89760000  0.10500000  1.0 -0.511021516
O  O6  1  0.89200000  0.89830000  0.09110000  1.0 -0.511021516
O  O7  1  0.10930000  0.62190000  0.42370000  1.0 -0.5368863108
O  O8  1  0.87320000  0.61960000  0.40980000  1.0 -0.533021635
O  O9  1  0.12280000  0.60240000  0.60500000  1.0 -0.511021516
O  O10  1  0.89200000  0.60170000  0.59110000  1.0 -0.511021516
O  O11  1  0.10930000  0.87810000  0.92370000  1.0 -0.5368863108
O  O12  1  0.87320000  0.88040000  0.90980000  1.0 -0.533021635
O  O13  1  0.87720000  0.10240000  0.89500000  1.0 -0.511021516
O  O14  1  0.10800000  0.10170000  0.90890000  1.0 -0.511021516
O  O15  1  0.89070000  0.37810000  0.57630000  1.0 -0.5368863108
O  O16  1  0.12680000  0.38040000  0.59020000  1.0 -0.533021635
