# DDEC6 charges by PACMAN v1.1 (https://github.com/mtap-research/PACMAN-charge/)
data_RESDUQ_ASR_pacman
_symmetry_space_group_name_H-M   'P 1'
_cell_length_a   20.13030000
_cell_length_b   20.13030000
_cell_length_c   24.41100000
_cell_angle_alpha   64.82970000
_cell_angle_beta   115.17000000
_cell_angle_gamma   125.22500000
_symmetry_Int_Tables_number   1
_chemical_formula_structural   Cd3H14(C17O7)2
_chemical_formula_sum   'Cd12 H56 C136 O56'
_cell_volume   7093.41730402
_cell_formula_units_Z   4
loop_
 _symmetry_equiv_pos_site_id
 _symmetry_equiv_pos_as_xyz
  1  'x, y, z'
loop_
 _atom_site_type_symbol
 _atom_site_label
 _atom_site_symmetry_multiplicity
 _atom_site_fract_x
 _atom_site_fract_y
 _atom_site_fract_z
 _atom_site_occupancy
 _atom_site_charge
Cd  Cd1  1  0.16792000  0.58750000  0.68997000  1.0 0.9357191377
Cd  Cd2  1  0.58750000  0.16792000  0.81004000  1.0 0.9357191377
Cd  Cd3  1  0.83208000  0.41250000  0.31004000  1.0 0.9357191377
Cd  Cd4  1  0.41250000  0.83208000  0.18997000  1.0 0.9357191377
Cd  Cd5  1  0.04318000  0.67440000  0.68053000  1.0 1.0131786518
Cd  Cd6  1  0.67440000  0.04318000  0.81947000  1.0 1.0131786518
Cd  Cd7  1  0.95682000  0.32560000  0.31948000  1.0 1.0131786518
Cd  Cd8  1  0.32560000  0.95682000  0.18052000  1.0 1.0131786518
Cd  Cd9  1  0.10900000  0.75382000  0.54473000  1.0 1.0618016177
Cd  Cd10  1  0.75382000  0.10900000  0.95528000  1.0 1.0618016177
Cd  Cd11  1  0.89100000  0.24618000  0.45528000  1.0 1.0618016177
Cd  Cd12  1  0.24618000  0.89100000  0.04473000  1.0 1.0618016177
H  H1  1  0.87510000  0.19650000  0.85830000  1.0 0.1212593677
H  H2  1  0.19650000  0.87510000  0.64171000  1.0 0.1212593677
H  H3  1  0.12490000  0.80350000  0.14170000  1.0 0.1212593677
H  H4  1  0.80350000  0.12490000  0.35829000  1.0 0.1212593677
H  H5  1  0.27810000  0.27850000  0.59979000  1.0 0.1212593677
H  H6  1  0.27850000  0.27810000  0.90021000  1.0 0.1212593677
H  H7  1  0.72190000  0.72150000  0.40020000  1.0 0.1212593677
H  H8  1  0.72150000  0.72190000  0.09980000  1.0 0.1212593677
H  H9  1  0.35910000  0.21350000  0.65480000  1.0 0.112363638
H  H10  1  0.21350000  0.35910000  0.84521000  1.0 0.112363638
H  H11  1  0.64090000  0.78650000  0.34520000  1.0 0.112363638
H  H12  1  0.78650000  0.64090000  0.15479000  1.0 0.112363638
H  H13  1  0.43010000  0.44990000  0.69330000  1.0 0.1212593677
H  H14  1  0.44990000  0.43010000  0.80671000  1.0 0.1212593677
H  H15  1  0.56990000  0.55010000  0.30671000  1.0 0.1212593677
H  H16  1  0.55010000  0.56990000  0.19329000  1.0 0.1212593677
H  H17  1  0.84970000  0.40190000  0.75810000  1.0 0.1282976853
H  H18  1  0.40190000  0.84970000  0.74191000  1.0 0.1282976853
H  H19  1  0.15030000  0.59810000  0.24191000  1.0 0.1282976853
H  H20  1  0.59810000  0.15030000  0.25810000  1.0 0.1282976853
H  H21  1  0.20120000  0.25200000  0.99160000  1.0 0.1282976853
H  H22  1  0.25200000  0.20120000  0.50841000  1.0 0.1282976853
H  H23  1  0.79880000  0.74800000  0.00840000  1.0 0.1282976853
H  H24  1  0.74800000  0.79880000  0.49160000  1.0 0.1282976853
H  H25  1  0.02920000  0.06900000  0.91140000  1.0 0.1282976853
H  H26  1  0.06900000  0.02920000  0.58861000  1.0 0.1282976853
H  H27  1  0.97080000  0.93100000  0.08861000  1.0 0.1282976853
H  H28  1  0.93100000  0.97080000  0.41140000  1.0 0.1282976853
H  H29  1  0.05300000  0.56940000  0.45080000  1.0 0.1282976853
H  H30  1  0.56940000  0.05300000  0.04920000  1.0 0.1282976853
H  H31  1  0.94700000  0.43060000  0.54921000  1.0 0.1282976853
H  H32  1  0.43060000  0.94700000  0.95079000  1.0 0.1282976853
H  H33  1  0.12420000  0.40300000  0.48420000  1.0 0.1282976853
H  H34  1  0.40300000  0.12420000  0.01580000  1.0 0.1282976853
H  H35  1  0.87580000  0.59700000  0.51580000  1.0 0.1282976853
H  H36  1  0.59700000  0.87580000  0.98420000  1.0 0.1282976853
H  H37  1  0.24940000  0.56480000  0.59260000  1.0 0.1212593677
H  H38  1  0.56480000  0.24940000  0.90741000  1.0 0.1212593677
H  H39  1  0.75060000  0.43520000  0.40741000  1.0 0.1212593677
H  H40  1  0.43520000  0.75060000  0.09260000  1.0 0.1212593677
H  H41  1  0.51450000  0.38690000  0.74799000  1.0 0.112363638
H  H42  1  0.38690000  0.51450000  0.75201000  1.0 0.112363638
H  H43  1  0.48550000  0.61310000  0.25201000  1.0 0.112363638
H  H44  1  0.61310000  0.48550000  0.24800000  1.0 0.112363638
H  H45  1  0.09130000  0.98730000  0.97970000  1.0 0.1212593677
H  H46  1  0.98730000  0.09130000  0.52031000  1.0 0.1212593677
H  H47  1  0.90870000  0.01270000  0.02031000  1.0 0.1212593677
H  H48  1  0.01270000  0.90870000  0.47970000  1.0 0.1212593677
H  H49  1  0.26370000  0.17030000  0.06010000  1.0 0.1282976853
H  H50  1  0.17030000  0.26370000  0.43990000  1.0 0.1282976853
H  H51  1  0.73630000  0.82970000  0.93991000  1.0 0.1282976853
H  H52  1  0.82970000  0.73630000  0.56010000  1.0 0.1282976853
H  H53  1  0.07470000  0.41630000  0.80960000  1.0 0.1212593677
H  H54  1  0.41630000  0.07470000  0.69041000  1.0 0.1212593677
H  H55  1  0.92530000  0.58370000  0.19041000  1.0 0.1212593677
H  H56  1  0.58370000  0.92530000  0.30960000  1.0 0.1212593677
C  C1  1  0.89787000  0.25313000  0.83790000  1.0 -0.1587075616
C  C2  1  0.25313000  0.89787000  0.66211000  1.0 -0.1587075616
C  C3  1  0.10213000  0.74687000  0.16210000  1.0 -0.1587075616
C  C4  1  0.74687000  0.10213000  0.33790000  1.0 -0.1587075616
C  C5  1  0.21790000  0.01370000  0.07620000  1.0 0.5721545918
C  C6  1  0.01370000  0.21790000  0.42381000  1.0 0.5721545918
C  C7  1  0.78210000  0.98630000  0.92381000  1.0 0.5721545918
C  C8  1  0.98630000  0.78210000  0.57620000  1.0 0.5721545918
C  C9  1  0.32609000  0.30171000  0.63010000  1.0 -0.1355693586
C  C10  1  0.30171000  0.32609000  0.86991000  1.0 -0.1355693586
C  C11  1  0.67391000  0.69829000  0.36990000  1.0 -0.1355693586
C  C12  1  0.69829000  0.67391000  0.13009000  1.0 -0.1355693586
C  C13  1  0.37497000  0.26183000  0.66400000  1.0 -0.1220497632
C  C14  1  0.26183000  0.37497000  0.83600000  1.0 -0.1220497632
C  C15  1  0.62503000  0.73817000  0.33601000  1.0 -0.1220497632
C  C16  1  0.73817000  0.62503000  0.16400000  1.0 -0.1220497632
C  C17  1  0.41520000  0.40160000  0.68459000  1.0 -0.1587075616
C  C18  1  0.40160000  0.41520000  0.81541000  1.0 -0.1587075616
C  C19  1  0.58480000  0.59840000  0.31540000  1.0 -0.1587075616
C  C20  1  0.59840000  0.58480000  0.18460000  1.0 -0.1587075616
C  C21  1  0.84725000  0.29155000  0.80729000  1.0 -0.0410542286
C  C22  1  0.29155000  0.84725000  0.69271000  1.0 -0.0410542286
C  C23  1  0.15275000  0.70845000  0.19270000  1.0 -0.0410542286
C  C24  1  0.70845000  0.15275000  0.30729000  1.0 -0.0410542286
C  C25  1  0.88290000  0.37590000  0.77840000  1.0 -0.0791253569
C  C26  1  0.37590000  0.88290000  0.72161000  1.0 -0.0791253569
C  C27  1  0.11710000  0.62410000  0.22161000  1.0 -0.0791253569
C  C28  1  0.62410000  0.11710000  0.27840000  1.0 -0.0791253569
C  C29  1  0.03201000  0.25699000  0.87110000  1.0 -0.0791253569
C  C30  1  0.25699000  0.03201000  0.62891000  1.0 -0.0791253569
C  C31  1  0.96799000  0.74301000  0.12891000  1.0 -0.0791253569
C  C32  1  0.74301000  0.96799000  0.37110000  1.0 -0.0791253569
C  C33  1  0.06587000  0.21633000  0.90240000  1.0 -0.1089700637
C  C34  1  0.21633000  0.06587000  0.59761000  1.0 -0.1089700637
C  C35  1  0.93413000  0.78367000  0.09760000  1.0 -0.1089700637
C  C36  1  0.78367000  0.93413000  0.40240000  1.0 -0.1089700637
C  C37  1  0.10595000  0.16625000  0.94449000  1.0 0.1212593677
C  C38  1  0.16625000  0.10595000  0.55551000  1.0 0.1212593677
C  C39  1  0.89405000  0.83375000  0.05550000  1.0 0.1212593677
C  C40  1  0.83375000  0.89405000  0.44449000  1.0 0.1212593677
C  C41  1  0.17710000  0.19750000  0.98900000  1.0 -0.1707797818
C  C42  1  0.19750000  0.17710000  0.51101000  1.0 -0.1707797818
C  C43  1  0.82290000  0.80250000  0.01101000  1.0 -0.1707797818
C  C44  1  0.80250000  0.82290000  0.48900000  1.0 -0.1707797818
C  C45  1  0.07680000  0.09100000  0.94229000  1.0 -0.1587075616
C  C46  1  0.09100000  0.07680000  0.55771000  1.0 -0.1587075616
C  C47  1  0.92320000  0.90900000  0.05770000  1.0 -0.1587075616
C  C48  1  0.90900000  0.92320000  0.44229000  1.0 -0.1519940807
C  C49  1  0.00384000  0.44196000  0.40820000  1.0 0.5795939021
C  C50  1  0.44196000  0.00384000  0.09181000  1.0 0.5795939021
C  C51  1  0.99616000  0.55804000  0.59181000  1.0 0.5795939021
C  C52  1  0.55804000  0.99616000  0.90820000  1.0 0.5795939021
C  C53  1  0.75713000  0.24127000  0.80829000  1.0 0.5795939021
C  C54  1  0.24127000  0.75713000  0.69171000  1.0 0.5795939021
C  C55  1  0.24287000  0.75873000  0.19171000  1.0 0.5795939021
C  C56  1  0.75873000  0.24287000  0.30830000  1.0 0.5795939021
C  C57  1  0.16006000  0.64474000  0.54249000  1.0 0.5721545918
C  C58  1  0.64474000  0.16006000  0.95751000  1.0 0.5721545918
C  C59  1  0.83994000  0.35526000  0.45751000  1.0 0.5721545918
C  C60  1  0.35526000  0.83994000  0.04249000  1.0 0.5721545918
C  C61  1  0.15242000  0.57698000  0.52480000  1.0 -0.0174895548
C  C62  1  0.57698000  0.15242000  0.97521000  1.0 -0.0174895548
C  C63  1  0.84758000  0.42302000  0.47521000  1.0 -0.0174895548
C  C64  1  0.42302000  0.84758000  0.02480000  1.0 -0.0174895548
C  C65  1  0.08854000  0.54626000  0.47430000  1.0 -0.1089700637
C  C66  1  0.54626000  0.08854000  0.02571000  1.0 -0.1089700637
C  C67  1  0.91146000  0.45374000  0.52570000  1.0 -0.1089700637
C  C68  1  0.45374000  0.91146000  0.97430000  1.0 -0.1089700637
C  C69  1  0.07745000  0.48115000  0.45880000  1.0 -0.0174895548
C  C70  1  0.48115000  0.07745000  0.04121000  1.0 -0.0174895548
C  C71  1  0.92255000  0.51885000  0.54121000  1.0 -0.0174895548
C  C72  1  0.51885000  0.92255000  0.95880000  1.0 -0.0174895548
C  C73  1  0.13197000  0.44743000  0.49379000  1.0 -0.1587075616
C  C74  1  0.44743000  0.13197000  0.00621000  1.0 -0.1587075616
C  C75  1  0.86803000  0.55257000  0.50621000  1.0 -0.1587075616
C  C76  1  0.55257000  0.86803000  0.99379000  1.0 -0.1587075616
C  C77  1  0.20683000  0.54417000  0.55890000  1.0 -0.1587075616
C  C78  1  0.54417000  0.20683000  0.94111000  1.0 -0.1587075616
C  C79  1  0.79317000  0.45583000  0.44111000  1.0 -0.1587075616
C  C80  1  0.45583000  0.79317000  0.05890000  1.0 -0.1587075616
C  C81  1  0.19769000  0.48031000  0.54280000  1.0 0.1212593677
C  C82  1  0.48031000  0.19769000  0.95721000  1.0 0.1212593677
C  C83  1  0.80231000  0.51969000  0.45720000  1.0 0.1212593677
C  C84  1  0.51969000  0.80231000  0.04280000  1.0 0.1212593677
C  C85  1  0.25260000  0.44400000  0.57800000  1.0 -0.0791253569
C  C86  1  0.44400000  0.25260000  0.92201000  1.0 -0.0791253569
C  C87  1  0.74740000  0.55600000  0.42201000  1.0 -0.0791253569
C  C88  1  0.55600000  0.74740000  0.07800000  1.0 -0.0791253569
C  C89  1  0.29457000  0.41123000  0.60540000  1.0 -0.1028898091
C  C90  1  0.41123000  0.29457000  0.89460000  1.0 -0.1028898091
C  C91  1  0.70543000  0.58877000  0.39460000  1.0 -0.1028898091
C  C92  1  0.58877000  0.70543000  0.10540000  1.0 -0.1028898091
C  C93  1  0.34565000  0.37035000  0.63970000  1.0 0.1282976853
C  C94  1  0.37035000  0.34565000  0.86031000  1.0 0.1282976853
C  C95  1  0.65435000  0.62965000  0.36031000  1.0 0.1282976853
C  C96  1  0.62965000  0.65435000  0.13970000  1.0 0.1282976853
C  C97  1  0.46550000  0.36270000  0.71859000  1.0 -0.1220497632
C  C98  1  0.36270000  0.46550000  0.78141000  1.0 -0.1220497632
C  C99  1  0.53450000  0.63730000  0.28141000  1.0 -0.1220497632
C  C100  1  0.63730000  0.53450000  0.21860000  1.0 -0.1220497632
C  C101  1  0.11390000  0.04050000  0.98430000  1.0 -0.1028898091
C  C102  1  0.04050000  0.11390000  0.51570000  1.0 -0.1028898091
C  C103  1  0.88610000  0.95950000  0.01571000  1.0 -0.1028898091
C  C104  1  0.95950000  0.88610000  0.48429000  1.0 -0.1028898091
C  C105  1  0.44362000  0.29078000  0.70900000  1.0 -0.0475342836
C  C106  1  0.29078000  0.44362000  0.79101000  1.0 -0.0475342836
C  C107  1  0.55638000  0.70922000  0.29101000  1.0 -0.0475342836
C  C108  1  0.70922000  0.55638000  0.20900000  1.0 -0.0475342836
C  C109  1  0.49565000  0.24775000  0.74590000  1.0 0.3707775675
C  C110  1  0.24775000  0.49565000  0.75411000  1.0 0.3707775675
C  C111  1  0.50435000  0.75225000  0.25411000  1.0 0.3707775675
C  C112  1  0.75225000  0.50435000  0.24590000  1.0 0.3707775675
C  C113  1  0.17903000  0.06717000  0.02940000  1.0 -0.0174895548
C  C114  1  0.06717000  0.17903000  0.47060000  1.0 -0.0174895548
C  C115  1  0.82097000  0.93283000  0.97061000  1.0 -0.0174895548
C  C116  1  0.93283000  0.82097000  0.52939000  1.0 -0.0174895548
C  C117  1  0.21390000  0.14770000  0.03070000  1.0 -0.1089700637
C  C118  1  0.14770000  0.21390000  0.46931000  1.0 -0.1089700637
C  C119  1  0.78610000  0.85230000  0.96930000  1.0 -0.1089700637
C  C120  1  0.85230000  0.78610000  0.53070000  1.0 -0.1089700637
C  C121  1  0.00434000  0.51506000  0.74920000  1.0 0.5721545918
C  C122  1  0.51506000  0.00434000  0.75080000  1.0 0.5721545918
C  C123  1  0.99566000  0.48494000  0.25081000  1.0 0.5721545918
C  C124  1  0.48494000  0.99566000  0.24920000  1.0 0.5721545918
C  C125  1  0.96790000  0.42290000  0.77919000  1.0 -0.0174895548
C  C126  1  0.42290000  0.96790000  0.72081000  1.0 -0.0174895548
C  C127  1  0.03210000  0.57710000  0.22081000  1.0 -0.0174895548
C  C128  1  0.57710000  0.03210000  0.27920000  1.0 -0.0174895548
C  C129  1  0.01796000  0.38504000  0.80890000  1.0 -0.1519940807
C  C130  1  0.38504000  0.01796000  0.69111000  1.0 -0.1519940807
C  C131  1  0.98204000  0.61496000  0.19110000  1.0 -0.1519940807
C  C132  1  0.61496000  0.98204000  0.30889000  1.0 -0.1519940807
C  C133  1  0.98260000  0.30020000  0.83770000  1.0 0.1282976853
C  C134  1  0.30020000  0.98260000  0.66231000  1.0 0.1282976853
C  C135  1  0.01740000  0.69980000  0.16231000  1.0 0.1282976853
C  C136  1  0.69980000  0.01740000  0.33770000  1.0 0.1282976853
O  O1  1  0.19267000  0.94513000  0.07050000  1.0 -0.5526446051
O  O2  1  0.94513000  0.19267000  0.42951000  1.0 -0.5526446051
O  O3  1  0.80733000  0.05487000  0.92951000  1.0 -0.5526446051
O  O4  1  0.05487000  0.80733000  0.57049000  1.0 -0.5526446051
O  O5  1  0.11777000  0.68083000  0.50345000  1.0 -0.5679279438
O  O6  1  0.68083000  0.11777000  0.99655000  1.0 -0.5679279438
O  O7  1  0.88223000  0.31917000  0.49655000  1.0 -0.5679279438
O  O8  1  0.31917000  0.88223000  0.00346000  1.0 -0.5679279438
O  O9  1  0.20538000  0.66082000  0.59413000  1.0 -0.5679279438
O  O10  1  0.66082000  0.20538000  0.90587000  1.0 -0.5679279438
O  O11  1  0.79462000  0.33918000  0.40587000  1.0 -0.5679279438
O  O12  1  0.33918000  0.79462000  0.09413000  1.0 -0.5679279438
O  O13  1  0.73126000  0.16728000  0.84394000  1.0 -0.6460815019
O  O14  1  0.16728000  0.73126000  0.65607000  1.0 -0.6460815019
O  O15  1  0.26874000  0.83272000  0.15607000  1.0 -0.6460815019
O  O16  1  0.83272000  0.26874000  0.34393000  1.0 -0.6460815019
O  O17  1  0.71017000  0.27163000  0.77558000  1.0 -0.4739939741
O  O18  1  0.27163000  0.71017000  0.72442000  1.0 -0.4739939741
O  O19  1  0.28983000  0.72837000  0.22443000  1.0 -0.4739939741
O  O20  1  0.72837000  0.28983000  0.27558000  1.0 -0.4739939741
O  O21  1  0.96138000  0.47742000  0.37422000  1.0 -0.5269172437
O  O22  1  0.47742000  0.96138000  0.12579000  1.0 -0.5269172437
O  O23  1  0.03862000  0.52258000  0.62579000  1.0 -0.5269172437
O  O24  1  0.52258000  0.03862000  0.87421000  1.0 -0.5269172437
O  O25  1  0.98945000  0.37295000  0.40560000  1.0 -0.6183475799
O  O26  1  0.37295000  0.98945000  0.09440000  1.0 -0.6183475799
O  O27  1  0.01055000  0.62705000  0.59440000  1.0 -0.6183475799
O  O28  1  0.62705000  0.01055000  0.90560000  1.0 -0.6183475799
O  O29  1  0.27607000  0.04433000  0.12240000  1.0 -0.5134876318
O  O30  1  0.04433000  0.27607000  0.37761000  1.0 -0.5153425879
O  O31  1  0.72393000  0.95567000  0.87761000  1.0 -0.5153425879
O  O32  1  0.95567000  0.72393000  0.62240000  1.0 -0.5153425879
O  O33  1  0.95541000  0.54539000  0.72450000  1.0 -0.5269172437
O  O34  1  0.54539000  0.95541000  0.77550000  1.0 -0.5269172437
O  O35  1  0.04459000  0.45461000  0.27550000  1.0 -0.5269172437
O  O36  1  0.45461000  0.04459000  0.22450000  1.0 -0.5269172437
O  O37  1  0.07994000  0.55866000  0.74818000  1.0 -0.5836129136
O  O38  1  0.55866000  0.07994000  0.75182000  1.0 -0.5836129136
O  O39  1  0.92006000  0.44134000  0.25183000  1.0 -0.5836129136
O  O40  1  0.44134000  0.92006000  0.24818000  1.0 -0.5836129136
O  O41  1  0.53320000  0.25060000  0.79910000  1.0 -0.0874748215
O  O42  1  0.25060000  0.53320000  0.70091000  1.0 -0.0874748215
O  O43  1  0.46680000  0.74940000  0.20091000  1.0 -0.0874748215
O  O44  1  0.74940000  0.46680000  0.29909000  1.0 -0.0874748215
O  O45  1  0.47050000  0.17830000  0.74609000  1.0 -0.0791253569
O  O46  1  0.17830000  0.47050000  0.75391000  1.0 -0.0791253569
O  O47  1  0.52950000  0.82170000  0.25390000  1.0 -0.0745087139
O  O48  1  0.82170000  0.52950000  0.24610000  1.0 -0.0791253569
O  O49  1  0.56990000  0.29110000  0.78080000  1.0 -0.1519940807
O  O50  1  0.29110000  0.56990000  0.71921000  1.0 -0.1519940807
O  O51  1  0.43010000  0.70890000  0.21921000  1.0 -0.1519940807
O  O52  1  0.70890000  0.43010000  0.28080000  1.0 -0.1519940807
O  O53  1  0.49410000  0.20230000  0.71760000  1.0 -0.1587075616
O  O54  1  0.20230000  0.49410000  0.78241000  1.0 -0.1587075616
O  O55  1  0.50590000  0.79770000  0.28241000  1.0 -0.1587075616
O  O56  1  0.79770000  0.50590000  0.21760000  1.0 -0.1587075616
