# DDEC6 charges by PACMAN v1.1 (https://github.com/mtap-research/PACMAN-charge/)
data_RESZIA_FSR_pacman
_symmetry_space_group_name_H-M   'P 1'
_cell_length_a   12.64050000
_cell_length_b   12.64050000
_cell_length_c   28.52600000
_cell_angle_alpha   87.79060000
_cell_angle_beta   92.20940000
_cell_angle_gamma   48.54770000
_symmetry_Int_Tables_number   1
_chemical_formula_structural   CdH15C26(NO3)3
_chemical_formula_sum   'Cd4 H60 C104 N12 O36'
_cell_volume   3401.15993721
_cell_formula_units_Z   4
loop_
 _symmetry_equiv_pos_site_id
 _symmetry_equiv_pos_as_xyz
  1  'x, y, z'
loop_
 _atom_site_type_symbol
 _atom_site_label
 _atom_site_symmetry_multiplicity
 _atom_site_fract_x
 _atom_site_fract_y
 _atom_site_fract_z
 _atom_site_occupancy
 _atom_site_charge
Cd  Cd1  1  0.27589000  0.31911000  0.97777000  1.0 0.7254820011
Cd  Cd2  1  0.31911000  0.27589000  0.52223000  1.0 0.7254820011
Cd  Cd3  1  0.72411000  0.68089000  0.02223000  1.0 0.7254820011
Cd  Cd4  1  0.68089000  0.72411000  0.47777000  1.0 0.7254820011
H  H1  1  0.06670000  0.53830000  0.81470000  1.0 0.1100076839
H  H2  1  0.53830000  0.06670000  0.68530000  1.0 0.1100076839
H  H3  1  0.93330000  0.46170000  0.18530000  1.0 0.1100076839
H  H4  1  0.46170000  0.93330000  0.31470000  1.0 0.1100076839
H  H5  1  0.30800000  0.52160000  0.90620000  1.0 0.1307071737
H  H6  1  0.52160000  0.30800000  0.59380000  1.0 0.1307071737
H  H7  1  0.69200000  0.47840000  0.09380000  1.0 0.1307071737
H  H8  1  0.47840000  0.69200000  0.40620000  1.0 0.1307071737
H  H9  1  0.37700000  0.62440000  0.87250000  1.0 0.1192460332
H  H10  1  0.62440000  0.37700000  0.62750000  1.0 0.1192460332
H  H11  1  0.62300000  0.37560000  0.12750000  1.0 0.1192460332
H  H12  1  0.37560000  0.62300000  0.37250000  1.0 0.1192460332
H  H13  1  0.58470000  0.57010000  0.89960000  1.0 0.0972659729
H  H14  1  0.57010000  0.58470000  0.60040000  1.0 0.0972659729
H  H15  1  0.41530000  0.42990000  0.10040000  1.0 0.0972659729
H  H16  1  0.42990000  0.41530000  0.39960000  1.0 0.0972659729
H  H17  1  0.74080000  0.37940000  0.96150000  1.0 0.1307071737
H  H18  1  0.37940000  0.74080000  0.53850000  1.0 0.1307071737
H  H19  1  0.25920000  0.62060000  0.03850000  1.0 0.1307071737
H  H20  1  0.62060000  0.25920000  0.46150000  1.0 0.1307071737
H  H21  1  0.63530000  0.16670000  0.10020000  1.0 0.1100076839
H  H22  1  0.16670000  0.63530000  0.39980000  1.0 0.1100076839
H  H23  1  0.36470000  0.83330000  0.89980000  1.0 0.1100076839
H  H24  1  0.83330000  0.36470000  0.60020000  1.0 0.1100076839
H  H25  1  0.66630000  0.99610000  0.15060000  1.0 0.1307071737
H  H26  1  0.99610000  0.66630000  0.34940000  1.0 0.1307071737
H  H27  1  0.33370000  0.00390000  0.84940000  1.0 0.1307071737
H  H28  1  0.00390000  0.33370000  0.65060000  1.0 0.1307071737
H  H29  1  0.68200000  0.82220000  0.11930000  1.0 0.1100076839
H  H30  1  0.82220000  0.68200000  0.38070000  1.0 0.1100076839
H  H31  1  0.31800000  0.17780000  0.88070000  1.0 0.1100076839
H  H32  1  0.17780000  0.31800000  0.61930000  1.0 0.1100076839
H  H33  1  0.62630000  0.98350000  0.99110000  1.0 0.1100076839
H  H34  1  0.98350000  0.62630000  0.50890000  1.0 0.1100076839
H  H35  1  0.37370000  0.01650000  0.00890000  1.0 0.1100076839
H  H36  1  0.01650000  0.37370000  0.49110000  1.0 0.1100076839
H  H37  1  0.83690000  0.22050000  0.02740000  1.0 0.1192460332
H  H38  1  0.22050000  0.83690000  0.47260000  1.0 0.1192460332
H  H39  1  0.16310000  0.77950000  0.97260000  1.0 0.1192460332
H  H40  1  0.77950000  0.16310000  0.52740000  1.0 0.1192460332
H  H41  1  0.83860000  0.10840000  0.05440000  1.0 0.1100076839
H  H42  1  0.10840000  0.83860000  0.44560000  1.0 0.1100076839
H  H43  1  0.16140000  0.89160000  0.94560000  1.0 0.1100076839
H  H44  1  0.89160000  0.16140000  0.55440000  1.0 0.1100076839
H  H45  1  0.91420000  0.09060000  0.95960000  1.0 0.1192460332
H  H46  1  0.09060000  0.91420000  0.54040000  1.0 0.1192460332
H  H47  1  0.08580000  0.90940000  0.04040000  1.0 0.1192460332
H  H48  1  0.90940000  0.08580000  0.45960000  1.0 0.1192460332
H  H49  1  0.90620000  0.98260000  0.98390000  1.0 0.1192460332
H  H50  1  0.98260000  0.90620000  0.51610000  1.0 0.1192460332
H  H51  1  0.09380000  0.01740000  0.01610000  1.0 0.1192460332
H  H52  1  0.01740000  0.09380000  0.48390000  1.0 0.1192460332
H  H53  1  0.61840000  0.78800000  0.85320000  1.0 0.1100076839
H  H54  1  0.78800000  0.61840000  0.64680000  1.0 0.1100076839
H  H55  1  0.38160000  0.21200000  0.14680000  1.0 0.1100076839
H  H56  1  0.21200000  0.38160000  0.35320000  1.0 0.1100076839
H  H57  1  0.59730000  0.86650000  0.85120000  1.0 0.0972659729
H  H58  1  0.86650000  0.59730000  0.64880000  1.0 0.0972659729
H  H59  1  0.40270000  0.13350000  0.14880000  1.0 0.0972659729
H  H60  1  0.13350000  0.40270000  0.35120000  1.0 0.0972659729
C  C1  1  0.07520000  0.49240000  0.90620000  1.0 0.4136419214
C  C2  1  0.49240000  0.07520000  0.59380000  1.0 0.4136419214
C  C3  1  0.92480000  0.50760000  0.09380000  1.0 0.4136419214
C  C4  1  0.50760000  0.92480000  0.40620000  1.0 0.4136419214
C  C5  1  0.95210000  0.58690000  0.86890000  1.0 -0.2121206418
C  C6  1  0.58690000  0.95210000  0.63110000  1.0 -0.2121206418
C  C7  1  0.04790000  0.41310000  0.13110000  1.0 -0.2121206418
C  C8  1  0.41310000  0.04790000  0.36890000  1.0 -0.2121206418
C  C9  1  0.97530000  0.58450000  0.82260000  1.0 -0.0667340814
C  C10  1  0.58450000  0.97530000  0.67740000  1.0 -0.0667340814
C  C11  1  0.02470000  0.41550000  0.17740000  1.0 -0.0579226494
C  C12  1  0.41550000  0.02470000  0.32260000  1.0 -0.0667340814
C  C13  1  0.81450000  0.67490000  0.88010000  1.0 -0.0869078197
C  C14  1  0.67490000  0.81450000  0.61990000  1.0 -0.0869078197
C  C15  1  0.18550000  0.32510000  0.11990000  1.0 -0.0869078197
C  C16  1  0.32510000  0.18550000  0.38010000  1.0 -0.0869078197
C  C17  1  0.77180000  0.68420000  0.93140000  1.0 0.366344682
C  C18  1  0.68420000  0.77180000  0.56860000  1.0 0.366344682
C  C19  1  0.22820000  0.31580000  0.06860000  1.0 0.366344682
C  C20  1  0.31580000  0.22820000  0.43140000  1.0 0.366344682
C  C21  1  0.48540000  0.37880000  0.95200000  1.0 0.1465855382
C  C22  1  0.37880000  0.48540000  0.54800000  1.0 0.1465855382
C  C23  1  0.51460000  0.62120000  0.04800000  1.0 0.1465855382
C  C24  1  0.62120000  0.51460000  0.45200000  1.0 0.1465855382
C  C25  1  0.39530000  0.49250000  0.91610000  1.0 -0.1490876534
C  C26  1  0.49250000  0.39530000  0.58390000  1.0 -0.1490876534
C  C27  1  0.60470000  0.50750000  0.08390000  1.0 -0.1490876534
C  C28  1  0.50750000  0.60470000  0.41610000  1.0 -0.1490876534
C  C29  1  0.43440000  0.55480000  0.89720000  1.0 -0.0978167587
C  C30  1  0.55480000  0.43440000  0.60280000  1.0 -0.0978167587
C  C31  1  0.56560000  0.44520000  0.10280000  1.0 -0.0978167587
C  C32  1  0.44520000  0.56560000  0.39720000  1.0 -0.0978167587
C  C33  1  0.56070000  0.52090000  0.91280000  1.0 -0.1094959349
C  C34  1  0.52090000  0.56070000  0.58720000  1.0 -0.1094959349
C  C35  1  0.43930000  0.47910000  0.08720000  1.0 -0.1094959349
C  C36  1  0.47910000  0.43930000  0.41280000  1.0 -0.1094959349
C  C37  1  0.65520000  0.40640000  0.95030000  1.0 -0.1976922759
C  C38  1  0.40640000  0.65520000  0.54970000  1.0 -0.1976922759
C  C39  1  0.34480000  0.59360000  0.04970000  1.0 -0.1976922759
C  C40  1  0.59360000  0.34480000  0.45030000  1.0 -0.1976922759
C  C41  1  0.60830000  0.34210000  0.96780000  1.0 0.0733842842
C  C42  1  0.34210000  0.60830000  0.53220000  1.0 0.0733842842
C  C43  1  0.39170000  0.65790000  0.03220000  1.0 0.0733842842
C  C44  1  0.65790000  0.39170000  0.46780000  1.0 0.0733842842
C  C45  1  0.59040000  0.20760000  0.00740000  1.0 0.2377777613
C  C46  1  0.20760000  0.59040000  0.49260000  1.0 0.2377777613
C  C47  1  0.40960000  0.79240000  0.99260000  1.0 0.2377777613
C  C48  1  0.79240000  0.40960000  0.50740000  1.0 0.2377777613
C  C49  1  0.61930000  0.09430000  0.04040000  1.0 -0.0280957067
C  C50  1  0.09430000  0.61930000  0.45960000  1.0 -0.0280957067
C  C51  1  0.38070000  0.90570000  0.95960000  1.0 -0.0280957067
C  C52  1  0.90570000  0.38070000  0.54040000  1.0 -0.0280957067
C  C53  1  0.63720000  0.09800000  0.08840000  1.0 -0.1094959349
C  C54  1  0.09800000  0.63720000  0.41160000  1.0 -0.1094959349
C  C55  1  0.36280000  0.90200000  0.91160000  1.0 -0.1094959349
C  C56  1  0.90200000  0.36280000  0.58840000  1.0 -0.1094959349
C  C57  1  0.65820000  0.99500000  0.11810000  1.0 -0.1298230448
C  C58  1  0.99500000  0.65820000  0.38190000  1.0 -0.1298230448
C  C59  1  0.34180000  0.00500000  0.88190000  1.0 -0.1298230448
C  C60  1  0.00500000  0.34180000  0.61810000  1.0 -0.1298230448
C  C61  1  0.66710000  0.89130000  0.09920000  1.0 0.0247083037
C  C62  1  0.89130000  0.66710000  0.40080000  1.0 0.0295369937
C  C63  1  0.33290000  0.10870000  0.90080000  1.0 0.0247083037
C  C64  1  0.10870000  0.33290000  0.59920000  1.0 0.0295369937
C  C65  1  0.63270000  0.98690000  0.02350000  1.0 0.0030428276
C  C66  1  0.98690000  0.63270000  0.47650000  1.0 0.0030428276
C  C67  1  0.36730000  0.01310000  0.97650000  1.0 0.0030428276
C  C68  1  0.01310000  0.36730000  0.52350000  1.0 0.0030428276
C  C69  1  0.82270000  0.15470000  0.02370000  1.0 -0.1094959349
C  C70  1  0.15470000  0.82270000  0.47630000  1.0 -0.1094959349
C  C71  1  0.17730000  0.84530000  0.97630000  1.0 -0.1094959349
C  C72  1  0.84530000  0.17730000  0.52370000  1.0 -0.1094959349
C  C73  1  0.92630000  0.04330000  0.98950000  1.0 -0.1784083901
C  C74  1  0.04330000  0.92630000  0.51050000  1.0 -0.1784083901
C  C75  1  0.07370000  0.95670000  0.01050000  1.0 -0.1784083901
C  C76  1  0.95670000  0.07370000  0.48950000  1.0 -0.1784083901
C  C77  1  0.62530000  0.88550000  0.76460000  1.0 0.2108061454
C  C78  1  0.88550000  0.62530000  0.73540000  1.0 0.2108061454
C  C79  1  0.37470000  0.11450000  0.23540000  1.0 0.2108061454
C  C80  1  0.11450000  0.37470000  0.26460000  1.0 0.2108061454
C  C81  1  0.86630000  0.64930000  0.78650000  1.0 0.0397109326
C  C82  1  0.64930000  0.86630000  0.71350000  1.0 0.0397109326
C  C83  1  0.13370000  0.35070000  0.21350000  1.0 0.0397109326
C  C84  1  0.35070000  0.13370000  0.28650000  1.0 0.0397109326
C  C85  1  0.72910000  0.75310000  0.79890000  1.0 0.0100767673
C  C86  1  0.75310000  0.72910000  0.70110000  1.0 0.0100767673
C  C87  1  0.27090000  0.24690000  0.20110000  1.0 0.0100767673
C  C88  1  0.24690000  0.27090000  0.29890000  1.0 0.0100767673
C  C89  1  0.70950000  0.74390000  0.84540000  1.0 -0.0579226494
C  C90  1  0.74390000  0.70950000  0.65460000  1.0 -0.0579226494
C  C91  1  0.29050000  0.25610000  0.15460000  1.0 -0.0579226494
C  C92  1  0.25610000  0.29050000  0.34540000  1.0 -0.0579226494
C  C93  1  0.88740000  0.72140000  0.79140000  1.0 -0.0520069793
C  C94  1  0.72140000  0.88740000  0.70860000  1.0 -0.0520069793
C  C95  1  0.11260000  0.27860000  0.20860000  1.0 -0.0520069793
C  C96  1  0.27860000  0.11260000  0.29140000  1.0 -0.0520069793
C  C97  1  0.75600000  0.80000000  0.79880000  1.0 0.0480658926
C  C98  1  0.80000000  0.75600000  0.70120000  1.0 0.0480658926
C  C99  1  0.24400000  0.20000000  0.20120000  1.0 0.0480658926
C  C100  1  0.20000000  0.24400000  0.29880000  1.0 0.0480658926
C  C101  1  0.69260000  0.80060000  0.84540000  1.0 0.0030428276
C  C102  1  0.80060000  0.69260000  0.65460000  1.0 0.0030428276
C  C103  1  0.30740000  0.19940000  0.15460000  1.0 0.0030428276
C  C104  1  0.19940000  0.30740000  0.34540000  1.0 0.0030428276
N  N1  1  0.47140000  0.29480000  0.97660000  1.0 -0.4501434386
N  N2  1  0.29480000  0.47140000  0.52340000  1.0 -0.4501434386
N  N3  1  0.52860000  0.70520000  0.02340000  1.0 -0.4501434386
N  N4  1  0.70520000  0.52860000  0.47660000  1.0 -0.4501434386
N  N5  1  0.67350000  0.23270000  0.00250000  1.0 -0.0280957067
N  N6  1  0.23270000  0.67350000  0.49750000  1.0 -0.0280957067
N  N7  1  0.32650000  0.76730000  0.99750000  1.0 -0.0280957067
N  N8  1  0.76730000  0.32650000  0.50250000  1.0 -0.0280957067
N  N9  1  0.65470000  0.88670000  0.05180000  1.0 -0.3274501645
N  N10  1  0.88670000  0.65470000  0.44820000  1.0 -0.3274501645
N  N11  1  0.34530000  0.11330000  0.94820000  1.0 -0.3274501645
N  N12  1  0.11330000  0.34530000  0.55180000  1.0 -0.3274501645
O  O1  1  0.51590000  0.00890000  0.77490000  1.0 -0.4501434386
O  O2  1  0.00890000  0.51590000  0.72510000  1.0 -0.4501434386
O  O3  1  0.48410000  0.99110000  0.22510000  1.0 -0.4501434386
O  O4  1  0.99110000  0.48410000  0.27490000  1.0 -0.4501434386
O  O5  1  0.05690000  0.46810000  0.94440000  1.0 -0.1709395017
O  O6  1  0.46810000  0.05690000  0.55560000  1.0 -0.1709395017
O  O7  1  0.94310000  0.53190000  0.05560000  1.0 -0.1784083901
O  O8  1  0.53190000  0.94310000  0.44440000  1.0 -0.1709395017
O  O9  1  0.19350000  0.42870000  0.89640000  1.0 -0.1709395017
O  O10  1  0.42870000  0.19350000  0.60360000  1.0 -0.1709395017
O  O11  1  0.80650000  0.57130000  0.10360000  1.0 -0.1709395017
O  O12  1  0.57130000  0.80650000  0.39640000  1.0 -0.1709395017
O  O13  1  0.78050000  0.58850000  0.94730000  1.0 -0.1784083901
O  O14  1  0.58850000  0.78050000  0.55270000  1.0 -0.1784083901
O  O15  1  0.21950000  0.41150000  0.05270000  1.0 -0.1784083901
O  O16  1  0.41150000  0.21950000  0.44730000  1.0 -0.1784083901
O  O17  1  0.70410000  0.79650000  0.94940000  1.0 -0.1556226321
O  O18  1  0.79650000  0.70410000  0.55060000  1.0 -0.1556226321
O  O19  1  0.29590000  0.20350000  0.05060000  1.0 -0.1556226321
O  O20  1  0.20350000  0.29590000  0.44940000  1.0 -0.1556226321
O  O21  1  0.07450000  0.55850000  0.94330000  1.0 -0.3019828059
O  O22  1  0.55850000  0.07450000  0.55670000  1.0 -0.3019828059
O  O23  1  0.92550000  0.44150000  0.05670000  1.0 -0.3019828059
O  O24  1  0.44150000  0.92550000  0.44330000  1.0 -0.3019828059
O  O25  1  0.15140000  0.39340000  0.89860000  1.0 0.0295369937
O  O26  1  0.39340000  0.15140000  0.60140000  1.0 0.0295369937
O  O27  1  0.84860000  0.60660000  0.10140000  1.0 0.0295369937
O  O28  1  0.60660000  0.84860000  0.39860000  1.0 0.0295369937
O  O29  1  0.67900000  0.68100000  0.93810000  1.0 -0.1199055881
O  O30  1  0.68100000  0.67900000  0.56190000  1.0 -0.1199055881
O  O31  1  0.32100000  0.31900000  0.06190000  1.0 -0.1199055881
O  O32  1  0.31900000  0.32100000  0.43810000  1.0 -0.1199055881
O  O33  1  0.78700000  0.74040000  0.95470000  1.0 -0.1199055881
O  O34  1  0.74040000  0.78700000  0.54530000  1.0 -0.1199055881
O  O35  1  0.21300000  0.25960000  0.04530000  1.0 -0.1199055881
O  O36  1  0.25960000  0.21300000  0.45470000  1.0 -0.1199055881
