# DDEC6 charges by PACMAN v1.1 (https://github.com/mtap-research/PACMAN-charge/)
data_RETCOM_ASR_pacman
_symmetry_space_group_name_H-M   'P 1'
_cell_length_a   6.15820000
_cell_length_b   14.93840000
_cell_length_c   16.35620000
_cell_angle_alpha   65.39800000
_cell_angle_beta   80.81800000
_cell_angle_gamma   83.01000000
_symmetry_Int_Tables_number   1
_chemical_formula_structural   Co2H22(C10O3)3
_chemical_formula_sum   'Co4 H44 C60 O18'
_cell_volume   1347.98303529
_cell_formula_units_Z   2
loop_
 _symmetry_equiv_pos_site_id
 _symmetry_equiv_pos_as_xyz
  1  'x, y, z'
loop_
 _atom_site_type_symbol
 _atom_site_label
 _atom_site_symmetry_multiplicity
 _atom_site_fract_x
 _atom_site_fract_y
 _atom_site_fract_z
 _atom_site_occupancy
 _atom_site_charge
Co  Co1  1  0.32395000  0.88847000  0.93325000  1.0 0.9766306674
Co  Co2  1  0.03623000  0.94176000  0.10292000  1.0 1.04877303
Co  Co3  1  0.67605000  0.11153000  0.06675000  1.0 0.9766306674
Co  Co4  1  0.96377000  0.05824000  0.89708000  1.0 1.04877303
H  H1  1  0.33454000  0.03960000  0.96850000  1.0 0.3986527717
H  H2  1  0.12804000  0.15295000  0.59628000  1.0 0.1206442615
H  H3  1  0.26905000  0.19068000  0.44505000  1.0 0.1206442615
H  H4  1  0.85416000  0.05412000  0.52357000  1.0 0.1206442615
H  H5  1  0.71032000  0.00946000  0.67462000  1.0 0.1206442615
H  H6  1  0.74034000  0.08562000  0.36819000  1.0 0.1010770468
H  H7  1  0.55596000  0.17417000  0.33248000  1.0 0.1010770468
H  H8  1  0.88531000  0.13357000  0.23107000  1.0 0.1306488311
H  H9  1  0.43110000  0.27541000  0.08006000  1.0 0.1206442615
H  H10  1  0.13681000  0.33105000  0.29614000  1.0 0.1468309259
H  H11  1  0.46792000  0.56233000  0.14928000  1.0 0.0910280993
H  H12  1  0.64840000  0.69742000  0.13664000  1.0 0.1010770468
H  H13  1  0.22028000  0.58618000  0.04405000  1.0 0.0705866536
H  H14  1  0.03980000  0.45109000  0.05669000  1.0 0.0910280993
H  H15  1  0.73500000  0.35000000  0.10900000  1.0 0.0782194307
H  H16  1  0.58200000  0.42300000  0.05800000  1.0 0.1010770468
H  H17  1  0.30500000  0.46400000  0.21900000  1.0 0.0910280993
H  H18  1  0.48100000  0.39100000  0.26400000  1.0 0.135027746
H  H19  1  0.86093000  0.44134000  0.12657000  1.0 0.1010770468
H  H20  1  0.10683000  0.56676000  0.07385000  1.0 0.0910280993
H  H21  1  0.64450000  0.73822000  0.15733000  1.0 0.1135248562
H  H22  1  0.39860000  0.61280000  0.21005000  1.0 0.1010770468
H  H23  1  0.66546000  0.96040000  0.03150000  1.0 0.3986527717
H  H24  1  0.87196000  0.84705000  0.40372000  1.0 0.1206442615
H  H25  1  0.73095000  0.80932000  0.55495000  1.0 0.1206442615
H  H26  1  0.14584000  0.94588000  0.47643000  1.0 0.1206442615
H  H27  1  0.28968000  0.99054000  0.32538000  1.0 0.1206442615
H  H28  1  0.25966000  0.91438000  0.63181000  1.0 0.1010770468
H  H29  1  0.44404000  0.82583000  0.66752000  1.0 0.1010770468
H  H30  1  0.11469000  0.86643000  0.76893000  1.0 0.1306488311
H  H31  1  0.56890000  0.72459000  0.91994000  1.0 0.1206442615
H  H32  1  0.86319000  0.66895000  0.70386000  1.0 0.1468309259
H  H33  1  0.53208000  0.43767000  0.85072000  1.0 0.0910280993
H  H34  1  0.35160000  0.30258000  0.86336000  1.0 0.1010770468
H  H35  1  0.77972000  0.41382000  0.95595000  1.0 0.0705866536
H  H36  1  0.96020000  0.54891000  0.94331000  1.0 0.0910280993
H  H37  1  0.26500000  0.65000000  0.89100000  1.0 0.0782194307
H  H38  1  0.41800000  0.57700000  0.94200000  1.0 0.1010770468
H  H39  1  0.69500000  0.53600000  0.78100000  1.0 0.0910280993
H  H40  1  0.51900000  0.60900000  0.73600000  1.0 0.135027746
H  H41  1  0.13907000  0.55866000  0.87343000  1.0 0.1010770468
H  H42  1  0.89317000  0.43324000  0.92615000  1.0 0.0910280993
H  H43  1  0.35550000  0.26178000  0.84267000  1.0 0.1135248562
H  H44  1  0.60140000  0.38720000  0.78995000  1.0 0.1010770468
C  C1  1  0.31300000  0.04562000  0.74769000  1.0 0.5906574523
C  C2  1  0.40370000  0.07640000  0.65019000  1.0 -0.04003121
C  C3  1  0.27470000  0.13120000  0.58173000  1.0 -0.1095409634
C  C4  1  0.35960000  0.15449000  0.49161000  1.0 -0.1509731019
C  C5  1  0.57490000  0.12533000  0.46924000  1.0 0.1010770468
C  C6  1  0.70500000  0.07270000  0.53832000  1.0 -0.1509731019
C  C7  1  0.62070000  0.04700000  0.62807000  1.0 -0.0988502556
C  C8  1  0.67200000  0.14680000  0.37342000  1.0 -0.0724293532
C  C9  1  0.98780000  0.22893000  0.27543000  1.0 0.263126502
C  C10  1  0.99410000  0.17840000  0.22042000  1.0 -0.2359003478
C  C11  1  0.16370000  0.19490000  0.14921000  1.0 -0.0012855141
C  C12  1  0.18190000  0.13331000  0.09542000  1.0 0.5906574523
C  C13  1  0.31880000  0.26363000  0.12981000  1.0 -0.3409735763
C  C14  1  0.30540000  0.31495000  0.18522000  1.0 0.0910280993
C  C15  1  0.14270000  0.29693000  0.25802000  1.0 -0.3704587275
C  C16  1  0.05680000  0.74586000  0.07716000  1.0 0.4350275791
C  C17  1  0.62060000  0.56720000  0.12790000  1.0 -0.0611728968
C  C18  1  0.72790000  0.64740000  0.12040000  1.0 0.0023794006
C  C19  1  0.95130000  0.65450000  0.08920000  1.0 0.0182636848
C  C20  1  0.06760000  0.58130000  0.06540000  1.0 -0.04003121
C  C21  1  0.96040000  0.50110000  0.07290000  1.0 -0.1220773065
C  C22  1  0.73690000  0.49401000  0.10420000  1.0 0.0101245895
C  C23  1  0.62200000  0.40870000  0.10630000  1.0 -0.1724273989
C  C24  1  0.44740000  0.43460000  0.21420000  1.0 -0.1333451474
C  C25  1  0.81700000  0.50161000  0.13280000  1.0 -0.0286804752
C  C26  1  0.96310000  0.57610000  0.10150000  1.0 0.0101245895
C  C27  1  0.89880000  0.66430000  0.11060000  1.0 0.0251109472
C  C28  1  0.68840000  0.67796000  0.15110000  1.0 -0.04003121
C  C29  1  0.54240000  0.60350000  0.18240000  1.0 -0.1095409634
C  C30  1  0.60660000  0.51530000  0.17330000  1.0 -0.0173326393
C  C31  1  0.68700000  0.95438000  0.25231000  1.0 0.5906574523
C  C32  1  0.59630000  0.92360000  0.34981000  1.0 -0.04003121
C  C33  1  0.72530000  0.86880000  0.41827000  1.0 -0.1095409634
C  C34  1  0.64040000  0.84551000  0.50839000  1.0 -0.1509731019
C  C35  1  0.42510000  0.87467000  0.53076000  1.0 0.1010770468
C  C36  1  0.29500000  0.92730000  0.46168000  1.0 -0.1509731019
C  C37  1  0.37930000  0.95300000  0.37193000  1.0 -0.0988502556
C  C38  1  0.32800000  0.85320000  0.62658000  1.0 -0.0724293532
C  C39  1  0.01220000  0.77107000  0.72457000  1.0 0.263126502
C  C40  1  0.00590000  0.82160000  0.77958000  1.0 -0.2359003478
C  C41  1  0.83630000  0.80510000  0.85079000  1.0 -0.0012855141
C  C42  1  0.81810000  0.86669000  0.90458000  1.0 0.5906574523
C  C43  1  0.68120000  0.73637000  0.87019000  1.0 -0.3409735763
C  C44  1  0.69460000  0.68505000  0.81478000  1.0 0.0910280993
C  C45  1  0.85730000  0.70307000  0.74198000  1.0 -0.3704587275
C  C46  1  0.94320000  0.25414000  0.92284000  1.0 0.4350275791
C  C47  1  0.37940000  0.43280000  0.87210000  1.0 -0.0611728968
C  C48  1  0.27210000  0.35260000  0.87960000  1.0 0.0023794006
C  C49  1  0.04870000  0.34550000  0.91080000  1.0 0.0182636848
C  C50  1  0.93240000  0.41870000  0.93460000  1.0 -0.04003121
C  C51  1  0.03960000  0.49890000  0.92710000  1.0 -0.1220773065
C  C52  1  0.26310000  0.50599000  0.89580000  1.0 0.0101245895
C  C53  1  0.37800000  0.59130000  0.89370000  1.0 -0.1724273989
C  C54  1  0.55260000  0.56540000  0.78580000  1.0 -0.1333451474
C  C55  1  0.18300000  0.49839000  0.86720000  1.0 -0.0286804752
C  C56  1  0.03690000  0.42390000  0.89850000  1.0 0.0101245895
C  C57  1  0.10120000  0.33570000  0.88940000  1.0 0.0251109472
C  C58  1  0.31160000  0.32204000  0.84890000  1.0 -0.04003121
C  C59  1  0.45760000  0.39650000  0.81760000  1.0 -0.1095409634
C  C60  1  0.39340000  0.48470000  0.82670000  1.0 -0.0173326393
O  O1  1  0.15050000  0.09340000  0.76884000  1.0 -0.5588242764
O  O2  1  0.41720000  0.97143000  0.80306000  1.0 -0.5788978541
O  O3  1  0.83550000  0.21729000  0.34957000  1.0 -0.186662724
O  O4  1  0.01770000  0.08402000  0.10589000  1.0 -0.5920731926
O  O5  1  0.35500000  0.12895000  0.04489000  1.0 -0.5588242764
O  O6  1  0.45140000  0.38417000  0.16760000  1.0 -0.088965399
O  O7  1  0.22370000  0.75801000  0.01822000  1.0 -0.5231572592
O  O8  1  0.99060000  0.80160000  0.11624000  1.0 -0.4881983602
O  O9  1  0.21990000  0.99373000  0.97630000  1.0 -0.9386095011
O  O10  1  0.84950000  0.90660000  0.23116000  1.0 -0.5588242764
O  O11  1  0.58280000  0.02857000  0.19694000  1.0 -0.5788978541
O  O12  1  0.16450000  0.78271000  0.65043000  1.0 -0.186662724
O  O13  1  0.98230000  0.91598000  0.89411000  1.0 -0.5920731926
O  O14  1  0.64500000  0.87105000  0.95511000  1.0 -0.5588242764
O  O15  1  0.54860000  0.61583000  0.83240000  1.0 -0.088965399
O  O16  1  0.77630000  0.24199000  0.98178000  1.0 -0.5231572592
O  O17  1  0.00940000  0.19840000  0.88376000  1.0 -0.4881983602
O  O18  1  0.78010000  0.00627000  0.02370000  1.0 -0.9386095011
