# DDEC6 charges by PACMAN v1.1 (https://github.com/mtap-research/PACMAN-charge/)
data_RETMOV_FSR_pacman
_symmetry_space_group_name_H-M   'P 1'
_cell_length_a   12.06590000
_cell_length_b   12.06590000
_cell_length_c   24.25420000
_cell_angle_alpha   85.49950000
_cell_angle_beta   94.50050000
_cell_angle_gamma   105.66500000
_symmetry_Int_Tables_number   1
_chemical_formula_structural   Ag8I7
_chemical_formula_sum   'Ag32 I28'
_cell_volume   3383.39213980
_cell_formula_units_Z   4
loop_
 _symmetry_equiv_pos_site_id
 _symmetry_equiv_pos_as_xyz
  1  'x, y, z'
loop_
 _atom_site_type_symbol
 _atom_site_label
 _atom_site_symmetry_multiplicity
 _atom_site_fract_x
 _atom_site_fract_y
 _atom_site_fract_z
 _atom_site_occupancy
 _atom_site_charge
Ag  Ag1  1  0.07240000  0.00296000  0.57417000  1.0 0.0880550117
Ag  Ag2  1  0.19602000  0.09218000  0.39897000  1.0 -0.0110423264
Ag  Ag3  1  0.44160000  0.20068000  0.53801000  1.0 0.2147908465
Ag  Ag4  1  0.69238000  0.12364000  0.57059000  1.0 0.2490341718
Ag  Ag5  1  0.70865000  0.78755000  0.65496000  1.0 0.1301019818
Ag  Ag6  1  0.15080000  0.09560000  0.52399000  1.0 -0.0180268769
Ag  Ag7  1  0.89990000  0.91050000  0.56980000  1.0 -0.0290610866
Ag  Ag8  1  0.79651000  0.84043000  0.73499000  1.0 -0.0645955994
Ag  Ag9  1  0.00296000  0.07240000  0.92583000  1.0 0.0880550117
Ag  Ag10  1  0.09218000  0.19602000  0.10103000  1.0 -0.0110423264
Ag  Ag11  1  0.20068000  0.44160000  0.96199000  1.0 0.2283789273
Ag  Ag12  1  0.12364000  0.69238000  0.92941000  1.0 0.2490341718
Ag  Ag13  1  0.78755000  0.70865000  0.84504000  1.0 0.1301019818
Ag  Ag14  1  0.09560000  0.15080000  0.97601000  1.0 -0.0180268769
Ag  Ag15  1  0.91050000  0.89990000  0.93020000  1.0 -0.0290610866
Ag  Ag16  1  0.84043000  0.79651000  0.76501000  1.0 -0.0693299695
Ag  Ag17  1  0.92760000  0.99704000  0.42583000  1.0 0.0880550117
Ag  Ag18  1  0.80398000  0.90782000  0.60103000  1.0 -0.0110423264
Ag  Ag19  1  0.55840000  0.79932000  0.46199000  1.0 0.2283789273
Ag  Ag20  1  0.30762000  0.87636000  0.42941000  1.0 0.2440902249
Ag  Ag21  1  0.29135000  0.21245000  0.34504000  1.0 0.1357966394
Ag  Ag22  1  0.84920000  0.90440000  0.47601000  1.0 -0.0180268769
Ag  Ag23  1  0.10010000  0.08950000  0.43020000  1.0 -0.0290610866
Ag  Ag24  1  0.20349000  0.15957000  0.26501000  1.0 -0.0645955994
Ag  Ag25  1  0.99704000  0.92760000  0.07417000  1.0 0.0837922052
Ag  Ag26  1  0.90782000  0.80398000  0.89897000  1.0 -0.0110423264
Ag  Ag27  1  0.79932000  0.55840000  0.03801000  1.0 0.2283789273
Ag  Ag28  1  0.87636000  0.30762000  0.07059000  1.0 0.2490341718
Ag  Ag29  1  0.21245000  0.29135000  0.15496000  1.0 0.1357966394
Ag  Ag30  1  0.90440000  0.84920000  0.02399000  1.0 -0.0180268769
Ag  Ag31  1  0.08950000  0.10010000  0.06980000  1.0 -0.0290610866
Ag  Ag32  1  0.15957000  0.20349000  0.23499000  1.0 -0.0645955994
I  I1  1  0.28131000  0.13331000  0.62170000  1.0 -0.093546678
I  I2  1  0.28768000  0.28476000  0.45580000  1.0 0.0295043823
I  I3  1  0.66184000  0.34414000  0.56546000  1.0 -0.2119020119
I  I4  1  0.90662000  0.12278000  0.51979000  1.0 -0.0693299695
I  I5  1  0.66560000  0.99312000  0.67041000  1.0 -0.1058191552
I  I6  1  0.99002000  0.86218000  0.67228000  1.0 -0.0372365385
I  I7  1  0.13331000  0.28131000  0.87830000  1.0 -0.1013414636
I  I8  1  0.28476000  0.28768000  0.04420000  1.0 0.0179760561
I  I9  1  0.34414000  0.66184000  0.93454000  1.0 -0.2191601092
I  I10  1  0.12278000  0.90662000  0.98021000  1.0 -0.0693299695
I  I11  1  0.99312000  0.66560000  0.82959000  1.0 -0.1013414636
I  I12  1  0.86218000  0.99002000  0.82772000  1.0 -0.0290610866
I  I13  1  0.71869000  0.86669000  0.37830000  1.0 -0.093546678
I  I14  1  0.71232000  0.71524000  0.54420000  1.0 0.0179760561
I  I15  1  0.33816000  0.65586000  0.43454000  1.0 -0.2191601092
I  I16  1  0.09338000  0.87722000  0.48021000  1.0 -0.0693299695
I  I17  1  0.33440000  0.00688000  0.32959000  1.0 -0.1013414636
I  I18  1  0.00998000  0.13782000  0.32772000  1.0 -0.0290610866
I  I19  1  0.86669000  0.71869000  0.12170000  1.0 -0.1013414636
I  I20  1  0.71524000  0.71232000  0.95580000  1.0 0.0295043823
I  I21  1  0.65586000  0.33816000  0.06546000  1.0 -0.2191601092
I  I22  1  0.87722000  0.09338000  0.01979000  1.0 -0.0693299695
I  I23  1  0.00688000  0.33440000  0.17041000  1.0 -0.1013414636
I  I24  1  0.13782000  0.00998000  0.17228000  1.0 -0.0290610866
I  I25  1  0.50000000  0.00000000  0.50000000  1.0 -0.2377829893
I  I26  1  0.00000000  0.50000000  0.00000000  1.0 -0.2377829893
I  I27  1  0.62970000  0.62970000  0.75000000  1.0 0.0880550117
I  I28  1  0.37030000  0.37030000  0.25000000  1.0 0.0880550117
