# DDEC6 charges by PACMAN v1.1 (https://github.com/mtap-research/PACMAN-charge/)
data_RETVIW_ASR_pacman
_symmetry_space_group_name_H-M   'P 1'
_cell_length_a   12.08370000
_cell_length_b   12.08370000
_cell_length_c   20.67500000
_cell_angle_alpha   90.00000000
_cell_angle_beta   90.00000000
_cell_angle_gamma   146.13800000
_symmetry_Int_Tables_number   1
_chemical_formula_structural   NaCdH3C12SNO12
_chemical_formula_sum   'Na4 Cd4 H12 C48 S4 N4 O48'
_cell_volume   1682.10154357
_cell_formula_units_Z   4
loop_
 _symmetry_equiv_pos_site_id
 _symmetry_equiv_pos_as_xyz
  1  'x, y, z'
loop_
 _atom_site_type_symbol
 _atom_site_label
 _atom_site_symmetry_multiplicity
 _atom_site_fract_x
 _atom_site_fract_y
 _atom_site_fract_z
 _atom_site_occupancy
 _atom_site_charge
Na  Na1  1  0.19090000  0.80910000  0.55040000  1.0 0.7513816729
Na  Na2  1  0.30910000  0.69090000  0.05040000  1.0 0.7513816729
Na  Na3  1  0.80910000  0.19090000  0.44960000  1.0 0.7513816729
Na  Na4  1  0.69090000  0.30910000  0.94960000  1.0 0.7513816729
Cd  Cd1  1  0.34351000  0.65649000  0.54015000  1.0 0.9223948791
Cd  Cd2  1  0.15649000  0.84351000  0.04015000  1.0 0.9223948791
Cd  Cd3  1  0.65649000  0.34351000  0.45985000  1.0 0.9223948791
Cd  Cd4  1  0.84351000  0.15649000  0.95985000  1.0 0.9223948791
H  H1  1  0.36340000  0.63660000  0.77550000  1.0 0.1478798053
H  H2  1  0.13660000  0.86340000  0.27550000  1.0 0.1478798053
H  H3  1  0.63660000  0.36340000  0.22450000  1.0 0.1478798053
H  H4  1  0.86340000  0.13660000  0.72450000  1.0 0.1478798053
H  H5  1  0.20060000  0.79940000  0.70950000  1.0 0.0958517342
H  H6  1  0.29940000  0.70060000  0.20950000  1.0 0.0958517342
H  H7  1  0.79940000  0.20060000  0.29050000  1.0 0.0958517342
H  H8  1  0.70060000  0.29940000  0.79050000  1.0 0.0958517342
H  H9  1  0.16680000  0.83320000  0.81380000  1.0 0.1125251278
H  H10  1  0.33320000  0.66680000  0.31380000  1.0 0.1125251278
H  H11  1  0.83320000  0.16680000  0.18620000  1.0 0.1125251278
H  H12  1  0.66680000  0.33320000  0.68620000  1.0 0.1125251278
C  C1  1  0.32340000  0.67660000  0.78380000  1.0 -0.0977385562
C  C2  1  0.17660000  0.82340000  0.28380000  1.0 -0.0977385562
C  C3  1  0.67660000  0.32340000  0.21620000  1.0 -0.0977385562
C  C4  1  0.82340000  0.17660000  0.71620000  1.0 -0.0977385562
C  C5  1  0.28520000  0.71480000  0.73230000  1.0 0.0051577091
C  C6  1  0.21480000  0.78520000  0.23230000  1.0 0.0048233968
C  C7  1  0.71480000  0.28520000  0.26770000  1.0 0.0048233968
C  C8  1  0.78520000  0.21480000  0.76770000  1.0 0.0048233968
C  C9  1  0.30730000  0.69270000  0.66370000  1.0 0.5632642283
C  C10  1  0.19270000  0.80730000  0.16370000  1.0 0.5632642283
C  C11  1  0.69270000  0.30730000  0.33630000  1.0 0.5632642283
C  C12  1  0.80730000  0.19270000  0.83630000  1.0 0.5632642283
C  C13  1  0.30440000  0.69560000  0.84720000  1.0 -0.0938380957
C  C14  1  0.19560000  0.80440000  0.34720000  1.0 -0.0938380957
C  C15  1  0.69560000  0.30440000  0.15280000  1.0 -0.0938380957
C  C16  1  0.80440000  0.19560000  0.65280000  1.0 -0.0938380957
C  C17  1  0.24510000  0.75490000  0.85910000  1.0 -0.1082750029
C  C18  1  0.25490000  0.74510000  0.35910000  1.0 -0.1082750029
C  C19  1  0.75490000  0.24510000  0.14090000  1.0 -0.1082750029
C  C20  1  0.74510000  0.25490000  0.64090000  1.0 -0.1082750029
C  C21  1  0.21560000  0.78440000  0.92520000  1.0 0.4571312591
C  C22  1  0.28440000  0.71560000  0.42520000  1.0 0.4571312591
C  C23  1  0.78440000  0.21560000  0.07480000  1.0 0.4571312591
C  C24  1  0.71560000  0.28440000  0.57480000  1.0 0.4571312591
C  C25  1  0.22680000  0.77320000  0.74420000  1.0 -0.0977385562
C  C26  1  0.27320000  0.72680000  0.24420000  1.0 -0.0977385562
C  C27  1  0.77320000  0.22680000  0.25580000  1.0 -0.0977385562
C  C28  1  0.72680000  0.27320000  0.75580000  1.0 -0.0977385562
C  C29  1  0.20690000  0.79310000  0.80620000  1.0 -0.1082750029
C  C30  1  0.29310000  0.70690000  0.30620000  1.0 -0.1082750029
C  C31  1  0.79310000  0.20690000  0.19380000  1.0 -0.1082750029
C  C32  1  0.70690000  0.29310000  0.69380000  1.0 -0.1082750029
C  C33  1  0.54850000  0.62750000  0.46550000  1.0 0.0301245785
C  C34  1  0.95150000  0.87250000  0.96550000  1.0 0.0301245785
C  C35  1  0.62750000  0.54850000  0.53450000  1.0 0.0301245785
C  C36  1  0.87250000  0.95150000  0.03450000  1.0 0.0301245785
C  C37  1  0.45150000  0.37250000  0.53450000  1.0 0.0301245785
C  C38  1  0.04850000  0.12750000  0.03450000  1.0 0.0301245785
C  C39  1  0.37250000  0.45150000  0.46550000  1.0 0.0301245785
C  C40  1  0.12750000  0.04850000  0.96550000  1.0 0.0301245785
C  C41  1  0.38480000  0.42520000  0.54870000  1.0 0.0533848839
C  C42  1  0.11520000  0.07480000  0.04870000  1.0 0.05505611
C  C43  1  0.42520000  0.38480000  0.45130000  1.0 0.05505611
C  C44  1  0.07480000  0.11520000  0.95130000  1.0 0.0533848839
C  C45  1  0.61520000  0.57480000  0.45130000  1.0 0.0533848839
C  C46  1  0.88480000  0.92520000  0.95130000  1.0 0.0533848839
C  C47  1  0.57480000  0.61520000  0.54870000  1.0 0.0533848839
C  C48  1  0.92520000  0.88480000  0.04870000  1.0 0.0533848839
S  S1  1  0.35809000  0.64191000  0.90962000  1.0 1.1526228412
S  S2  1  0.14191000  0.85809000  0.40962000  1.0 1.1526228412
S  S3  1  0.64191000  0.35809000  0.09038000  1.0 1.1526228412
S  S4  1  0.85809000  0.14191000  0.59038000  1.0 1.144943498
N  N1  1  0.44160000  0.55840000  0.51480000  1.0 -0.0977385562
N  N2  1  0.05840000  0.94160000  0.01480000  1.0 -0.0977385562
N  N3  1  0.55840000  0.44160000  0.48520000  1.0 -0.0977385562
N  N4  1  0.94160000  0.05840000  0.98520000  1.0 -0.0938380957
O  O1  1  0.36030000  0.63970000  0.65420000  1.0 -0.5001564101
O  O2  1  0.13970000  0.86030000  0.15420000  1.0 -0.5001564101
O  O3  1  0.63970000  0.36030000  0.34580000  1.0 -0.5001564101
O  O4  1  0.86030000  0.13970000  0.84580000  1.0 -0.5001564101
O  O5  1  0.27130000  0.72870000  0.61770000  1.0 -0.62709976
O  O6  1  0.22870000  0.77130000  0.11770000  1.0 -0.62709976
O  O7  1  0.72870000  0.27130000  0.38230000  1.0 -0.62709976
O  O8  1  0.77130000  0.22870000  0.88230000  1.0 -0.62709976
O  O9  1  0.18180000  0.48240000  0.95040000  1.0 -0.6673812942
O  O10  1  0.31820000  0.01760000  0.45040000  1.0 -0.6673812942
O  O11  1  0.48240000  0.18180000  0.04960000  1.0 -0.6673812942
O  O12  1  0.01760000  0.31820000  0.54960000  1.0 -0.6673812942
O  O13  1  0.81820000  0.51760000  0.04960000  1.0 -0.6673812942
O  O14  1  0.68180000  0.98240000  0.54960000  1.0 -0.6673812942
O  O15  1  0.51760000  0.81820000  0.95040000  1.0 -0.6673812942
O  O16  1  0.98240000  0.68180000  0.45040000  1.0 -0.6673812942
O  O17  1  0.41130000  0.58870000  0.87840000  1.0 -0.5406936781
O  O18  1  0.08870000  0.91130000  0.37840000  1.0 -0.5406936781
O  O19  1  0.58870000  0.41130000  0.12160000  1.0 -0.5406936781
O  O20  1  0.91130000  0.08870000  0.62160000  1.0 -0.5406936781
O  O21  1  0.03910000  0.68890000  0.93410000  1.0 -0.3400113509
O  O22  1  0.46090000  0.81110000  0.43410000  1.0 -0.3400113509
O  O23  1  0.68890000  0.03910000  0.06590000  1.0 -0.3400113509
O  O24  1  0.81110000  0.46090000  0.56590000  1.0 -0.3400113509
O  O25  1  0.96090000  0.31110000  0.06590000  1.0 -0.3400113509
O  O26  1  0.53910000  0.18890000  0.56590000  1.0 -0.3400113509
O  O27  1  0.31110000  0.96090000  0.93410000  1.0 -0.3400113509
O  O28  1  0.18890000  0.53910000  0.43410000  1.0 -0.3400113509
O  O29  1  0.14890000  0.67910000  0.96970000  1.0 -0.0938380957
O  O30  1  0.35110000  0.82090000  0.46970000  1.0 -0.0977385562
O  O31  1  0.67910000  0.14890000  0.03030000  1.0 -0.0977385562
O  O32  1  0.82090000  0.35110000  0.53030000  1.0 -0.0977385562
O  O33  1  0.85110000  0.32090000  0.03030000  1.0 -0.0977385562
O  O34  1  0.64890000  0.17910000  0.53030000  1.0 -0.0977385562
O  O35  1  0.32090000  0.85110000  0.96970000  1.0 -0.0977385562
O  O36  1  0.17910000  0.64890000  0.46970000  1.0 -0.0977385562
O  O37  1  0.10740000  0.89260000  0.61600000  1.0 0.4518910422
O  O38  1  0.39260000  0.60740000  0.11600000  1.0 0.4518910422
O  O39  1  0.89260000  0.10740000  0.38400000  1.0 0.4518910422
O  O40  1  0.60740000  0.39260000  0.88400000  1.0 0.4518910422
O  O41  1  0.75130000  0.51470000  0.88280000  1.0 -0.1722190654
O  O42  1  0.74870000  0.98530000  0.38280000  1.0 -0.1722190654
O  O43  1  0.51470000  0.75130000  0.11720000  1.0 -0.1751797572
O  O44  1  0.98530000  0.74870000  0.61720000  1.0 -0.1722190654
O  O45  1  0.24870000  0.48530000  0.11720000  1.0 -0.1751797572
O  O46  1  0.25130000  0.01470000  0.61720000  1.0 -0.1722190654
O  O47  1  0.48530000  0.24870000  0.88280000  1.0 -0.1722190654
O  O48  1  0.01470000  0.25130000  0.38280000  1.0 -0.1722190654
