# DDEC6 charges by PACMAN v1.1 (https://github.com/mtap-research/PACMAN-charge/)
data_REXCEE_FSR_pacman
_symmetry_space_group_name_H-M   'P 1'
_cell_length_a   18.92190000
_cell_length_b   18.92190000
_cell_length_c   31.62400000
_cell_angle_alpha   78.90050000
_cell_angle_beta   101.10000000
_cell_angle_gamma   133.75700000
_symmetry_Int_Tables_number   1
_chemical_formula_structural   Zn6H64C91(I4N9)3
_chemical_formula_sum   'Zn12 H128 C182 I24 N54'
_cell_volume   7996.89451052
_cell_formula_units_Z   2
loop_
 _symmetry_equiv_pos_site_id
 _symmetry_equiv_pos_as_xyz
  1  'x, y, z'
loop_
 _atom_site_type_symbol
 _atom_site_label
 _atom_site_symmetry_multiplicity
 _atom_site_fract_x
 _atom_site_fract_y
 _atom_site_fract_z
 _atom_site_occupancy
 _atom_site_charge
Zn  Zn1  1  0.81628000  0.64434000  0.33982000  1.0 0.4674129463
Zn  Zn2  1  0.66249000  0.32357000  0.51862000  1.0 0.391886828
Zn  Zn3  1  0.13167000  0.38491000  0.69104000  1.0 0.4490810386
Zn  Zn4  1  0.06229000  0.88625000  0.83892000  1.0 0.3680246896
Zn  Zn5  1  0.38160000  0.04084000  0.01843000  1.0 0.4271034575
Zn  Zn6  1  0.31977000  0.57101000  0.19028000  1.0 0.4490810386
Zn  Zn7  1  0.64434000  0.81628000  0.66018000  1.0 0.4674129463
Zn  Zn8  1  0.32357000  0.66249000  0.48138000  1.0 0.391886828
Zn  Zn9  1  0.38491000  0.13167000  0.30896000  1.0 0.4490810386
Zn  Zn10  1  0.88625000  0.06229000  0.16108000  1.0 0.3680246896
Zn  Zn11  1  0.04084000  0.38160000  0.98157000  1.0 0.4271034575
Zn  Zn12  1  0.57101000  0.31977000  0.80972000  1.0 0.4490810386
H  H1  1  0.01820000  0.81420000  0.37350000  1.0 0.1002269445
H  H2  1  0.13790000  0.86010000  0.42720000  1.0 0.1293486589
H  H3  1  0.95530000  0.57310000  0.47560000  1.0 0.1293486589
H  H4  1  0.84660000  0.53120000  0.41330000  1.0 0.1002269445
H  H5  1  0.58590000  0.13770000  0.56940000  1.0 0.0912744703
H  H6  1  0.45070000  0.97510000  0.57750000  1.0 0.1293486589
H  H7  1  0.31930000  0.00910000  0.47350000  1.0 0.109413252
H  H8  1  0.45600000  0.17100000  0.46770000  1.0 0.0612871555
H  H9  1  0.02840000  0.39700000  0.60710000  1.0 0.1002269445
H  H10  1  0.04110000  0.51810000  0.56270000  1.0 0.1293486589
H  H11  1  0.30600000  0.72620000  0.62500000  1.0 0.1402910655
H  H12  1  0.27420000  0.59300000  0.67330000  1.0 0.1002269445
H  H13  1  0.30890000  0.45550000  0.75370000  1.0 0.109413252
H  H14  1  0.46220000  0.50220000  0.75350000  1.0 0.1469706721
H  H15  1  0.39850000  0.45130000  0.62800000  1.0 0.1402910655
H  H16  1  0.24480000  0.39700000  0.63570000  1.0 0.1002269445
H  H17  1  0.00760000  0.77200000  0.76720000  1.0 0.0797910066
H  H18  1  0.87430000  0.65470000  0.72300000  1.0 0.1002269445
H  H19  1  0.71450000  0.68110000  0.77410000  1.0 0.109413252
H  H20  1  0.85390000  0.80050000  0.81560000  1.0 0.0912744703
H  H21  1  0.16830000  0.84990000  0.90940000  1.0 0.1002269445
H  H22  1  0.13110000  0.73450000  0.96620000  1.0 0.1221207581
H  H23  1  0.84480000  0.59020000  0.94030000  1.0 0.1002269445
H  H24  1  0.88760000  0.70760000  0.88380000  1.0 0.0513036632
H  H25  1  0.09610000  0.42750000  0.17350000  1.0 0.109413252
H  H26  1  0.98160000  0.40840000  0.12930000  1.0 0.1402910655
H  H27  1  0.18900000  0.64560000  0.05420000  1.0 0.1221207581
H  H28  1  0.30290000  0.66910000  0.10680000  1.0 0.1002269445
H  H29  1  0.51820000  0.24680000  0.98260000  1.0 0.1002269445
H  H30  1  0.68210000  0.38970000  0.98460000  1.0 0.1469706721
H  H31  1  0.73780000  0.24840000  0.07410000  1.0 0.1402910655
H  H32  1  0.57510000  0.10550000  0.06500000  1.0 0.109413252
H  H33  1  0.29270000  0.45750000  0.12950000  1.0 0.0612871555
H  H34  1  0.26180000  0.31640000  0.13120000  1.0 0.1002269445
H  H35  1  0.21930000  0.24990000  0.25570000  1.0 0.109413252
H  H36  1  0.24880000  0.39040000  0.25420000  1.0 0.0701879446
H  H37  1  0.28290000  0.93390000  0.10380000  1.0 0.1002269445
H  H38  1  0.22070000  0.94370000  0.15590000  1.0 0.1293486589
H  H39  1  0.30690000  0.19270000  0.08840000  1.0 0.1402910655
H  H40  1  0.36670000  0.17470000  0.03860000  1.0 0.1002269445
H  H41  1  0.89240000  0.84820000  0.30910000  1.0 0.109413252
H  H42  1  0.00490000  0.98390000  0.26530000  1.0 0.1402910655
H  H43  1  0.06260000  0.83640000  0.22830000  1.0 0.1293486589
H  H44  1  0.94360000  0.70140000  0.27050000  1.0 0.109413252
H  H45  1  0.52180000  0.33360000  0.54140000  1.0 0.1002269445
H  H46  1  0.50770000  0.39570000  0.59080000  1.0 0.1402910655
H  H47  1  0.76110000  0.40730000  0.60550000  1.0 0.1002269445
H  H48  1  0.75230000  0.47570000  0.65390000  1.0 0.1402910655
H  H49  1  0.59870000  0.12130000  0.57200000  1.0 0.0701879446
H  H50  1  0.45340000  0.95540000  0.57680000  1.0 0.1293486589
H  H51  1  0.32020000  0.02960000  0.48830000  1.0 0.109413252
H  H52  1  0.47170000  0.19170000  0.48720000  1.0 0.0797910066
H  H53  1  0.99410000  0.73990000  0.78440000  1.0 0.0797910066
H  H54  1  0.85870000  0.61950000  0.74170000  1.0 0.109413252
H  H55  1  0.72740000  0.71320000  0.75690000  1.0 0.109413252
H  H56  1  0.86560000  0.82660000  0.80040000  1.0 0.0912744703
H  H57  1  0.16160000  0.85780000  0.91910000  1.0 0.1002269445
H  H58  1  0.12720000  0.75180000  0.98030000  1.0 0.1221207581
H  H59  1  0.85550000  0.55330000  0.92000000  1.0 0.0912744703
H  H60  1  0.89830000  0.66710000  0.86090000  1.0 0.0513036632
H  H61  1  0.36840000  0.48720000  0.14530000  1.0 0.0513036632
H  H62  1  0.33410000  0.34610000  0.14480000  1.0 0.1002269445
H  H63  1  0.17000000  0.23160000  0.24490000  1.0 0.1221207581
H  H64  1  0.20600000  0.37560000  0.23920000  1.0 0.0797910066
H  H65  1  0.81420000  0.01820000  0.62650000  1.0 0.1002269445
H  H66  1  0.86010000  0.13790000  0.57280000  1.0 0.1293486589
H  H67  1  0.57310000  0.95530000  0.52440000  1.0 0.1293486589
H  H68  1  0.53120000  0.84660000  0.58670000  1.0 0.1002269445
H  H69  1  0.13770000  0.58590000  0.43060000  1.0 0.0912744703
H  H70  1  0.97510000  0.45070000  0.42250000  1.0 0.1293486589
H  H71  1  0.00910000  0.31930000  0.52650000  1.0 0.109413252
H  H72  1  0.17100000  0.45600000  0.53230000  1.0 0.0612871555
H  H73  1  0.39700000  0.02840000  0.39290000  1.0 0.1002269445
H  H74  1  0.51810000  0.04110000  0.43730000  1.0 0.1293486589
H  H75  1  0.72620000  0.30600000  0.37500000  1.0 0.1402910655
H  H76  1  0.59300000  0.27420000  0.32670000  1.0 0.1002269445
H  H77  1  0.45550000  0.30890000  0.24630000  1.0 0.109413252
H  H78  1  0.50220000  0.46220000  0.24650000  1.0 0.1469706721
H  H79  1  0.45130000  0.39850000  0.37200000  1.0 0.1402910655
H  H80  1  0.39700000  0.24480000  0.36430000  1.0 0.1002269445
H  H81  1  0.77200000  0.00760000  0.23280000  1.0 0.0797910066
H  H82  1  0.65470000  0.87430000  0.27700000  1.0 0.1002269445
H  H83  1  0.68110000  0.71450000  0.22590000  1.0 0.109413252
H  H84  1  0.80050000  0.85390000  0.18440000  1.0 0.0912744703
H  H85  1  0.84990000  0.16830000  0.09060000  1.0 0.1002269445
H  H86  1  0.73450000  0.13110000  0.03380000  1.0 0.1221207581
H  H87  1  0.59020000  0.84480000  0.05970000  1.0 0.1002269445
H  H88  1  0.70760000  0.88760000  0.11620000  1.0 0.0513036632
H  H89  1  0.42750000  0.09610000  0.82650000  1.0 0.109413252
H  H90  1  0.40840000  0.98160000  0.87070000  1.0 0.1402910655
H  H91  1  0.64560000  0.18900000  0.94580000  1.0 0.1221207581
H  H92  1  0.66910000  0.30290000  0.89320000  1.0 0.1002269445
H  H93  1  0.24680000  0.51820000  0.01740000  1.0 0.1002269445
H  H94  1  0.38970000  0.68210000  0.01540000  1.0 0.1469706721
H  H95  1  0.24840000  0.73780000  0.92590000  1.0 0.1402910655
H  H96  1  0.10550000  0.57510000  0.93500000  1.0 0.109413252
H  H97  1  0.45750000  0.29270000  0.87050000  1.0 0.0612871555
H  H98  1  0.31640000  0.26180000  0.86880000  1.0 0.1002269445
H  H99  1  0.24990000  0.21930000  0.74430000  1.0 0.109413252
H  H100  1  0.39040000  0.24880000  0.74580000  1.0 0.0701879446
H  H101  1  0.93390000  0.28290000  0.89620000  1.0 0.1002269445
H  H102  1  0.94370000  0.22070000  0.84410000  1.0 0.1293486589
H  H103  1  0.19270000  0.30690000  0.91160000  1.0 0.1402910655
H  H104  1  0.17470000  0.36670000  0.96140000  1.0 0.1002269445
H  H105  1  0.84820000  0.89240000  0.69090000  1.0 0.109413252
H  H106  1  0.98390000  0.00490000  0.73470000  1.0 0.1402910655
H  H107  1  0.83640000  0.06260000  0.77170000  1.0 0.1293486589
H  H108  1  0.70140000  0.94360000  0.72950000  1.0 0.109413252
H  H109  1  0.33360000  0.52180000  0.45860000  1.0 0.1002269445
H  H110  1  0.39570000  0.50770000  0.40920000  1.0 0.1402910655
H  H111  1  0.40730000  0.76110000  0.39450000  1.0 0.1002269445
H  H112  1  0.47570000  0.75230000  0.34610000  1.0 0.1402910655
H  H113  1  0.12130000  0.59870000  0.42800000  1.0 0.0701879446
H  H114  1  0.95540000  0.45340000  0.42320000  1.0 0.1293486589
H  H115  1  0.02960000  0.32020000  0.51170000  1.0 0.109413252
H  H116  1  0.19170000  0.47170000  0.51280000  1.0 0.0797910066
H  H117  1  0.73990000  0.99410000  0.21560000  1.0 0.0797910066
H  H118  1  0.61950000  0.85870000  0.25830000  1.0 0.109413252
H  H119  1  0.71320000  0.72740000  0.24310000  1.0 0.109413252
H  H120  1  0.82660000  0.86560000  0.19960000  1.0 0.0912744703
H  H121  1  0.85780000  0.16160000  0.08090000  1.0 0.1002269445
H  H122  1  0.75180000  0.12720000  0.01970000  1.0 0.1221207581
H  H123  1  0.55330000  0.85550000  0.08000000  1.0 0.0912744703
H  H124  1  0.66710000  0.89830000  0.13910000  1.0 0.0513036632
H  H125  1  0.48720000  0.36840000  0.85470000  1.0 0.0513036632
H  H126  1  0.34610000  0.33410000  0.85520000  1.0 0.1002269445
H  H127  1  0.23160000  0.17000000  0.75510000  1.0 0.1221207581
H  H128  1  0.37560000  0.20600000  0.76080000  1.0 0.0797910066
C  C1  1  0.00760000  0.76400000  0.39360000  1.0 0.0797910066
C  C2  1  0.07840000  0.79320000  0.42620000  1.0 -0.1504965105
C  C3  1  0.06100000  0.72100000  0.45880000  1.0 0.0513036632
C  C4  1  0.97120000  0.62320000  0.45370000  1.0 -0.1685229563
C  C5  1  0.90420000  0.59800000  0.41690000  1.0 0.0797910066
C  C6  1  0.13360000  0.74840000  0.49540000  1.0 0.3680246896
C  C7  1  0.28190000  0.87030000  0.52810000  1.0 0.2400550074
C  C8  1  0.19370000  0.71310000  0.55840000  1.0 0.3834935105
C  C9  1  0.53120000  0.11280000  0.54900000  1.0 0.0912744703
C  C10  1  0.44860000  0.01340000  0.55400000  1.0 -0.1303237253
C  C11  1  0.36420000  0.96780000  0.52670000  1.0 0.0322331335
C  C12  1  0.37310000  0.03290000  0.49450000  1.0 -0.0512664341
C  C13  1  0.45670000  0.13130000  0.49090000  1.0 -0.0207788537
C  C14  1  0.08320000  0.46420000  0.61160000  1.0 0.0513036632
C  C15  1  0.09370000  0.53610000  0.58350000  1.0 -0.1629489087
C  C16  1  0.17980000  0.63360000  0.58500000  1.0 0.0612871555
C  C17  1  0.24890000  0.65970000  0.62040000  1.0 -0.1402600702
C  C18  1  0.22740000  0.57820000  0.64970000  1.0 0.1221207581
C  C19  1  0.32560000  0.45180000  0.72830000  1.0 0.0912744703
C  C20  1  0.41750000  0.47850000  0.72830000  1.0 -0.1775502496
C  C21  1  0.44100000  0.47020000  0.69360000  1.0 0.0701879446
C  C22  1  0.38090000  0.44810000  0.65500000  1.0 -0.1303237253
C  C23  1  0.29170000  0.42030000  0.66010000  1.0 0.0797910066
C  C24  1  0.53190000  0.48950000  0.69280000  1.0 0.3528231806
C  C25  1  0.68780000  0.57840000  0.71590000  1.0 0.3528231806
C  C26  1  0.78030000  0.65530000  0.74480000  1.0 0.0322331335
C  C27  1  0.94680000  0.75320000  0.76860000  1.0 0.007235579
C  C28  1  0.86800000  0.68280000  0.74220000  1.0 -0.0706119765
C  C29  1  0.77480000  0.69920000  0.77220000  1.0 -0.0880502858
C  C30  1  0.85810000  0.76990000  0.79700000  1.0 -0.0378610776
C  C31  1  0.10180000  0.79620000  0.91580000  1.0 0.0513036632
C  C32  1  0.07990000  0.72810000  0.94940000  1.0 -0.1504965105
C  C33  1  0.98420000  0.64980000  0.95920000  1.0 0.0423618439
C  C34  1  0.91170000  0.64270000  0.93440000  1.0 -0.0120926718
C  C35  1  0.93780000  0.71280000  0.90110000  1.0 0.0612871555
C  C36  1  0.95490000  0.56950000  0.99460000  1.0 0.281444741
C  C37  1  0.99290000  0.51270000  0.05080000  1.0 0.3604859538
C  C38  1  0.83500000  0.42640000  0.03090000  1.0 0.3604859538
C  C39  1  0.11530000  0.47430000  0.14930000  1.0 0.0242211666
C  C40  1  0.04800000  0.46260000  0.12330000  1.0 -0.1402600702
C  C41  1  0.06690000  0.52430000  0.08700000  1.0 0.0797910066
C  C42  1  0.16890000  0.60230000  0.07980000  1.0 -0.1685229563
C  C43  1  0.23560000  0.61280000  0.11020000  1.0 0.0612871555
C  C44  1  0.56420000  0.24700000  0.00110000  1.0 0.0701879446
C  C45  1  0.66160000  0.33240000  0.00220000  1.0 -0.1504965105
C  C46  1  0.72910000  0.33370000  0.02940000  1.0 0.0701879446
C  C47  1  0.69410000  0.24910000  0.05390000  1.0 -0.1685229563
C  C48  1  0.59640000  0.16500000  0.04960000  1.0 0.0701879446
C  C49  1  0.27780000  0.41600000  0.15540000  1.0 0.0701879446
C  C50  1  0.25890000  0.33130000  0.15750000  1.0 -0.0378610776
C  C51  1  0.23690000  0.26510000  0.19250000  1.0 0.007235579
C  C52  1  0.23370000  0.29030000  0.22940000  1.0 -0.1128623881
C  C53  1  0.25180000  0.37440000  0.22830000  1.0 0.0701879446
C  C54  1  0.21220000  0.17240000  0.19230000  1.0 0.2856611884
C  C55  1  0.22060000  0.08160000  0.15930000  1.0 0.3680246896
C  C56  1  0.12160000  0.01020000  0.21510000  1.0 0.3604859538
C  C57  1  0.28790000  0.98810000  0.10080000  1.0 0.0701879446
C  C58  1  0.25040000  0.99240000  0.13230000  1.0 -0.1303237253
C  C59  1  0.25840000  0.07140000  0.12760000  1.0 0.0513036632
C  C60  1  0.30160000  0.13820000  0.09230000  1.0 -0.1504965105
C  C61  1  0.33690000  0.12730000  0.06260000  1.0 0.0701879446
C  C62  1  0.92760000  0.84560000  0.29280000  1.0 0.0612871555
C  C63  1  0.99490000  0.92690000  0.26670000  1.0 -0.1685229563
C  C64  1  0.04940000  0.92700000  0.24210000  1.0 0.0423618439
C  C65  1  0.02850000  0.84050000  0.24460000  1.0 -0.1402600702
C  C66  1  0.95850000  0.76070000  0.27050000  1.0 0.0612871555
C  C67  1  0.57040000  0.36280000  0.56510000  1.0 0.0612871555
C  C68  1  0.56160000  0.40000000  0.59470000  1.0 -0.1504965105
C  C69  1  0.70900000  0.40560000  0.60160000  1.0 0.0701879446
C  C70  1  0.70190000  0.44490000  0.63090000  1.0 -0.1402600702
C  C71  1  0.62240000  0.48340000  0.66220000  1.0 0.3680246896
C  C72  1  0.62810000  0.44290000  0.62980000  1.0 0.0612871555
C  C73  1  0.54090000  0.10110000  0.55490000  1.0 -0.0120926718
C  C74  1  0.45680000  0.00320000  0.55810000  1.0 -0.1220486932
C  C75  1  0.37830000  0.98170000  0.53170000  1.0 0.0242211666
C  C76  1  0.37680000  0.04720000  0.50520000  1.0 -0.0706119765
C  C77  1  0.46720000  0.14280000  0.50540000  1.0 0.0701879446
C  C78  1  0.93950000  0.73450000  0.77880000  1.0 0.002115288
C  C79  1  0.85930000  0.66270000  0.75320000  1.0 -0.0706119765
C  C80  1  0.78110000  0.71690000  0.76210000  1.0 -0.0880502858
C  C81  1  0.86400000  0.78400000  0.78750000  1.0 -0.0512664341
C  C82  1  0.09800000  0.79400000  0.91990000  1.0 0.002115288
C  C83  1  0.07940000  0.73260000  0.95640000  1.0 -0.1402600702
C  C84  1  0.98610000  0.64190000  0.95520000  1.0 0.0423618439
C  C85  1  0.91950000  0.61710000  0.92010000  1.0 -0.0262569417
C  C86  1  0.94470000  0.68390000  0.88500000  1.0 0.0612871555
C  C87  1  0.32660000  0.43460000  0.16600000  1.0 0.0701879446
C  C88  1  0.30670000  0.35010000  0.16530000  1.0 -0.0207788537
C  C89  1  0.24680000  0.27120000  0.19440000  1.0 -0.0015264736
C  C90  1  0.20990000  0.28210000  0.22340000  1.0 -0.1220486932
C  C91  1  0.23510000  0.37090000  0.21980000  1.0 0.1002269445
C  C92  1  0.76400000  0.00760000  0.60640000  1.0 0.0797910066
C  C93  1  0.79320000  0.07840000  0.57380000  1.0 -0.1504965105
C  C94  1  0.72100000  0.06100000  0.54120000  1.0 0.0513036632
C  C95  1  0.62320000  0.97120000  0.54630000  1.0 -0.1685229563
C  C96  1  0.59800000  0.90420000  0.58310000  1.0 0.0797910066
C  C97  1  0.74840000  0.13360000  0.50460000  1.0 0.3680246896
C  C98  1  0.87030000  0.28190000  0.47190000  1.0 0.2400550074
C  C99  1  0.71310000  0.19370000  0.44160000  1.0 0.3834935105
C  C100  1  0.11280000  0.53120000  0.45100000  1.0 0.0912744703
C  C101  1  0.01340000  0.44860000  0.44600000  1.0 -0.1402600702
C  C102  1  0.96780000  0.36420000  0.47330000  1.0 0.0322331335
C  C103  1  0.03290000  0.37310000  0.50550000  1.0 -0.0512664341
C  C104  1  0.13130000  0.45670000  0.50910000  1.0 -0.0207788537
C  C105  1  0.46420000  0.08320000  0.38840000  1.0 0.0513036632
C  C106  1  0.53610000  0.09370000  0.41650000  1.0 -0.1629489087
C  C107  1  0.63360000  0.17980000  0.41500000  1.0 0.0612871555
C  C108  1  0.65970000  0.24890000  0.37960000  1.0 -0.1402600702
C  C109  1  0.57820000  0.22740000  0.35030000  1.0 0.1221207581
C  C110  1  0.45180000  0.32560000  0.27170000  1.0 0.0912744703
C  C111  1  0.47850000  0.41750000  0.27170000  1.0 -0.1775502496
C  C112  1  0.47020000  0.44100000  0.30640000  1.0 0.0701879446
C  C113  1  0.44810000  0.38090000  0.34500000  1.0 -0.1220486932
C  C114  1  0.42030000  0.29170000  0.33990000  1.0 0.0797910066
C  C115  1  0.48950000  0.53190000  0.30720000  1.0 0.3528231806
C  C116  1  0.57840000  0.68780000  0.28410000  1.0 0.3528231806
C  C117  1  0.65530000  0.78030000  0.25520000  1.0 0.0322331335
C  C118  1  0.75320000  0.94680000  0.23140000  1.0 0.007235579
C  C119  1  0.68280000  0.86800000  0.25780000  1.0 -0.0706119765
C  C120  1  0.69920000  0.77480000  0.22780000  1.0 -0.0880502858
C  C121  1  0.76990000  0.85810000  0.20300000  1.0 -0.0378610776
C  C122  1  0.79620000  0.10180000  0.08420000  1.0 0.0513036632
C  C123  1  0.72810000  0.07990000  0.05060000  1.0 -0.1504965105
C  C124  1  0.64980000  0.98420000  0.04080000  1.0 0.0423618439
C  C125  1  0.64270000  0.91170000  0.06560000  1.0 -0.0120926718
C  C126  1  0.71280000  0.93780000  0.09890000  1.0 0.0612871555
C  C127  1  0.56950000  0.95490000  0.00540000  1.0 0.281444741
C  C128  1  0.51270000  0.99290000  0.94920000  1.0 0.3604859538
C  C129  1  0.42640000  0.83500000  0.96910000  1.0 0.3604859538
C  C130  1  0.47430000  0.11530000  0.85070000  1.0 0.0242211666
C  C131  1  0.46260000  0.04800000  0.87670000  1.0 -0.1402600702
C  C132  1  0.52430000  0.06690000  0.91300000  1.0 0.0797910066
C  C133  1  0.60230000  0.16890000  0.92020000  1.0 -0.1685229563
C  C134  1  0.61280000  0.23560000  0.88980000  1.0 0.0612871555
C  C135  1  0.24700000  0.56420000  0.99890000  1.0 0.0701879446
C  C136  1  0.33240000  0.66160000  0.99780000  1.0 -0.1504965105
C  C137  1  0.33370000  0.72910000  0.97060000  1.0 0.0701879446
C  C138  1  0.24910000  0.69410000  0.94610000  1.0 -0.1775502496
C  C139  1  0.16500000  0.59640000  0.95040000  1.0 0.0701879446
C  C140  1  0.41600000  0.27780000  0.84460000  1.0 0.0701879446
C  C141  1  0.33130000  0.25890000  0.84250000  1.0 -0.0378610776
C  C142  1  0.26510000  0.23690000  0.80750000  1.0 0.007235579
C  C143  1  0.29030000  0.23370000  0.77060000  1.0 -0.1128623881
C  C144  1  0.37440000  0.25180000  0.77170000  1.0 0.0701879446
C  C145  1  0.17240000  0.21220000  0.80770000  1.0 0.2856611884
C  C146  1  0.08160000  0.22060000  0.84070000  1.0 0.3680246896
C  C147  1  0.01020000  0.12160000  0.78490000  1.0 0.3604859538
C  C148  1  0.98810000  0.28790000  0.89920000  1.0 0.0701879446
C  C149  1  0.99240000  0.25040000  0.86770000  1.0 -0.1303237253
C  C150  1  0.07140000  0.25840000  0.87240000  1.0 0.0513036632
C  C151  1  0.13820000  0.30160000  0.90770000  1.0 -0.1504965105
C  C152  1  0.12730000  0.33690000  0.93740000  1.0 0.0701879446
C  C153  1  0.84560000  0.92760000  0.70720000  1.0 0.0612871555
C  C154  1  0.92690000  0.99490000  0.73330000  1.0 -0.1685229563
C  C155  1  0.92700000  0.04940000  0.75790000  1.0 0.0423618439
C  C156  1  0.84050000  0.02850000  0.75540000  1.0 -0.1402600702
C  C157  1  0.76070000  0.95850000  0.72950000  1.0 0.0612871555
C  C158  1  0.36280000  0.57040000  0.43490000  1.0 0.0612871555
C  C159  1  0.40000000  0.56160000  0.40530000  1.0 -0.1504965105
C  C160  1  0.40560000  0.70900000  0.39840000  1.0 0.0701879446
C  C161  1  0.44490000  0.70190000  0.36910000  1.0 -0.1402600702
C  C162  1  0.48340000  0.62240000  0.33780000  1.0 0.3680246896
C  C163  1  0.44290000  0.62810000  0.37020000  1.0 0.0612871555
C  C164  1  0.10110000  0.54090000  0.44510000  1.0 -0.0120926718
C  C165  1  0.00320000  0.45680000  0.44190000  1.0 -0.1220486932
C  C166  1  0.98170000  0.37830000  0.46830000  1.0 0.0242211666
C  C167  1  0.04720000  0.37680000  0.49480000  1.0 -0.0706119765
C  C168  1  0.14280000  0.46720000  0.49460000  1.0 0.0701879446
C  C169  1  0.73450000  0.93950000  0.22120000  1.0 0.002115288
C  C170  1  0.66270000  0.85930000  0.24680000  1.0 -0.0706119765
C  C171  1  0.71690000  0.78110000  0.23790000  1.0 -0.0880502858
C  C172  1  0.78400000  0.86400000  0.21250000  1.0 -0.0512664341
C  C173  1  0.79400000  0.09800000  0.08010000  1.0 0.002115288
C  C174  1  0.73260000  0.07940000  0.04360000  1.0 -0.1402600702
C  C175  1  0.64190000  0.98610000  0.04480000  1.0 0.0423618439
C  C176  1  0.61710000  0.91950000  0.07990000  1.0 -0.0207788537
C  C177  1  0.68390000  0.94470000  0.11500000  1.0 0.0612871555
C  C178  1  0.43460000  0.32660000  0.83400000  1.0 0.0701879446
C  C179  1  0.35010000  0.30670000  0.83470000  1.0 -0.0207788537
C  C180  1  0.27120000  0.24680000  0.80560000  1.0 -0.0015264736
C  C181  1  0.28210000  0.20990000  0.77660000  1.0 -0.1220486932
C  C182  1  0.37090000  0.23510000  0.78020000  1.0 0.1002269445
I  I1  1  0.72802000  0.67558000  0.37376000  1.0 -0.4564116024
I  I2  1  0.73541000  0.49323000  0.30457000  1.0 -0.4671322429
I  I3  1  0.63398000  0.38990000  0.44531000  1.0 -0.4307888173
I  I4  1  0.81945000  0.36017000  0.54113000  1.0 -0.4105679167
I  I5  1  0.00565000  0.22559000  0.65579000  1.0 -0.4513482326
I  I6  1  0.11759000  0.41325000  0.76244000  1.0 -0.4307888173
I  I7  1  0.03590000  0.97758000  0.87184000  1.0 -0.3701792979
I  I8  1  0.21233000  0.95931000  0.80338000  1.0 -0.3481717282
I  I9  1  0.31791000  0.06675000  0.94421000  1.0 -0.4105679167
I  I10  1  0.35079000  0.88581000  0.04310000  1.0 -0.4417059295
I  I11  1  0.28898000  0.58196000  0.26233000  1.0 -0.4192461792
I  I12  1  0.48022000  0.69856000  0.15597000  1.0 -0.2960419082
I  I13  1  0.67558000  0.72802000  0.62624000  1.0 -0.4564116024
I  I14  1  0.49323000  0.73541000  0.69543000  1.0 -0.4671322429
I  I15  1  0.38990000  0.63398000  0.55469000  1.0 -0.4307888173
I  I16  1  0.36017000  0.81945000  0.45887000  1.0 -0.4105679167
I  I17  1  0.22559000  0.00565000  0.34421000  1.0 -0.4513482326
I  I18  1  0.41325000  0.11759000  0.23756000  1.0 -0.4307888173
I  I19  1  0.97758000  0.03590000  0.12816000  1.0 -0.3807237044
I  I20  1  0.95931000  0.21233000  0.19662000  1.0 -0.3481717282
I  I21  1  0.06675000  0.31791000  0.05579000  1.0 -0.4105679167
I  I22  1  0.88581000  0.35079000  0.95690000  1.0 -0.4417059295
I  I23  1  0.58196000  0.28898000  0.73767000  1.0 -0.4192461792
I  I24  1  0.69856000  0.48022000  0.84403000  1.0 -0.2960419082
N  N1  1  0.92200000  0.66920000  0.38650000  1.0 -0.1878206842
N  N2  1  0.21360000  0.84680000  0.49680000  1.0 -0.3912173831
N  N3  1  0.27500000  0.80400000  0.56090000  1.0 -0.4307888173
N  N4  1  0.12290000  0.68030000  0.52100000  1.0 -0.4105679167
N  N5  1  0.53780000  0.17420000  0.51750000  1.0 -0.1303237253
N  N6  1  0.15000000  0.48860000  0.64550000  1.0 -0.1878206842
N  N7  1  0.26750000  0.42390000  0.69500000  1.0 -0.1775502496
N  N8  1  0.60370000  0.55270000  0.72150000  1.0 -0.3807237044
N  N9  1  0.70380000  0.54800000  0.68700000  1.0 -0.3807237044
N  N10  1  0.53570000  0.45610000  0.66070000  1.0 -0.3639010661
N  N11  1  0.94340000  0.79600000  0.79590000  1.0 -0.0950375223
N  N12  1  0.03040000  0.78800000  0.89200000  1.0 -0.0706119765
N  N13  1  0.02680000  0.58460000  0.02200000  1.0 -0.3971762978
N  N14  1  0.89670000  0.43170000  0.05780000  1.0 -0.3701792979
N  N15  1  0.85960000  0.49700000  0.99840000  1.0 -0.4192461792
N  N16  1  0.21420000  0.55080000  0.14440000  1.0 -0.1775502496
N  N17  1  0.53120000  0.16440000  0.02480000  1.0 -0.1629489087
N  N18  1  0.27320000  0.43480000  0.19270000  1.0 -0.2070494466
N  N19  1  0.24840000  0.16840000  0.16260000  1.0 -0.3807237044
N  N20  1  0.15650000  0.00210000  0.18650000  1.0 -0.3481717282
N  N21  1  0.15200000  0.09580000  0.22070000  1.0 -0.4192461792
N  N22  1  0.33030000  0.05170000  0.06670000  1.0 -0.1878206842
N  N23  1  0.90880000  0.76160000  0.29640000  1.0 -0.2035026946
N  N24  1  0.64290000  0.36530000  0.56750000  1.0 -0.1775502496
N  N25  1  0.54770000  0.17030000  0.52930000  1.0 -0.1303237253
N  N26  1  0.03500000  0.77240000  0.88520000  1.0 -0.0843145647
N  N27  1  0.29360000  0.45040000  0.19280000  1.0 -0.2188719907
N  N28  1  0.66920000  0.92200000  0.61350000  1.0 -0.1878206842
N  N29  1  0.84680000  0.21360000  0.50320000  1.0 -0.3912173831
N  N30  1  0.80400000  0.27500000  0.43910000  1.0 -0.4307888173
N  N31  1  0.68030000  0.12290000  0.47900000  1.0 -0.4105679167
N  N32  1  0.17420000  0.53780000  0.48250000  1.0 -0.1303237253
N  N33  1  0.48860000  0.15000000  0.35450000  1.0 -0.1775502496
N  N34  1  0.42390000  0.26750000  0.30500000  1.0 -0.1775502496
N  N35  1  0.55270000  0.60370000  0.27850000  1.0 -0.3807237044
N  N36  1  0.54800000  0.70380000  0.31300000  1.0 -0.3807237044
N  N37  1  0.45610000  0.53570000  0.33930000  1.0 -0.3639010661
N  N38  1  0.79600000  0.94340000  0.20410000  1.0 -0.0950375223
N  N39  1  0.78800000  0.03040000  0.10800000  1.0 -0.0706119765
N  N40  1  0.58460000  0.02680000  0.97800000  1.0 -0.3971762978
N  N41  1  0.43170000  0.89670000  0.94220000  1.0 -0.3701792979
N  N42  1  0.49700000  0.85960000  0.00160000  1.0 -0.4192461792
N  N43  1  0.55080000  0.21420000  0.85560000  1.0 -0.1775502496
N  N44  1  0.16440000  0.53120000  0.97520000  1.0 -0.1629489087
N  N45  1  0.43480000  0.27320000  0.80730000  1.0 -0.2070494466
N  N46  1  0.16840000  0.24840000  0.83740000  1.0 -0.3807237044
N  N47  1  0.00210000  0.15650000  0.81350000  1.0 -0.3481717282
N  N48  1  0.09580000  0.15200000  0.77930000  1.0 -0.4192461792
N  N49  1  0.05170000  0.33030000  0.93330000  1.0 -0.1878206842
N  N50  1  0.76160000  0.90880000  0.70360000  1.0 -0.2035026946
N  N51  1  0.36530000  0.64290000  0.43250000  1.0 -0.1775502496
N  N52  1  0.17030000  0.54770000  0.47070000  1.0 -0.1303237253
N  N53  1  0.77240000  0.03500000  0.11480000  1.0 -0.0843145647
N  N54  1  0.45040000  0.29360000  0.80720000  1.0 -0.2188719907
