# DDEC6 charges by PACMAN v1.1 (https://github.com/mtap-research/PACMAN-charge/)
data_REXFIL_FSR_pacman
_symmetry_space_group_name_H-M   'P 1'
_cell_length_a   18.82180000
_cell_length_b   18.82180000
_cell_length_c   30.64600000
_cell_angle_alpha   79.75050000
_cell_angle_beta   100.24900000
_cell_angle_gamma   133.41900000
_symmetry_Int_Tables_number   1
_chemical_formula_structural   ZnH8C12(IN2)2
_chemical_formula_sum   'Zn12 H96 C144 I24 N48'
_cell_volume   7736.32369826
_cell_formula_units_Z   12
loop_
 _symmetry_equiv_pos_site_id
 _symmetry_equiv_pos_as_xyz
  1  'x, y, z'
loop_
 _atom_site_type_symbol
 _atom_site_label
 _atom_site_symmetry_multiplicity
 _atom_site_fract_x
 _atom_site_fract_y
 _atom_site_fract_z
 _atom_site_occupancy
 _atom_site_charge
Zn  Zn1  1  0.12762000  0.07658000  0.19419000  1.0 0.4510923792
Zn  Zn2  1  0.92342000  0.87238000  0.69419000  1.0 0.4510923792
Zn  Zn3  1  0.44544000  0.80860000  0.54300000  1.0 0.4578337242
Zn  Zn4  1  0.19140000  0.55456000  0.04300000  1.0 0.4578337242
Zn  Zn5  1  0.58356000  0.13704000  0.36451000  1.0 0.4383525197
Zn  Zn6  1  0.86296000  0.41644000  0.86451000  1.0 0.4383525197
Zn  Zn7  1  0.60394000  0.64446000  0.23151000  1.0 0.4510923792
Zn  Zn8  1  0.35554000  0.39606000  0.73151000  1.0 0.4510923792
Zn  Zn9  1  0.93311000  0.78809000  0.40958000  1.0 0.4383525197
Zn  Zn10  1  0.21191000  0.06689000  0.90958000  1.0 0.4383525197
Zn  Zn11  1  0.87410000  0.33170000  0.58266000  1.0 0.4578337242
Zn  Zn12  1  0.66830000  0.12590000  0.08266000  1.0 0.4578337242
H  H1  1  0.22870000  0.05090000  0.28310000  1.0 0.1105033146
H  H2  1  0.94910000  0.77130000  0.78310000  1.0 0.1105033146
H  H3  1  0.19000000  0.93100000  0.33240000  1.0 0.1197210992
H  H4  1  0.06900000  0.81000000  0.83240000  1.0 0.1197210992
H  H5  1  0.95760000  0.72800000  0.25320000  1.0 0.1314398576
H  H6  1  0.27200000  0.04240000  0.75320000  1.0 0.1314398576
H  H7  1  0.96460000  0.84780000  0.21350000  1.0 0.1197210992
H  H8  1  0.15220000  0.03540000  0.71350000  1.0 0.1197210992
H  H9  1  0.24660000  0.63740000  0.51540000  1.0 0.1006691949
H  H10  1  0.36260000  0.75340000  0.01540000  1.0 0.1006691949
H  H11  1  0.12800000  0.59280000  0.45430000  1.0 0.1314398576
H  H12  1  0.40720000  0.87200000  0.95430000  1.0 0.1314398576
H  H13  1  0.30150000  0.87150000  0.40990000  1.0 0.1392610698
H  H14  1  0.12850000  0.69850000  0.90990000  1.0 0.1392610698
H  H15  1  0.39700000  0.91500000  0.47660000  1.0 0.1105033146
H  H16  1  0.08500000  0.60300000  0.97660000  1.0 0.1105033146
H  H17  1  0.65110000  0.31190000  0.31480000  1.0 0.1006691949
H  H18  1  0.68810000  0.34890000  0.81480000  1.0 0.1006691949
H  H19  1  0.78660000  0.48760000  0.31510000  1.0 0.1392610698
H  H20  1  0.51240000  0.21340000  0.81510000  1.0 0.1392610698
H  H21  1  0.93410000  0.44610000  0.40180000  1.0 0.1392610698
H  H22  1  0.55390000  0.06590000  0.90180000  1.0 0.1392610698
H  H23  1  0.81370000  0.27710000  0.40000000  1.0 0.1105033146
H  H24  1  0.72290000  0.18630000  0.90000000  1.0 0.1105033146
H  H25  1  0.69200000  0.10380000  0.34490000  1.0 0.1006691949
H  H26  1  0.89620000  0.30800000  0.84490000  1.0 0.1006691949
H  H27  1  0.73280000  0.06080000  0.29700000  1.0 0.1392610698
H  H28  1  0.93920000  0.26720000  0.79700000  1.0 0.1392610698
H  H29  1  0.48180000  0.94340000  0.22470000  1.0 0.1392610698
H  H30  1  0.05660000  0.51820000  0.72470000  1.0 0.1392610698
H  H31  1  0.46880000  0.03400000  0.27130000  1.0 0.1105033146
H  H32  1  0.96600000  0.53120000  0.77130000  1.0 0.1105033146
H  H33  1  0.94590000  0.98130000  0.13840000  1.0 0.1006691949
H  H34  1  0.01870000  0.05410000  0.63840000  1.0 0.1006691949
H  H35  1  0.79480000  0.94620000  0.12910000  1.0 0.1392610698
H  H36  1  0.05380000  0.20520000  0.62910000  1.0 0.1392610698
H  H37  1  0.90440000  0.08460000  0.24210000  1.0 0.1392610698
H  H38  1  0.91540000  0.09560000  0.74210000  1.0 0.1392610698
H  H39  1  0.03860000  0.11980000  0.23670000  1.0 0.1197210992
H  H40  1  0.88020000  0.96140000  0.73670000  1.0 0.1197210992
H  H41  1  0.24230000  0.66210000  0.12670000  1.0 0.1197210992
H  H42  1  0.33790000  0.75770000  0.62670000  1.0 0.1197210992
H  H43  1  0.36940000  0.77740000  0.16900000  1.0 0.1392610698
H  H44  1  0.22260000  0.63060000  0.66900000  1.0 0.1392610698
H  H45  1  0.54540000  0.76880000  0.11090000  1.0 0.1392610698
H  H46  1  0.23120000  0.45460000  0.61090000  1.0 0.1392610698
H  H47  1  0.40380000  0.65060000  0.06390000  1.0 0.1006691949
H  H48  1  0.34940000  0.59620000  0.56390000  1.0 0.1006691949
H  H49  1  0.43080000  0.44180000  0.27120000  1.0 0.1006691949
H  H50  1  0.55820000  0.56920000  0.77120000  1.0 0.1006691949
H  H51  1  0.40000000  0.29600000  0.30810000  1.0 0.1314398576
H  H52  1  0.70400000  0.60000000  0.80810000  1.0 0.1314398576
H  H53  1  0.68150000  0.48130000  0.35450000  1.0 0.1197210992
H  H54  1  0.51870000  0.31850000  0.85450000  1.0 0.1197210992
H  H55  1  0.70780000  0.61660000  0.30840000  1.0 0.1006691949
H  H56  1  0.38340000  0.29220000  0.80840000  1.0 0.1006691949
H  H57  1  0.13080000  0.86340000  0.46990000  1.0 0.1105033146
H  H58  1  0.13660000  0.86920000  0.96990000  1.0 0.1105033146
H  H59  1  0.29860000  0.01580000  0.47370000  1.0 0.1392610698
H  H60  1  0.98420000  0.70140000  0.97370000  1.0 0.1392610698
H  H61  1  0.22150000  0.13010000  0.37900000  1.0 0.1392610698
H  H62  1  0.86990000  0.77850000  0.87900000  1.0 0.1392610698
H  H63  1  0.05690000  0.96890000  0.37660000  1.0 0.1006691949
H  H64  1  0.03110000  0.94310000  0.87660000  1.0 0.1006691949
H  H65  1  0.86450000  0.42670000  0.49530000  1.0 0.1006691949
H  H66  1  0.57330000  0.13550000  0.99530000  1.0 0.1006691949
H  H67  1  0.73850000  0.41070000  0.44960000  1.0 0.1197210992
H  H68  1  0.58930000  0.26150000  0.94960000  1.0 0.1197210992
H  H69  1  0.53220000  0.14700000  0.51630000  1.0 0.1314398576
H  H70  1  0.85300000  0.46780000  0.01630000  1.0 0.1314398576
H  H71  1  0.66300000  0.20080000  0.57210000  1.0 0.1006691949
H  H72  1  0.79920000  0.33700000  0.07210000  1.0 0.1006691949
H  H73  1  0.94480000  0.94080000  0.43740000  1.0 0.0916954782
H  H74  1  0.05920000  0.05520000  0.93740000  1.0 0.0916954782
H  H75  1  0.84990000  0.94790000  0.47760000  1.0 0.1392610698
H  H76  1  0.05210000  0.15010000  0.97760000  1.0 0.1392610698
H  H77  1  0.78100000  0.69140000  0.54590000  1.0 0.1392610698
H  H78  1  0.30860000  0.21900000  0.04590000  1.0 0.1392610698
H  H79  1  0.85540000  0.70220000  0.49010000  1.0 0.1105033146
H  H80  1  0.29780000  0.14460000  0.99010000  1.0 0.1105033146
H  H81  1  0.78760000  0.14640000  0.64700000  1.0 0.1105033146
H  H82  1  0.85360000  0.21240000  0.14700000  1.0 0.1105033146
H  H83  1  0.72730000  0.00190000  0.64170000  1.0 0.1392610698
H  H84  1  0.99810000  0.27270000  0.14170000  1.0 0.1392610698
H  H85  1  0.78360000  0.04580000  0.52190000  1.0 0.1392610698
H  H86  1  0.95420000  0.21640000  0.02190000  1.0 0.1392610698
H  H87  1  0.84490000  0.20910000  0.51800000  1.0 0.1197210992
H  H88  1  0.79090000  0.15510000  0.01800000  1.0 0.1197210992
H  H89  1  0.59100000  0.59560000  0.61410000  1.0 0.1314398576
H  H90  1  0.40440000  0.40900000  0.11410000  1.0 0.1314398576
H  H91  1  0.55420000  0.74380000  0.66300000  1.0 0.1459905674
H  H92  1  0.25620000  0.44580000  0.16300000  1.0 0.1459905674
H  H93  1  0.45430000  0.44230000  0.65690000  1.0 0.1105033146
H  H94  1  0.55770000  0.54570000  0.15690000  1.0 0.1105033146
H  H95  1  0.43130000  0.59810000  0.70510000  1.0 0.1105033146
H  H96  1  0.40190000  0.56870000  0.20510000  1.0 0.1105033146
C  C1  1  0.16850000  0.98610000  0.27780000  1.0 0.0610057299
C  C2  1  0.01390000  0.83150000  0.77780000  1.0 0.0610057299
C  C3  1  0.14910000  0.91590000  0.30560000  1.0 -0.1394683087
C  C4  1  0.08410000  0.85090000  0.80560000  1.0 -0.1394683087
C  C5  1  0.07170000  0.82150000  0.29760000  1.0 0.0496282771
C  C6  1  0.17850000  0.92830000  0.79760000  1.0 0.0496282771
C  C7  1  0.00680000  0.79440000  0.26040000  1.0 -0.1205482799
C  C8  1  0.20560000  0.99320000  0.76040000  1.0 -0.1205482799
C  C9  1  0.01590000  0.86470000  0.23530000  1.0 0.0431608912
C  C10  1  0.13530000  0.98410000  0.73530000  1.0 0.0431608912
C  C11  1  0.05620000  0.74320000  0.33000000  1.0 0.3802064527
C  C12  1  0.25680000  0.94380000  0.83000000  1.0 0.3802064527
C  C13  1  0.11680000  0.70220000  0.38990000  1.0 0.3687230914
C  C14  1  0.29780000  0.88320000  0.88990000  1.0 0.3687230914
C  C15  1  0.97430000  0.58570000  0.35690000  1.0 0.3513023798
C  C16  1  0.41430000  0.02570000  0.85690000  1.0 0.3513023798
C  C17  1  0.25570000  0.68690000  0.49490000  1.0 0.1197210992
C  C18  1  0.31310000  0.74430000  0.99490000  1.0 0.1197210992
C  C19  1  0.18300000  0.66020000  0.45820000  1.0 -0.170094278
C  C20  1  0.33980000  0.81700000  0.95820000  1.0 -0.170094278
C  C21  1  0.19190000  0.73310000  0.42740000  1.0 0.0688880319
C  C22  1  0.26690000  0.80810000  0.92740000  1.0 0.0688880319
C  C23  1  0.28060000  0.82180000  0.43340000  1.0 -0.152060565
C  C24  1  0.17820000  0.71940000  0.93340000  1.0 -0.152060565
C  C25  1  0.34450000  0.84790000  0.47090000  1.0 0.0688880319
C  C26  1  0.15210000  0.65550000  0.97090000  1.0 0.0688880319
C  C27  1  0.70900000  0.33920000  0.33390000  1.0 0.1197210992
C  C28  1  0.66080000  0.29100000  0.83390000  1.0 0.1197210992
C  C29  1  0.79240000  0.44420000  0.33200000  1.0 -0.189792669
C  C30  1  0.55580000  0.20760000  0.83200000  1.0 -0.189792669
C  C31  1  0.88210000  0.48130000  0.35550000  1.0 0.0792152074
C  C32  1  0.51870000  0.11790000  0.85550000  1.0 0.0792152074
C  C33  1  0.87840000  0.41980000  0.38130000  1.0 -0.1313402323
C  C34  1  0.58020000  0.12160000  0.88130000  1.0 -0.1313402323
C  C35  1  0.80460000  0.31900000  0.38430000  1.0 0.0496282771
C  C36  1  0.68100000  0.19540000  0.88430000  1.0 0.0496282771
C  C37  1  0.65010000  0.07770000  0.31840000  1.0 0.0916954782
C  C38  1  0.92230000  0.34990000  0.81840000  1.0 0.1006691949
C  C39  1  0.67390000  0.04830000  0.29140000  1.0 -0.189792669
C  C40  1  0.95170000  0.32610000  0.79140000  1.0 -0.2021324585
C  C41  1  0.60840000  0.99920000  0.25510000  1.0 0.0792152074
C  C42  1  0.00080000  0.39160000  0.75510000  1.0 0.0792152074
C  C43  1  0.53060000  0.98320000  0.24740000  1.0 -0.1205482799
C  C44  1  0.01680000  0.46940000  0.74740000  1.0 -0.1205482799
C  C45  1  0.51950000  0.03310000  0.27780000  1.0 0.0610057299
C  C46  1  0.96690000  0.48050000  0.77780000  1.0 0.0610057299
C  C47  1  0.62600000  0.96460000  0.22150000  1.0 0.3802064527
C  C48  1  0.03540000  0.37400000  0.72150000  1.0 0.3802064527
C  C49  1  0.72510000  0.96070000  0.18750000  1.0 0.399492221
C  C50  1  0.03930000  0.27490000  0.68750000  1.0 0.399492221
C  C51  1  0.56670000  0.86590000  0.16830000  1.0 0.3632802536
C  C52  1  0.13410000  0.43330000  0.66830000  1.0 0.3632802536
C  C53  1  0.93020000  0.99540000  0.16150000  1.0 0.1006691949
C  C54  1  0.00460000  0.06980000  0.66150000  1.0 0.1006691949
C  C55  1  0.83820000  0.97120000  0.15520000  1.0 -0.1394683087
C  C56  1  0.02880000  0.16180000  0.65520000  1.0 -0.1394683087
C  C57  1  0.82250000  0.98790000  0.18970000  1.0 0.0496282771
C  C58  1  0.01210000  0.17750000  0.68970000  1.0 0.0496282771
C  C59  1  0.90750000  0.05550000  0.22100000  1.0 -0.170094278
C  C60  1  0.94450000  0.09250000  0.72100000  1.0 -0.170094278
C  C61  1  0.98230000  0.07210000  0.21850000  1.0 0.0688880319
C  C62  1  0.92790000  0.01770000  0.71850000  1.0 0.0688880319
C  C63  1  0.30560000  0.68820000  0.12250000  1.0 0.0496282771
C  C64  1  0.31180000  0.69440000  0.62250000  1.0 0.0496282771
C  C65  1  0.37690000  0.75250000  0.14760000  1.0 -0.1394683087
C  C66  1  0.24750000  0.62310000  0.64760000  1.0 -0.1394683087
C  C67  1  0.47400000  0.78720000  0.14180000  1.0 0.0792152074
C  C68  1  0.21280000  0.52600000  0.64180000  1.0 0.0792152074
C  C69  1  0.48440000  0.74960000  0.11280000  1.0 -0.152060565
C  C70  1  0.25040000  0.51560000  0.61280000  1.0 -0.152060565
C  C71  1  0.39970000  0.67910000  0.08500000  1.0 0.0610057299
C  C72  1  0.32090000  0.60030000  0.58500000  1.0 0.0610057299
C  C73  1  0.48320000  0.44880000  0.28710000  1.0 0.0496282771
C  C74  1  0.55120000  0.51680000  0.78710000  1.0 0.0496282771
C  C75  1  0.45510000  0.36270000  0.31360000  1.0 -0.1607015039
C  C76  1  0.63730000  0.54490000  0.81360000  1.0 -0.1607015039
C  C77  1  0.52860000  0.39980000  0.35030000  1.0 0.0431608912
C  C78  1  0.60020000  0.47140000  0.85030000  1.0 0.0431608912
C  C79  1  0.63020000  0.47860000  0.34120000  1.0 -0.1607015039
C  C80  1  0.52140000  0.36980000  0.84120000  1.0 -0.1607015039
C  C81  1  0.64390000  0.55290000  0.30930000  1.0 0.1006691949
C  C82  1  0.44710000  0.35610000  0.80930000  1.0 0.1006691949
C  C83  1  0.49960000  0.32220000  0.38590000  1.0 0.3687230914
C  C84  1  0.67780000  0.50040000  0.88590000  1.0 0.3687230914
C  C85  1  0.38760000  0.17360000  0.42290000  1.0 0.3513023798
C  C86  1  0.82640000  0.61240000  0.92290000  1.0 0.3513023798
C  C87  1  0.54280000  0.27140000  0.44480000  1.0 0.3384771441
C  C88  1  0.72860000  0.45720000  0.94480000  1.0 0.3384771441
C  C89  1  0.14920000  0.91760000  0.44990000  1.0 0.027231956
C  C90  1  0.08240000  0.85080000  0.94990000  1.0 0.027231956
C  C91  1  0.25270000  0.01150000  0.45250000  1.0 -0.1313402323
C  C92  1  0.98850000  0.74730000  0.95250000  1.0 -0.1313402323
C  C93  1  0.28160000  0.08720000  0.42660000  1.0 0.0610057299
C  C94  1  0.91280000  0.71840000  0.92660000  1.0 0.0610057299
C  C95  1  0.20740000  0.07620000  0.39760000  1.0 -0.152060565
C  C96  1  0.92380000  0.79260000  0.89760000  1.0 -0.152060565
C  C97  1  0.10460000  0.97520000  0.39730000  1.0 0.1006691949
C  C98  1  0.02480000  0.89540000  0.89730000  1.0 0.1105033146
C  C99  1  0.79750000  0.37310000  0.50070000  1.0 0.0792152074
C  C100  1  0.62690000  0.20250000  0.00070000  1.0 0.0792152074
C  C101  1  0.71980000  0.36040000  0.47230000  1.0 -0.1313402323
C  C102  1  0.63960000  0.28020000  0.97230000  1.0 -0.1313402323
C  C103  1  0.61690000  0.27790000  0.47580000  1.0 0.0610057299
C  C104  1  0.72210000  0.38310000  0.97580000  1.0 0.0610057299
C  C105  1  0.59690000  0.20870000  0.51260000  1.0 -0.152060565
C  C106  1  0.79130000  0.40310000  0.01260000  1.0 -0.1394683087
C  C107  1  0.67790000  0.23570000  0.54370000  1.0 0.1105033146
C  C108  1  0.76430000  0.32210000  0.04370000  1.0 0.1105033146
C  C109  1  0.89670000  0.88510000  0.45580000  1.0 0.0916954782
C  C110  1  0.11490000  0.10330000  0.95580000  1.0 0.0916954782
C  C111  1  0.84960000  0.89640000  0.48240000  1.0 -0.170094278
C  C112  1  0.10360000  0.15040000  0.98240000  1.0 -0.170094278
C  C113  1  0.80280000  0.82000000  0.51670000  1.0 0.1006691949
C  C114  1  0.18000000  0.19720000  0.01670000  1.0 0.1006691949
C  C115  1  0.80590000  0.74050000  0.52180000  1.0 -0.1783622608
C  C116  1  0.25950000  0.19410000  0.02180000  1.0 -0.1783622608
C  C117  1  0.84840000  0.74800000  0.48810000  1.0 0.1006691949
C  C118  1  0.25200000  0.15160000  0.98810000  1.0 0.0916954782
C  C119  1  0.76800000  0.83840000  0.55120000  1.0 0.3687230914
C  C120  1  0.16160000  0.23200000  0.05120000  1.0 0.3687230914
C  C121  1  0.75590000  0.92810000  0.58040000  1.0 0.3384771441
C  C122  1  0.07190000  0.24410000  0.08040000  1.0 0.3384771441
C  C123  1  0.79750000  0.13330000  0.62120000  1.0 0.0916954782
C  C124  1  0.86670000  0.20250000  0.12120000  1.0 0.0916954782
C  C125  1  0.76780000  0.05080000  0.61910000  1.0 -0.2021324585
C  C126  1  0.94920000  0.23220000  0.11910000  1.0 -0.2021324585
C  C127  1  0.78850000  0.01930000  0.58500000  1.0 0.0496282771
C  C128  1  0.98070000  0.21150000  0.08500000  1.0 0.0496282771
C  C129  1  0.65800000  0.76060000  0.60440000  1.0 0.399492221
C  C130  1  0.23940000  0.34200000  0.10440000  1.0 0.399492221
C  C131  1  0.79890000  0.07290000  0.54910000  1.0 -0.152060565
C  C132  1  0.92710000  0.20110000  0.04910000  1.0 -0.152060565
C  C133  1  0.83110000  0.16950000  0.54510000  1.0 0.0792152074
C  C134  1  0.83050000  0.16890000  0.04510000  1.0 0.0792152074
C  C135  1  0.58070000  0.67830000  0.63440000  1.0 0.0688880319
C  C136  1  0.32170000  0.41930000  0.13440000  1.0 0.0688880319
C  C137  1  0.55740000  0.59820000  0.63260000  1.0 -0.1394683087
C  C138  1  0.40180000  0.44260000  0.13260000  1.0 -0.1394683087
C  C139  1  0.53770000  0.68410000  0.66080000  1.0 -0.170094278
C  C140  1  0.31590000  0.46230000  0.16080000  1.0 -0.170094278
C  C141  1  0.47640000  0.50460000  0.65950000  1.0 0.1105033146
C  C142  1  0.49540000  0.52360000  0.15950000  1.0 0.1105033146
C  C143  1  0.46470000  0.59590000  0.68620000  1.0 0.1006691949
C  C144  1  0.40410000  0.53530000  0.18620000  1.0 0.1006691949
I  I1  1  0.25151000  0.23325000  0.23022000  1.0 -0.427629305
I  I2  1  0.76675000  0.74849000  0.73022000  1.0 -0.427629305
I  I3  1  0.13972000  0.04028000  0.12251000  1.0 -0.427629305
I  I4  1  0.95972000  0.86028000  0.62251000  1.0 -0.427629305
I  I5  1  0.51989000  0.95847000  0.58112000  1.0 -0.427629305
I  I6  1  0.04153000  0.48011000  0.08112000  1.0 -0.427629305
I  I7  1  0.52912000  0.77948000  0.50486000  1.0 -0.417555971
I  I8  1  0.22052000  0.47088000  0.00486000  1.0 -0.417555971
I  I9  1  0.43343000  0.10311000  0.34520000  1.0 -0.3902157625
I  I10  1  0.89689000  0.56657000  0.84520000  1.0 -0.3902157625
I  I11  1  0.61444000  0.07180000  0.44392000  1.0 -0.4577012267
I  I12  1  0.92820000  0.38556000  0.94392000  1.0 -0.4577012267
I  I13  1  0.75564000  0.72132000  0.19552000  1.0 -0.427629305
I  I14  1  0.27868000  0.24436000  0.69552000  1.0 -0.427629305
I  I15  1  0.57627000  0.73191000  0.27141000  1.0 -0.4397218854
I  I16  1  0.26809000  0.42373000  0.77141000  1.0 -0.4397218854
I  I17  1  0.86871000  0.80623000  0.33680000  1.0 -0.4026395957
I  I18  1  0.19377000  0.13129000  0.83680000  1.0 -0.4026395957
I  I19  1  0.91322000  0.63676000  0.44179000  1.0 -0.4577012267
I  I20  1  0.36324000  0.08678000  0.94179000  1.0 -0.4577012267
I  I21  1  0.83845000  0.34295000  0.65334000  1.0 -0.4397218854
I  I22  1  0.65705000  0.16155000  0.15334000  1.0 -0.4397218854
I  I23  1  0.02977000  0.45289000  0.54625000  1.0 -0.4397218854
I  I24  1  0.54711000  0.97023000  0.04625000  1.0 -0.4397218854
N  N1  1  0.10860000  0.97420000  0.24060000  1.0 -0.189792669
N  N2  1  0.02580000  0.89140000  0.74060000  1.0 -0.189792669
N  N3  1  0.12720000  0.77400000  0.36290000  1.0 -0.3902157625
N  N4  1  0.22600000  0.87280000  0.86290000  1.0 -0.3902157625
N  N5  1  0.04600000  0.60400000  0.38710000  1.0 -0.3902157625
N  N6  1  0.39600000  0.95400000  0.88710000  1.0 -0.3902157625
N  N7  1  0.97820000  0.64660000  0.32430000  1.0 -0.3814885672
N  N8  1  0.35340000  0.02180000  0.82430000  1.0 -0.3814885672
N  N9  1  0.33120000  0.77640000  0.49950000  1.0 -0.1607015039
N  N10  1  0.22360000  0.66880000  0.99950000  1.0 -0.1607015039
N  N11  1  0.71530000  0.28390000  0.36210000  1.0 -0.170094278
N  N12  1  0.71610000  0.28470000  0.86210000  1.0 -0.170094278
N  N13  1  0.58560000  0.07580000  0.31420000  1.0 -0.1783622608
N  N14  1  0.92420000  0.41440000  0.81420000  1.0 -0.1783622608
N  N15  1  0.71270000  0.98590000  0.22080000  1.0 -0.3814885672
N  N16  1  0.01410000  0.28730000  0.72080000  1.0 -0.3814885672
N  N17  1  0.65280000  0.89520000  0.16030000  1.0 -0.4026395957
N  N18  1  0.10480000  0.34720000  0.66030000  1.0 -0.4026395957
N  N19  1  0.54630000  0.89410000  0.19650000  1.0 -0.3639046381
N  N20  1  0.10590000  0.45370000  0.69650000  1.0 -0.3639046381
N  N21  1  0.99180000  0.03320000  0.19450000  1.0 -0.1783622608
N  N22  1  0.96680000  0.00820000  0.69450000  1.0 -0.1783622608
N  N23  1  0.31290000  0.65290000  0.08890000  1.0 -0.2021324585
N  N24  1  0.34710000  0.68710000  0.58890000  1.0 -0.2021324585
N  N25  1  0.57480000  0.53900000  0.28160000  1.0 -0.2094164918
N  N26  1  0.46100000  0.42520000  0.78160000  1.0 -0.2094164918
N  N27  1  0.40630000  0.24090000  0.39080000  1.0 -0.3814885672
N  N28  1  0.75910000  0.59370000  0.89080000  1.0 -0.3814885672
N  N29  1  0.45490000  0.18290000  0.45240000  1.0 -0.3902157625
N  N30  1  0.81710000  0.54510000  0.95240000  1.0 -0.3902157625
N  N31  1  0.57430000  0.33910000  0.41040000  1.0 -0.3902157625
N  N32  1  0.66090000  0.42570000  0.91040000  1.0 -0.3902157625
N  N33  1  0.07730000  0.90510000  0.41910000  1.0 -0.1607015039
N  N34  1  0.09490000  0.92270000  0.91910000  1.0 -0.1607015039
N  N35  1  0.76990000  0.30490000  0.53530000  1.0 -0.189792669
N  N36  1  0.69510000  0.23010000  0.03530000  1.0 -0.189792669
N  N37  1  0.87960000  0.80700000  0.45470000  1.0 -0.189792669
N  N38  1  0.19300000  0.12040000  0.95470000  1.0 -0.189792669
N  N39  1  0.80080000  0.92720000  0.55190000  1.0 -0.3902157625
N  N40  1  0.07280000  0.19920000  0.05190000  1.0 -0.3902157625
N  N41  1  0.69190000  0.84970000  0.60720000  1.0 -0.3814885672
N  N42  1  0.15030000  0.30810000  0.10720000  1.0 -0.3814885672
N  N43  1  0.70060000  0.75660000  0.57550000  1.0 -0.3733784984
N  N44  1  0.24340000  0.29940000  0.07550000  1.0 -0.3733784984
N  N45  1  0.83940000  0.19840000  0.59070000  1.0 -0.189792669
N  N46  1  0.80160000  0.16060000  0.09070000  1.0 -0.189792669
N  N47  1  0.44180000  0.51740000  0.68530000  1.0 -0.152060565
N  N48  1  0.48260000  0.55820000  0.18530000  1.0 -0.152060565
