# DDEC6 charges by PACMAN v1.1 (https://github.com/mtap-research/PACMAN-charge/)
data_REXYAX_FSR_pacman
_symmetry_space_group_name_H-M   'P 1'
_cell_length_a   13.14410000
_cell_length_b   13.14410000
_cell_length_c   11.83800000
_cell_angle_alpha   70.90760000
_cell_angle_beta   109.09200000
_cell_angle_gamma   150.89700000
_symmetry_Int_Tables_number   1
_chemical_formula_structural   Cd3H26(C5O3)6
_chemical_formula_sum   'Cd3 H26 C30 O18'
_cell_volume   936.23642070
_cell_formula_units_Z   1
loop_
 _symmetry_equiv_pos_site_id
 _symmetry_equiv_pos_as_xyz
  1  'x, y, z'
loop_
 _atom_site_type_symbol
 _atom_site_label
 _atom_site_symmetry_multiplicity
 _atom_site_fract_x
 _atom_site_fract_y
 _atom_site_fract_z
 _atom_site_occupancy
 _atom_site_charge
Cd  Cd1  1  0.50000000  0.50000000  0.00000000  1.0 0.9293060787
Cd  Cd2  1  0.10884000  0.89116000  0.19708000  1.0 0.9756174571
Cd  Cd3  1  0.89116000  0.10884000  0.80292000  1.0 0.9756174571
H  H1  1  0.22880000  0.01540000  0.97800000  1.0 0.1951244958
H  H2  1  0.89350000  0.86130000  0.23430000  1.0 0.3770309575
H  H3  1  0.71020000  0.88640000  0.47870000  1.0 0.1446802753
H  H4  1  0.73750000  0.86330000  0.30980000  1.0 0.1113094688
H  H5  1  0.02460000  0.87020000  0.95750000  1.0 0.1113094688
H  H6  1  0.01540000  0.22880000  0.02200000  1.0 0.1951244958
H  H7  1  0.86130000  0.89350000  0.76570000  1.0 0.3770309575
H  H8  1  0.88640000  0.71020000  0.52130000  1.0 0.1446802753
H  H9  1  0.86330000  0.73750000  0.69020000  1.0 0.1113094688
H  H10  1  0.87020000  0.02460000  0.04250000  1.0 0.1113094688
H  H11  1  0.77120000  0.98460000  0.02200000  1.0 0.1951244958
H  H12  1  0.10650000  0.13870000  0.76570000  1.0 0.3770309575
H  H13  1  0.28980000  0.11360000  0.52130000  1.0 0.1446802753
H  H14  1  0.26250000  0.13670000  0.69020000  1.0 0.1113094688
H  H15  1  0.97540000  0.12980000  0.04250000  1.0 0.1113094688
H  H16  1  0.98460000  0.77120000  0.97800000  1.0 0.1951244958
H  H17  1  0.13870000  0.10650000  0.23430000  1.0 0.3770309575
H  H18  1  0.11360000  0.28980000  0.47870000  1.0 0.1446802753
H  H19  1  0.13670000  0.26250000  0.30980000  1.0 0.1113094688
H  H20  1  0.12980000  0.97540000  0.95750000  1.0 0.1113094688
H  H21  1  0.28450000  0.71550000  0.79630000  1.0 0.1261528618
H  H22  1  0.20650000  0.79350000  0.62400000  1.0 0.1224608756
H  H23  1  0.30430000  0.69570000  0.42190000  1.0 0.1446802753
H  H24  1  0.71550000  0.28450000  0.20370000  1.0 0.1261528618
H  H25  1  0.79350000  0.20650000  0.37600000  1.0 0.1224608756
H  H26  1  0.69570000  0.30430000  0.57810000  1.0 0.1446802753
C  C1  1  0.59440000  0.75940000  0.44470000  1.0 -0.1915582009
C  C2  1  0.60980000  0.74540000  0.34340000  1.0 -0.1005787341
C  C3  1  0.75940000  0.59440000  0.55530000  1.0 -0.1915582009
C  C4  1  0.74540000  0.60980000  0.65660000  1.0 -0.1005787341
C  C5  1  0.40560000  0.24060000  0.55530000  1.0 -0.1915582009
C  C6  1  0.39020000  0.25460000  0.65660000  1.0 -0.1005787341
C  C7  1  0.24060000  0.40560000  0.44470000  1.0 -0.1915582009
C  C8  1  0.25460000  0.39020000  0.34340000  1.0 -0.1005787341
C  C9  1  0.39344000  0.60656000  0.81770000  1.0 0.5896482356
C  C10  1  0.34119000  0.65881000  0.71130000  1.0 -0.144071322
C  C11  1  0.28861000  0.71139000  0.72120000  1.0 -0.0797938966
C  C12  1  0.24199000  0.75801000  0.61790000  1.0 -0.1005787341
C  C13  1  0.24772000  0.75228000  0.50670000  1.0 0.0011866083
C  C14  1  0.19696000  0.80304000  0.39520000  1.0 0.5357596166
C  C15  1  0.30012000  0.69988000  0.49700000  1.0 -0.2168962173
C  C16  1  0.34618000  0.65382000  0.59990000  1.0 0.2204071991
C  C17  1  0.41138000  0.58862000  0.49450000  1.0 0.2204071991
C  C18  1  0.43970000  0.56030000  0.29080000  1.0 -0.0442139507
C  C19  1  0.45636000  0.54364000  0.18220000  1.0 0.5455300695
C  C20  1  0.60656000  0.39344000  0.18230000  1.0 0.5896482356
C  C21  1  0.65881000  0.34119000  0.28870000  1.0 -0.144071322
C  C22  1  0.71139000  0.28861000  0.27880000  1.0 -0.0797938966
C  C23  1  0.75801000  0.24199000  0.38210000  1.0 -0.1005787341
C  C24  1  0.75228000  0.24772000  0.49330000  1.0 0.0011866083
C  C25  1  0.80304000  0.19696000  0.60480000  1.0 0.5357596166
C  C26  1  0.69988000  0.30012000  0.50300000  1.0 -0.2168962173
C  C27  1  0.65382000  0.34618000  0.40010000  1.0 0.2204071991
C  C28  1  0.58862000  0.41138000  0.50550000  1.0 0.2204071991
C  C29  1  0.56030000  0.43970000  0.70920000  1.0 -0.0442139507
C  C30  1  0.54364000  0.45636000  0.81780000  1.0 0.5455300695
O  O1  1  0.25081000  0.41939000  0.86097000  1.0 -0.5525078885
O  O2  1  0.29907000  0.37153000  0.13740000  1.0 -0.5337187283
O  O3  1  0.41939000  0.25081000  0.13903000  1.0 -0.5525078885
O  O4  1  0.37153000  0.29907000  0.86260000  1.0 -0.5337187283
O  O5  1  0.74919000  0.58061000  0.13903000  1.0 -0.5525078885
O  O6  1  0.70093000  0.62847000  0.86260000  1.0 -0.5337187283
O  O7  1  0.58061000  0.74919000  0.86097000  1.0 -0.5525078885
O  O8  1  0.62847000  0.70093000  0.13740000  1.0 -0.5337187283
O  O9  1  0.40105000  0.59895000  0.60250000  1.0 -0.2107521706
O  O10  1  0.20348000  0.79652000  0.29340000  1.0 -0.537781508
O  O11  1  0.14992000  0.85008000  0.40350000  1.0 -0.537781508
O  O12  1  0.10780000  0.89220000  0.00360000  1.0 -0.4814566635
O  O13  1  0.02555000  0.97445000  0.22100000  1.0 -0.7173910849
O  O14  1  0.59895000  0.40105000  0.39750000  1.0 -0.2107521706
O  O15  1  0.79652000  0.20348000  0.70660000  1.0 -0.537781508
O  O16  1  0.85008000  0.14992000  0.59650000  1.0 -0.5337187283
O  O17  1  0.89220000  0.10780000  0.99640000  1.0 -0.4814566635
O  O18  1  0.97445000  0.02555000  0.77900000  1.0 -0.7173910849
