# DDEC6 charges by PACMAN v1.1 (https://github.com/mtap-research/PACMAN-charge/)
data_REZXIE01_FSR_pacman
_symmetry_space_group_name_H-M   'P 1'
_cell_length_a   13.87100000
_cell_length_b   13.87100000
_cell_length_c   12.66300000
_cell_angle_alpha   90.00000000
_cell_angle_beta   90.00000000
_cell_angle_gamma   120.00000000
_symmetry_Int_Tables_number   1
_chemical_formula_structural   Fe3(C3O4)4
_chemical_formula_sum   'Fe6 C24 O32'
_cell_volume   2110.00158743
_cell_formula_units_Z   2
loop_
 _symmetry_equiv_pos_site_id
 _symmetry_equiv_pos_as_xyz
  1  'x, y, z'
loop_
 _atom_site_type_symbol
 _atom_site_label
 _atom_site_symmetry_multiplicity
 _atom_site_fract_x
 _atom_site_fract_y
 _atom_site_fract_z
 _atom_site_occupancy
 _atom_site_charge
Fe  Fe1  1  0.77060000  0.28660000  0.25000000  1.0 1.2079230059
Fe  Fe2  1  0.51600000  0.22940000  0.25000000  1.0 1.2079230059
Fe  Fe3  1  0.28660000  0.77060000  0.75000000  1.0 1.2079230059
Fe  Fe4  1  0.71340000  0.48400000  0.25000000  1.0 1.2079230059
Fe  Fe5  1  0.48400000  0.71340000  0.75000000  1.0 1.2079230059
Fe  Fe6  1  0.22940000  0.51600000  0.75000000  1.0 1.2079230059
C  C1  1  0.88200000  0.47540000  0.11130000  1.0 0.5774288882
C  C2  1  0.59340000  0.11800000  0.38870000  1.0 0.5774288882
C  C3  1  0.47540000  0.88200000  0.61130000  1.0 0.5774288882
C  C4  1  0.52460000  0.40660000  0.11130000  1.0 0.5774288882
C  C5  1  0.40660000  0.52460000  0.88870000  1.0 0.5774288882
C  C6  1  0.88200000  0.47540000  0.38870000  1.0 0.5774288882
C  C7  1  0.11800000  0.59340000  0.61130000  1.0 0.5774288882
C  C8  1  0.59340000  0.11800000  0.11130000  1.0 0.5774288882
C  C9  1  0.47540000  0.88200000  0.88870000  1.0 0.5774288882
C  C10  1  0.52460000  0.40660000  0.38870000  1.0 0.5774288882
C  C11  1  0.40660000  0.52460000  0.61130000  1.0 0.5774288882
C  C12  1  0.11800000  0.59340000  0.88870000  1.0 0.5774288882
C  C13  1  0.99120000  0.50720000  0.05820000  1.0 0.0171847713
C  C14  1  0.51600000  0.00880000  0.44180000  1.0 0.0171847713
C  C15  1  0.50720000  0.99120000  0.55820000  1.0 0.0171847713
C  C16  1  0.49280000  0.48400000  0.05820000  1.0 0.0171847713
C  C17  1  0.48400000  0.49280000  0.94180000  1.0 0.0171847713
C  C18  1  0.99120000  0.50720000  0.44180000  1.0 0.0171847713
C  C19  1  0.00880000  0.51600000  0.55820000  1.0 0.0171847713
C  C20  1  0.51600000  0.00880000  0.05820000  1.0 0.0171847713
C  C21  1  0.50720000  0.99120000  0.94180000  1.0 0.0171847713
C  C22  1  0.49280000  0.48400000  0.44180000  1.0 0.0171847713
C  C23  1  0.48400000  0.49280000  0.55820000  1.0 0.0171847713
C  C24  1  0.00880000  0.51600000  0.94180000  1.0 0.0171847713
O  O1  1  0.66666667  0.33333333  0.25000000  1.0 -0.8072030436
O  O2  1  0.33333333  0.66666667  0.75000000  1.0 -0.8072030436
O  O3  1  0.80810000  0.37860000  0.10650000  1.0 -0.4189226238
O  O4  1  0.57050000  0.19190000  0.39350000  1.0 -0.4189226238
O  O5  1  0.37860000  0.80810000  0.60650000  1.0 -0.4189226238
O  O6  1  0.62140000  0.42950000  0.10650000  1.0 -0.4189226238
O  O7  1  0.42950000  0.62140000  0.89350000  1.0 -0.4189226238
O  O8  1  0.80810000  0.37860000  0.39350000  1.0 -0.4189226238
O  O9  1  0.19190000  0.57050000  0.60650000  1.0 -0.4189226238
O  O10  1  0.57050000  0.19190000  0.10650000  1.0 -0.4189226238
O  O11  1  0.37860000  0.80810000  0.89350000  1.0 -0.4189226238
O  O12  1  0.62140000  0.42950000  0.39350000  1.0 -0.4189226238
O  O13  1  0.42950000  0.62140000  0.60650000  1.0 -0.4189226238
O  O14  1  0.19190000  0.57050000  0.89350000  1.0 -0.4189226238
O  O15  1  0.85220000  0.54540000  0.13560000  1.0 -0.4356573861
O  O16  1  0.69320000  0.14780000  0.36440000  1.0 -0.4356573861
O  O17  1  0.54540000  0.85220000  0.63560000  1.0 -0.4356573861
O  O18  1  0.45460000  0.30680000  0.13560000  1.0 -0.4356573861
O  O19  1  0.30680000  0.45460000  0.86440000  1.0 -0.4356573861
O  O20  1  0.85220000  0.54540000  0.36440000  1.0 -0.4356573861
O  O21  1  0.14780000  0.69320000  0.63560000  1.0 -0.4356573861
O  O22  1  0.69320000  0.14780000  0.13560000  1.0 -0.4356573861
O  O23  1  0.54540000  0.85220000  0.86440000  1.0 -0.4356573861
O  O24  1  0.45460000  0.30680000  0.36440000  1.0 -0.4356573861
O  O25  1  0.30680000  0.45460000  0.63560000  1.0 -0.4356573861
O  O26  1  0.14780000  0.69320000  0.86440000  1.0 -0.4356573861
O  O27  1  0.91920000  0.30460000  0.25000000  1.0 -0.4189226238
O  O28  1  0.38540000  0.08080000  0.25000000  1.0 -0.4189226238
O  O29  1  0.30460000  0.91920000  0.75000000  1.0 -0.4189226238
O  O30  1  0.69540000  0.61460000  0.25000000  1.0 -0.4189226238
O  O31  1  0.61460000  0.69540000  0.75000000  1.0 -0.4189226238
O  O32  1  0.08080000  0.38540000  0.75000000  1.0 -0.4189226238
