# DDEC6 charges by PACMAN v1.1 (https://github.com/mtap-research/PACMAN-charge/)
data_REZXOK_ASR_pacman
_symmetry_space_group_name_H-M   'P 1'
_cell_length_a   18.75290000
_cell_length_b   18.75290000
_cell_length_c   18.74250000
_cell_angle_alpha   90.00000000
_cell_angle_beta   90.00000000
_cell_angle_gamma   120.00000000
_symmetry_Int_Tables_number   1
_chemical_formula_structural   Fe3C36O13
_chemical_formula_sum   'Fe6 C72 O26'
_cell_volume   5708.14539500
_cell_formula_units_Z   2
loop_
 _symmetry_equiv_pos_site_id
 _symmetry_equiv_pos_as_xyz
  1  'x, y, z'
loop_
 _atom_site_type_symbol
 _atom_site_label
 _atom_site_symmetry_multiplicity
 _atom_site_fract_x
 _atom_site_fract_y
 _atom_site_fract_z
 _atom_site_occupancy
 _atom_site_charge
Fe  Fe1  1  0.73450000  0.27590000  0.25000000  1.0 1.0678739739
Fe  Fe2  1  0.54140000  0.26550000  0.25000000  1.0 1.0678739739
Fe  Fe3  1  0.27590000  0.73450000  0.75000000  1.0 1.0636666013
Fe  Fe4  1  0.72410000  0.45860000  0.25000000  1.0 1.0678739739
Fe  Fe5  1  0.45860000  0.72410000  0.75000000  1.0 1.0636666013
Fe  Fe6  1  0.26550000  0.54140000  0.75000000  1.0 1.0636666013
C  C1  1  0.82270000  0.42810000  0.15090000  1.0 0.5819957547
C  C2  1  0.60540000  0.17730000  0.34910000  1.0 0.5819957547
C  C3  1  0.42810000  0.82270000  0.65090000  1.0 0.5819957547
C  C4  1  0.57190000  0.39460000  0.15090000  1.0 0.5819957547
C  C5  1  0.39460000  0.57190000  0.84910000  1.0 0.5819957547
C  C6  1  0.82270000  0.42810000  0.34910000  1.0 0.5819957547
C  C7  1  0.17730000  0.60540000  0.65090000  1.0 0.5819957547
C  C8  1  0.60540000  0.17730000  0.15090000  1.0 0.5819957547
C  C9  1  0.42810000  0.82270000  0.84910000  1.0 0.5819957547
C  C10  1  0.57190000  0.39460000  0.34910000  1.0 0.5819957547
C  C11  1  0.39460000  0.57190000  0.65090000  1.0 0.5819957547
C  C12  1  0.17730000  0.60540000  0.84910000  1.0 0.5819957547
C  C13  1  0.90030000  0.47850000  0.10410000  1.0 -0.026720975
C  C14  1  0.57820000  0.09970000  0.39590000  1.0 -0.026720975
C  C15  1  0.47850000  0.90030000  0.60410000  1.0 -0.026720975
C  C16  1  0.52150000  0.42180000  0.10410000  1.0 -0.026720975
C  C17  1  0.42180000  0.52150000  0.89590000  1.0 -0.026720975
C  C18  1  0.90030000  0.47850000  0.39590000  1.0 -0.026720975
C  C19  1  0.09970000  0.57820000  0.60410000  1.0 -0.026720975
C  C20  1  0.57820000  0.09970000  0.10410000  1.0 -0.026720975
C  C21  1  0.47850000  0.90030000  0.89590000  1.0 -0.026720975
C  C22  1  0.52150000  0.42180000  0.39590000  1.0 -0.026720975
C  C23  1  0.42180000  0.52150000  0.60410000  1.0 -0.026720975
C  C24  1  0.09970000  0.57820000  0.89590000  1.0 -0.026720975
C  C25  1  0.97700000  0.52020000  0.13380000  1.0 -0.057150251
C  C26  1  0.54320000  0.02300000  0.36620000  1.0 -0.057150251
C  C27  1  0.52020000  0.97700000  0.63380000  1.0 -0.057150251
C  C28  1  0.47980000  0.45680000  0.13380000  1.0 -0.057150251
C  C29  1  0.45680000  0.47980000  0.86620000  1.0 -0.057150251
C  C30  1  0.97700000  0.52020000  0.36620000  1.0 -0.057150251
C  C31  1  0.02300000  0.54320000  0.63380000  1.0 -0.057150251
C  C32  1  0.54320000  0.02300000  0.13380000  1.0 -0.057150251
C  C33  1  0.52020000  0.97700000  0.86620000  1.0 -0.057150251
C  C34  1  0.47980000  0.45680000  0.36620000  1.0 -0.057150251
C  C35  1  0.45680000  0.47980000  0.63380000  1.0 -0.057150251
C  C36  1  0.02300000  0.54320000  0.86620000  1.0 -0.057150251
C  C37  1  0.04830000  0.54790000  0.08660000  1.0 -0.007968228
C  C38  1  0.49960000  0.95170000  0.41340000  1.0 -0.007968228
C  C39  1  0.54790000  0.04830000  0.58660000  1.0 -0.007968228
C  C40  1  0.45210000  0.50040000  0.08660000  1.0 -0.007968228
C  C41  1  0.50040000  0.45210000  0.91340000  1.0 -0.007968228
C  C42  1  0.04830000  0.54790000  0.41340000  1.0 -0.007968228
C  C43  1  0.95170000  0.49960000  0.58660000  1.0 -0.007968228
C  C44  1  0.49960000  0.95170000  0.08660000  1.0 -0.007968228
C  C45  1  0.54790000  0.04830000  0.91340000  1.0 -0.007968228
C  C46  1  0.45210000  0.50040000  0.41340000  1.0 -0.007968228
C  C47  1  0.50040000  0.45210000  0.58660000  1.0 -0.007968228
C  C48  1  0.95170000  0.49960000  0.91340000  1.0 -0.007968228
C  C49  1  0.03980000  0.56210000  0.01460000  1.0 0.0530945369
C  C50  1  0.52230000  0.96020000  0.48540000  1.0 0.0584909213
C  C51  1  0.56210000  0.03980000  0.51460000  1.0 0.0530945369
C  C52  1  0.43790000  0.47770000  0.01460000  1.0 0.0530945369
C  C53  1  0.47770000  0.43790000  0.98540000  1.0 0.0530945369
C  C54  1  0.03980000  0.56210000  0.48540000  1.0 0.0530945369
C  C55  1  0.96020000  0.52230000  0.51460000  1.0 0.0530945369
C  C56  1  0.52230000  0.96020000  0.01460000  1.0 0.0584909213
C  C57  1  0.56210000  0.03980000  0.98540000  1.0 0.0530945369
C  C58  1  0.43790000  0.47770000  0.48540000  1.0 0.0530945369
C  C59  1  0.47770000  0.43790000  0.51460000  1.0 0.0530945369
C  C60  1  0.96020000  0.52230000  0.98540000  1.0 0.0530945369
C  C61  1  0.89050000  0.47570000  0.03150000  1.0 -0.0714020545
C  C62  1  0.58520000  0.10950000  0.46850000  1.0 -0.0785079817
C  C63  1  0.47570000  0.89050000  0.53150000  1.0 -0.0714020545
C  C64  1  0.52430000  0.41480000  0.03150000  1.0 -0.0714020545
C  C65  1  0.41480000  0.52430000  0.96850000  1.0 -0.0714020545
C  C66  1  0.89050000  0.47570000  0.46850000  1.0 -0.0714020545
C  C67  1  0.10950000  0.58520000  0.53150000  1.0 -0.0714020545
C  C68  1  0.58520000  0.10950000  0.03150000  1.0 -0.0785079817
C  C69  1  0.47570000  0.89050000  0.96850000  1.0 -0.0714020545
C  C70  1  0.52430000  0.41480000  0.46850000  1.0 -0.0714020545
C  C71  1  0.41480000  0.52430000  0.53150000  1.0 -0.0714020545
C  C72  1  0.10950000  0.58520000  0.96850000  1.0 -0.0714020545
O  O1  1  0.66666667  0.33333333  0.25000000  1.0 -0.802574377
O  O2  1  0.33333333  0.66666667  0.75000000  1.0 -0.802574377
O  O3  1  0.81610000  0.36710000  0.18060000  1.0 -0.4488841342
O  O4  1  0.55100000  0.18390000  0.31940000  1.0 -0.4425208973
O  O5  1  0.36710000  0.81610000  0.68060000  1.0 -0.4488841342
O  O6  1  0.63290000  0.44900000  0.18060000  1.0 -0.4488841342
O  O7  1  0.44900000  0.63290000  0.81940000  1.0 -0.4488841342
O  O8  1  0.81610000  0.36710000  0.31940000  1.0 -0.4488841342
O  O9  1  0.18390000  0.55100000  0.68060000  1.0 -0.4488841342
O  O10  1  0.55100000  0.18390000  0.18060000  1.0 -0.4425208973
O  O11  1  0.36710000  0.81610000  0.81940000  1.0 -0.4488841342
O  O12  1  0.63290000  0.44900000  0.31940000  1.0 -0.4488841342
O  O13  1  0.44900000  0.63290000  0.68060000  1.0 -0.4488841342
O  O14  1  0.18390000  0.55100000  0.81940000  1.0 -0.4488841342
O  O15  1  0.78740000  0.46080000  0.17340000  1.0 -0.4223981487
O  O16  1  0.67340000  0.21260000  0.32660000  1.0 -0.4223981487
O  O17  1  0.46080000  0.78740000  0.67340000  1.0 -0.4223981487
O  O18  1  0.53920000  0.32660000  0.17340000  1.0 -0.4251873302
O  O19  1  0.32660000  0.53920000  0.82660000  1.0 -0.4223981487
O  O20  1  0.78740000  0.46080000  0.32660000  1.0 -0.4223981487
O  O21  1  0.21260000  0.67340000  0.67340000  1.0 -0.4223981487
O  O22  1  0.67340000  0.21260000  0.17340000  1.0 -0.4223981487
O  O23  1  0.46080000  0.78740000  0.82660000  1.0 -0.4223981487
O  O24  1  0.53920000  0.32660000  0.32660000  1.0 -0.4251873302
O  O25  1  0.32660000  0.53920000  0.67340000  1.0 -0.4223981487
O  O26  1  0.21260000  0.67340000  0.82660000  1.0 -0.4223981487
