# DDEC6 charges by PACMAN v1.1 (https://github.com/mtap-research/PACMAN-charge/)
data_REZXIE_ASR_pacman
_symmetry_space_group_name_H-M   'P 1'
_cell_length_a   13.87110000
_cell_length_b   13.87110000
_cell_length_c   12.66300000
_cell_angle_alpha   90.00000000
_cell_angle_beta   90.00000000
_cell_angle_gamma   120.00000000
_symmetry_Int_Tables_number   1
_chemical_formula_structural   Fe3C12O13
_chemical_formula_sum   'Fe6 C24 O26'
_cell_volume   2110.03201074
_cell_formula_units_Z   2
loop_
 _symmetry_equiv_pos_site_id
 _symmetry_equiv_pos_as_xyz
  1  'x, y, z'
loop_
 _atom_site_type_symbol
 _atom_site_label
 _atom_site_symmetry_multiplicity
 _atom_site_fract_x
 _atom_site_fract_y
 _atom_site_fract_z
 _atom_site_occupancy
 _atom_site_charge
Fe  Fe1  1  0.77060000  0.28660000  0.25000000  1.0 1.0161227829
Fe  Fe2  1  0.51600000  0.22940000  0.25000000  1.0 1.0161227829
Fe  Fe3  1  0.28660000  0.77060000  0.75000000  1.0 1.0147436507
Fe  Fe4  1  0.71340000  0.48400000  0.25000000  1.0 1.0161227829
Fe  Fe5  1  0.48400000  0.71340000  0.75000000  1.0 1.0147436507
Fe  Fe6  1  0.22940000  0.51600000  0.75000000  1.0 1.0147436507
C  C1  1  0.88200000  0.47540000  0.11130000  1.0 0.5789556153
C  C2  1  0.59340000  0.11800000  0.38870000  1.0 0.5789556153
C  C3  1  0.47540000  0.88200000  0.61130000  1.0 0.5789556153
C  C4  1  0.52460000  0.40660000  0.11130000  1.0 0.5789556153
C  C5  1  0.40660000  0.52460000  0.88870000  1.0 0.5789556153
C  C6  1  0.88200000  0.47540000  0.38870000  1.0 0.5789556153
C  C7  1  0.11800000  0.59340000  0.61130000  1.0 0.5789556153
C  C8  1  0.59340000  0.11800000  0.11130000  1.0 0.5789556153
C  C9  1  0.47540000  0.88200000  0.88870000  1.0 0.5789556153
C  C10  1  0.52460000  0.40660000  0.38870000  1.0 0.5789556153
C  C11  1  0.40660000  0.52460000  0.61130000  1.0 0.5789556153
C  C12  1  0.11800000  0.59340000  0.88870000  1.0 0.5789556153
C  C13  1  0.99120000  0.50720000  0.05820000  1.0 -0.0467780764
C  C14  1  0.51600000  0.00880000  0.44180000  1.0 -0.0443071113
C  C15  1  0.50720000  0.99120000  0.55820000  1.0 -0.0467780764
C  C16  1  0.49280000  0.48400000  0.05820000  1.0 -0.0467780764
C  C17  1  0.48400000  0.49280000  0.94180000  1.0 -0.0443071113
C  C18  1  0.99120000  0.50720000  0.44180000  1.0 -0.0443071113
C  C19  1  0.00880000  0.51600000  0.55820000  1.0 -0.0467780764
C  C20  1  0.51600000  0.00880000  0.05820000  1.0 -0.0467780764
C  C21  1  0.50720000  0.99120000  0.94180000  1.0 -0.0443071113
C  C22  1  0.49280000  0.48400000  0.44180000  1.0 -0.0467780764
C  C23  1  0.48400000  0.49280000  0.55820000  1.0 -0.0467780764
C  C24  1  0.00880000  0.51600000  0.94180000  1.0 -0.0443071113
O  O1  1  0.66666667  0.33333333  0.25000000  1.0 -0.8486951046
O  O2  1  0.33333333  0.66666667  0.75000000  1.0 -0.8486951046
O  O3  1  0.80810000  0.37860000  0.10650000  1.0 -0.4109013729
O  O4  1  0.57050000  0.19190000  0.39350000  1.0 -0.4109013729
O  O5  1  0.37860000  0.80810000  0.60650000  1.0 -0.4109013729
O  O6  1  0.62140000  0.42950000  0.10650000  1.0 -0.4109013729
O  O7  1  0.42950000  0.62140000  0.89350000  1.0 -0.4109013729
O  O8  1  0.80810000  0.37860000  0.39350000  1.0 -0.4109013729
O  O9  1  0.19190000  0.57050000  0.60650000  1.0 -0.4109013729
O  O10  1  0.57050000  0.19190000  0.10650000  1.0 -0.4109013729
O  O11  1  0.37860000  0.80810000  0.89350000  1.0 -0.4109013729
O  O12  1  0.62140000  0.42950000  0.39350000  1.0 -0.4109013729
O  O13  1  0.42950000  0.62140000  0.60650000  1.0 -0.4109013729
O  O14  1  0.19190000  0.57050000  0.89350000  1.0 -0.4109013729
O  O15  1  0.85220000  0.54540000  0.13560000  1.0 -0.4885731591
O  O16  1  0.69320000  0.14780000  0.36440000  1.0 -0.4885731591
O  O17  1  0.54540000  0.85220000  0.63560000  1.0 -0.4885731591
O  O18  1  0.45460000  0.30680000  0.13560000  1.0 -0.4885731591
O  O19  1  0.30680000  0.45460000  0.86440000  1.0 -0.4885731591
O  O20  1  0.85220000  0.54540000  0.36440000  1.0 -0.4885731591
O  O21  1  0.14780000  0.69320000  0.63560000  1.0 -0.4885731591
O  O22  1  0.69320000  0.14780000  0.13560000  1.0 -0.4885731591
O  O23  1  0.54540000  0.85220000  0.86440000  1.0 -0.4885731591
O  O24  1  0.45460000  0.30680000  0.36440000  1.0 -0.4885731591
O  O25  1  0.30680000  0.45460000  0.63560000  1.0 -0.4885731591
O  O26  1  0.14780000  0.69320000  0.86440000  1.0 -0.4885731591
