# DDEC6 charges by PACMAN v1.1 (https://github.com/mtap-research/PACMAN-charge/)
data_RIBGAO_ASR_pacman
_symmetry_space_group_name_H-M   'P 1'
_cell_length_a   19.40390000
_cell_length_b   19.40390000
_cell_length_c   21.02080000
_cell_angle_alpha   90.00000000
_cell_angle_beta   90.00000000
_cell_angle_gamma   120.00000000
_symmetry_Int_Tables_number   1
_chemical_formula_structural   Mn2NiH16C34(SO2)4
_chemical_formula_sum   'Mn12 Ni6 H96 C204 S24 O48'
_cell_volume   6854.21822552
_cell_formula_units_Z   6
loop_
 _symmetry_equiv_pos_site_id
 _symmetry_equiv_pos_as_xyz
  1  'x, y, z'
loop_
 _atom_site_type_symbol
 _atom_site_label
 _atom_site_symmetry_multiplicity
 _atom_site_fract_x
 _atom_site_fract_y
 _atom_site_fract_z
 _atom_site_occupancy
 _atom_site_charge
Mn  Mn1  1  0.26714000  0.62159000  0.33057000  1.0 1.064417732
Mn  Mn2  1  0.37841000  0.64555000  0.99724000  1.0 1.064417732
Mn  Mn3  1  0.35445000  0.73286000  0.66390000  1.0 1.064417732
Mn  Mn4  1  0.73286000  0.37841000  0.83057000  1.0 1.064417732
Mn  Mn5  1  0.62159000  0.35445000  0.49724000  1.0 1.0658070566
Mn  Mn6  1  0.64555000  0.26714000  0.16390000  1.0 1.0658070566
Mn  Mn7  1  0.27108000  0.70690000  0.50317000  1.0 1.0090117179
Mn  Mn8  1  0.29310000  0.56418000  0.16984000  1.0 1.0090117179
Mn  Mn9  1  0.43582000  0.72892000  0.83650000  1.0 1.0090117179
Mn  Mn10  1  0.72892000  0.29310000  0.00317000  1.0 1.0090117179
Mn  Mn11  1  0.70690000  0.43582000  0.66984000  1.0 1.0090117179
Mn  Mn12  1  0.56418000  0.27108000  0.33650000  1.0 1.0090117179
Ni  Ni1  1  0.91082000  0.94380000  0.34593000  1.0 0.0619386693
Ni  Ni2  1  0.05620000  0.96702000  0.01260000  1.0 0.0619386693
Ni  Ni3  1  0.03298000  0.08918000  0.67926000  1.0 0.0619386693
Ni  Ni4  1  0.08918000  0.05620000  0.84593000  1.0 0.0619386693
Ni  Ni5  1  0.94380000  0.03298000  0.51260000  1.0 0.0619386693
Ni  Ni6  1  0.96702000  0.91082000  0.17926000  1.0 0.0619386693
H  H1  1  0.06158000  0.38717000  0.35308000  1.0 0.1279547447
H  H2  1  0.61283000  0.67441000  0.01975000  1.0 0.1279547447
H  H3  1  0.32559000  0.93842000  0.68641000  1.0 0.1279547447
H  H4  1  0.93842000  0.61283000  0.85308000  1.0 0.1279547447
H  H5  1  0.38717000  0.32559000  0.51975000  1.0 0.1279547447
H  H6  1  0.67441000  0.06158000  0.18641000  1.0 0.1279547447
H  H7  1  0.05071000  0.64941000  0.30314000  1.0 0.1220538448
H  H8  1  0.35059000  0.40130000  0.96981000  1.0 0.1220538448
H  H9  1  0.59870000  0.94929000  0.63647000  1.0 0.1220538448
H  H10  1  0.94929000  0.35059000  0.80314000  1.0 0.1220538448
H  H11  1  0.64941000  0.59870000  0.46981000  1.0 0.1220538448
H  H12  1  0.40130000  0.05071000  0.13647000  1.0 0.1220538448
H  H13  1  0.80020000  0.25170000  0.23793000  1.0 0.1220538448
H  H14  1  0.74830000  0.54850000  0.90460000  1.0 0.1220538448
H  H15  1  0.45150000  0.19980000  0.57126000  1.0 0.1220538448
H  H16  1  0.19980000  0.74830000  0.73793000  1.0 0.1220538448
H  H17  1  0.25170000  0.45150000  0.40460000  1.0 0.1220538448
H  H18  1  0.54850000  0.80020000  0.07126000  1.0 0.1220538448
H  H19  1  0.74451000  0.67434000  0.28462000  1.0 0.1099659817
H  H20  1  0.32566000  0.07017000  0.95129000  1.0 0.1099659817
H  H21  1  0.92983000  0.25549000  0.61795000  1.0 0.1099659817
H  H22  1  0.25549000  0.32566000  0.78462000  1.0 0.1099659817
H  H23  1  0.67434000  0.92983000  0.45129000  1.0 0.1099659817
H  H24  1  0.07017000  0.74451000  0.11795000  1.0 0.1099659817
H  H25  1  0.96798000  0.25343000  0.37339000  1.0 0.1220538448
H  H26  1  0.74657000  0.71455000  0.04006000  1.0 0.1220538448
H  H27  1  0.28545000  0.03202000  0.70672000  1.0 0.1220538448
H  H28  1  0.03202000  0.74657000  0.87339000  1.0 0.1220538448
H  H29  1  0.25343000  0.28545000  0.54006000  1.0 0.1220538448
H  H30  1  0.71455000  0.96798000  0.20672000  1.0 0.1220538448
H  H31  1  0.78204000  0.51436000  0.42696000  1.0 0.1220538448
H  H32  1  0.48564000  0.26768000  0.09363000  1.0 0.1220538448
H  H33  1  0.73232000  0.21796000  0.76029000  1.0 0.1220538448
H  H34  1  0.21796000  0.48564000  0.92696000  1.0 0.1220538448
H  H35  1  0.51436000  0.73232000  0.59363000  1.0 0.1220538448
H  H36  1  0.26768000  0.78204000  0.26029000  1.0 0.1220538448
H  H37  1  0.07545000  0.18905000  0.24253000  1.0 0.1220538448
H  H38  1  0.81095000  0.88640000  0.90920000  1.0 0.1220538448
H  H39  1  0.11360000  0.92455000  0.57586000  1.0 0.1220538448
H  H40  1  0.92455000  0.81095000  0.74253000  1.0 0.1220538448
H  H41  1  0.18905000  0.11360000  0.40920000  1.0 0.1220538448
H  H42  1  0.88640000  0.07545000  0.07586000  1.0 0.1220538448
H  H43  1  0.86494000  0.64947000  0.43042000  1.0 0.1220538448
H  H44  1  0.35053000  0.21547000  0.09709000  1.0 0.1220538448
H  H45  1  0.78453000  0.13506000  0.76375000  1.0 0.1220538448
H  H46  1  0.13506000  0.35053000  0.93042000  1.0 0.1220538448
H  H47  1  0.64947000  0.78453000  0.59709000  1.0 0.1220538448
H  H48  1  0.21547000  0.86494000  0.26375000  1.0 0.1220538448
H  H49  1  0.66185000  0.53783000  0.28447000  1.0 0.1220538448
H  H50  1  0.46217000  0.12402000  0.95114000  1.0 0.1220538448
H  H51  1  0.87598000  0.33815000  0.61780000  1.0 0.1220538448
H  H52  1  0.33815000  0.46217000  0.78447000  1.0 0.1220538448
H  H53  1  0.53783000  0.87598000  0.45114000  1.0 0.1220538448
H  H54  1  0.12402000  0.66185000  0.11780000  1.0 0.1220538448
H  H55  1  0.16594000  0.32091000  0.22534000  1.0 0.1220538448
H  H56  1  0.67909000  0.84503000  0.89201000  1.0 0.1220538448
H  H57  1  0.15497000  0.83406000  0.55867000  1.0 0.1220538448
H  H58  1  0.83406000  0.67909000  0.72534000  1.0 0.1220538448
H  H59  1  0.32091000  0.15497000  0.39201000  1.0 0.1220538448
H  H60  1  0.84503000  0.16594000  0.05867000  1.0 0.1220538448
H  H61  1  0.95870000  0.69354000  0.29513000  1.0 0.1220538448
H  H62  1  0.30646000  0.26516000  0.96180000  1.0 0.1220538448
H  H63  1  0.73484000  0.04130000  0.62846000  1.0 0.1220538448
H  H64  1  0.04130000  0.30646000  0.79513000  1.0 0.1220538448
H  H65  1  0.69354000  0.73484000  0.46180000  1.0 0.1220538448
H  H66  1  0.26516000  0.95870000  0.12846000  1.0 0.1220538448
H  H67  1  0.66382000  0.10887000  0.37864000  1.0 0.1220538448
H  H68  1  0.89113000  0.55495000  0.04531000  1.0 0.1220538448
H  H69  1  0.44505000  0.33618000  0.71197000  1.0 0.1220538448
H  H70  1  0.33618000  0.89113000  0.87864000  1.0 0.1220538448
H  H71  1  0.10887000  0.44505000  0.54531000  1.0 0.1220538448
H  H72  1  0.55495000  0.66382000  0.21197000  1.0 0.1220538448
H  H73  1  0.14782000  0.78726000  0.45375000  1.0 0.1279547447
H  H74  1  0.21274000  0.36056000  0.12042000  1.0 0.1279547447
H  H75  1  0.63944000  0.85218000  0.78708000  1.0 0.1279547447
H  H76  1  0.85218000  0.21274000  0.95375000  1.0 0.1279547447
H  H77  1  0.78726000  0.63944000  0.62042000  1.0 0.1279547447
H  H78  1  0.36056000  0.14782000  0.28708000  1.0 0.1279547447
H  H79  1  0.88325000  0.19965000  0.24587000  1.0 0.1099659817
H  H80  1  0.80035000  0.68360000  0.91254000  1.0 0.1099659817
H  H81  1  0.31640000  0.11675000  0.57920000  1.0 0.1099659817
H  H82  1  0.11675000  0.80035000  0.74587000  1.0 0.1099659817
H  H83  1  0.19965000  0.31640000  0.41254000  1.0 0.1099659817
H  H84  1  0.68360000  0.88325000  0.07920000  1.0 0.1099659817
H  H85  1  0.06332000  0.83700000  0.44407000  1.0 0.1220538448
H  H86  1  0.16300000  0.22632000  0.11074000  1.0 0.1220538448
H  H87  1  0.77368000  0.93668000  0.77740000  1.0 0.1220538448
H  H88  1  0.93668000  0.16300000  0.94407000  1.0 0.1220538448
H  H89  1  0.83700000  0.77368000  0.61074000  1.0 0.1220538448
H  H90  1  0.22632000  0.06332000  0.27740000  1.0 0.1220538448
H  H91  1  0.74730000  0.05645000  0.38624000  1.0 0.1099659817
H  H92  1  0.94355000  0.69085000  0.05291000  1.0 0.1099659817
H  H93  1  0.30915000  0.25270000  0.71957000  1.0 0.1099659817
H  H94  1  0.25270000  0.94355000  0.88624000  1.0 0.1099659817
H  H95  1  0.05645000  0.30915000  0.55291000  1.0 0.1099659817
H  H96  1  0.69085000  0.74730000  0.21957000  1.0 0.1099659817
C  C1  1  0.72620000  0.18820000  0.30860000  1.0 -0.0237067513
C  C2  1  0.81180000  0.53800000  0.97527000  1.0 -0.0237067513
C  C3  1  0.46200000  0.27380000  0.64193000  1.0 -0.0237067513
C  C4  1  0.27380000  0.81180000  0.80860000  1.0 -0.0237067513
C  C5  1  0.18820000  0.46200000  0.47527000  1.0 -0.0237067513
C  C6  1  0.53800000  0.72620000  0.14193000  1.0 -0.0237067513
C  C7  1  0.86760000  0.76500000  0.35700000  1.0 -0.0889765352
C  C8  1  0.23500000  0.10260000  0.02367000  1.0 -0.0889765352
C  C9  1  0.89740000  0.13240000  0.69033000  1.0 -0.0889765352
C  C10  1  0.13240000  0.23500000  0.85700000  1.0 -0.0889765352
C  C11  1  0.76500000  0.89740000  0.52367000  1.0 -0.0889765352
C  C12  1  0.10260000  0.86760000  0.19033000  1.0 -0.0889765352
C  C13  1  0.00240000  0.77110000  0.36820000  1.0 0.1029691678
C  C14  1  0.22890000  0.23130000  0.03487000  1.0 0.1029691678
C  C15  1  0.76870000  0.99760000  0.70153000  1.0 0.1029691678
C  C16  1  0.99760000  0.22890000  0.86820000  1.0 0.1029691678
C  C17  1  0.77110000  0.76870000  0.53487000  1.0 0.1029691678
C  C18  1  0.23130000  0.00240000  0.20153000  1.0 0.1029691678
C  C19  1  0.17270000  0.69290000  0.38170000  1.0 0.5826300883
C  C20  1  0.30710000  0.47980000  0.04837000  1.0 0.5826300883
C  C21  1  0.52020000  0.82730000  0.71503000  1.0 0.5826300883
C  C22  1  0.82730000  0.30710000  0.88170000  1.0 0.5908762423
C  C23  1  0.69290000  0.52020000  0.54837000  1.0 0.5826300883
C  C24  1  0.47980000  0.17270000  0.21503000  1.0 0.5826300883
C  C25  1  0.87370000  0.08380000  0.32380000  1.0 -0.0828023208
C  C26  1  0.91620000  0.78990000  0.99047000  1.0 -0.0828023208
C  C27  1  0.21010000  0.12630000  0.65713000  1.0 -0.0889765352
C  C28  1  0.12630000  0.91620000  0.82380000  1.0 -0.0889765352
C  C29  1  0.08380000  0.21010000  0.49047000  1.0 -0.0889765352
C  C30  1  0.78990000  0.87370000  0.15713000  1.0 -0.0889765352
C  C31  1  0.11070000  0.71840000  0.37870000  1.0 -0.0302451777
C  C32  1  0.28160000  0.39230000  0.04537000  1.0 -0.0302451777
C  C33  1  0.60770000  0.88930000  0.71203000  1.0 -0.0302451777
C  C34  1  0.88930000  0.28160000  0.87870000  1.0 -0.0302451777
C  C35  1  0.71840000  0.60770000  0.54537000  1.0 -0.0302451777
C  C36  1  0.39230000  0.11070000  0.21203000  1.0 -0.0302451777
C  C37  1  0.11850000  0.36430000  0.28410000  1.0 -0.0357509041
C  C38  1  0.63570000  0.75420000  0.95077000  1.0 -0.0357509041
C  C39  1  0.24580000  0.88150000  0.61743000  1.0 -0.0357509041
C  C40  1  0.88150000  0.63570000  0.78410000  1.0 -0.0357509041
C  C41  1  0.36430000  0.24580000  0.45077000  1.0 -0.0357509041
C  C42  1  0.75420000  0.11850000  0.11743000  1.0 -0.0357509041
C  C43  1  0.06290000  0.34680000  0.33030000  1.0 -0.0828023208
C  C44  1  0.65320000  0.71610000  0.99697000  1.0 -0.0828023208
C  C45  1  0.28390000  0.93710000  0.66363000  1.0 -0.0828023208
C  C46  1  0.93710000  0.65320000  0.83030000  1.0 -0.0828023208
C  C47  1  0.34680000  0.28390000  0.49697000  1.0 -0.0828023208
C  C48  1  0.71610000  0.06290000  0.16363000  1.0 -0.0828023208
C  C49  1  0.94870000  0.80450000  0.36230000  1.0 -0.0977752112
C  C50  1  0.19550000  0.14420000  0.02897000  1.0 -0.0977752112
C  C51  1  0.85580000  0.05130000  0.69563000  1.0 -0.0977752112
C  C52  1  0.05130000  0.19550000  0.86230000  1.0 -0.0977752112
C  C53  1  0.80450000  0.85580000  0.52897000  1.0 -0.0977752112
C  C54  1  0.14420000  0.94870000  0.19563000  1.0 -0.0977752112
C  C55  1  0.71410000  0.51180000  0.35540000  1.0 -0.0302451777
C  C56  1  0.48820000  0.20230000  0.02207000  1.0 -0.0302451777
C  C57  1  0.79770000  0.28590000  0.68873000  1.0 -0.0302451777
C  C58  1  0.28590000  0.48820000  0.85540000  1.0 -0.0302451777
C  C59  1  0.51180000  0.79770000  0.52207000  1.0 -0.0302451777
C  C60  1  0.20230000  0.71410000  0.18873000  1.0 -0.0302451777
C  C61  1  0.05290000  0.68740000  0.33130000  1.0 -0.0889765352
C  C62  1  0.31260000  0.36550000  0.99797000  1.0 -0.0889765352
C  C63  1  0.63450000  0.94710000  0.66463000  1.0 -0.0889765352
C  C64  1  0.94710000  0.31260000  0.83130000  1.0 -0.0889765352
C  C65  1  0.68740000  0.63450000  0.49797000  1.0 -0.0889765352
C  C66  1  0.36550000  0.05290000  0.16463000  1.0 -0.0889765352
C  C67  1  0.81380000  0.67650000  0.35640000  1.0 0.1029691678
C  C68  1  0.32350000  0.13730000  0.02307000  1.0 0.1099659817
C  C69  1  0.86270000  0.18620000  0.68973000  1.0 0.1029691678
C  C70  1  0.18620000  0.32350000  0.85640000  1.0 0.1029691678
C  C71  1  0.67650000  0.86270000  0.52307000  1.0 0.1029691678
C  C72  1  0.13730000  0.81380000  0.18973000  1.0 0.1099659817
C  C73  1  0.79010000  0.21300000  0.26830000  1.0 -0.0977752112
C  C74  1  0.78700000  0.57710000  0.93497000  1.0 -0.0977752112
C  C75  1  0.42290000  0.20990000  0.60163000  1.0 -0.0977752112
C  C76  1  0.20990000  0.78700000  0.76830000  1.0 -0.0977752112
C  C77  1  0.21300000  0.42290000  0.43497000  1.0 -0.0977752112
C  C78  1  0.57710000  0.79010000  0.10163000  1.0 -0.0977752112
C  C79  1  0.75280000  0.64280000  0.31340000  1.0 -0.1590292109
C  C80  1  0.35720000  0.11000000  0.98007000  1.0 -0.1590292109
C  C81  1  0.89000000  0.24720000  0.64673000  1.0 -0.1590292109
C  C82  1  0.24720000  0.35720000  0.81340000  1.0 -0.1590292109
C  C83  1  0.64280000  0.89000000  0.48007000  1.0 -0.1590292109
C  C84  1  0.11000000  0.75280000  0.14673000  1.0 -0.1590292109
C  C85  1  0.00740000  0.26630000  0.34300000  1.0 -0.1311566592
C  C86  1  0.73370000  0.74110000  0.00967000  1.0 -0.1311566592
C  C87  1  0.25890000  0.99260000  0.67633000  1.0 -0.1311566592
C  C88  1  0.99260000  0.73370000  0.84300000  1.0 -0.1311566592
C  C89  1  0.26630000  0.25890000  0.50967000  1.0 -0.1311566592
C  C90  1  0.74110000  0.00740000  0.17633000  1.0 -0.1311566592
C  C91  1  0.77440000  0.54640000  0.39820000  1.0 -0.0889765352
C  C92  1  0.45360000  0.22800000  0.06487000  1.0 -0.0889765352
C  C93  1  0.77200000  0.22560000  0.73153000  1.0 -0.0889765352
C  C94  1  0.22560000  0.45360000  0.89820000  1.0 -0.0889765352
C  C95  1  0.54640000  0.77200000  0.56487000  1.0 -0.0889765352
C  C96  1  0.22800000  0.77440000  0.23153000  1.0 -0.0889765352
C  C97  1  0.82350000  0.12000000  0.31740000  1.0 0.0889804708
C  C98  1  0.88000000  0.70350000  0.98407000  1.0 0.0889804708
C  C99  1  0.29650000  0.17650000  0.65073000  1.0 0.0889804708
C  C100  1  0.17650000  0.88000000  0.81740000  1.0 0.0889804708
C  C101  1  0.12000000  0.29650000  0.48407000  1.0 0.0889804708
C  C102  1  0.70350000  0.82350000  0.15073000  1.0 0.0889804708
C  C103  1  0.07140000  0.22800000  0.26520000  1.0 -0.1477549775
C  C104  1  0.77200000  0.84340000  0.93187000  1.0 -0.1477549775
C  C105  1  0.15660000  0.92860000  0.59853000  1.0 -0.1477549775
C  C106  1  0.92860000  0.77200000  0.76520000  1.0 -0.1477549775
C  C107  1  0.22800000  0.15660000  0.43187000  1.0 -0.1477549775
C  C108  1  0.84340000  0.07140000  0.09853000  1.0 -0.1477549775
C  C109  1  0.82440000  0.62720000  0.40040000  1.0 -0.1311566592
C  C110  1  0.37280000  0.19720000  0.06707000  1.0 -0.1311566592
C  C111  1  0.80280000  0.17560000  0.73373000  1.0 -0.1311566592
C  C112  1  0.17560000  0.37280000  0.90040000  1.0 -0.1311566592
C  C113  1  0.62720000  0.80280000  0.56707000  1.0 -0.1311566592
C  C114  1  0.19720000  0.82440000  0.23373000  1.0 -0.1311566592
C  C115  1  0.65610000  0.42390000  0.35230000  1.0 0.5826300883
C  C116  1  0.57610000  0.23220000  0.01897000  1.0 0.5826300883
C  C117  1  0.76780000  0.34390000  0.68563000  1.0 0.5826300883
C  C118  1  0.34390000  0.57610000  0.85230000  1.0 0.5826300883
C  C119  1  0.42390000  0.76780000  0.51897000  1.0 0.5826300883
C  C120  1  0.23220000  0.65610000  0.18563000  1.0 0.5826300883
C  C121  1  0.17840000  0.44980000  0.27070000  1.0 0.595557662
C  C122  1  0.55020000  0.72860000  0.93737000  1.0 0.595557662
C  C123  1  0.27140000  0.82160000  0.60403000  1.0 0.595557662
C  C124  1  0.82160000  0.55020000  0.77070000  1.0 0.595557662
C  C125  1  0.44980000  0.27140000  0.43737000  1.0 0.595557662
C  C126  1  0.72860000  0.17840000  0.10403000  1.0 0.595557662
C  C127  1  0.70350000  0.56070000  0.31360000  1.0 -0.0889765352
C  C128  1  0.43930000  0.14280000  0.98027000  1.0 -0.0889765352
C  C129  1  0.85720000  0.29650000  0.64693000  1.0 -0.0889765352
C  C130  1  0.29650000  0.43930000  0.81360000  1.0 -0.0889765352
C  C131  1  0.56070000  0.85720000  0.48027000  1.0 -0.0889765352
C  C132  1  0.14280000  0.70350000  0.14693000  1.0 -0.0889765352
C  C133  1  0.12470000  0.30710000  0.25420000  1.0 -0.0889765352
C  C134  1  0.69290000  0.81760000  0.92087000  1.0 -0.0889765352
C  C135  1  0.18240000  0.87530000  0.58753000  1.0 -0.0889765352
C  C136  1  0.87530000  0.69290000  0.75420000  1.0 -0.0889765352
C  C137  1  0.30710000  0.18240000  0.42087000  1.0 -0.0889765352
C  C138  1  0.81760000  0.12470000  0.08753000  1.0 -0.0889765352
C  C139  1  0.99790000  0.71410000  0.32640000  1.0 -0.1436065389
C  C140  1  0.28590000  0.28380000  0.99307000  1.0 -0.1436065389
C  C141  1  0.71620000  0.00210000  0.65973000  1.0 -0.1436065389
C  C142  1  0.00210000  0.28590000  0.82640000  1.0 -0.1436065389
C  C143  1  0.71410000  0.71620000  0.49307000  1.0 -0.1436065389
C  C144  1  0.28380000  0.99790000  0.15973000  1.0 -0.1436065389
C  C145  1  0.70830000  0.12760000  0.35250000  1.0 -0.0889765352
C  C146  1  0.87240000  0.58070000  0.01917000  1.0 -0.0889765352
C  C147  1  0.41930000  0.29170000  0.68583000  1.0 -0.0889765352
C  C148  1  0.29170000  0.87240000  0.85250000  1.0 -0.0889765352
C  C149  1  0.12760000  0.41930000  0.51917000  1.0 -0.0889765352
C  C150  1  0.58070000  0.70830000  0.18583000  1.0 -0.0889765352
C  C151  1  0.11150000  0.77010000  0.42040000  1.0 -0.0828023208
C  C152  1  0.22990000  0.34140000  0.08707000  1.0 -0.0828023208
C  C153  1  0.65860000  0.88850000  0.75373000  1.0 -0.0828023208
C  C154  1  0.88850000  0.22990000  0.92040000  1.0 -0.0828023208
C  C155  1  0.77010000  0.65860000  0.58707000  1.0 -0.0828023208
C  C156  1  0.34140000  0.11150000  0.25373000  1.0 -0.0828023208
C  C157  1  0.83930000  0.18110000  0.27260000  1.0 -0.1311566592
C  C158  1  0.81890000  0.65820000  0.93927000  1.0 -0.1311566592
C  C159  1  0.34180000  0.16070000  0.60593000  1.0 -0.1311566592
C  C160  1  0.16070000  0.81890000  0.77260000  1.0 -0.1311566592
C  C161  1  0.18110000  0.34180000  0.43927000  1.0 -0.1311566592
C  C162  1  0.65820000  0.83930000  0.10593000  1.0 -0.1311566592
C  C163  1  0.01140000  0.20620000  0.31040000  1.0 0.1029691678
C  C164  1  0.79380000  0.80520000  0.97707000  1.0 0.1029691678
C  C165  1  0.19480000  0.98860000  0.64373000  1.0 0.1029691678
C  C166  1  0.98860000  0.79380000  0.81040000  1.0 0.1029691678
C  C167  1  0.20620000  0.19480000  0.47707000  1.0 0.1029691678
C  C168  1  0.80520000  0.01140000  0.14373000  1.0 0.1029691678
C  C169  1  0.05980000  0.79880000  0.41550000  1.0 -0.1477549775
C  C170  1  0.20120000  0.26100000  0.08217000  1.0 -0.1477549775
C  C171  1  0.73900000  0.94020000  0.74883000  1.0 -0.1477549775
C  C172  1  0.94020000  0.20120000  0.91550000  1.0 -0.1477549775
C  C173  1  0.79880000  0.73900000  0.58217000  1.0 -0.1477549775
C  C174  1  0.26100000  0.05980000  0.24883000  1.0 -0.1477549775
C  C175  1  0.95550000  0.12100000  0.32310000  1.0 -0.1099650503
C  C176  1  0.87900000  0.83450000  0.98977000  1.0 -0.1099650503
C  C177  1  0.16550000  0.04450000  0.65643000  1.0 -0.1099650503
C  C178  1  0.04450000  0.87900000  0.82310000  1.0 -0.1099650503
C  C179  1  0.12100000  0.16550000  0.48977000  1.0 -0.1099650503
C  C180  1  0.83450000  0.95550000  0.15643000  1.0 -0.1099650503
C  C181  1  0.75830000  0.09580000  0.35620000  1.0 -0.1477549775
C  C182  1  0.90420000  0.66250000  0.02287000  1.0 -0.1477549775
C  C183  1  0.33750000  0.24170000  0.68953000  1.0 -0.1477549775
C  C184  1  0.24170000  0.90420000  0.85620000  1.0 -0.1477549775
C  C185  1  0.09580000  0.33750000  0.52287000  1.0 -0.1477549775
C  C186  1  0.66250000  0.75830000  0.18953000  1.0 -0.1477549775
C  C187  1  0.67140000  0.22390000  0.30580000  1.0 0.5908762423
C  C188  1  0.77610000  0.44750000  0.97247000  1.0 0.5908762423
C  C189  1  0.55250000  0.32860000  0.63913000  1.0 0.5908762423
C  C190  1  0.32860000  0.77610000  0.80580000  1.0 0.5908762423
C  C191  1  0.22390000  0.55250000  0.47247000  1.0 0.5908762423
C  C192  1  0.44750000  0.67140000  0.13913000  1.0 0.5908762423
C  C193  1  0.91250000  0.97870000  0.34260000  1.0 -0.0727138423
C  C194  1  0.02130000  0.93380000  0.00927000  1.0 -0.0727138423
C  C195  1  0.06620000  0.08750000  0.67593000  1.0 -0.0727138423
C  C196  1  0.08750000  0.02130000  0.84260000  1.0 -0.0727138423
C  C197  1  0.97870000  0.06620000  0.50927000  1.0 -0.0727138423
C  C198  1  0.93380000  0.91250000  0.17593000  1.0 -0.0727138423
C  C199  1  0.90930000  0.90770000  0.34870000  1.0 -0.0828023208
C  C200  1  0.09230000  0.00160000  0.01537000  1.0 -0.0828023208
C  C201  1  0.99840000  0.09070000  0.68203000  1.0 -0.0828023208
C  C202  1  0.09070000  0.09230000  0.84870000  1.0 -0.0828023208
C  C203  1  0.90770000  0.99840000  0.51537000  1.0 -0.0828023208
C  C204  1  0.00160000  0.90930000  0.18203000  1.0 -0.0828023208
S  S1  1  0.99801000  0.90762000  0.35866000  1.0 0.0378395007
S  S2  1  0.09238000  0.09039000  0.02533000  1.0 0.0378395007
S  S3  1  0.90961000  0.00199000  0.69199000  1.0 0.0378395007
S  S4  1  0.00199000  0.09238000  0.85866000  1.0 0.0378395007
S  S5  1  0.90762000  0.90961000  0.52533000  1.0 0.0378395007
S  S6  1  0.09039000  0.99801000  0.19199000  1.0 0.0378395007
S  S7  1  0.82340000  0.98140000  0.33585000  1.0 0.0378395007
S  S8  1  0.01860000  0.84200000  0.00252000  1.0 0.03497737
S  S9  1  0.15800000  0.17660000  0.66918000  1.0 0.0378395007
S  S10  1  0.17660000  0.01860000  0.83585000  1.0 0.0378395007
S  S11  1  0.98140000  0.15800000  0.50252000  1.0 0.0378395007
S  S12  1  0.84200000  0.82340000  0.16918000  1.0 0.0378395007
S  S13  1  0.82026000  0.82001000  0.34999000  1.0 0.066611475
S  S14  1  0.17999000  0.00025000  0.01666000  1.0 0.066611475
S  S15  1  0.99975000  0.17974000  0.68332000  1.0 0.066611475
S  S16  1  0.17974000  0.17999000  0.84999000  1.0 0.066611475
S  S17  1  0.82001000  0.99975000  0.51666000  1.0 0.066611475
S  S18  1  0.00025000  0.82026000  0.18332000  1.0 0.0619386693
S  S19  1  0.00125000  0.06648000  0.33696000  1.0 0.0619386693
S  S20  1  0.93352000  0.93477000  0.00363000  1.0 0.0619386693
S  S21  1  0.06523000  0.99875000  0.67029000  1.0 0.0619386693
S  S22  1  0.99875000  0.93352000  0.83696000  1.0 0.0619386693
S  S23  1  0.06648000  0.06523000  0.50363000  1.0 0.0619386693
S  S24  1  0.93477000  0.00125000  0.17029000  1.0 0.0619386693
O  O1  1  0.16870000  0.64110000  0.34450000  1.0 -0.5283726482
O  O2  1  0.35890000  0.52760000  0.01117000  1.0 -0.5283726482
O  O3  1  0.47240000  0.83130000  0.67783000  1.0 -0.5283726482
O  O4  1  0.83130000  0.35890000  0.84450000  1.0 -0.5283726482
O  O5  1  0.64110000  0.47240000  0.51117000  1.0 -0.5283726482
O  O6  1  0.52760000  0.16870000  0.17783000  1.0 -0.5283726482
O  O7  1  0.66040000  0.37960000  0.39560000  1.0 -0.6245214619
O  O8  1  0.62040000  0.28080000  0.06227000  1.0 -0.6245214619
O  O9  1  0.71920000  0.33960000  0.72893000  1.0 -0.6245214619
O  O10  1  0.33960000  0.62040000  0.89560000  1.0 -0.6245214619
O  O11  1  0.37960000  0.71920000  0.56227000  1.0 -0.6245214619
O  O12  1  0.28080000  0.66040000  0.22893000  1.0 -0.6245214619
O  O13  1  0.22800000  0.72900000  0.42160000  1.0 -0.5570814985
O  O14  1  0.27100000  0.49900000  0.08827000  1.0 -0.5570814985
O  O15  1  0.50100000  0.77200000  0.75493000  1.0 -0.5570814985
O  O16  1  0.77200000  0.27100000  0.92160000  1.0 -0.5570814985
O  O17  1  0.72900000  0.50100000  0.58827000  1.0 -0.5570814985
O  O18  1  0.49900000  0.22800000  0.25493000  1.0 -0.5570814985
O  O19  1  0.61720000  0.20300000  0.34680000  1.0 -0.5503888506
O  O20  1  0.79700000  0.41420000  0.01347000  1.0 -0.5503888506
O  O21  1  0.58580000  0.38280000  0.68013000  1.0 -0.5503888506
O  O22  1  0.38280000  0.79700000  0.84680000  1.0 -0.5503888506
O  O23  1  0.20300000  0.58580000  0.51347000  1.0 -0.5503888506
O  O24  1  0.41420000  0.61720000  0.18013000  1.0 -0.5503888506
O  O25  1  0.60850000  0.39490000  0.30610000  1.0 -0.5283726482
O  O26  1  0.60510000  0.21360000  0.97277000  1.0 -0.5283726482
O  O27  1  0.78640000  0.39150000  0.63943000  1.0 -0.5283726482
O  O28  1  0.39150000  0.60510000  0.80610000  1.0 -0.5283726482
O  O29  1  0.39490000  0.78640000  0.47277000  1.0 -0.5283726482
O  O30  1  0.21360000  0.60850000  0.13943000  1.0 -0.5283726482
O  O31  1  0.68300000  0.27280000  0.26160000  1.0 -0.6078462777
O  O32  1  0.72720000  0.41020000  0.92827000  1.0 -0.6078462777
O  O33  1  0.58980000  0.31700000  0.59493000  1.0 -0.6078462777
O  O34  1  0.31700000  0.72720000  0.76160000  1.0 -0.6078462777
O  O35  1  0.27280000  0.58980000  0.42827000  1.0 -0.6078462777
O  O36  1  0.41020000  0.68300000  0.09493000  1.0 -0.6078462777
O  O37  1  0.18040000  0.50300000  0.30630000  1.0 -0.5503888506
O  O38  1  0.49700000  0.67740000  0.97297000  1.0 -0.5503888506
O  O39  1  0.32260000  0.81960000  0.63963000  1.0 -0.5503888506
O  O40  1  0.81960000  0.49700000  0.80630000  1.0 -0.5503888506
O  O41  1  0.50300000  0.32260000  0.47297000  1.0 -0.5503888506
O  O42  1  0.67740000  0.18040000  0.13963000  1.0 -0.5503888506
O  O43  1  0.22280000  0.46400000  0.22160000  1.0 -0.566788105
O  O44  1  0.53600000  0.75880000  0.88827000  1.0 -0.566788105
O  O45  1  0.24120000  0.77720000  0.55493000  1.0 -0.566788105
O  O46  1  0.77720000  0.53600000  0.72160000  1.0 -0.566788105
O  O47  1  0.46400000  0.24120000  0.38827000  1.0 -0.566788105
O  O48  1  0.75880000  0.22280000  0.05493000  1.0 -0.566788105
