# DDEC6 charges by PACMAN v1.1 (https://github.com/mtap-research/PACMAN-charge/)
data_RICBEM_ASR_pacman
_symmetry_space_group_name_H-M   'P 1'
_cell_length_a   25.03690000
_cell_length_b   25.03690000
_cell_length_c   25.03690000
_cell_angle_alpha   148.05100000
_cell_angle_beta   106.76700000
_cell_angle_gamma   82.12630000
_symmetry_Int_Tables_number   1
_chemical_formula_structural   CuH15C27O4
_chemical_formula_sum   'Cu4 H60 C108 O16'
_cell_volume   7769.74627240
_cell_formula_units_Z   4
loop_
 _symmetry_equiv_pos_site_id
 _symmetry_equiv_pos_as_xyz
  1  'x, y, z'
loop_
 _atom_site_type_symbol
 _atom_site_label
 _atom_site_symmetry_multiplicity
 _atom_site_fract_x
 _atom_site_fract_y
 _atom_site_fract_z
 _atom_site_occupancy
 _atom_site_charge
Cu  Cu1  1  0.87882000  0.40206000  0.32020000  1.0 0.8532566982
Cu  Cu2  1  0.91814000  0.59794000  0.47676000  1.0 0.8532566982
Cu  Cu3  1  0.41814000  0.94138000  0.32020000  1.0 0.8532566982
Cu  Cu4  1  0.37882000  0.05862000  0.47676000  1.0 0.8532566982
H  H1  1  0.89650000  0.59550000  0.29580000  1.0 0.1292104809
H  H2  1  0.70030000  0.40450000  0.30100000  1.0 0.1292104809
H  H3  1  0.20030000  0.89930000  0.29580000  1.0 0.1292104809
H  H4  1  0.39650000  0.10070000  0.30100000  1.0 0.1292104809
H  H5  1  0.59230000  0.10900000  0.50550000  1.0 0.1200327542
H  H6  1  0.39650000  0.89100000  0.48330000  1.0 0.1200327542
H  H7  1  0.89650000  0.41320000  0.50550000  1.0 0.1200327542
H  H8  1  0.09230000  0.58680000  0.48330000  1.0 0.1200327542
H  H9  1  0.78300000  0.27490000  0.94250000  1.0 0.1200327542
H  H10  1  0.66760000  0.72510000  0.50810000  1.0 0.1146082762
H  H11  1  0.16760000  0.65950000  0.94250000  1.0 0.1200327542
H  H12  1  0.28300000  0.34050000  0.50810000  1.0 0.1200327542
H  H13  1  0.82120000  0.29630000  0.05690000  1.0 0.1292104809
H  H14  1  0.76060000  0.70370000  0.52490000  1.0 0.1292104809
H  H15  1  0.26060000  0.73570000  0.05690000  1.0 0.1292104809
H  H16  1  0.32120000  0.26430000  0.52490000  1.0 0.1292104809
H  H17  1  0.75290000  0.36620000  0.78370000  1.0 0.1200327542
H  H18  1  0.41750000  0.63380000  0.38670000  1.0 0.1200327542
H  H19  1  0.91750000  0.53080000  0.78370000  1.0 0.1200327542
H  H20  1  0.25290000  0.46920000  0.38670000  1.0 0.1200327542
H  H21  1  0.86660000  0.54940000  0.16280000  1.0 0.1200327542
H  H22  1  0.61340000  0.45060000  0.31720000  1.0 0.1200327542
H  H23  1  0.11340000  0.79620000  0.16280000  1.0 0.1200327542
H  H24  1  0.36660000  0.20380000  0.31720000  1.0 0.1200327542
H  H25  1  0.63290000  0.34290000  0.85480000  1.0 0.1200327542
H  H26  1  0.51190000  0.65710000  0.29000000  1.0 0.1200327542
H  H27  1  0.01190000  0.72190000  0.85480000  1.0 0.1200327542
H  H28  1  0.13290000  0.27810000  0.29000000  1.0 0.1200327542
H  H29  1  0.69010000  0.19100000  0.61690000  1.0 0.1200327542
H  H30  1  0.42590000  0.80900000  0.49910000  1.0 0.1200327542
H  H31  1  0.92590000  0.42680000  0.61690000  1.0 0.1200327542
H  H32  1  0.19010000  0.57320000  0.49910000  1.0 0.1200327542
H  H33  1  0.83510000  0.76200000  0.17230000  1.0 0.1529726195
H  H34  1  0.41030000  0.23800000  0.07310000  1.0 0.1529726195
H  H35  1  0.91030000  0.83720000  0.17230000  1.0 0.1529726195
H  H36  1  0.33510000  0.16280000  0.07310000  1.0 0.1529726195
H  H37  1  0.78480000  0.56840000  0.96580000  1.0 0.1292104809
H  H38  1  0.39740000  0.43160000  0.21640000  1.0 0.1292104809
H  H39  1  0.89740000  0.68100000  0.96580000  1.0 0.1292104809
H  H40  1  0.28480000  0.31900000  0.21640000  1.0 0.1200327542
H  H41  1  0.72530000  0.31420000  0.89010000  1.0 0.1200327542
H  H42  1  0.57590000  0.68580000  0.41110000  1.0 0.1200327542
H  H43  1  0.07590000  0.66480000  0.89010000  1.0 0.1200327542
H  H44  1  0.22530000  0.33520000  0.41110000  1.0 0.1200327542
H  H45  1  0.87380000  0.47810000  0.02070000  1.0 0.1200327542
H  H46  1  0.54260000  0.52190000  0.39570000  1.0 0.1200327542
H  H47  1  0.04260000  0.64690000  0.02070000  1.0 0.1200327542
H  H48  1  0.37380000  0.35310000  0.39570000  1.0 0.1200327542
H  H49  1  0.53990000  0.24180000  0.73370000  1.0 0.1292104809
H  H50  1  0.49190000  0.75820000  0.29810000  1.0 0.1292104809
H  H51  1  0.99190000  0.69380000  0.73370000  1.0 0.1292104809
H  H52  1  0.03990000  0.30620000  0.29810000  1.0 0.1292104809
H  H53  1  0.90030000  0.29970000  0.82240000  1.0 0.1292104809
H  H54  1  0.52270000  0.70030000  0.60060000  1.0 0.1292104809
H  H55  1  0.02270000  0.42210000  0.82240000  1.0 0.1292104809
H  H56  1  0.40030000  0.57790000  0.60060000  1.0 0.1292104809
H  H57  1  0.96530000  0.21910000  0.74700000  1.0 0.1292104809
H  H58  1  0.52790000  0.78090000  0.74620000  1.0 0.1292104809
H  H59  1  0.02790000  0.28170000  0.74700000  1.0 0.1292104809
H  H60  1  0.46530000  0.71830000  0.74620000  1.0 0.1292104809
C  C1  1  0.49970000  0.10650000  0.52760000  1.0 0.5663858014
C  C2  1  0.42110000  0.89350000  0.39320000  1.0 0.5663858014
C  C3  1  0.92110000  0.52790000  0.52760000  1.0 0.5663858014
C  C4  1  0.99970000  0.47210000  0.39320000  1.0 0.5663858014
C  C5  1  0.87630000  0.52970000  0.22540000  1.0 -0.1121532559
C  C6  1  0.69570000  0.47030000  0.34660000  1.0 -0.1121532559
C  C7  1  0.19570000  0.84910000  0.22540000  1.0 -0.1121532559
C  C8  1  0.37630000  0.15090000  0.34660000  1.0 -0.1121532559
C  C9  1  0.85940000  0.44860000  0.18840000  1.0 0.0029527867
C  C10  1  0.73980000  0.55140000  0.41080000  1.0 0.0029527867
C  C11  1  0.23980000  0.82900000  0.18840000  1.0 0.0029527867
C  C12  1  0.35940000  0.17100000  0.41080000  1.0 0.0029527867
C  C13  1  0.55770000  0.16830000  0.60760000  1.0 -0.0502947173
C  C14  1  0.43930000  0.83170000  0.38940000  1.0 -0.0502947173
C  C15  1  0.93930000  0.54990000  0.60760000  1.0 -0.0502947173
C  C16  1  0.05770000  0.45010000  0.38940000  1.0 -0.0502947173
C  C17  1  0.60180000  0.15340000  0.57480000  1.0 -0.0741346297
C  C18  1  0.42140000  0.84660000  0.44840000  1.0 -0.0741346297
C  C19  1  0.92140000  0.47300000  0.57480000  1.0 -0.0741346297
C  C20  1  0.10180000  0.52700000  0.44840000  1.0 -0.0741346297
C  C21  1  0.81020000  0.33420000  0.00820000  1.0 -0.1791707978
C  C22  1  0.67400000  0.66580000  0.47600000  1.0 -0.1791707978
C  C23  1  0.17400000  0.69800000  0.00820000  1.0 -0.1791707978
C  C24  1  0.31020000  0.30200000  0.47600000  1.0 -0.1791707978
C  C25  1  0.82890000  0.35020000  0.08030000  1.0 -0.0918296189
C  C26  1  0.73010000  0.64980000  0.47870000  1.0 -0.0918296189
C  C27  1  0.23010000  0.75140000  0.08030000  1.0 -0.0918296189
C  C28  1  0.32890000  0.24860000  0.47870000  1.0 -0.0918296189
C  C29  1  0.76660000  0.37230000  0.82770000  1.0 -0.2165825744
C  C30  1  0.45540000  0.62770000  0.39430000  1.0 -0.2165825744
C  C31  1  0.95540000  0.56110000  0.82770000  1.0 -0.2165825744
C  C32  1  0.26660000  0.43890000  0.39430000  1.0 -0.2165825744
C  C33  1  0.85810000  0.49630000  0.14020000  1.0 -0.1791707978
C  C34  1  0.64390000  0.50370000  0.36180000  1.0 -0.1791707978
C  C35  1  0.14390000  0.78210000  0.14020000  1.0 -0.1791707978
C  C36  1  0.35810000  0.21790000  0.36180000  1.0 -0.1791707978
C  C37  1  0.86333000  0.45743000  0.89530000  1.0 -0.0062836357
C  C38  1  0.43787000  0.54257000  0.40590000  1.0 -0.0062836357
C  C39  1  0.93787000  0.53197000  0.89530000  1.0 -0.0062836357
C  C40  1  0.36333000  0.46803000  0.40590000  1.0 -0.0062836357
C  C41  1  0.62460000  0.29040000  0.78260000  1.0 -0.1791707978
C  C42  1  0.49220000  0.70960000  0.33420000  1.0 -0.1791707978
C  C43  1  0.99220000  0.65800000  0.78260000  1.0 -0.1791707978
C  C44  1  0.12460000  0.34200000  0.33420000  1.0 -0.1791707978
C  C45  1  0.66070000  0.20080000  0.63910000  1.0 -0.1791707978
C  C46  1  0.43830000  0.79920000  0.45990000  1.0 -0.1791707978
C  C47  1  0.93830000  0.47840000  0.63910000  1.0 -0.1791707978
C  C48  1  0.16070000  0.52160000  0.45990000  1.0 -0.1791707978
C  C49  1  0.84510000  0.72280000  0.11410000  1.0 -0.1791707978
C  C50  1  0.39130000  0.27720000  0.12230000  1.0 -0.1791707978
C  C51  1  0.89130000  0.76900000  0.11410000  1.0 -0.1687366706
C  C52  1  0.34510000  0.23100000  0.12230000  1.0 -0.1791707978
C  C53  1  0.80560000  0.39420000  0.96460000  1.0 0.0650016996
C  C54  1  0.57040000  0.60580000  0.41140000  1.0 0.0650016996
C  C55  1  0.07040000  0.65900000  0.96460000  1.0 0.0650016996
C  C56  1  0.30560000  0.34100000  0.41140000  1.0 0.0650016996
C  C57  1  0.73310000  0.31760000  0.81390000  1.0 0.0954873129
C  C58  1  0.49630000  0.68240000  0.41550000  1.0 0.0954873129
C  C59  1  0.99630000  0.58080000  0.81390000  1.0 0.0954873129
C  C60  1  0.23310000  0.41920000  0.41550000  1.0 0.0954873129
C  C61  1  0.85680000  0.53980000  0.93540000  1.0 0.0351684349
C  C62  1  0.39560000  0.46020000  0.31700000  1.0 0.0351684349
C  C63  1  0.89560000  0.57860000  0.93540000  1.0 0.0351684349
C  C64  1  0.35680000  0.42140000  0.31700000  1.0 0.0351684349
C  C65  1  0.90380000  0.38420000  0.83540000  1.0 -0.0194305549
C  C66  1  0.45120000  0.61580000  0.51960000  1.0 -0.0194305549
C  C67  1  0.95120000  0.43160000  0.83540000  1.0 -0.0194305549
C  C68  1  0.40380000  0.56840000  0.51960000  1.0 -0.0194305549
C  C69  1  0.87330000  0.45700000  0.26130000  1.0 0.5499855834
C  C70  1  0.80430000  0.54300000  0.41630000  1.0 0.5499855834
C  C71  1  0.30430000  0.88800000  0.26130000  1.0 0.5499855834
C  C72  1  0.37330000  0.11200000  0.41630000  1.0 0.5499855834
C  C73  1  0.82250000  0.59870000  0.99400000  1.0 -0.1335115723
C  C74  1  0.39530000  0.40130000  0.22380000  1.0 -0.1335115723
C  C75  1  0.89530000  0.67150000  0.99400000  1.0 -0.1353607667
C  C76  1  0.32250000  0.32850000  0.22380000  1.0 -0.1335115723
C  C77  1  0.75044000  0.33804000  0.88980000  1.0 -0.2079366637
C  C78  1  0.55176000  0.66196000  0.41240000  1.0 -0.2079366637
C  C79  1  0.05176000  0.63936000  0.88980000  1.0 -0.2079366637
C  C80  1  0.25044000  0.36064000  0.41240000  1.0 -0.2079366637
C  C81  1  0.83000000  0.40170000  0.02830000  1.0 0.0584308714
C  C82  1  0.62660000  0.59830000  0.42830000  1.0 0.0584308714
C  C83  1  0.12660000  0.69830000  0.02830000  1.0 0.0584308714
C  C84  1  0.33000000  0.30170000  0.42830000  1.0 0.0584308714
C  C85  1  0.83740000  0.44000000  0.97060000  1.0 -0.1976963957
C  C86  1  0.53060000  0.56000000  0.39740000  1.0 -0.1976963957
C  C87  1  0.03060000  0.63320000  0.97060000  1.0 -0.1976963957
C  C88  1  0.33740000  0.36680000  0.39740000  1.0 -0.1976963957
C  C89  1  0.66810000  0.26550000  0.74240000  1.0 0.0892084031
C  C90  1  0.47690000  0.73450000  0.40260000  1.0 0.0892084031
C  C91  1  0.97690000  0.57430000  0.74240000  1.0 0.0892084031
C  C92  1  0.16810000  0.42570000  0.40260000  1.0 0.0892084031
C  C93  1  0.56880000  0.23530000  0.71270000  1.0 -0.0741346297
C  C94  1  0.47740000  0.76470000  0.33350000  1.0 -0.0741346297
C  C95  1  0.97740000  0.64390000  0.71270000  1.0 -0.0741346297
C  C96  1  0.06880000  0.35610000  0.33350000  1.0 -0.0741346297
C  C97  1  0.81902000  0.43392000  0.90590000  1.0 0.0892084031
C  C98  1  0.47198000  0.56608000  0.38510000  1.0 0.0892084031
C  C99  1  0.97198000  0.58688000  0.90590000  1.0 0.0892084031
C  C100  1  0.31902000  0.41312000  0.38510000  1.0 0.0892084031
C  C101  1  0.91930000  0.31890000  0.81220000  1.0 -0.1174084511
C  C102  1  0.49330000  0.68110000  0.60040000  1.0 -0.1174084511
C  C103  1  0.99330000  0.39290000  0.81220000  1.0 -0.1174084511
C  C104  1  0.41930000  0.60710000  0.60040000  1.0 -0.1174084511
C  C105  1  0.96000000  0.27650000  0.77510000  1.0 -0.1121532559
C  C106  1  0.49860000  0.72350000  0.68350000  1.0 -0.1121532559
C  C107  1  0.99860000  0.31510000  0.77510000  1.0 -0.1121532559
C  C108  1  0.46000000  0.68490000  0.68350000  1.0 -0.1121532559
O  O1  1  0.49376000  0.03943000  0.43713000  1.0 -0.4457614091
O  O2  1  0.39770000  0.96057000  0.45433000  1.0 -0.4457614091
O  O3  1  0.89770000  0.44337000  0.43713000  1.0 -0.4457614091
O  O4  1  0.99376000  0.55663000  0.45433000  1.0 -0.4457614091
O  O5  1  0.89862000  0.55732000  0.36530000  1.0 -0.5879047704
O  O6  1  0.80798000  0.44268000  0.34130000  1.0 -0.5879047704
O  O7  1  0.30798000  0.96668000  0.36530000  1.0 -0.5879047704
O  O8  1  0.39862000  0.03332000  0.34130000  1.0 -0.5879047704
O  O9  1  0.86501000  0.38144000  0.22217000  1.0 -0.4263311145
O  O10  1  0.84073000  0.61856000  0.48357000  1.0 -0.4263311145
O  O11  1  0.34073000  0.85716000  0.22217000  1.0 -0.4263311145
O  O12  1  0.36501000  0.14284000  0.48357000  1.0 -0.4263311145
O  O13  1  0.45973000  0.13298000  0.56455000  1.0 -0.5226779771
O  O14  1  0.43157000  0.86702000  0.32675000  1.0 -0.5226779771
O  O15  1  0.93157000  0.60482000  0.56455000  1.0 -0.5226779771
O  O16  1  0.95973000  0.39518000  0.32675000  1.0 -0.5226779771
