# DDEC6 charges by PACMAN v1.1 (https://github.com/mtap-research/PACMAN-charge/)
data_RIDHAR_FSR_pacman
_symmetry_space_group_name_H-M   'P 1'
_cell_length_a   18.55600000
_cell_length_b   18.55600000
_cell_length_c   18.08000000
_cell_angle_alpha   65.14610000
_cell_angle_beta   114.85400000
_cell_angle_gamma   113.77900000
_symmetry_Int_Tables_number   1
_chemical_formula_structural   Fe3H38C66N6O13
_chemical_formula_sum   'Fe6 H76 C132 N12 O26'
_cell_volume   4927.77408757
_cell_formula_units_Z   2
loop_
 _symmetry_equiv_pos_site_id
 _symmetry_equiv_pos_as_xyz
  1  'x, y, z'
loop_
 _atom_site_type_symbol
 _atom_site_label
 _atom_site_symmetry_multiplicity
 _atom_site_fract_x
 _atom_site_fract_y
 _atom_site_fract_z
 _atom_site_occupancy
 _atom_site_charge
Fe  Fe1  1  0.34136000  0.34136000  0.25000000  1.0 1.1583735517
Fe  Fe2  1  0.65864000  0.65864000  0.75000000  1.0 1.1665876678
Fe  Fe3  1  0.15265000  0.24985000  0.15142000  1.0 1.0822886995
Fe  Fe4  1  0.24985000  0.15265000  0.34858000  1.0 1.0822886995
Fe  Fe5  1  0.84735000  0.75015000  0.84858000  1.0 1.0822886995
Fe  Fe6  1  0.75015000  0.84735000  0.65142000  1.0 1.0822886995
H  H1  1  0.97643000  0.64757000  0.96870000  1.0 0.1145870052
H  H2  1  0.64757000  0.97643000  0.53130000  1.0 0.1145870052
H  H3  1  0.02357000  0.35243000  0.03130000  1.0 0.1145870052
H  H4  1  0.35243000  0.02357000  0.46870000  1.0 0.1145870052
H  H5  1  0.51755000  0.55773000  0.83478000  1.0 0.1145870052
H  H6  1  0.55773000  0.51755000  0.66522000  1.0 0.1145870052
H  H7  1  0.48245000  0.44227000  0.16522000  1.0 0.1145870052
H  H8  1  0.44227000  0.48245000  0.33478000  1.0 0.118802347
H  H9  1  0.96552000  0.84654000  0.98101000  1.0 0.118802347
H  H10  1  0.84654000  0.96552000  0.51899000  1.0 0.1145870052
H  H11  1  0.03448000  0.15346000  0.01899000  1.0 0.1145870052
H  H12  1  0.15346000  0.03448000  0.48101000  1.0 0.1145870052
H  H13  1  0.27169000  0.56613000  0.20658000  1.0 0.118802347
H  H14  1  0.56613000  0.27169000  0.29342000  1.0 0.118802347
H  H15  1  0.72831000  0.43387000  0.79342000  1.0 0.118802347
H  H16  1  0.43387000  0.72831000  0.70658000  1.0 0.118802347
H  H17  1  0.21452000  0.67164000  0.16536000  1.0 0.1323490884
H  H18  1  0.67164000  0.21452000  0.33464000  1.0 0.1323490884
H  H19  1  0.78548000  0.32836000  0.83464000  1.0 0.1323490884
H  H20  1  0.32836000  0.78548000  0.66536000  1.0 0.1323490884
H  H21  1  0.25092000  0.27894000  0.94134000  1.0 0.1323490884
H  H22  1  0.27894000  0.25091000  0.55866000  1.0 0.1323490884
H  H23  1  0.74908000  0.72106000  0.05867000  1.0 0.1323490884
H  H24  1  0.72106000  0.74909000  0.44134000  1.0 0.1323490884
H  H25  1  0.31471000  0.32665000  0.83957000  1.0 0.118802347
H  H26  1  0.32665000  0.31471000  0.66043000  1.0 0.118802347
H  H27  1  0.68529000  0.67335000  0.16043000  1.0 0.118802347
H  H28  1  0.67335000  0.68529000  0.33957000  1.0 0.118802347
H  H29  1  0.05075000  0.42319000  0.12338000  1.0 0.1323490884
H  H30  1  0.42319000  0.05075000  0.37662000  1.0 0.1323490884
H  H31  1  0.94925000  0.57681000  0.87662000  1.0 0.1323490884
H  H32  1  0.57681000  0.94925000  0.62338000  1.0 0.1323490884
H  H33  1  0.99267000  0.52651000  0.08843000  1.0 0.118802347
H  H34  1  0.52651000  0.99267000  0.41157000  1.0 0.118802347
H  H35  1  0.00733000  0.47349000  0.91157000  1.0 0.118802347
H  H36  1  0.47349000  0.00733000  0.58843000  1.0 0.118802347
H  H37  1  0.11468000  0.07408000  0.04577000  1.0 0.1019861291
H  H38  1  0.07408000  0.11468000  0.45423000  1.0 0.1019861291
H  H39  1  0.88532000  0.92592000  0.95423000  1.0 0.1019861291
H  H40  1  0.92592000  0.88532000  0.54577000  1.0 0.1019861291
H  H41  1  0.18831000  0.92355000  0.28301000  1.0 0.0794107973
H  H42  1  0.92355000  0.18831000  0.21699000  1.0 0.0794107973
H  H43  1  0.81169000  0.07645000  0.71699000  1.0 0.0794107973
H  H44  1  0.07645000  0.81169000  0.78301000  1.0 0.0794107973
H  H45  1  0.14775000  0.81617000  0.22747000  1.0 0.0590922093
H  H46  1  0.81617000  0.14775000  0.27253000  1.0 0.0590922093
H  H47  1  0.85225000  0.18383000  0.77253000  1.0 0.0590922093
H  H48  1  0.18383000  0.85225000  0.72747000  1.0 0.0590922093
H  H49  1  0.07413000  0.96671000  0.99022000  1.0 0.1019861291
H  H50  1  0.96671000  0.07413000  0.50978000  1.0 0.1019861291
H  H51  1  0.92587000  0.03329000  0.00978000  1.0 0.1019861291
H  H52  1  0.03329000  0.92587000  0.49022000  1.0 0.1019861291
H  H53  1  0.38082000  0.48870000  0.00510000  1.0 0.118802347
H  H54  1  0.48870000  0.38082000  0.49490000  1.0 0.118802347
H  H55  1  0.61918000  0.51130000  0.99490000  1.0 0.118802347
H  H56  1  0.51130000  0.61918000  0.50510000  1.0 0.118802347
H  H57  1  0.44049000  0.53716000  0.89918000  1.0 0.118802347
H  H58  1  0.53716000  0.44049000  0.60082000  1.0 0.118802347
H  H59  1  0.55951000  0.46285000  0.10082000  1.0 0.118802347
H  H60  1  0.46285000  0.55951000  0.39918000  1.0 0.118802347
H  H61  1  0.01297000  0.00357000  0.12061000  1.0 0.1019861291
H  H62  1  0.00357000  0.01297000  0.37939000  1.0 0.1019861291
H  H63  1  0.98703000  0.99643000  0.87939000  1.0 0.1019861291
H  H64  1  0.99643000  0.98703000  0.62061000  1.0 0.1019861291
H  H65  1  0.23700000  0.96254000  0.23956000  1.0 0.0794107973
H  H66  1  0.96254000  0.23700000  0.26044000  1.0 0.0794107973
H  H67  1  0.76300000  0.03746000  0.76044000  1.0 0.0794107973
H  H68  1  0.03746000  0.76300000  0.73956000  1.0 0.0794107973
H  H69  1  0.19107000  0.85305000  0.18550000  1.0 0.0694155267
H  H70  1  0.85305000  0.19107000  0.31450000  1.0 0.0694155267
H  H71  1  0.80893000  0.14695000  0.81450000  1.0 0.0694155267
H  H72  1  0.14695000  0.80893000  0.68550000  1.0 0.0694155267
H  H73  1  0.96703000  0.89407000  0.06655000  1.0 0.1019861291
H  H74  1  0.89407000  0.96703000  0.43345000  1.0 0.1019861291
H  H75  1  0.03297000  0.10593000  0.93345000  1.0 0.1019861291
H  H76  1  0.10593000  0.03297000  0.56655000  1.0 0.1019861291
C  C1  1  0.20810000  0.42330000  0.17050000  1.0 0.5974179677
C  C2  1  0.42330000  0.20810000  0.32950000  1.0 0.5974179677
C  C3  1  0.79190000  0.57670000  0.82950000  1.0 0.5974179677
C  C4  1  0.57670000  0.79190000  0.67050000  1.0 0.5974179677
C  C5  1  0.28280000  0.34100000  0.06590000  1.0 0.5793021492
C  C6  1  0.34100000  0.28280000  0.43410000  1.0 0.5793021492
C  C7  1  0.71720000  0.65900000  0.93410000  1.0 0.5793021492
C  C8  1  0.65900000  0.71720000  0.56590000  1.0 0.5793021492
C  C9  1  0.16750000  0.07290000  0.20930000  1.0 0.4681399263
C  C10  1  0.07290000  0.16750000  0.29070000  1.0 0.4681399263
C  C11  1  0.83250000  0.92710000  0.79070000  1.0 0.4681399263
C  C12  1  0.92710000  0.83250000  0.70930000  1.0 0.4681399263
C  C13  1  0.99630000  0.68850000  0.99480000  1.0 -0.0370760632
C  C14  1  0.68850000  0.99630000  0.50520000  1.0 -0.0370760632
C  C15  1  0.00370000  0.31150000  0.00520000  1.0 -0.0370760632
C  C16  1  0.31150000  0.00370000  0.49480000  1.0 -0.0370760632
C  C17  1  0.50370000  0.52630000  0.79960000  1.0 -0.0200602188
C  C18  1  0.52630000  0.50370000  0.70040000  1.0 -0.0200602188
C  C19  1  0.49630000  0.47370000  0.20040000  1.0 -0.0200602188
C  C20  1  0.47370000  0.49630000  0.29960000  1.0 -0.0200602188
C  C21  1  0.99170000  0.80550000  0.00090000  1.0 -0.0624377632
C  C22  1  0.80550000  0.99170000  0.49910000  1.0 -0.0624377632
C  C23  1  0.00830000  0.19450000  0.99910000  1.0 -0.0718043258
C  C24  1  0.19450000  0.00830000  0.50090000  1.0 -0.0718043258
C  C25  1  0.17190000  0.48990000  0.15400000  1.0 -0.0200602188
C  C26  1  0.48990000  0.17190000  0.34600000  1.0 -0.0200602188
C  C27  1  0.82810000  0.51010000  0.84600000  1.0 -0.0200602188
C  C28  1  0.51010000  0.82810000  0.65400000  1.0 -0.0200602188
C  C29  1  0.21630000  0.55990000  0.17480000  1.0 -0.1033454442
C  C30  1  0.55990000  0.21630000  0.32520000  1.0 -0.1033454442
C  C31  1  0.78370000  0.44010000  0.82520000  1.0 -0.1033454442
C  C32  1  0.44010000  0.78370000  0.67480000  1.0 -0.1033454442
C  C33  1  0.18170000  0.62390000  0.14980000  1.0 -0.110096106
C  C34  1  0.62390000  0.18170000  0.35020000  1.0 -0.110096106
C  C35  1  0.81830000  0.37610000  0.85020000  1.0 -0.110096106
C  C36  1  0.37610000  0.81830000  0.64980000  1.0 -0.110096106
C  C37  1  0.43740000  0.45920000  0.80210000  1.0 0.1475745461
C  C38  1  0.45920000  0.43740000  0.69790000  1.0 0.1475745461
C  C39  1  0.56260000  0.54080000  0.19790000  1.0 0.1475745461
C  C40  1  0.54080000  0.56260000  0.30210000  1.0 0.1475745461
C  C41  1  0.31650000  0.37350000  0.99170000  1.0 -0.0200602188
C  C42  1  0.37350000  0.31650000  0.50830000  1.0 -0.0200602188
C  C43  1  0.68350000  0.62650000  0.00830000  1.0 -0.0200602188
C  C44  1  0.62650000  0.68350000  0.49170000  1.0 -0.0200602188
C  C45  1  0.06500000  0.68680000  0.06750000  1.0 0.1616059146
C  C46  1  0.68680000  0.06500000  0.43250000  1.0 0.1616059146
C  C47  1  0.93500000  0.31320000  0.93250000  1.0 0.1616059146
C  C48  1  0.31320000  0.93500000  0.56750000  1.0 0.1616059146
C  C49  1  0.29240000  0.32860000  0.93670000  1.0 -0.110096106
C  C50  1  0.32860000  0.29240000  0.56330000  1.0 -0.110096106
C  C51  1  0.70760000  0.67140000  0.06330000  1.0 -0.110096106
C  C52  1  0.67140000  0.70760000  0.43670000  1.0 -0.110096106
C  C53  1  0.33070000  0.35850000  0.87500000  1.0 -0.1199832779
C  C54  1  0.35850000  0.33070000  0.62500000  1.0 -0.1199832779
C  C55  1  0.66930000  0.64150000  0.12500000  1.0 -0.1199832779
C  C56  1  0.64150000  0.66930000  0.37500000  1.0 -0.1199832779
C  C57  1  0.06430000  0.80850000  0.07020000  1.0 0.1616059146
C  C58  1  0.80850000  0.06430000  0.42980000  1.0 0.1659544429
C  C59  1  0.93570000  0.19150000  0.92980000  1.0 0.1659544429
C  C60  1  0.19150000  0.93570000  0.57020000  1.0 0.1659544429
C  C61  1  0.10410000  0.61830000  0.10500000  1.0 0.0493417981
C  C62  1  0.61830000  0.10410000  0.39500000  1.0 0.0493417981
C  C63  1  0.89590000  0.38170000  0.89500000  1.0 0.0493417981
C  C64  1  0.38170000  0.89590000  0.60500000  1.0 0.0493417981
C  C65  1  0.39030000  0.43130000  0.86210000  1.0 0.0493417981
C  C66  1  0.43130000  0.39030000  0.63790000  1.0 0.0493417981
C  C67  1  0.60970000  0.56870000  0.13790000  1.0 0.0493417981
C  C68  1  0.56870000  0.60970000  0.36210000  1.0 0.0493417981
C  C69  1  0.08470000  0.47550000  0.12630000  1.0 -0.1199832779
C  C70  1  0.47550000  0.08470000  0.37370000  1.0 -0.1199832779
C  C71  1  0.91530000  0.52450000  0.87370000  1.0 -0.1199832779
C  C72  1  0.52450000  0.91530000  0.62630000  1.0 -0.1199832779
C  C73  1  0.04970000  0.53690000  0.10390000  1.0 -0.1394924873
C  C74  1  0.53690000  0.04970000  0.39610000  1.0 -0.1394924873
C  C75  1  0.95030000  0.46310000  0.89610000  1.0 -0.1394924873
C  C76  1  0.46310000  0.95030000  0.60390000  1.0 -0.1394924873
C  C77  1  0.12126000  0.02234000  0.08216000  1.0 -0.0793176769
C  C78  1  0.02234000  0.12126000  0.41784000  1.0 -0.0793176769
C  C79  1  0.87874000  0.97766000  0.91784000  1.0 -0.0793176769
C  C80  1  0.97766000  0.87874000  0.58216000  1.0 -0.0793176769
C  C81  1  0.15550000  0.00950000  0.16990000  1.0 0.0401039778
C  C82  1  0.00950000  0.15550000  0.33010000  1.0 0.0401039778
C  C83  1  0.84450000  0.99050000  0.83010000  1.0 0.0401039778
C  C84  1  0.99050000  0.84450000  0.66990000  1.0 0.0401039778
C  C85  1  0.16540000  0.93220000  0.22430000  1.0 -0.0718043258
C  C86  1  0.93220000  0.16540000  0.27570000  1.0 -0.0718043258
C  C87  1  0.83460000  0.06780000  0.77570000  1.0 -0.0718043258
C  C88  1  0.06780000  0.83460000  0.72430000  1.0 -0.0718043258
C  C89  1  0.14113000  0.86787000  0.19103000  1.0 -0.0520058467
C  C90  1  0.86787000  0.14113000  0.30897000  1.0 -0.0520058467
C  C91  1  0.85887000  0.13213000  0.80897000  1.0 -0.0520058467
C  C92  1  0.13213000  0.85887000  0.69103000  1.0 -0.0520058467
C  C93  1  0.10700000  0.88080000  0.10340000  1.0 0.0401039778
C  C94  1  0.88080000  0.10700000  0.39660000  1.0 0.0343923627
C  C95  1  0.89300000  0.11920000  0.89660000  1.0 0.0401039778
C  C96  1  0.11920000  0.89300000  0.60340000  1.0 0.0401039778
C  C97  1  0.09700000  0.95800000  0.04890000  1.0 -0.1199832779
C  C98  1  0.95800000  0.09700000  0.45110000  1.0 -0.1199832779
C  C99  1  0.90300000  0.04200000  0.95110000  1.0 -0.1199832779
C  C100  1  0.04200000  0.90300000  0.54890000  1.0 -0.1199832779
C  C101  1  0.37010000  0.45470000  0.97370000  1.0 -0.110096106
C  C102  1  0.45470000  0.37010000  0.52630000  1.0 -0.110096106
C  C103  1  0.62990000  0.54530000  0.02630000  1.0 -0.110096106
C  C104  1  0.54530000  0.62990000  0.47370000  1.0 -0.110096106
C  C105  1  0.40590000  0.48370000  0.91070000  1.0 -0.1575510518
C  C106  1  0.48370000  0.40590000  0.58930000  1.0 -0.1575510518
C  C107  1  0.59410000  0.51630000  0.08930000  1.0 -0.1575510518
C  C108  1  0.51630000  0.59410000  0.41070000  1.0 -0.1575510518
C  C109  1  0.04860000  0.97340000  0.13360000  1.0 -0.0793176769
C  C110  1  0.97340000  0.04860000  0.36640000  1.0 -0.0718043258
C  C111  1  0.95140000  0.02660000  0.86640000  1.0 -0.0718043258
C  C112  1  0.02660000  0.95140000  0.63360000  1.0 -0.0793176769
C  C113  1  0.12950000  0.99390000  0.18540000  1.0 0.0590922093
C  C114  1  0.99390000  0.12950000  0.31460000  1.0 0.0590922093
C  C115  1  0.87050000  0.00610000  0.81460000  1.0 0.0590922093
C  C116  1  0.00610000  0.87050000  0.68540000  1.0 0.0590922093
C  C117  1  0.18290000  0.94890000  0.20480000  1.0 -0.0718043258
C  C118  1  0.94890000  0.18290000  0.29520000  1.0 -0.0718043258
C  C119  1  0.81710000  0.05110000  0.79520000  1.0 -0.0718043258
C  C120  1  0.05110000  0.81710000  0.70480000  1.0 -0.0718043258
C  C121  1  0.15540000  0.88320000  0.17250000  1.0 -0.0520058467
C  C122  1  0.88320000  0.15540000  0.32750000  1.0 -0.0520058467
C  C123  1  0.84460000  0.11680000  0.82750000  1.0 -0.0520058467
C  C124  1  0.11680000  0.84460000  0.67250000  1.0 -0.0520058467
C  C125  1  0.07450000  0.86270000  0.12070000  1.0 0.0590922093
C  C126  1  0.86270000  0.07450000  0.37930000  1.0 0.0590922093
C  C127  1  0.92550000  0.13730000  0.87930000  1.0 0.0590922093
C  C128  1  0.13730000  0.92550000  0.62070000  1.0 0.0590922093
C  C129  1  0.02120000  0.90780000  0.10130000  1.0 -0.1339531557
C  C130  1  0.90780000  0.02120000  0.39870000  1.0 -0.1339531557
C  C131  1  0.97880000  0.09220000  0.89870000  1.0 -0.1339531557
C  C132  1  0.09220000  0.97880000  0.60130000  1.0 -0.1339531557
N  N1  1  0.54970000  0.54970000  0.75000000  1.0 -0.170940325
N  N2  1  0.45030000  0.45030000  0.25000000  1.0 -0.170940325
N  N3  1  0.95831000  0.74789000  0.96211000  1.0 -0.170940325
N  N4  1  0.74789000  0.95831000  0.53789000  1.0 -0.170940325
N  N5  1  0.04169000  0.25211000  0.03789000  1.0 -0.170940325
N  N6  1  0.25211000  0.04169000  0.46211000  1.0 -0.170940325
N  N7  1  0.41360000  0.41360000  0.75000000  1.0 -0.296331786
N  N8  1  0.58640000  0.58640000  0.25000000  1.0 -0.296331786
N  N9  1  0.09843000  0.74637000  0.10563000  1.0 -0.296331786
N  N10  1  0.74637000  0.09843000  0.39437000  1.0 -0.296331786
N  N11  1  0.90157000  0.25363000  0.89437000  1.0 -0.296331786
N  N12  1  0.25363000  0.90157000  0.60563000  1.0 -0.296331786
O  O1  1  0.24960000  0.24960000  0.25000000  1.0 -0.8826953598
O  O2  1  0.75040000  0.75040000  0.75000000  1.0 -0.8826953598
O  O3  1  0.21646000  0.07074000  0.28186000  1.0 -0.471278032
O  O4  1  0.07074000  0.21646000  0.21814000  1.0 -0.471278032
O  O5  1  0.78354000  0.92926000  0.71814000  1.0 -0.471278032
O  O6  1  0.92926000  0.78354000  0.78186000  1.0 -0.471278032
O  O7  1  0.27808000  0.42268000  0.22380000  1.0 -0.5273764708
O  O8  1  0.42268000  0.27808000  0.27620000  1.0 -0.5273764708
O  O9  1  0.72192000  0.57732000  0.77620000  1.0 -0.5273764708
O  O10  1  0.57732000  0.72192000  0.72380000  1.0 -0.5273764708
O  O11  1  0.21657000  0.28683000  0.06397000  1.0 -0.5228289195
O  O12  1  0.28683000  0.21657000  0.43603000  1.0 -0.5228289195
O  O13  1  0.78343000  0.71317000  0.93603000  1.0 -0.5228289195
O  O14  1  0.71317000  0.78343000  0.56397000  1.0 -0.5228289195
O  O15  1  0.16235000  0.37033000  0.13041000  1.0 -0.5662793943
O  O16  1  0.37033000  0.16235000  0.36959000  1.0 -0.5662793943
O  O17  1  0.83765000  0.62967000  0.86959000  1.0 -0.5662793943
O  O18  1  0.62967000  0.83765000  0.63041000  1.0 -0.5662793943
O  O19  1  0.32876000  0.37330000  0.12423000  1.0 -0.5487397143
O  O20  1  0.37330000  0.32876000  0.37577000  1.0 -0.5487397143
O  O21  1  0.67124000  0.62670000  0.87577000  1.0 -0.5487397143
O  O22  1  0.62670000  0.67124000  0.62423000  1.0 -0.5487397143
O  O23  1  0.13219000  0.13101000  0.15949000  1.0 -0.5400709638
O  O24  1  0.13101000  0.13219000  0.34051000  1.0 -0.5400709638
O  O25  1  0.86781000  0.86899000  0.84051000  1.0 -0.5400709638
O  O26  1  0.86899000  0.86781000  0.65949000  1.0 -0.5400709638
