# DDEC6 charges by PACMAN v1.1 (https://github.com/mtap-research/PACMAN-charge/)
data_RIFXIR_ASR_pacman
_symmetry_space_group_name_H-M   'P 1'
_cell_length_a   18.64030000
_cell_length_b   18.64030000
_cell_length_c   18.64030000
_cell_angle_alpha   117.51700000
_cell_angle_beta   117.51700000
_cell_angle_gamma   117.51700000
_symmetry_Int_Tables_number   1
_chemical_formula_structural   CaHC5(N2O)2
_chemical_formula_sum   'Ca6 H6 C30 N24 O12'
_cell_volume   2610.05143472
_cell_formula_units_Z   6
loop_
 _symmetry_equiv_pos_site_id
 _symmetry_equiv_pos_as_xyz
  1  'x, y, z'
loop_
 _atom_site_type_symbol
 _atom_site_label
 _atom_site_symmetry_multiplicity
 _atom_site_fract_x
 _atom_site_fract_y
 _atom_site_fract_z
 _atom_site_occupancy
 _atom_site_charge
Ca  Ca1  1  0.43253000  0.99593000  0.72062000  1.0 1.1244490118
Ca  Ca2  1  0.99593000  0.72062000  0.43253000  1.0 1.1244490118
Ca  Ca3  1  0.72062000  0.43253000  0.99593000  1.0 1.1244490118
Ca  Ca4  1  0.56747000  0.00407000  0.27938000  1.0 1.1244490118
Ca  Ca5  1  0.00407000  0.27938000  0.56747000  1.0 1.1244490118
Ca  Ca6  1  0.27938000  0.56747000  0.00407000  1.0 1.1244490118
H  H1  1  0.75810000  0.26620000  0.75160000  1.0 0.1343746554
H  H2  1  0.26620000  0.75160000  0.75810000  1.0 0.1343746554
H  H3  1  0.75160000  0.75810000  0.26620000  1.0 0.1343746554
H  H4  1  0.24190000  0.73380000  0.24840000  1.0 0.1343746554
H  H5  1  0.73380000  0.24840000  0.24190000  1.0 0.1343746554
H  H6  1  0.24840000  0.24190000  0.73380000  1.0 0.1343746554
C  C1  1  0.54113000  0.09490000  0.61247000  1.0 -0.048803215
C  C2  1  0.65214000  0.15690000  0.64826000  1.0 -0.1143008798
C  C3  1  0.24908000  0.84997000  0.40125000  1.0 0.2469986325
C  C4  1  0.38297000  0.93340000  0.46053000  1.0 0.0302474755
C  C5  1  0.60080000  0.21230000  0.74530000  1.0 0.5983101001
C  C6  1  0.09490000  0.61247000  0.54113000  1.0 -0.048803215
C  C7  1  0.15690000  0.64826000  0.65214000  1.0 -0.1159804629
C  C8  1  0.84997000  0.40125000  0.24908000  1.0 0.2469986325
C  C9  1  0.93340000  0.46053000  0.38297000  1.0 0.0302474755
C  C10  1  0.21230000  0.74530000  0.60080000  1.0 0.5983101001
C  C11  1  0.61247000  0.54113000  0.09490000  1.0 -0.048803215
C  C12  1  0.64826000  0.65214000  0.15690000  1.0 -0.1143008798
C  C13  1  0.40125000  0.24908000  0.84997000  1.0 0.2469986325
C  C14  1  0.46053000  0.38297000  0.93340000  1.0 0.0302474755
C  C15  1  0.74530000  0.60080000  0.21230000  1.0 0.5983101001
C  C16  1  0.45887000  0.90510000  0.38753000  1.0 -0.048803215
C  C17  1  0.34786000  0.84310000  0.35174000  1.0 -0.1143008798
C  C18  1  0.75092000  0.15003000  0.59875000  1.0 0.2469986325
C  C19  1  0.61703000  0.06660000  0.53947000  1.0 0.0302474755
C  C20  1  0.39920000  0.78770000  0.25470000  1.0 0.5983101001
C  C21  1  0.90510000  0.38753000  0.45887000  1.0 -0.048803215
C  C22  1  0.84310000  0.35174000  0.34786000  1.0 -0.1143008798
C  C23  1  0.15003000  0.59875000  0.75092000  1.0 0.2469986325
C  C24  1  0.06660000  0.53947000  0.61703000  1.0 0.0302474755
C  C25  1  0.78770000  0.25470000  0.39920000  1.0 0.5983101001
C  C26  1  0.38753000  0.45887000  0.90510000  1.0 -0.048803215
C  C27  1  0.35174000  0.34786000  0.84310000  1.0 -0.1143008798
C  C28  1  0.59875000  0.75092000  0.15003000  1.0 0.2469986325
C  C29  1  0.53947000  0.61703000  0.06660000  1.0 0.0302474755
C  C30  1  0.25470000  0.39920000  0.78770000  1.0 0.5983101001
N  N1  1  0.09603000  0.76113000  0.37314000  1.0 -0.1159804629
N  N2  1  0.01293000  0.68322000  0.23865000  1.0 -0.1368835176
N  N3  1  0.24673000  0.86698000  0.47719000  1.0 -0.3164059996
N  N4  1  0.10424000  0.73405000  0.25071000  1.0 -0.2503922213
N  N5  1  0.76113000  0.37314000  0.09603000  1.0 -0.1143008798
N  N6  1  0.68322000  0.23865000  0.01293000  1.0 -0.1368835176
N  N7  1  0.86698000  0.47719000  0.24673000  1.0 -0.3164059996
N  N8  1  0.73405000  0.25071000  0.10424000  1.0 -0.2503922213
N  N9  1  0.37314000  0.09603000  0.76113000  1.0 -0.1159804629
N  N10  1  0.23865000  0.01293000  0.68322000  1.0 -0.1368835176
N  N11  1  0.47719000  0.24673000  0.86698000  1.0 -0.3164059996
N  N12  1  0.25071000  0.10424000  0.73405000  1.0 -0.2503922213
N  N13  1  0.90397000  0.23887000  0.62686000  1.0 -0.1159804629
N  N14  1  0.98707000  0.31678000  0.76135000  1.0 -0.1368835176
N  N15  1  0.75327000  0.13302000  0.52281000  1.0 -0.3164059996
N  N16  1  0.89576000  0.26595000  0.74929000  1.0 -0.2503922213
N  N17  1  0.23887000  0.62686000  0.90397000  1.0 -0.1159804629
N  N18  1  0.31678000  0.76135000  0.98707000  1.0 -0.1368835176
N  N19  1  0.13302000  0.52281000  0.75327000  1.0 -0.3164059996
N  N20  1  0.26595000  0.74929000  0.89576000  1.0 -0.2503922213
N  N21  1  0.62686000  0.90397000  0.23887000  1.0 -0.1159804629
N  N22  1  0.76135000  0.98707000  0.31678000  1.0 -0.1368835176
N  N23  1  0.52281000  0.75327000  0.13302000  1.0 -0.3164059996
N  N24  1  0.74929000  0.89576000  0.26595000  1.0 -0.2503922213
O  O1  1  0.57743000  0.18543000  0.78744000  1.0 -0.6208577185
O  O2  1  0.68280000  0.33700000  0.81610000  1.0 -0.5307558606
O  O3  1  0.18543000  0.78744000  0.57743000  1.0 -0.6208577185
O  O4  1  0.33700000  0.81610000  0.68280000  1.0 -0.5307558606
O  O5  1  0.78744000  0.57743000  0.18543000  1.0 -0.6208577185
O  O6  1  0.81610000  0.68280000  0.33700000  1.0 -0.5307558606
O  O7  1  0.42257000  0.81457000  0.21256000  1.0 -0.6208577185
O  O8  1  0.31720000  0.66300000  0.18390000  1.0 -0.5307558606
O  O9  1  0.81457000  0.21256000  0.42257000  1.0 -0.6208577185
O  O10  1  0.66300000  0.18390000  0.31720000  1.0 -0.5307558606
O  O11  1  0.21256000  0.42257000  0.81457000  1.0 -0.6208577185
O  O12  1  0.18390000  0.31720000  0.66300000  1.0 -0.5307558606
