# DDEC6 charges by PACMAN v1.1 (https://github.com/mtap-research/PACMAN-charge/)
data_RIGZIU_ASR_pacman
_symmetry_space_group_name_H-M   'P 1'
_cell_length_a   12.43370000
_cell_length_b   14.30640000
_cell_length_c   17.26410000
_cell_angle_alpha   81.40900000
_cell_angle_beta   71.05900000
_cell_angle_gamma   71.77400000
_symmetry_Int_Tables_number   1
_chemical_formula_structural   NiH10C18(N3O2)2
_chemical_formula_sum   'Ni4 H40 C72 N24 O16'
_cell_volume   2755.03672014
_cell_formula_units_Z   4
loop_
 _symmetry_equiv_pos_site_id
 _symmetry_equiv_pos_as_xyz
  1  'x, y, z'
loop_
 _atom_site_type_symbol
 _atom_site_label
 _atom_site_symmetry_multiplicity
 _atom_site_fract_x
 _atom_site_fract_y
 _atom_site_fract_z
 _atom_site_occupancy
 _atom_site_charge
Ni  Ni1  1  0.50000000  0.00000000  0.00000000  1.0 0.7516716634
Ni  Ni2  1  0.04165000  0.25028000  0.42048000  1.0 0.7516716634
Ni  Ni3  1  0.95835000  0.74972000  0.57952000  1.0 0.7516716634
Ni  Ni4  1  0.00000000  0.50000000  0.00000000  1.0 0.6889095818
H  H1  1  0.35260000  0.03870000  0.87800000  1.0 0.1300875609
H  H2  1  0.64740000  0.96130000  0.12200000  1.0 0.1300875609
H  H3  1  0.34390000  0.82950000  0.05310000  1.0 0.1206091874
H  H4  1  0.65610000  0.17050000  0.94690000  1.0 0.1206091874
H  H5  1  0.19660000  0.97140000  0.31860000  1.0 0.1103253479
H  H6  1  0.80340000  0.02860000  0.68140000  1.0 0.1103253479
H  H7  1  0.23910000  0.68110000  0.38500000  1.0 0.1300875609
H  H8  1  0.76090000  0.31890000  0.61500000  1.0 0.1300875609
H  H9  1  0.44760000  0.76270000  0.17070000  1.0 0.1103253479
H  H10  1  0.55240000  0.23730000  0.82930000  1.0 0.1103253479
H  H11  1  0.16260000  0.83430000  0.85390000  1.0 0.1394144845
H  H12  1  0.83740000  0.16570000  0.14610000  1.0 0.1394144845
H  H13  1  0.98890000  0.05590000  0.72520000  1.0 0.1394144845
H  H14  1  0.01110000  0.94410000  0.27480000  1.0 0.1394144845
H  H15  1  0.16050000  0.11740000  0.86470000  1.0 0.1300875609
H  H16  1  0.83950000  0.88260000  0.13530000  1.0 0.1300875609
H  H17  1  0.02460000  0.92260000  0.64150000  1.0 0.1491161074
H  H18  1  0.97540000  0.07740000  0.35850000  1.0 0.1491161074
H  H19  1  0.98160000  0.67670000  0.76280000  1.0 0.1300875609
H  H20  1  0.01840000  0.32330000  0.23720000  1.0 0.1300875609
H  H21  1  0.25430000  0.55330000  0.31090000  1.0 0.1394144845
H  H22  1  0.74570000  0.44670000  0.68910000  1.0 0.1394144845
H  H23  1  0.54070000  0.33510000  0.19580000  1.0 0.1491161074
H  H24  1  0.45930000  0.66490000  0.80420000  1.0 0.1491161074
H  H25  1  0.56660000  0.61230000  0.18670000  1.0 0.1206091874
H  H26  1  0.43340000  0.38770000  0.81330000  1.0 0.1206091874
H  H27  1  0.04800000  0.18840000  0.64590000  1.0 0.1300875609
H  H28  1  0.95200000  0.81160000  0.35410000  1.0 0.1300875609
H  H29  1  0.96450000  0.47490000  0.68820000  1.0 0.1103253479
H  H30  1  0.03550000  0.52510000  0.31180000  1.0 0.1103253479
H  H31  1  0.02750000  0.26680000  0.86700000  1.0 0.1103253479
H  H32  1  0.97250000  0.73320000  0.13300000  1.0 0.1103253479
H  H33  1  0.26900000  0.17950000  0.26160000  1.0 0.1300875609
H  H34  1  0.73100000  0.82050000  0.73840000  1.0 0.1300875609
H  H35  1  0.18150000  0.41690000  0.38370000  1.0 0.1394144845
H  H36  1  0.81850000  0.58310000  0.61630000  1.0 0.1394144845
H  H37  1  0.89350000  0.30470000  0.01680000  1.0 0.1206091874
H  H38  1  0.10650000  0.69530000  0.98320000  1.0 0.1206091874
H  H39  1  0.76470000  0.54330000  0.13890000  1.0 0.1300875609
H  H40  1  0.23530000  0.45670000  0.86110000  1.0 0.1300875609
C  C1  1  0.33440000  0.98540000  0.91460000  1.0 0.1046789651
C  C2  1  0.66560000  0.01460000  0.08540000  1.0 0.1046789651
C  C3  1  0.32770000  0.87180000  0.00790000  1.0 0.1394144845
C  C4  1  0.67230000  0.12820000  0.99210000  1.0 0.1394144845
C  C5  1  0.36910000  0.95820000  0.17540000  1.0 0.5586605807
C  C6  1  0.63090000  0.04180000  0.82460000  1.0 0.5586605807
C  C7  1  0.33110000  0.87840000  0.23610000  1.0 -0.0090828141
C  C8  1  0.66890000  0.12160000  0.76390000  1.0 -0.0090828141
C  C9  1  0.23700000  0.90410000  0.30790000  1.0 -0.1323101307
C  C10  1  0.76300000  0.09590000  0.69210000  1.0 -0.1323101307
C  C11  1  0.20390000  0.82980000  0.36310000  1.0 -0.0090828141
C  C12  1  0.79610000  0.17020000  0.63690000  1.0 -0.0090828141
C  C13  1  0.26110000  0.73130000  0.34600000  1.0 -0.1455920423
C  C14  1  0.73890000  0.26870000  0.65400000  1.0 -0.142581978
C  C15  1  0.34840000  0.70590000  0.27420000  1.0 0.0630480227
C  C16  1  0.65160000  0.29410000  0.72580000  1.0 0.0630480227
C  C17  1  0.38480000  0.78000000  0.21980000  1.0 -0.1698068167
C  C18  1  0.61520000  0.22000000  0.78020000  1.0 -0.1698068167
C  C19  1  0.17260000  0.97420000  0.86680000  1.0 0.1685293716
C  C20  1  0.82740000  0.02580000  0.13320000  1.0 0.1685293716
C  C21  1  0.13910000  0.90230000  0.83790000  1.0 -0.2384071137
C  C22  1  0.86090000  0.09770000  0.16210000  1.0 -0.2384071137
C  C23  1  0.07120000  0.93750000  0.78580000  1.0 0.1685293716
C  C24  1  0.92880000  0.06250000  0.21420000  1.0 0.1685293716
C  C25  1  0.03620000  0.03540000  0.76150000  1.0 -0.2121118988
C  C26  1  0.96380000  0.96460000  0.23850000  1.0 -0.2121118988
C  C27  1  0.06990000  0.10420000  0.78990000  1.0 0.1300875609
C  C28  1  0.93010000  0.89580000  0.21010000  1.0 0.1300875609
C  C29  1  0.13790000  0.07120000  0.84370000  1.0 -0.2384071137
C  C30  1  0.86210000  0.92880000  0.15630000  1.0 -0.2384071137
C  C31  1  0.09830000  0.85420000  0.43890000  1.0 0.5586605807
C  C32  1  0.90170000  0.14580000  0.56110000  1.0 0.5586605807
C  C33  1  0.01970000  0.87030000  0.68230000  1.0 0.1206091874
C  C34  1  0.98030000  0.12970000  0.31770000  1.0 0.1206091874
C  C35  1  0.99680000  0.73910000  0.74880000  1.0 0.1599189256
C  C36  1  0.00320000  0.26090000  0.25120000  1.0 0.1599189256
C  C37  1  0.40310000  0.59980000  0.25380000  1.0 0.1300875609
C  C38  1  0.59690000  0.40020000  0.74620000  1.0 0.1300875609
C  C39  1  0.33540000  0.53300000  0.27950000  1.0 -0.2121118988
C  C40  1  0.66460000  0.46700000  0.72050000  1.0 -0.2121118988
C  C41  1  0.38980000  0.43670000  0.25790000  1.0 0.1807157312
C  C42  1  0.61020000  0.56330000  0.74210000  1.0 0.1807157312
C  C43  1  0.50710000  0.40170000  0.21070000  1.0 -0.229807276
C  C44  1  0.49290000  0.59830000  0.78930000  1.0 -0.229807276
C  C45  1  0.57110000  0.46820000  0.18700000  1.0 0.1599189256
C  C46  1  0.42890000  0.53180000  0.81300000  1.0 0.1599189256
C  C47  1  0.52050000  0.56710000  0.20630000  1.0 -0.2608707036
C  C48  1  0.47950000  0.43290000  0.79370000  1.0 -0.2608707036
C  C49  1  0.04020000  0.21010000  0.76110000  1.0 0.0650720064
C  C50  1  0.95980000  0.78990000  0.23890000  1.0 0.0650720064
C  C51  1  0.03350000  0.23800000  0.68200000  1.0 -0.142581978
C  C52  1  0.96650000  0.76200000  0.31800000  1.0 -0.142581978
C  C53  1  0.00680000  0.33410000  0.65460000  1.0 -0.0090828141
C  C54  1  0.99320000  0.66590000  0.34540000  1.0 -0.0090828141
C  C55  1  0.98540000  0.40750000  0.70630000  1.0 -0.1323101307
C  C56  1  0.01460000  0.59250000  0.29370000  1.0 -0.1323101307
C  C57  1  0.99510000  0.38060000  0.78520000  1.0 0.0002315304
C  C58  1  0.00490000  0.61940000  0.21480000  1.0 -0.000399947
C  C59  1  0.02160000  0.28380000  0.81290000  1.0 -0.1698068167
C  C60  1  0.97840000  0.71620000  0.18710000  1.0 -0.1698068167
C  C61  1  0.99830000  0.35800000  0.56870000  1.0 0.5586605807
C  C62  1  0.00170000  0.64200000  0.43130000  1.0 0.5586605807
C  C63  1  0.27000000  0.24040000  0.27670000  1.0 0.1491161074
C  C64  1  0.73000000  0.75960000  0.72330000  1.0 0.1599189256
C  C65  1  0.22020000  0.36810000  0.34430000  1.0 0.1300875609
C  C66  1  0.77980000  0.63190000  0.65570000  1.0 0.1300875609
C  C67  1  0.84060000  0.35480000  0.05250000  1.0 0.1491161074
C  C68  1  0.15940000  0.64520000  0.94750000  1.0 0.1491161074
C  C69  1  0.77370000  0.48300000  0.11740000  1.0 0.1103253479
C  C70  1  0.22630000  0.51700000  0.88260000  1.0 0.1103253479
C  C71  1  0.97380000  0.46000000  0.84400000  1.0 0.5586605807
C  C72  1  0.02620000  0.54000000  0.15600000  1.0 0.5586605807
N  N1  1  0.38750000  0.94280000  0.96940000  1.0 -0.2897211249
N  N2  1  0.61250000  0.05720000  0.03060000  1.0 -0.2897211249
N  N3  1  0.24780000  0.87010000  0.97500000  1.0 -0.229807276
N  N4  1  0.75220000  0.12990000  0.02500000  1.0 -0.229807276
N  N5  1  0.25010000  0.94410000  0.91630000  1.0 0.1103253479
N  N6  1  0.74990000  0.05590000  0.08370000  1.0 0.1103253479
N  N7  1  0.99270000  0.78930000  0.67570000  1.0 -0.3176323708
N  N8  1  0.00730000  0.21070000  0.32430000  1.0 -0.3176323708
N  N9  1  0.03860000  0.86740000  0.75320000  1.0 0.1394144845
N  N10  1  0.96140000  0.13260000  0.24680000  1.0 0.1394144845
N  N11  1  0.02290000  0.78270000  0.79770000  1.0 -0.2384071137
N  N12  1  0.97710000  0.21730000  0.20230000  1.0 -0.2384071137
N  N13  1  0.18610000  0.29070000  0.34210000  1.0 -0.3176323708
N  N14  1  0.81390000  0.70930000  0.65790000  1.0 -0.3176323708
N  N15  1  0.35160000  0.28470000  0.23730000  1.0 -0.229807276
N  N16  1  0.64840000  0.71530000  0.76270000  1.0 -0.229807276
N  N17  1  0.31880000  0.36690000  0.28150000  1.0 0.1300875609
N  N18  1  0.68120000  0.63310000  0.71850000  1.0 0.1300875609
N  N19  1  0.69130000  0.43720000  0.13660000  1.0 0.1300875609
N  N20  1  0.30870000  0.56280000  0.86340000  1.0 0.1300875609
N  N21  1  0.73010000  0.35410000  0.09560000  1.0 -0.2121118988
N  N22  1  0.26990000  0.64590000  0.90440000  1.0 -0.2121118988
N  N23  1  0.87010000  0.43410000  0.06460000  1.0 -0.2824921097
N  N24  1  0.12990000  0.56590000  0.93540000  1.0 -0.2824921097
O  O1  1  0.45830000  0.92940000  0.11340000  1.0 -0.5968964483
O  O2  1  0.54170000  0.07060000  0.88660000  1.0 -0.5968964483
O  O3  1  0.30590000  0.04600000  0.18580000  1.0 -0.5818653788
O  O4  1  0.69410000  0.95400000  0.81420000  1.0 -0.5818653788
O  O5  1  0.10110000  0.79050000  0.49920000  1.0 -0.5426651623
O  O6  1  0.89890000  0.20950000  0.50080000  1.0 -0.5426651623
O  O7  1  0.01590000  0.92860000  0.43440000  1.0 -0.5426651623
O  O8  1  0.98410000  0.07140000  0.56560000  1.0 -0.5426651623
O  O9  1  0.06900000  0.29360000  0.51750000  1.0 -0.5334454562
O  O10  1  0.93100000  0.70640000  0.48250000  1.0 -0.5334454562
O  O11  1  0.92130000  0.43180000  0.55560000  1.0 -0.5334454562
O  O12  1  0.07870000  0.56820000  0.44440000  1.0 -0.5334454562
O  O13  1  0.02400000  0.42990000  0.89970000  1.0 -0.5891068663
O  O14  1  0.97600000  0.57010000  0.10030000  1.0 -0.5891068663
O  O15  1  0.90880000  0.54420000  0.83290000  1.0 -0.5731552328
O  O16  1  0.09120000  0.45580000  0.16710000  1.0 -0.5731552328
