# DDEC6 charges by PACMAN v1.1 (https://github.com/mtap-research/PACMAN-charge/)
data_RIJGIE_FSR_pacman
_symmetry_space_group_name_H-M   'P 1'
_cell_length_a   6.99780000
_cell_length_b   6.99780000
_cell_length_c   7.79360000
_cell_angle_alpha   90.00000000
_cell_angle_beta   90.00000000
_cell_angle_gamma   90.00000000
_symmetry_Int_Tables_number   1
_chemical_formula_structural   TiNiH16C16(N2F3)2
_chemical_formula_sum   'Ti1 Ni1 H16 C16 N4 F6'
_cell_volume   381.64639484
_cell_formula_units_Z   1
loop_
 _symmetry_equiv_pos_site_id
 _symmetry_equiv_pos_as_xyz
  1  'x, y, z'
loop_
 _atom_site_type_symbol
 _atom_site_label
 _atom_site_symmetry_multiplicity
 _atom_site_fract_x
 _atom_site_fract_y
 _atom_site_fract_z
 _atom_site_occupancy
 _atom_site_charge
Ti  Ti1  1  0.00000000  0.00000000  0.50000000  1.0 1.7512249842
Ni  Ni1  1  0.00000000  0.00000000  0.00000000  1.0 0.3179941966
H  H1  1  0.92859000  0.33673000  0.75937000  1.0 0.0737456649
H  H2  1  0.07141000  0.66327000  0.75937000  1.0 0.0737456649
H  H3  1  0.66327000  0.92859000  0.75937000  1.0 0.0737456649
H  H4  1  0.33673000  0.07141000  0.75937000  1.0 0.0737456649
H  H5  1  0.07141000  0.33673000  0.24063000  1.0 0.0737456649
H  H6  1  0.92859000  0.66327000  0.24063000  1.0 0.0737456649
H  H7  1  0.33673000  0.92859000  0.24063000  1.0 0.0737456649
H  H8  1  0.66327000  0.07141000  0.24063000  1.0 0.0737456649
H  H9  1  0.07141000  0.66327000  0.24063000  1.0 0.0737456649
H  H10  1  0.92859000  0.33673000  0.24063000  1.0 0.0737456649
H  H11  1  0.33673000  0.07141000  0.24063000  1.0 0.0737456649
H  H12  1  0.66327000  0.92859000  0.24063000  1.0 0.0737456649
H  H13  1  0.92859000  0.66327000  0.75937000  1.0 0.0737456649
H  H14  1  0.07141000  0.33673000  0.75937000  1.0 0.0737456649
H  H15  1  0.66327000  0.07141000  0.75937000  1.0 0.0737456649
H  H16  1  0.33673000  0.92859000  0.75937000  1.0 0.0737456649
C  C1  1  0.95783000  0.40097000  0.86051000  1.0 0.0354773931
C  C2  1  0.04217000  0.59903000  0.86051000  1.0 0.0354773931
C  C3  1  0.59903000  0.95783000  0.86051000  1.0 0.0354773931
C  C4  1  0.40097000  0.04217000  0.86051000  1.0 0.0354773931
C  C5  1  0.04217000  0.40097000  0.13949000  1.0 0.0354773931
C  C6  1  0.95783000  0.59903000  0.13949000  1.0 0.0354773931
C  C7  1  0.40097000  0.95783000  0.13949000  1.0 0.0354773931
C  C8  1  0.59903000  0.04217000  0.13949000  1.0 0.0354773931
C  C9  1  0.04217000  0.59903000  0.13949000  1.0 0.0354773931
C  C10  1  0.95783000  0.40097000  0.13949000  1.0 0.0354773931
C  C11  1  0.40097000  0.04217000  0.13949000  1.0 0.0354773931
C  C12  1  0.59903000  0.95783000  0.13949000  1.0 0.0354773931
C  C13  1  0.95783000  0.59903000  0.86051000  1.0 0.0354773931
C  C14  1  0.04217000  0.40097000  0.86051000  1.0 0.0354773931
C  C15  1  0.59903000  0.04217000  0.86051000  1.0 0.0354773931
C  C16  1  0.40097000  0.95783000  0.86051000  1.0 0.0354773931
N  N1  1  0.00000000  0.30000000  0.00000000  1.0 -0.14286372
N  N2  1  0.00000000  0.70000000  0.00000000  1.0 -0.14286372
N  N3  1  0.70000000  0.00000000  0.00000000  1.0 -0.14286372
N  N4  1  0.30000000  0.00000000  0.00000000  1.0 -0.14286372
F  F1  1  0.00000000  0.00000000  0.26134000  1.0 -0.5019075827
F  F2  1  0.00000000  0.00000000  0.73866000  1.0 -0.5019075827
F  F3  1  0.18763000  0.81237000  0.50000000  1.0 -0.5603795157
F  F4  1  0.81237000  0.18763000  0.50000000  1.0 -0.5603795157
F  F5  1  0.18763000  0.18763000  0.50000000  1.0 -0.5603795157
F  F6  1  0.81237000  0.81237000  0.50000000  1.0 -0.5603795157
