# DDEC6 charges by PACMAN v1.1 (https://github.com/mtap-research/PACMAN-charge/)
data_RILCUN_ASR_pacman
_symmetry_space_group_name_H-M   'P 1'
_cell_length_a   22.03250000
_cell_length_b   22.03250000
_cell_length_c   16.91300000
_cell_angle_alpha   74.64430000
_cell_angle_beta   105.35600000
_cell_angle_gamma   85.86710000
_symmetry_Int_Tables_number   1
_chemical_formula_structural   Cd2H28C48N11O9
_chemical_formula_sum   'Cd8 H112 C192 N44 O36'
_cell_volume   7544.56357906
_cell_formula_units_Z   4
loop_
 _symmetry_equiv_pos_site_id
 _symmetry_equiv_pos_as_xyz
  1  'x, y, z'
loop_
 _atom_site_type_symbol
 _atom_site_label
 _atom_site_symmetry_multiplicity
 _atom_site_fract_x
 _atom_site_fract_y
 _atom_site_fract_z
 _atom_site_occupancy
 _atom_site_charge
Cd  Cd1  1  0.59823000  0.88627000  0.93987000  1.0 0.779913211
Cd  Cd2  1  0.02737000  0.44615000  0.82920000  1.0 0.6816177012
Cd  Cd3  1  0.88627000  0.59823000  0.56013000  1.0 0.779913211
Cd  Cd4  1  0.44615000  0.02737000  0.67080000  1.0 0.6816177012
Cd  Cd5  1  0.40177000  0.11373000  0.06013000  1.0 0.779913211
Cd  Cd6  1  0.97263000  0.55385000  0.17080000  1.0 0.6816177012
Cd  Cd7  1  0.11373000  0.40177000  0.43987000  1.0 0.779913211
Cd  Cd8  1  0.55385000  0.97263000  0.32920000  1.0 0.6816177012
H  H1  1  0.67820000  0.00120000  0.93810000  1.0 0.102370003
H  H2  1  0.74100000  0.05920000  0.86870000  1.0 0.1305769423
H  H3  1  0.71340000  0.95160000  0.70530000  1.0 0.1305769423
H  H4  1  0.65020000  0.89720000  0.78020000  1.0 0.102370003
H  H5  1  0.76320000  0.12720000  0.75910000  1.0 0.1201335958
H  H6  1  0.82760000  0.21880000  0.73180000  1.0 0.1201335958
H  H7  1  0.98610000  0.19110000  0.65830000  1.0 0.1305769423
H  H8  1  0.81470000  0.96550000  0.70730000  1.0 0.1382632933
H  H9  1  0.88520000  0.27360000  0.80760000  1.0 0.1382632933
H  H10  1  0.92550000  0.35850000  0.84510000  1.0 0.102370003
H  H11  1  0.02140000  0.37900000  0.67800000  1.0 0.1094359805
H  H12  1  0.98010000  0.29570000  0.63140000  1.0 0.1382632933
H  H13  1  0.07960000  0.03140000  0.63580000  1.0 0.1201335958
H  H14  1  0.15350000  0.96710000  0.60370000  1.0 0.1094359805
H  H15  1  0.01990000  0.85370000  0.55150000  1.0 0.1094359805
H  H16  1  0.94930000  0.91730000  0.58750000  1.0 0.1201335958
H  H17  1  0.28980000  0.91900000  0.48520000  1.0 0.1201335958
H  H18  1  0.34250000  0.75690000  0.43580000  1.0 0.1201335958
H  H19  1  0.27490000  0.66770000  0.45510000  1.0 0.1201335958
H  H20  1  0.11840000  0.69460000  0.53260000  1.0 0.1201335958
H  H21  1  0.38570000  0.93430000  0.49140000  1.0 0.1305769423
H  H22  1  0.45990000  0.98190000  0.43710000  1.0 0.0941454189
H  H23  1  0.45620000  0.87280000  0.29110000  1.0 0.1094359805
H  H24  1  0.37470000  0.82850000  0.32960000  1.0 0.1382632933
H  H25  1  0.20850000  0.61330000  0.37830000  1.0 0.1305769423
H  H26  1  0.17960000  0.51880000  0.36000000  1.0 0.1094359805
H  H27  1  0.11210000  0.48870000  0.55700000  1.0 0.102370003
H  H28  1  0.13560000  0.58780000  0.57510000  1.0 0.1305769423
H  H29  1  0.00120000  0.67820000  0.56190000  1.0 0.102370003
H  H30  1  0.05920000  0.74100000  0.63130000  1.0 0.1305769423
H  H31  1  0.95160000  0.71340000  0.79470000  1.0 0.1305769423
H  H32  1  0.89720000  0.65020000  0.71980000  1.0 0.102370003
H  H33  1  0.12720000  0.76320000  0.74090000  1.0 0.1201335958
H  H34  1  0.21880000  0.82760000  0.76820000  1.0 0.1201335958
H  H35  1  0.19110000  0.98610000  0.84170000  1.0 0.1305769423
H  H36  1  0.96550000  0.81470000  0.79270000  1.0 0.1382632933
H  H37  1  0.27360000  0.88520000  0.69240000  1.0 0.1382632933
H  H38  1  0.35850000  0.92550000  0.65490000  1.0 0.102370003
H  H39  1  0.37900000  0.02140000  0.82200000  1.0 0.1094359805
H  H40  1  0.29570000  0.98010000  0.86860000  1.0 0.1382632933
H  H41  1  0.03140000  0.07960000  0.86420000  1.0 0.1201335958
H  H42  1  0.96710000  0.15350000  0.89630000  1.0 0.1094359805
H  H43  1  0.85370000  0.01990000  0.94850000  1.0 0.1094359805
H  H44  1  0.91730000  0.94930000  0.91250000  1.0 0.1201335958
H  H45  1  0.91900000  0.28980000  0.01480000  1.0 0.1201335958
H  H46  1  0.75690000  0.34250000  0.06420000  1.0 0.1201335958
H  H47  1  0.66770000  0.27490000  0.04490000  1.0 0.1201335958
H  H48  1  0.69460000  0.11840000  0.96740000  1.0 0.1201335958
H  H49  1  0.93430000  0.38570000  0.00860000  1.0 0.1305769423
H  H50  1  0.98190000  0.45990000  0.06290000  1.0 0.0941454189
H  H51  1  0.87280000  0.45620000  0.20890000  1.0 0.1094359805
H  H52  1  0.82850000  0.37470000  0.17040000  1.0 0.1382632933
H  H53  1  0.61330000  0.20850000  0.12170000  1.0 0.1305769423
H  H54  1  0.51880000  0.17960000  0.14000000  1.0 0.1094359805
H  H55  1  0.48870000  0.11210000  0.94300000  1.0 0.102370003
H  H56  1  0.58780000  0.13560000  0.92490000  1.0 0.1305769423
H  H57  1  0.32180000  0.99880000  0.06190000  1.0 0.102370003
H  H58  1  0.25900000  0.94080000  0.13130000  1.0 0.1305769423
H  H59  1  0.28660000  0.04840000  0.29470000  1.0 0.1305769423
H  H60  1  0.34980000  0.10280000  0.21980000  1.0 0.102370003
H  H61  1  0.23680000  0.87280000  0.24090000  1.0 0.1201335958
H  H62  1  0.17240000  0.78120000  0.26820000  1.0 0.1201335958
H  H63  1  0.01390000  0.80890000  0.34170000  1.0 0.1305769423
H  H64  1  0.18530000  0.03450000  0.29270000  1.0 0.1305769423
H  H65  1  0.11480000  0.72640000  0.19240000  1.0 0.1382632933
H  H66  1  0.07450000  0.64150000  0.15490000  1.0 0.102370003
H  H67  1  0.97860000  0.62100000  0.32200000  1.0 0.1094359805
H  H68  1  0.01990000  0.70430000  0.36860000  1.0 0.1382632933
H  H69  1  0.92040000  0.96860000  0.36420000  1.0 0.1201335958
H  H70  1  0.84650000  0.03290000  0.39630000  1.0 0.1094359805
H  H71  1  0.98010000  0.14630000  0.44850000  1.0 0.1094359805
H  H72  1  0.05070000  0.08270000  0.41250000  1.0 0.1201335958
H  H73  1  0.71020000  0.08100000  0.51480000  1.0 0.1201335958
H  H74  1  0.65750000  0.24310000  0.56420000  1.0 0.1201335958
H  H75  1  0.72510000  0.33230000  0.54490000  1.0 0.1201335958
H  H76  1  0.88160000  0.30540000  0.46740000  1.0 0.1201335958
H  H77  1  0.61430000  0.06570000  0.50860000  1.0 0.1305769423
H  H78  1  0.54010000  0.01810000  0.56290000  1.0 0.0941454189
H  H79  1  0.54380000  0.12720000  0.70890000  1.0 0.1094359805
H  H80  1  0.62530000  0.17150000  0.67040000  1.0 0.1382632933
H  H81  1  0.79150000  0.38670000  0.62170000  1.0 0.1305769423
H  H82  1  0.82040000  0.48120000  0.64000000  1.0 0.1094359805
H  H83  1  0.88790000  0.51130000  0.44300000  1.0 0.102370003
H  H84  1  0.86440000  0.41220000  0.42490000  1.0 0.1305769423
H  H85  1  0.99880000  0.32180000  0.43810000  1.0 0.102370003
H  H86  1  0.94080000  0.25900000  0.36870000  1.0 0.1305769423
H  H87  1  0.04840000  0.28660000  0.20530000  1.0 0.1305769423
H  H88  1  0.10280000  0.34980000  0.28020000  1.0 0.102370003
H  H89  1  0.87280000  0.23680000  0.25910000  1.0 0.1201335958
H  H90  1  0.78120000  0.17240000  0.23180000  1.0 0.1201335958
H  H91  1  0.80890000  0.01390000  0.15830000  1.0 0.1305769423
H  H92  1  0.03450000  0.18530000  0.20730000  1.0 0.1382632933
H  H93  1  0.72640000  0.11480000  0.30760000  1.0 0.1382632933
H  H94  1  0.64150000  0.07450000  0.34510000  1.0 0.102370003
H  H95  1  0.62100000  0.97860000  0.17800000  1.0 0.1094359805
H  H96  1  0.70430000  0.01990000  0.13140000  1.0 0.1382632933
H  H97  1  0.96860000  0.92040000  0.13580000  1.0 0.1201335958
H  H98  1  0.03290000  0.84650000  0.10370000  1.0 0.1094359805
H  H99  1  0.14630000  0.98010000  0.05150000  1.0 0.1094359805
H  H100  1  0.08270000  0.05070000  0.08750000  1.0 0.1201335958
H  H101  1  0.08100000  0.71020000  0.98520000  1.0 0.1201335958
H  H102  1  0.24310000  0.65750000  0.93580000  1.0 0.1201335958
H  H103  1  0.33230000  0.72510000  0.95510000  1.0 0.1201335958
H  H104  1  0.30540000  0.88160000  0.03260000  1.0 0.1305769423
H  H105  1  0.06570000  0.61430000  0.99140000  1.0 0.1305769423
H  H106  1  0.01810000  0.54010000  0.93710000  1.0 0.0941454189
H  H107  1  0.12720000  0.54380000  0.79110000  1.0 0.1094359805
H  H108  1  0.17150000  0.62530000  0.82960000  1.0 0.1382632933
H  H109  1  0.38670000  0.79150000  0.87830000  1.0 0.1305769423
H  H110  1  0.48120000  0.82040000  0.86000000  1.0 0.1094359805
H  H111  1  0.51130000  0.88790000  0.05700000  1.0 0.102370003
H  H112  1  0.41220000  0.86440000  0.07510000  1.0 0.1305769423
C  C1  1  0.68620000  0.99060000  0.89060000  1.0 0.0624195527
C  C2  1  0.72360000  0.02540000  0.84960000  1.0 -0.1993509241
C  C3  1  0.73600000  0.01120000  0.77960000  1.0 0.1201335958
C  C4  1  0.70720000  0.96240000  0.75370000  1.0 -0.2098501196
C  C5  1  0.66970000  0.92990000  0.79930000  1.0 0.102370003
C  C6  1  0.78250000  0.04270000  0.73910000  1.0 0.0741151364
C  C7  1  0.79100000  0.10360000  0.73970000  1.0 -0.1993509241
C  C8  1  0.84090000  0.13230000  0.71170000  1.0 0.1094359805
C  C9  1  0.85570000  0.19210000  0.71670000  1.0 -0.2098501196
C  C10  1  0.90920000  0.21320000  0.70060000  1.0 0.078596272
C  C11  1  0.94980000  0.17580000  0.67220000  1.0 -0.2189591056
C  C12  1  0.93550000  0.11730000  0.66510000  1.0 0.2111946752
C  C13  1  0.96340000  0.02020000  0.63880000  1.0 0.3419604095
C  C14  1  0.87050000  0.03330000  0.68160000  1.0 0.2111946752
C  C15  1  0.82170000  0.00730000  0.70900000  1.0 -0.2189591056
C  C16  1  0.88210000  0.09390000  0.68550000  1.0 -0.0777528437
C  C17  1  0.93080000  0.27180000  0.71750000  1.0 0.1201335958
C  C18  1  0.91390000  0.29390000  0.78030000  1.0 -0.1892976769
C  C19  1  0.93830000  0.34430000  0.80280000  1.0 0.0538695527
C  C20  1  0.99360000  0.35660000  0.70520000  1.0 0.0941454189
C  C21  1  0.96960000  0.30620000  0.67760000  1.0 -0.1892976769
C  C22  1  0.00830000  0.98070000  0.61540000  1.0 0.0199665826
C  C23  1  0.06770000  0.99510000  0.61910000  1.0 -0.1017451977
C  C24  1  0.11170000  0.95730000  0.59870000  1.0 -0.1183799936
C  C25  1  0.09350000  0.90530000  0.57080000  1.0 0.0263560683
C  C26  1  0.03250000  0.88990000  0.56820000  1.0 -0.1183799936
C  C27  1  0.99070000  0.92770000  0.58990000  1.0 -0.1017451977
C  C28  1  0.13840000  0.86300000  0.54900000  1.0 0.3419604095
C  C29  1  0.23200000  0.85340000  0.50620000  1.0 0.2155495377
C  C30  1  0.28220000  0.87760000  0.48230000  1.0 -0.2295709906
C  C31  1  0.32260000  0.84180000  0.45360000  1.0 0.078596272
C  C32  1  0.31390000  0.78150000  0.45280000  1.0 -0.2189591056
C  C33  1  0.26210000  0.75450000  0.47740000  1.0 0.1094359805
C  C34  1  0.24750000  0.69370000  0.47190000  1.0 -0.2295709906
C  C35  1  0.19370000  0.67210000  0.49060000  1.0 0.078596272
C  C36  1  0.15460000  0.70980000  0.51860000  1.0 -0.2295709906
C  C37  1  0.16790000  0.76790000  0.52610000  1.0 0.2044082301
C  C38  1  0.22120000  0.79160000  0.50390000  1.0 -0.0739179461
C  C39  1  0.37330000  0.87130000  0.42290000  1.0 0.1201335958
C  C40  1  0.39930000  0.91990000  0.44980000  1.0 -0.2189591056
C  C41  1  0.44450000  0.94750000  0.41790000  1.0 0.0372978456
C  C42  1  0.44130000  0.88590000  0.33270000  1.0 0.0624195527
C  C43  1  0.39390000  0.85770000  0.35710000  1.0 -0.2098501196
C  C44  1  0.17760000  0.61000000  0.48140000  1.0 0.1094359805
C  C45  1  0.18850000  0.58850000  0.41640000  1.0 -0.1993509241
C  C46  1  0.17140000  0.53220000  0.40560000  1.0 0.0624195527
C  C47  1  0.13150000  0.51470000  0.51930000  1.0 0.1201335958
C  C48  1  0.14680000  0.57380000  0.53170000  1.0 -0.1892976769
C  C49  1  0.99060000  0.68620000  0.60940000  1.0 0.0624195527
C  C50  1  0.02540000  0.72360000  0.65040000  1.0 -0.1993509241
C  C51  1  0.01120000  0.73600000  0.72040000  1.0 0.1201335958
C  C52  1  0.96240000  0.70720000  0.74630000  1.0 -0.2098501196
C  C53  1  0.92990000  0.66970000  0.70070000  1.0 0.102370003
C  C54  1  0.04270000  0.78250000  0.76090000  1.0 0.0741151364
C  C55  1  0.10360000  0.79100000  0.76030000  1.0 -0.1993509241
C  C56  1  0.13230000  0.84090000  0.78830000  1.0 0.1094359805
C  C57  1  0.19210000  0.85570000  0.78330000  1.0 -0.2098501196
C  C58  1  0.21320000  0.90920000  0.79940000  1.0 0.078596272
C  C59  1  0.17580000  0.94980000  0.82780000  1.0 -0.2189591056
C  C60  1  0.11730000  0.93550000  0.83490000  1.0 0.2111946752
C  C61  1  0.02020000  0.96340000  0.86120000  1.0 0.3419604095
C  C62  1  0.03330000  0.87050000  0.81840000  1.0 0.2111946752
C  C63  1  0.00730000  0.82170000  0.79100000  1.0 -0.2189591056
C  C64  1  0.09390000  0.88210000  0.81450000  1.0 -0.0777528437
C  C65  1  0.27180000  0.93080000  0.78250000  1.0 0.1201335958
C  C66  1  0.29390000  0.91390000  0.71970000  1.0 -0.1892976769
C  C67  1  0.34430000  0.93830000  0.69720000  1.0 0.0538695527
C  C68  1  0.35660000  0.99360000  0.79480000  1.0 0.0941454189
C  C69  1  0.30620000  0.96960000  0.82240000  1.0 -0.1892976769
C  C70  1  0.98070000  0.00830000  0.88460000  1.0 0.0199665826
C  C71  1  0.99510000  0.06770000  0.88090000  1.0 -0.1017451977
C  C72  1  0.95730000  0.11170000  0.90130000  1.0 -0.1183799936
C  C73  1  0.90530000  0.09350000  0.92920000  1.0 0.0263560683
C  C74  1  0.88990000  0.03250000  0.93180000  1.0 -0.1183799936
C  C75  1  0.92770000  0.99070000  0.91010000  1.0 -0.1017451977
C  C76  1  0.86300000  0.13840000  0.95100000  1.0 0.3419604095
C  C77  1  0.85340000  0.23200000  0.99380000  1.0 0.2155495377
C  C78  1  0.87760000  0.28220000  0.01770000  1.0 -0.2295709906
C  C79  1  0.84180000  0.32260000  0.04640000  1.0 0.078596272
C  C80  1  0.78150000  0.31390000  0.04720000  1.0 -0.2189591056
C  C81  1  0.75450000  0.26210000  0.02260000  1.0 0.1094359805
C  C82  1  0.69370000  0.24750000  0.02810000  1.0 -0.2295709906
C  C83  1  0.67210000  0.19370000  0.00940000  1.0 0.078596272
C  C84  1  0.70980000  0.15460000  0.98140000  1.0 -0.2295709906
C  C85  1  0.76790000  0.16790000  0.97390000  1.0 0.2044082301
C  C86  1  0.79160000  0.22120000  0.99610000  1.0 -0.0739179461
C  C87  1  0.87130000  0.37330000  0.07710000  1.0 0.1201335958
C  C88  1  0.91990000  0.39930000  0.05020000  1.0 -0.2189591056
C  C89  1  0.94750000  0.44450000  0.08210000  1.0 0.0372978456
C  C90  1  0.88590000  0.44130000  0.16730000  1.0 0.0624195527
C  C91  1  0.85770000  0.39390000  0.14290000  1.0 -0.2098501196
C  C92  1  0.61000000  0.17760000  0.01860000  1.0 0.1094359805
C  C93  1  0.58850000  0.18850000  0.08360000  1.0 -0.1993509241
C  C94  1  0.53220000  0.17140000  0.09440000  1.0 0.0624195527
C  C95  1  0.51470000  0.13150000  0.98070000  1.0 0.1201335958
C  C96  1  0.57380000  0.14680000  0.96830000  1.0 -0.1892976769
C  C97  1  0.31380000  0.00940000  0.10940000  1.0 0.0624195527
C  C98  1  0.27640000  0.97460000  0.15040000  1.0 -0.1993509241
C  C99  1  0.26400000  0.98880000  0.22040000  1.0 0.1201335958
C  C100  1  0.29280000  0.03760000  0.24630000  1.0 -0.2098501196
C  C101  1  0.33030000  0.07010000  0.20070000  1.0 0.102370003
C  C102  1  0.21750000  0.95730000  0.26090000  1.0 0.0741151364
C  C103  1  0.20900000  0.89640000  0.26030000  1.0 -0.1993509241
C  C104  1  0.15910000  0.86770000  0.28830000  1.0 0.1094359805
C  C105  1  0.14430000  0.80790000  0.28330000  1.0 -0.2098501196
C  C106  1  0.09080000  0.78680000  0.29940000  1.0 0.078596272
C  C107  1  0.05020000  0.82420000  0.32780000  1.0 -0.2189591056
C  C108  1  0.06450000  0.88270000  0.33490000  1.0 0.2111946752
C  C109  1  0.03660000  0.97980000  0.36120000  1.0 0.3419604095
C  C110  1  0.12950000  0.96670000  0.31840000  1.0 0.2111946752
C  C111  1  0.17830000  0.99270000  0.29100000  1.0 -0.2189591056
C  C112  1  0.11790000  0.90610000  0.31450000  1.0 -0.0777528437
C  C113  1  0.06920000  0.72820000  0.28250000  1.0 0.1201335958
C  C114  1  0.08610000  0.70610000  0.21970000  1.0 -0.1892976769
C  C115  1  0.06170000  0.65570000  0.19720000  1.0 0.0538695527
C  C116  1  0.00640000  0.64340000  0.29480000  1.0 0.0941454189
C  C117  1  0.03040000  0.69380000  0.32240000  1.0 -0.1892976769
C  C118  1  0.99170000  0.01930000  0.38460000  1.0 0.0199665826
C  C119  1  0.93230000  0.00490000  0.38090000  1.0 -0.1017451977
C  C120  1  0.88830000  0.04270000  0.40130000  1.0 -0.1183799936
C  C121  1  0.90650000  0.09470000  0.42920000  1.0 0.0263560683
C  C122  1  0.96750000  0.11010000  0.43180000  1.0 -0.1183799936
C  C123  1  0.00930000  0.07230000  0.41010000  1.0 -0.1017451977
C  C124  1  0.86160000  0.13700000  0.45100000  1.0 0.3419604095
C  C125  1  0.76800000  0.14660000  0.49380000  1.0 0.2155495377
C  C126  1  0.71780000  0.12240000  0.51770000  1.0 -0.2295709906
C  C127  1  0.67740000  0.15820000  0.54640000  1.0 0.078596272
C  C128  1  0.68610000  0.21850000  0.54720000  1.0 -0.2189591056
C  C129  1  0.73790000  0.24550000  0.52260000  1.0 0.1094359805
C  C130  1  0.75250000  0.30630000  0.52810000  1.0 -0.2295709906
C  C131  1  0.80630000  0.32790000  0.50940000  1.0 0.078596272
C  C132  1  0.84540000  0.29020000  0.48140000  1.0 -0.2295709906
C  C133  1  0.83210000  0.23210000  0.47390000  1.0 0.2044082301
C  C134  1  0.77880000  0.20840000  0.49610000  1.0 -0.0739179461
C  C135  1  0.62670000  0.12870000  0.57710000  1.0 0.1201335958
C  C136  1  0.60070000  0.08010000  0.55020000  1.0 -0.2189591056
C  C137  1  0.55550000  0.05250000  0.58210000  1.0 0.0372978456
C  C138  1  0.55870000  0.11410000  0.66730000  1.0 0.0624195527
C  C139  1  0.60610000  0.14230000  0.64290000  1.0 -0.2098501196
C  C140  1  0.82240000  0.39000000  0.51860000  1.0 0.1094359805
C  C141  1  0.81150000  0.41150000  0.58360000  1.0 -0.1993509241
C  C142  1  0.82860000  0.46780000  0.59440000  1.0 0.0624195527
C  C143  1  0.86850000  0.48530000  0.48070000  1.0 0.1201335958
C  C144  1  0.85320000  0.42620000  0.46830000  1.0 -0.1892976769
C  C145  1  0.00940000  0.31380000  0.39060000  1.0 0.0624195527
C  C146  1  0.97460000  0.27640000  0.34960000  1.0 -0.1993509241
C  C147  1  0.98880000  0.26400000  0.27960000  1.0 0.1201335958
C  C148  1  0.03760000  0.29280000  0.25370000  1.0 -0.2098501196
C  C149  1  0.07010000  0.33030000  0.29930000  1.0 0.102370003
C  C150  1  0.95730000  0.21750000  0.23910000  1.0 0.0741151364
C  C151  1  0.89640000  0.20900000  0.23970000  1.0 -0.1993509241
C  C152  1  0.86770000  0.15910000  0.21170000  1.0 0.1094359805
C  C153  1  0.80790000  0.14430000  0.21670000  1.0 -0.2098501196
C  C154  1  0.78680000  0.09080000  0.20060000  1.0 0.078596272
C  C155  1  0.82420000  0.05020000  0.17220000  1.0 -0.2189591056
C  C156  1  0.88270000  0.06450000  0.16510000  1.0 0.2111946752
C  C157  1  0.97980000  0.03660000  0.13880000  1.0 0.3419604095
C  C158  1  0.96670000  0.12950000  0.18160000  1.0 0.2111946752
C  C159  1  0.99270000  0.17830000  0.20900000  1.0 -0.2189591056
C  C160  1  0.90610000  0.11790000  0.18550000  1.0 -0.0777528437
C  C161  1  0.72820000  0.06920000  0.21750000  1.0 0.1201335958
C  C162  1  0.70610000  0.08610000  0.28030000  1.0 -0.1892976769
C  C163  1  0.65570000  0.06170000  0.30280000  1.0 0.0538695527
C  C164  1  0.64340000  0.00640000  0.20520000  1.0 0.0941454189
C  C165  1  0.69380000  0.03040000  0.17760000  1.0 -0.1892976769
C  C166  1  0.01930000  0.99170000  0.11540000  1.0 0.0199665826
C  C167  1  0.00490000  0.93230000  0.11910000  1.0 -0.1017451977
C  C168  1  0.04270000  0.88830000  0.09870000  1.0 -0.1183799936
C  C169  1  0.09470000  0.90650000  0.07080000  1.0 0.0263560683
C  C170  1  0.11010000  0.96750000  0.06820000  1.0 -0.1183799936
C  C171  1  0.07230000  0.00930000  0.08990000  1.0 -0.1017451977
C  C172  1  0.13700000  0.86160000  0.04900000  1.0 0.3419604095
C  C173  1  0.14660000  0.76800000  0.00620000  1.0 0.2155495377
C  C174  1  0.12240000  0.71780000  0.98230000  1.0 -0.2295709906
C  C175  1  0.15820000  0.67740000  0.95360000  1.0 0.078596272
C  C176  1  0.21850000  0.68610000  0.95280000  1.0 -0.2189591056
C  C177  1  0.24550000  0.73790000  0.97740000  1.0 0.1094359805
C  C178  1  0.30630000  0.75250000  0.97190000  1.0 -0.2295709906
C  C179  1  0.32790000  0.80630000  0.99060000  1.0 0.078596272
C  C180  1  0.29020000  0.84540000  0.01860000  1.0 -0.2295709906
C  C181  1  0.23210000  0.83210000  0.02610000  1.0 0.2044082301
C  C182  1  0.20840000  0.77880000  0.00390000  1.0 -0.0739179461
C  C183  1  0.12870000  0.62670000  0.92290000  1.0 0.1201335958
C  C184  1  0.08010000  0.60070000  0.94980000  1.0 -0.2189591056
C  C185  1  0.05250000  0.55550000  0.91790000  1.0 0.0372978456
C  C186  1  0.11410000  0.55870000  0.83270000  1.0 0.0624195527
C  C187  1  0.14230000  0.60610000  0.85710000  1.0 -0.2098501196
C  C188  1  0.39000000  0.82240000  0.98140000  1.0 0.1094359805
C  C189  1  0.41150000  0.81150000  0.91640000  1.0 -0.1993509241
C  C190  1  0.46780000  0.82860000  0.90560000  1.0 0.0624195527
C  C191  1  0.48530000  0.86850000  0.01930000  1.0 0.1201335958
C  C192  1  0.42620000  0.85320000  0.03170000  1.0 -0.1892976769
N  N1  1  0.65970000  0.94150000  0.86730000  1.0 -0.2386777459
N  N2  1  0.97740000  0.07720000  0.64260000  1.0 -0.3919686683
N  N3  1  0.91190000  0.99710000  0.65440000  1.0 -0.3919686683
N  N4  1  0.97920000  0.37400000  0.76780000  1.0 -0.2098501196
N  N5  1  0.18909000  0.88829000  0.52900000  1.0 -0.4082013725
N  N6  1  0.12596000  0.80616000  0.55030000  1.0 -0.3919686683
N  N7  1  0.46850000  0.93010000  0.36230000  1.0 -0.2189591056
N  N8  1  0.14310000  0.49490000  0.45810000  1.0 -0.2295709906
N  N9  1  0.51920000  0.00820000  0.85350000  1.0 0.6532623412
N  N10  1  0.63250000  0.77650000  0.89200000  1.0 0.556838
N  N11  1  0.66860000  0.87160000  0.11030000  1.0 0.6094010712
N  N12  1  0.94150000  0.65970000  0.63270000  1.0 -0.2386777459
N  N13  1  0.07720000  0.97740000  0.85740000  1.0 -0.3919686683
N  N14  1  0.99710000  0.91190000  0.84560000  1.0 -0.3919686683
N  N15  1  0.37400000  0.97920000  0.73220000  1.0 -0.2098501196
N  N16  1  0.88829000  0.18909000  0.97100000  1.0 -0.4082013725
N  N17  1  0.80616000  0.12596000  0.94970000  1.0 -0.3919686683
N  N18  1  0.93010000  0.46850000  0.13770000  1.0 -0.2189591056
N  N19  1  0.49490000  0.14310000  0.04190000  1.0 -0.2295709906
N  N20  1  0.00820000  0.51920000  0.64650000  1.0 0.6532623412
N  N21  1  0.77650000  0.63250000  0.60800000  1.0 0.556838
N  N22  1  0.87160000  0.66860000  0.38970000  1.0 0.6094010712
N  N23  1  0.34030000  0.05850000  0.13270000  1.0 -0.2386777459
N  N24  1  0.02260000  0.92280000  0.35740000  1.0 -0.3919686683
N  N25  1  0.08810000  0.00290000  0.34560000  1.0 -0.3919686683
N  N26  1  0.02080000  0.62600000  0.23220000  1.0 -0.2098501196
N  N27  1  0.81091000  0.11171000  0.47100000  1.0 -0.4082013725
N  N28  1  0.87404000  0.19384000  0.44970000  1.0 -0.3919686683
N  N29  1  0.53150000  0.06990000  0.63770000  1.0 -0.2189591056
N  N30  1  0.85690000  0.50510000  0.54190000  1.0 -0.2295709906
N  N31  1  0.48080000  0.99180000  0.14650000  1.0 0.6532623412
N  N32  1  0.36750000  0.22350000  0.10800000  1.0 0.556838
N  N33  1  0.33140000  0.12840000  0.88970000  1.0 0.6094010712
N  N34  1  0.05850000  0.34030000  0.36730000  1.0 -0.2386777459
N  N35  1  0.92280000  0.02260000  0.14260000  1.0 -0.3919686683
N  N36  1  0.00290000  0.08810000  0.15440000  1.0 -0.3919686683
N  N37  1  0.62600000  0.02080000  0.26780000  1.0 -0.2098501196
N  N38  1  0.11171000  0.81091000  0.02900000  1.0 -0.4082013725
N  N39  1  0.19384000  0.87404000  0.05030000  1.0 -0.3919686683
N  N40  1  0.06990000  0.53150000  0.86230000  1.0 -0.2189591056
N  N41  1  0.50510000  0.85690000  0.95810000  1.0 -0.2295709906
N  N42  1  0.99180000  0.48080000  0.35350000  1.0 0.6532623412
N  N43  1  0.22350000  0.36750000  0.39200000  1.0 0.556838
N  N44  1  0.12840000  0.33140000  0.61030000  1.0 0.6094010712
O  O1  1  0.48650000  0.06330000  0.81690000  1.0 -0.4229247889
O  O2  1  0.52090000  0.96930000  0.81280000  1.0 -0.4082013725
O  O3  1  0.55230000  0.99450000  0.93260000  1.0 -0.4283116592
O  O4  1  0.58800000  0.81960000  0.84130000  1.0 -0.4229247889
O  O5  1  0.64150000  0.73330000  0.86130000  1.0 -0.3105347512
O  O6  1  0.65500000  0.78500000  0.95730000  1.0 -0.4082013725
O  O7  1  0.66590000  0.91250000  0.05460000  1.0 -0.3277476041
O  O8  1  0.63570000  0.83230000  0.10370000  1.0 -0.2829626335
O  O9  1  0.70400000  0.85740000  0.18840000  1.0 -0.3553641199
O  O10  1  0.06330000  0.48650000  0.68310000  1.0 -0.4229247889
O  O11  1  0.96930000  0.52090000  0.68720000  1.0 -0.4082013725
O  O12  1  0.99450000  0.55230000  0.56740000  1.0 -0.4283116592
O  O13  1  0.81960000  0.58800000  0.65870000  1.0 -0.4229247889
O  O14  1  0.73330000  0.64150000  0.63870000  1.0 -0.3029130755
O  O15  1  0.78500000  0.65500000  0.54270000  1.0 -0.4082013725
O  O16  1  0.91250000  0.66590000  0.44540000  1.0 -0.3277476041
O  O17  1  0.83230000  0.63570000  0.39630000  1.0 -0.2829626335
O  O18  1  0.85740000  0.70400000  0.31160000  1.0 -0.3553641199
O  O19  1  0.51350000  0.93670000  0.18310000  1.0 -0.4229247889
O  O20  1  0.47910000  0.03070000  0.18720000  1.0 -0.4041795789
O  O21  1  0.44770000  0.00550000  0.06740000  1.0 -0.4283116592
O  O22  1  0.41200000  0.18040000  0.15870000  1.0 -0.4229247889
O  O23  1  0.35850000  0.26670000  0.13870000  1.0 -0.3105347512
O  O24  1  0.34500000  0.21500000  0.04270000  1.0 -0.4082013725
O  O25  1  0.33410000  0.08750000  0.94540000  1.0 -0.3277476041
O  O26  1  0.36430000  0.16770000  0.89630000  1.0 -0.2829626335
O  O27  1  0.29600000  0.14260000  0.81160000  1.0 -0.3553641199
O  O28  1  0.93670000  0.51350000  0.31690000  1.0 -0.4229247889
O  O29  1  0.03070000  0.47910000  0.31280000  1.0 -0.4041795789
O  O30  1  0.00550000  0.44770000  0.43260000  1.0 -0.4283116592
O  O31  1  0.18040000  0.41200000  0.34130000  1.0 -0.4229247889
O  O32  1  0.26670000  0.35850000  0.36130000  1.0 -0.3105347512
O  O33  1  0.21500000  0.34500000  0.45730000  1.0 -0.4082013725
O  O34  1  0.08750000  0.33410000  0.55460000  1.0 -0.3277476041
O  O35  1  0.16770000  0.36430000  0.60370000  1.0 -0.2829626335
O  O36  1  0.14260000  0.29600000  0.68840000  1.0 -0.3553641199
