# DDEC6 charges by PACMAN v1.1 (https://github.com/mtap-research/PACMAN-charge/)
data_RILJOO_FSR_pacman
_symmetry_space_group_name_H-M   'P 1'
_cell_length_a   31.40950000
_cell_length_b   31.40950000
_cell_length_c   12.96300000
_cell_angle_alpha   90.00000000
_cell_angle_beta   90.00000000
_cell_angle_gamma   120.00000000
_symmetry_Int_Tables_number   1
_chemical_formula_structural   Ca2H12C28N4O13
_chemical_formula_sum   'Ca12 H72 C168 N24 O78'
_cell_volume   11075.36885162
_cell_formula_units_Z   6
loop_
 _symmetry_equiv_pos_site_id
 _symmetry_equiv_pos_as_xyz
  1  'x, y, z'
loop_
 _atom_site_type_symbol
 _atom_site_label
 _atom_site_symmetry_multiplicity
 _atom_site_fract_x
 _atom_site_fract_y
 _atom_site_fract_z
 _atom_site_occupancy
 _atom_site_charge
Ca  Ca1  1  0.00000000  0.54654000  0.66666667  1.0 1.3367853823
Ca  Ca2  1  0.54654000  0.00000000  0.00000000  1.0 1.3367853823
Ca  Ca3  1  0.45346000  0.45346000  0.33333333  1.0 1.3367853823
Ca  Ca4  1  0.00000000  0.45346000  0.16667000  1.0 1.3367853823
Ca  Ca5  1  0.45346000  0.00000000  0.50000000  1.0 1.3367853823
Ca  Ca6  1  0.54654000  0.54654000  0.83333000  1.0 1.3367853823
Ca  Ca7  1  0.05442000  0.52721000  0.91667000  1.0 1.3367853823
Ca  Ca8  1  0.47279000  0.94558000  0.25000000  1.0 1.3367853823
Ca  Ca9  1  0.47279000  0.52721000  0.58333000  1.0 1.3367853823
Ca  Ca10  1  0.94558000  0.47279000  0.41667000  1.0 1.3367853823
Ca  Ca11  1  0.52721000  0.05442000  0.75000000  1.0 1.3367853823
Ca  Ca12  1  0.52721000  0.47279000  0.08333000  1.0 1.3367853823
H  H1  1  0.28500000  0.81100000  0.51133000  1.0 0.1854054742
H  H2  1  0.26760000  0.79790000  0.22424000  1.0 0.1501459834
H  H3  1  0.34320000  0.86550000  0.21433000  1.0 0.1610586023
H  H4  1  0.13760000  0.66590000  0.45993000  1.0 0.1501459834
H  H5  1  0.04000000  0.55510000  0.28793000  1.0 0.1378463905
H  H6  1  0.16130000  0.65880000  0.15484000  1.0 0.1378463905
H  H7  1  0.52600000  0.71500000  0.84467000  1.0 0.1854054742
H  H8  1  0.53030000  0.73240000  0.55757000  1.0 0.1501459834
H  H9  1  0.52230000  0.65680000  0.54767000  1.0 0.1610586023
H  H10  1  0.52830000  0.86240000  0.79327000  1.0 0.1501459834
H  H11  1  0.51510000  0.96000000  0.62127000  1.0 0.1378463905
H  H12  1  0.49750000  0.83870000  0.48817000  1.0 0.1378463905
H  H13  1  0.18900000  0.47400000  0.17800000  1.0 0.1854054742
H  H14  1  0.20210000  0.46970000  0.89090000  1.0 0.1501459834
H  H15  1  0.13450000  0.47770000  0.88100000  1.0 0.1610586023
H  H16  1  0.33410000  0.47170000  0.12660000  1.0 0.1501459834
H  H17  1  0.44490000  0.48490000  0.95460000  1.0 0.1378463905
H  H18  1  0.34120000  0.50250000  0.82150000  1.0 0.1378463905
H  H19  1  0.71500000  0.18900000  0.01134000  1.0 0.1854054742
H  H20  1  0.73240000  0.20210000  0.72423000  1.0 0.1501459834
H  H21  1  0.65680000  0.13450000  0.71434000  1.0 0.1610586023
H  H22  1  0.86240000  0.33410000  0.95993000  1.0 0.1501459834
H  H23  1  0.96000000  0.44490000  0.78794000  1.0 0.1378463905
H  H24  1  0.83870000  0.34120000  0.65483000  1.0 0.1378463905
H  H25  1  0.47400000  0.28500000  0.34467000  1.0 0.1854054742
H  H26  1  0.46970000  0.26760000  0.05757000  1.0 0.1501459834
H  H27  1  0.47770000  0.34320000  0.04767000  1.0 0.1610586023
H  H28  1  0.47170000  0.13760000  0.29327000  1.0 0.1501459834
H  H29  1  0.48490000  0.04000000  0.12127000  1.0 0.1378463905
H  H30  1  0.50250000  0.16130000  0.98817000  1.0 0.1378463905
H  H31  1  0.81100000  0.52600000  0.67800000  1.0 0.1854054742
H  H32  1  0.79790000  0.53030000  0.39090000  1.0 0.1501459834
H  H33  1  0.86550000  0.52230000  0.38100000  1.0 0.1610586023
H  H34  1  0.66590000  0.52830000  0.62660000  1.0 0.1501459834
H  H35  1  0.55510000  0.51510000  0.45460000  1.0 0.1378463905
H  H36  1  0.65880000  0.49750000  0.32150000  1.0 0.1378463905
H  H37  1  0.47400000  0.18900000  0.48867000  1.0 0.1854054742
H  H38  1  0.46970000  0.20210000  0.77577000  1.0 0.1501459834
H  H39  1  0.47770000  0.13450000  0.78567000  1.0 0.1610586023
H  H40  1  0.47170000  0.33410000  0.54007000  1.0 0.1501459834
H  H41  1  0.48490000  0.44490000  0.71206000  1.0 0.1378463905
H  H42  1  0.50250000  0.34120000  0.84517000  1.0 0.1378463905
H  H43  1  0.81100000  0.28500000  0.15533000  1.0 0.1854054742
H  H44  1  0.79790000  0.26760000  0.44243000  1.0 0.1501459834
H  H45  1  0.86550000  0.34320000  0.45233000  1.0 0.1610586023
H  H46  1  0.66590000  0.13760000  0.20673000  1.0 0.1501459834
H  H47  1  0.55510000  0.04000000  0.37873000  1.0 0.1378463905
H  H48  1  0.65880000  0.16130000  0.51183000  1.0 0.1378463905
H  H49  1  0.71500000  0.52600000  0.82200000  1.0 0.1854054742
H  H50  1  0.73240000  0.53030000  0.10910000  1.0 0.1501459834
H  H51  1  0.65680000  0.52230000  0.11900000  1.0 0.1610586023
H  H52  1  0.86240000  0.52830000  0.87340000  1.0 0.1501459834
H  H53  1  0.96000000  0.51510000  0.04540000  1.0 0.1378463905
H  H54  1  0.83870000  0.49750000  0.17850000  1.0 0.1378463905
H  H55  1  0.52600000  0.81100000  0.98867000  1.0 0.1854054742
H  H56  1  0.53030000  0.79790000  0.27576000  1.0 0.1501459834
H  H57  1  0.52230000  0.86550000  0.28567000  1.0 0.1610586023
H  H58  1  0.52830000  0.66590000  0.04007000  1.0 0.1501459834
H  H59  1  0.51510000  0.55510000  0.21207000  1.0 0.1378463905
H  H60  1  0.49750000  0.65880000  0.34516000  1.0 0.1378463905
H  H61  1  0.18900000  0.71500000  0.65533000  1.0 0.1854054742
H  H62  1  0.20210000  0.73240000  0.94243000  1.0 0.1501459834
H  H63  1  0.13450000  0.65680000  0.95233000  1.0 0.1610586023
H  H64  1  0.33410000  0.86240000  0.70673000  1.0 0.1501459834
H  H65  1  0.44490000  0.96000000  0.87873000  1.0 0.1378463905
H  H66  1  0.34120000  0.83870000  0.01183000  1.0 0.1378463905
H  H67  1  0.28500000  0.47400000  0.32200000  1.0 0.1854054742
H  H68  1  0.26760000  0.46970000  0.60910000  1.0 0.1501459834
H  H69  1  0.34320000  0.47770000  0.61900000  1.0 0.1610586023
H  H70  1  0.13760000  0.47170000  0.37340000  1.0 0.1501459834
H  H71  1  0.04000000  0.48490000  0.54540000  1.0 0.1378463905
H  H72  1  0.16130000  0.50250000  0.67850000  1.0 0.1378463905
C  C1  1  0.33400000  0.86550000  0.43774000  1.0 0.0418721717
C  C2  1  0.29490000  0.82280000  0.44473000  1.0 -0.1582809413
C  C3  1  0.26730000  0.79390000  0.37054000  1.0 -0.0054106296
C  C4  1  0.28490000  0.81250000  0.28443000  1.0 -0.138608504
C  C5  1  0.32990000  0.85460000  0.27954000  1.0 -0.0417085131
C  C6  1  0.22090000  0.74480000  0.38583000  1.0 0.4295215942
C  C7  1  0.15880000  0.67410000  0.30873000  1.0 0.2763456194
C  C8  1  0.12860000  0.65070000  0.39574000  1.0 -0.1582809413
C  C9  1  0.08570000  0.60540000  0.38664000  1.0 -0.0015667745
C  C10  1  0.07080000  0.58320000  0.29374000  1.0 -0.1120886542
C  C11  1  0.09970000  0.60100000  0.20883000  1.0 0.0086716079
C  C12  1  0.14240000  0.64610000  0.21414000  1.0 -0.1733686365
C  C13  1  0.05620000  0.58300000  0.48164000  1.0 0.5757572018
C  C14  1  0.08520000  0.57200000  0.10713000  1.0 0.5735488497
C  C15  1  0.53150000  0.66600000  0.77107000  1.0 0.0418721717
C  C16  1  0.52790000  0.70510000  0.77807000  1.0 -0.1582809413
C  C17  1  0.52660000  0.73270000  0.70387000  1.0 -0.0054106296
C  C18  1  0.52760000  0.71510000  0.61777000  1.0 -0.138608504
C  C19  1  0.52470000  0.67010000  0.61287000  1.0 -0.0417085131
C  C20  1  0.52390000  0.77910000  0.71917000  1.0 0.4295215942
C  C21  1  0.51530000  0.84120000  0.64207000  1.0 0.2763456194
C  C22  1  0.52210000  0.87140000  0.72907000  1.0 -0.1582809413
C  C23  1  0.51970000  0.91430000  0.71997000  1.0 -0.0015667745
C  C24  1  0.51240000  0.92920000  0.62707000  1.0 -0.1120886542
C  C25  1  0.50130000  0.90030000  0.54217000  1.0 0.0086716079
C  C26  1  0.50370000  0.85760000  0.54747000  1.0 -0.1733686365
C  C27  1  0.52680000  0.94380000  0.81497000  1.0 0.5757572018
C  C28  1  0.48680000  0.91480000  0.44047000  1.0 0.5735488497
C  C29  1  0.13450000  0.46850000  0.10440000  1.0 0.0418721717
C  C30  1  0.17720000  0.47210000  0.11140000  1.0 -0.1582809413
C  C31  1  0.20610000  0.47340000  0.03720000  1.0 -0.0054106296
C  C32  1  0.18750000  0.47240000  0.95110000  1.0 -0.138608504
C  C33  1  0.14540000  0.47530000  0.94620000  1.0 -0.0417085131
C  C34  1  0.25520000  0.47610000  0.05250000  1.0 0.4295215942
C  C35  1  0.32590000  0.48470000  0.97540000  1.0 0.2763456194
C  C36  1  0.34930000  0.47790000  0.06240000  1.0 -0.1582809413
C  C37  1  0.39460000  0.48030000  0.05330000  1.0 -0.0015667745
C  C38  1  0.41680000  0.48760000  0.96040000  1.0 -0.1120886542
C  C39  1  0.39900000  0.49870000  0.87550000  1.0 0.0086716079
C  C40  1  0.35390000  0.49630000  0.88080000  1.0 -0.1733686365
C  C41  1  0.41700000  0.47320000  0.14830000  1.0 0.5757572018
C  C42  1  0.42800000  0.51320000  0.77380000  1.0 0.5735488497
C  C43  1  0.66600000  0.13450000  0.93774000  1.0 0.0418721717
C  C44  1  0.70510000  0.17720000  0.94473000  1.0 -0.1582809413
C  C45  1  0.73270000  0.20610000  0.87053000  1.0 -0.0054106296
C  C46  1  0.71510000  0.18750000  0.78443000  1.0 -0.138608504
C  C47  1  0.67010000  0.14540000  0.77953000  1.0 -0.0417085131
C  C48  1  0.77910000  0.25520000  0.88584000  1.0 0.4295215942
C  C49  1  0.84120000  0.32590000  0.80874000  1.0 0.2763456194
C  C50  1  0.87140000  0.34930000  0.89573000  1.0 -0.1582809413
C  C51  1  0.91430000  0.39460000  0.88664000  1.0 -0.0015667745
C  C52  1  0.92920000  0.41680000  0.79373000  1.0 -0.1120886542
C  C53  1  0.90030000  0.39900000  0.70883000  1.0 0.0086716079
C  C54  1  0.85760000  0.35390000  0.71413000  1.0 -0.1733686365
C  C55  1  0.94380000  0.41700000  0.98164000  1.0 0.5757572018
C  C56  1  0.91480000  0.42800000  0.60713000  1.0 0.5735488497
C  C57  1  0.46850000  0.33400000  0.27107000  1.0 0.0418721717
C  C58  1  0.47210000  0.29490000  0.27807000  1.0 -0.1582809413
C  C59  1  0.47340000  0.26730000  0.20387000  1.0 -0.0054106296
C  C60  1  0.47240000  0.28490000  0.11777000  1.0 -0.138608504
C  C61  1  0.47530000  0.32990000  0.11287000  1.0 -0.0417085131
C  C62  1  0.47610000  0.22090000  0.21917000  1.0 0.4295215942
C  C63  1  0.48470000  0.15880000  0.14207000  1.0 0.2763456194
C  C64  1  0.47790000  0.12860000  0.22907000  1.0 -0.1582809413
C  C65  1  0.48030000  0.08570000  0.21997000  1.0 -0.0015667745
C  C66  1  0.48760000  0.07080000  0.12707000  1.0 -0.1120886542
C  C67  1  0.49870000  0.09970000  0.04217000  1.0 0.0086716079
C  C68  1  0.49630000  0.14240000  0.04747000  1.0 -0.1733686365
C  C69  1  0.47320000  0.05620000  0.31497000  1.0 0.5757572018
C  C70  1  0.51320000  0.08520000  0.94047000  1.0 0.5735488497
C  C71  1  0.86550000  0.53150000  0.60440000  1.0 0.0418721717
C  C72  1  0.82280000  0.52790000  0.61140000  1.0 -0.1582809413
C  C73  1  0.79390000  0.52660000  0.53720000  1.0 -0.0054106296
C  C74  1  0.81250000  0.52760000  0.45110000  1.0 -0.138608504
C  C75  1  0.85460000  0.52470000  0.44620000  1.0 -0.0417085131
C  C76  1  0.74480000  0.52390000  0.55250000  1.0 0.4295215942
C  C77  1  0.67410000  0.51530000  0.47540000  1.0 0.2763456194
C  C78  1  0.65070000  0.52210000  0.56240000  1.0 -0.1582809413
C  C79  1  0.60540000  0.51970000  0.55330000  1.0 -0.0015667745
C  C80  1  0.58320000  0.51240000  0.46040000  1.0 -0.1120886542
C  C81  1  0.60100000  0.50130000  0.37550000  1.0 0.0086716079
C  C82  1  0.64610000  0.50370000  0.38080000  1.0 -0.1733686365
C  C83  1  0.58300000  0.52680000  0.64830000  1.0 0.5757572018
C  C84  1  0.57200000  0.48680000  0.27380000  1.0 0.5735488497
C  C85  1  0.46850000  0.13450000  0.56227000  1.0 0.0418721717
C  C86  1  0.47210000  0.17720000  0.55527000  1.0 -0.1582809413
C  C87  1  0.47340000  0.20610000  0.62947000  1.0 -0.0054106296
C  C88  1  0.47240000  0.18750000  0.71557000  1.0 -0.138608504
C  C89  1  0.47530000  0.14540000  0.72047000  1.0 -0.0417085131
C  C90  1  0.47610000  0.25520000  0.61416000  1.0 0.4295215942
C  C91  1  0.48470000  0.32590000  0.69127000  1.0 0.2763456194
C  C92  1  0.47790000  0.34930000  0.60427000  1.0 -0.1582809413
C  C93  1  0.48030000  0.39460000  0.61337000  1.0 -0.0015667745
C  C94  1  0.48760000  0.41680000  0.70627000  1.0 -0.1120886542
C  C95  1  0.49870000  0.39900000  0.79117000  1.0 0.0086716079
C  C96  1  0.49630000  0.35390000  0.78587000  1.0 -0.1733686365
C  C97  1  0.47320000  0.41700000  0.51836000  1.0 0.5757572018
C  C98  1  0.51320000  0.42800000  0.89287000  1.0 0.5735488497
C  C99  1  0.86550000  0.33400000  0.22893000  1.0 0.0418721717
C  C100  1  0.82280000  0.29490000  0.22193000  1.0 -0.1582809413
C  C101  1  0.79390000  0.26730000  0.29613000  1.0 -0.0054106296
C  C102  1  0.81250000  0.28490000  0.38223000  1.0 -0.138608504
C  C103  1  0.85460000  0.32990000  0.38713000  1.0 -0.0417085131
C  C104  1  0.74480000  0.22090000  0.28083000  1.0 0.4295215942
C  C105  1  0.67410000  0.15880000  0.35793000  1.0 0.2763456194
C  C106  1  0.65070000  0.12860000  0.27093000  1.0 -0.1582809413
C  C107  1  0.60540000  0.08570000  0.28003000  1.0 -0.0015667745
C  C108  1  0.58320000  0.07080000  0.37293000  1.0 -0.1120886542
C  C109  1  0.60100000  0.09970000  0.45783000  1.0 0.0086716079
C  C110  1  0.64610000  0.14240000  0.45253000  1.0 -0.1733686365
C  C111  1  0.58300000  0.05620000  0.18503000  1.0 0.5757572018
C  C112  1  0.57200000  0.08520000  0.55953000  1.0 0.5735488497
C  C113  1  0.66600000  0.53150000  0.89560000  1.0 0.0418721717
C  C114  1  0.70510000  0.52790000  0.88860000  1.0 -0.1582809413
C  C115  1  0.73270000  0.52660000  0.96280000  1.0 -0.0054106296
C  C116  1  0.71510000  0.52760000  0.04890000  1.0 -0.138608504
C  C117  1  0.67010000  0.52470000  0.05380000  1.0 -0.0417085131
C  C118  1  0.77910000  0.52390000  0.94750000  1.0 0.4295215942
C  C119  1  0.84120000  0.51530000  0.02460000  1.0 0.2763456194
C  C120  1  0.87140000  0.52210000  0.93760000  1.0 -0.1582809413
C  C121  1  0.91430000  0.51970000  0.94670000  1.0 -0.0015667745
C  C122  1  0.92920000  0.51240000  0.03960000  1.0 -0.1120886542
C  C123  1  0.90030000  0.50130000  0.12450000  1.0 0.0086716079
C  C124  1  0.85760000  0.50370000  0.11920000  1.0 -0.1733686365
C  C125  1  0.94380000  0.52680000  0.85170000  1.0 0.5757572018
C  C126  1  0.91480000  0.48680000  0.22620000  1.0 0.5735488497
C  C127  1  0.53150000  0.86550000  0.06227000  1.0 0.0418721717
C  C128  1  0.52790000  0.82280000  0.05527000  1.0 -0.1582809413
C  C129  1  0.52660000  0.79390000  0.12946000  1.0 -0.0054106296
C  C130  1  0.52760000  0.81250000  0.21557000  1.0 -0.138608504
C  C131  1  0.52470000  0.85460000  0.22047000  1.0 -0.0417085131
C  C132  1  0.52390000  0.74480000  0.11417000  1.0 0.4295215942
C  C133  1  0.51530000  0.67410000  0.19126000  1.0 0.2763456194
C  C134  1  0.52210000  0.65070000  0.10426000  1.0 -0.1582809413
C  C135  1  0.51970000  0.60540000  0.11336000  1.0 -0.0015667745
C  C136  1  0.51240000  0.58320000  0.20627000  1.0 -0.1120886542
C  C137  1  0.50130000  0.60100000  0.29117000  1.0 0.0086716079
C  C138  1  0.50370000  0.64610000  0.28586000  1.0 -0.1733686365
C  C139  1  0.52680000  0.58300000  0.01837000  1.0 0.5757572018
C  C140  1  0.48680000  0.57200000  0.39287000  1.0 0.5735488497
C  C141  1  0.13450000  0.66600000  0.72893000  1.0 0.0418721717
C  C142  1  0.17720000  0.70510000  0.72193000  1.0 -0.1582809413
C  C143  1  0.20610000  0.73270000  0.79613000  1.0 -0.0054106296
C  C144  1  0.18750000  0.71510000  0.88223000  1.0 -0.138608504
C  C145  1  0.14540000  0.67010000  0.88713000  1.0 -0.0417085131
C  C146  1  0.25520000  0.77910000  0.78083000  1.0 0.4295215942
C  C147  1  0.32590000  0.84120000  0.85793000  1.0 0.2763456194
C  C148  1  0.34930000  0.87140000  0.77093000  1.0 -0.1582809413
C  C149  1  0.39460000  0.91430000  0.78003000  1.0 -0.0015667745
C  C150  1  0.41680000  0.92920000  0.87293000  1.0 -0.1120886542
C  C151  1  0.39900000  0.90030000  0.95783000  1.0 0.0086716079
C  C152  1  0.35390000  0.85760000  0.95253000  1.0 -0.1733686365
C  C153  1  0.41700000  0.94380000  0.68503000  1.0 0.5757572018
C  C154  1  0.42800000  0.91480000  0.05953000  1.0 0.5735488497
C  C155  1  0.33400000  0.46850000  0.39560000  1.0 0.0418721717
C  C156  1  0.29490000  0.47210000  0.38860000  1.0 -0.1582809413
C  C157  1  0.26730000  0.47340000  0.46280000  1.0 -0.0054106296
C  C158  1  0.28490000  0.47240000  0.54890000  1.0 -0.138608504
C  C159  1  0.32990000  0.47530000  0.55380000  1.0 -0.0417085131
C  C160  1  0.22090000  0.47610000  0.44750000  1.0 0.4295215942
C  C161  1  0.15880000  0.48470000  0.52460000  1.0 0.2763456194
C  C162  1  0.12860000  0.47790000  0.43760000  1.0 -0.1582809413
C  C163  1  0.08570000  0.48030000  0.44670000  1.0 -0.0015667745
C  C164  1  0.07080000  0.48760000  0.53960000  1.0 -0.1120886542
C  C165  1  0.09970000  0.49870000  0.62450000  1.0 0.0086716079
C  C166  1  0.14240000  0.49630000  0.61920000  1.0 -0.1733686365
C  C167  1  0.05620000  0.47320000  0.35170000  1.0 0.5757572018
C  C168  1  0.08520000  0.51320000  0.72620000  1.0 0.5735488497
N  N1  1  0.35540000  0.88050000  0.35694000  1.0 0.2558835411
N  N2  1  0.20040000  0.71780000  0.30813000  1.0 -0.3700123739
N  N3  1  0.52510000  0.64460000  0.69027000  1.0 0.2558835411
N  N4  1  0.51740000  0.79960000  0.64147000  1.0 -0.3700123739
N  N5  1  0.11950000  0.47490000  0.02360000  1.0 0.2558835411
N  N6  1  0.28220000  0.48260000  0.97480000  1.0 -0.3700123739
N  N7  1  0.64460000  0.11950000  0.85694000  1.0 0.2558835411
N  N8  1  0.79960000  0.28220000  0.80814000  1.0 -0.3700123739
N  N9  1  0.47490000  0.35540000  0.19027000  1.0 0.2558835411
N  N10  1  0.48260000  0.20040000  0.14147000  1.0 -0.3700123739
N  N11  1  0.88050000  0.52510000  0.52360000  1.0 0.2558835411
N  N12  1  0.71780000  0.51740000  0.47480000  1.0 -0.3700123739
N  N13  1  0.47490000  0.11950000  0.64306000  1.0 0.2558835411
N  N14  1  0.48260000  0.28220000  0.69187000  1.0 -0.3700123739
N  N15  1  0.88050000  0.35540000  0.30973000  1.0 0.2558835411
N  N16  1  0.71780000  0.20040000  0.35853000  1.0 -0.3700123739
N  N17  1  0.64460000  0.52510000  0.97640000  1.0 0.2558835411
N  N18  1  0.79960000  0.51740000  0.02520000  1.0 -0.3700123739
N  N19  1  0.52510000  0.88050000  0.14306000  1.0 0.2558835411
N  N20  1  0.51740000  0.71780000  0.19187000  1.0 -0.3700123739
N  N21  1  0.11950000  0.64460000  0.80973000  1.0 0.2558835411
N  N22  1  0.28220000  0.79960000  0.85853000  1.0 -0.3700123739
N  N23  1  0.35540000  0.47490000  0.47640000  1.0 0.2558835411
N  N24  1  0.20040000  0.48260000  0.52520000  1.0 -0.3700123739
O  O1  1  0.39520000  0.92330000  0.34454000  1.0 -0.4003792231
O  O2  1  0.20740000  0.73320000  0.47114000  1.0 -0.4003792231
O  O3  1  0.07500000  0.59860000  0.56734000  1.0 -0.5095006711
O  O4  1  0.01230000  0.54660000  0.47184000  1.0 -0.6344891327
O  O5  1  0.11420000  0.58670000  0.03074000  1.0 -0.5658374466
O  O6  1  0.04580000  0.53600000  0.10244000  1.0 -0.5414655046
O  O7  1  0.52810000  0.60480000  0.67787000  1.0 -0.4054759182
O  O8  1  0.52580000  0.79260000  0.80447000  1.0 -0.3948645032
O  O9  1  0.52360000  0.92500000  0.90067000  1.0 -0.5095006711
O  O10  1  0.53430000  0.98770000  0.80517000  1.0 -0.6344891327
O  O11  1  0.47250000  0.88580000  0.36407000  1.0 -0.5658374466
O  O12  1  0.49020000  0.95420000  0.43577000  1.0 -0.5414655046
O  O13  1  0.07670000  0.47190000  0.01120000  1.0 -0.4003792231
O  O14  1  0.26680000  0.47420000  0.13780000  1.0 -0.3948645032
O  O15  1  0.40140000  0.47640000  0.23400000  1.0 -0.5095006711
O  O16  1  0.45340000  0.46570000  0.13850000  1.0 -0.6344891327
O  O17  1  0.41330000  0.52750000  0.69740000  1.0 -0.5658374466
O  O18  1  0.46400000  0.50980000  0.76910000  1.0 -0.5414655046
O  O19  1  0.60480000  0.07670000  0.84454000  1.0 -0.4003792231
O  O20  1  0.79260000  0.26680000  0.97113000  1.0 -0.3948645032
O  O21  1  0.92500000  0.40140000  0.06734000  1.0 -0.5095006711
O  O22  1  0.98770000  0.45340000  0.97184000  1.0 -0.6344891327
O  O23  1  0.88580000  0.41330000  0.53073000  1.0 -0.5658374466
O  O24  1  0.95420000  0.46400000  0.60244000  1.0 -0.5414655046
O  O25  1  0.47190000  0.39520000  0.17787000  1.0 -0.4003792231
O  O26  1  0.47420000  0.20740000  0.30447000  1.0 -0.4003792231
O  O27  1  0.47640000  0.07500000  0.40067000  1.0 -0.5095006711
O  O28  1  0.46570000  0.01230000  0.30517000  1.0 -0.6344891327
O  O29  1  0.52750000  0.11420000  0.86407000  1.0 -0.5658374466
O  O30  1  0.50980000  0.04580000  0.93577000  1.0 -0.5414655046
O  O31  1  0.92330000  0.52810000  0.51120000  1.0 -0.4003792231
O  O32  1  0.73320000  0.52580000  0.63780000  1.0 -0.4003792231
O  O33  1  0.59860000  0.52360000  0.73400000  1.0 -0.5095006711
O  O34  1  0.54660000  0.53430000  0.63850000  1.0 -0.6344891327
O  O35  1  0.58670000  0.47250000  0.19740000  1.0 -0.5658374466
O  O36  1  0.53600000  0.49020000  0.26910000  1.0 -0.5414655046
O  O37  1  0.47190000  0.07670000  0.65546000  1.0 -0.4003792231
O  O38  1  0.47420000  0.26680000  0.52887000  1.0 -0.3948645032
O  O39  1  0.47640000  0.40140000  0.43267000  1.0 -0.5095006711
O  O40  1  0.46570000  0.45340000  0.52816000  1.0 -0.6344891327
O  O41  1  0.52750000  0.41330000  0.96927000  1.0 -0.5658374466
O  O42  1  0.50980000  0.46400000  0.89757000  1.0 -0.5414655046
O  O43  1  0.92330000  0.39520000  0.32213000  1.0 -0.4054759182
O  O44  1  0.73320000  0.20740000  0.19553000  1.0 -0.4003792231
O  O45  1  0.59860000  0.07500000  0.09933000  1.0 -0.5095006711
O  O46  1  0.54660000  0.01230000  0.19483000  1.0 -0.6344891327
O  O47  1  0.58670000  0.11420000  0.63593000  1.0 -0.5658374466
O  O48  1  0.53600000  0.04580000  0.56423000  1.0 -0.5414655046
O  O49  1  0.60480000  0.52810000  0.98880000  1.0 -0.4003792231
O  O50  1  0.79260000  0.52580000  0.86220000  1.0 -0.4003792231
O  O51  1  0.92500000  0.52360000  0.76600000  1.0 -0.5095006711
O  O52  1  0.98770000  0.53430000  0.86150000  1.0 -0.6344891327
O  O53  1  0.88580000  0.47250000  0.30260000  1.0 -0.5658374466
O  O54  1  0.95420000  0.49020000  0.23090000  1.0 -0.5414655046
O  O55  1  0.52810000  0.92330000  0.15546000  1.0 -0.4003792231
O  O56  1  0.52580000  0.73320000  0.02886000  1.0 -0.4003792231
O  O57  1  0.52360000  0.59860000  0.93266000  1.0 -0.5095006711
O  O58  1  0.53430000  0.54660000  0.02817000  1.0 -0.6344891327
O  O59  1  0.47250000  0.58670000  0.46926000  1.0 -0.5658374466
O  O60  1  0.49020000  0.53600000  0.39757000  1.0 -0.5414655046
O  O61  1  0.07670000  0.60480000  0.82213000  1.0 -0.4003792231
O  O62  1  0.26680000  0.79260000  0.69553000  1.0 -0.4003792231
O  O63  1  0.40140000  0.92500000  0.59933000  1.0 -0.5095006711
O  O64  1  0.45340000  0.98770000  0.69483000  1.0 -0.6344891327
O  O65  1  0.41330000  0.88580000  0.13593000  1.0 -0.5658374466
O  O66  1  0.46400000  0.95420000  0.06423000  1.0 -0.5414655046
O  O67  1  0.39520000  0.47190000  0.48880000  1.0 -0.4003792231
O  O68  1  0.20740000  0.47420000  0.36220000  1.0 -0.3948645032
O  O69  1  0.07500000  0.47640000  0.26600000  1.0 -0.5095006711
O  O70  1  0.01230000  0.46570000  0.36150000  1.0 -0.6344891327
O  O71  1  0.11420000  0.52750000  0.80260000  1.0 -0.5658374466
O  O72  1  0.04580000  0.50980000  0.73090000  1.0 -0.5414655046
O  O73  1  0.00000000  0.62270000  0.66666667  1.0 -0.4218119469
O  O74  1  0.62270000  0.00000000  0.00000000  1.0 -0.4218119469
O  O75  1  0.37730000  0.37730000  0.33333333  1.0 -0.4218119469
O  O76  1  0.00000000  0.37730000  0.16667000  1.0 -0.4218119469
O  O77  1  0.37730000  0.00000000  0.50000000  1.0 -0.4218119469
O  O78  1  0.62270000  0.62270000  0.83333000  1.0 -0.4218119469
