# DDEC6 charges by PACMAN v1.1 (https://github.com/mtap-research/PACMAN-charge/)
data_RILPUB_ASR_pacman
_symmetry_space_group_name_H-M   'P 1'
_cell_length_a   15.01280000
_cell_length_b   20.80940000
_cell_length_c   23.27880000
_cell_angle_alpha   67.34300000
_cell_angle_beta   81.49200000
_cell_angle_gamma   84.73180000
_symmetry_Int_Tables_number   1
_chemical_formula_structural   Bi2H4C9SNO7
_chemical_formula_sum   'Bi16 H32 C72 S8 N8 O56'
_cell_volume   6632.54373223
_cell_formula_units_Z   8
loop_
 _symmetry_equiv_pos_site_id
 _symmetry_equiv_pos_as_xyz
  1  'x, y, z'
loop_
 _atom_site_type_symbol
 _atom_site_label
 _atom_site_symmetry_multiplicity
 _atom_site_fract_x
 _atom_site_fract_y
 _atom_site_fract_z
 _atom_site_occupancy
 _atom_site_charge
Bi  Bi1  1  0.78750000  0.88591000  0.23145000  1.0 1.4234322382
Bi  Bi2  1  0.21250000  0.11409000  0.76855000  1.0 1.4234322382
Bi  Bi3  1  0.59037000  0.83365000  0.34216000  1.0 1.4685339404
Bi  Bi4  1  0.40963000  0.16635000  0.65784000  1.0 1.4685339404
Bi  Bi5  1  0.76947000  0.70177000  0.32884000  1.0 1.4990366173
Bi  Bi6  1  0.23053000  0.29823000  0.67116000  1.0 1.4990366173
Bi  Bi7  1  0.59766000  0.02636000  0.24476000  1.0 1.4137174559
Bi  Bi8  1  0.40234000  0.97364000  0.75524000  1.0 1.4137174559
Bi  Bi9  1  0.75734000  0.93013000  0.37133000  1.0 1.4461648536
Bi  Bi10  1  0.24266000  0.06987000  0.62867000  1.0 1.4461648536
Bi  Bi11  1  0.93225000  0.80042000  0.35689000  1.0 1.4580155087
Bi  Bi12  1  0.06775000  0.19958000  0.64311000  1.0 1.4580155087
Bi  Bi13  1  0.72551000  0.74176000  0.47195000  1.0 1.6183153462
Bi  Bi14  1  0.27449000  0.25824000  0.52805000  1.0 1.6183153462
Bi  Bi15  1  0.99001000  0.74986000  0.21831000  1.0 1.3217778874
Bi  Bi16  1  0.00999000  0.25014000  0.78169000  1.0 1.3217778874
H  H1  1  0.54008000  0.85785000  0.13453000  1.0 0.1387418804
H  H2  1  0.45992000  0.14215000  0.86547000  1.0 0.1387418804
H  H3  1  0.60452000  0.08723000  0.01230000  1.0 0.1215274068
H  H4  1  0.39548000  0.91277000  0.98770000  1.0 0.1215274068
H  H5  1  0.44203000  0.82685000  0.07914000  1.0 0.1305546162
H  H6  1  0.55797000  0.17315000  0.92086000  1.0 0.1305546162
H  H7  1  0.43421000  0.85465000  0.23001000  1.0 0.1146892754
H  H8  1  0.56579000  0.14535000  0.76999000  1.0 0.1146892754
H  H9  1  0.63858000  0.49456000  0.44217000  1.0 0.1387418804
H  H10  1  0.36142000  0.50544000  0.55783000  1.0 0.1387418804
H  H11  1  0.53162000  0.91150000  0.46148000  1.0 0.1215274068
H  H12  1  0.46838000  0.08850000  0.53852000  1.0 0.1215274068
H  H13  1  0.05767000  0.85859000  0.45654000  1.0 0.1305546162
H  H14  1  0.94233000  0.14141000  0.54346000  1.0 0.1305546162
H  H15  1  0.13081000  0.92378000  0.25599000  1.0 0.1487471136
H  H16  1  0.86919000  0.07622000  0.74401000  1.0 0.1487471136
H  H17  1  0.72364000  0.50927000  0.62127000  1.0 0.1215274068
H  H18  1  0.27636000  0.49073000  0.37873000  1.0 0.1215274068
H  H19  1  0.53022000  0.41068000  0.47995000  1.0 0.1215274068
H  H20  1  0.46978000  0.58932000  0.52005000  1.0 0.1215274068
H  H21  1  0.95228000  0.09082000  0.39090000  1.0 0.1305546162
H  H22  1  0.04772000  0.90918000  0.60910000  1.0 0.1305546162
H  H23  1  0.07180000  0.82849000  0.56511000  1.0 0.1215274068
H  H24  1  0.92820000  0.17151000  0.43489000  1.0 0.1215274068
H  H25  1  0.49816000  0.34755000  0.58477000  1.0 0.1387418804
H  H26  1  0.50184000  0.65245000  0.41523000  1.0 0.1387418804
H  H27  1  0.68763000  0.44835000  0.72888000  1.0 0.1215274068
H  H28  1  0.31237000  0.55165000  0.27112000  1.0 0.1215274068
H  H29  1  0.56895000  0.36727000  0.76452000  1.0 0.1305546162
H  H30  1  0.43105000  0.63273000  0.23548000  1.0 0.1305546162
H  H31  1  0.87242000  0.96117000  0.07281000  1.0 0.1215274068
H  H32  1  0.12758000  0.03883000  0.92719000  1.0 0.1146892754
C  C1  1  0.55760000  0.95600000  0.07200000  1.0 -0.127350487
C  C2  1  0.44240000  0.04400000  0.92800000  1.0 -0.127350487
C  C3  1  0.42210000  0.97370000  0.24740000  1.0 0.5806615027
C  C4  1  0.57790000  0.02630000  0.75260000  1.0 0.5806615027
C  C5  1  0.52560000  0.03250000  0.36730000  1.0 0.5806615027
C  C6  1  0.47440000  0.96750000  0.63270000  1.0 0.5865571571
C  C7  1  0.53110000  0.00860000  0.01570000  1.0 0.0635757034
C  C8  1  0.46890000  0.99140000  0.98430000  1.0 0.0635757034
C  C9  1  0.52340000  0.89100000  0.09600000  1.0 -0.0785966146
C  C10  1  0.47660000  0.10900000  0.90400000  1.0 -0.0785966146
C  C11  1  0.35010000  0.93020000  0.24500000  1.0 -0.0785966146
C  C12  1  0.64990000  0.06980000  0.75500000  1.0 -0.0785966146
C  C13  1  0.66200000  0.48920000  0.52640000  1.0 -0.1194239965
C  C14  1  0.33800000  0.51080000  0.47360000  1.0 -0.1194239965
C  C15  1  0.51050000  0.01640000  0.43600000  1.0 -0.0962643204
C  C16  1  0.48950000  0.98360000  0.56400000  1.0 -0.0962643204
C  C17  1  0.01270000  0.95770000  0.44150000  1.0 -0.1194239965
C  C18  1  0.98730000  0.04230000  0.55850000  1.0 -0.1194239965
C  C19  1  0.56290000  0.07580000  0.99100000  1.0 -0.1121329996
C  C20  1  0.43710000  0.92420000  0.00900000  1.0 -0.1121329996
C  C21  1  0.46360000  0.87270000  0.06390000  1.0 -0.0693821462
C  C22  1  0.53640000  0.12730000  0.93610000  1.0 -0.0693821462
C  C23  1  0.37250000  0.86890000  0.23460000  1.0 -0.1809530335
C  C24  1  0.62750000  0.13110000  0.76540000  1.0 -0.1809530335
C  C25  1  0.25800000  0.95120000  0.25300000  1.0 0.1788016183
C  C26  1  0.74200000  0.04880000  0.74700000  1.0 0.1788016183
C  C27  1  0.63840000  0.45670000  0.59260000  1.0 0.0635757034
C  C28  1  0.36160000  0.54330000  0.40740000  1.0 0.0635757034
C  C29  1  0.62280000  0.47180000  0.48610000  1.0 -0.0885738062
C  C30  1  0.37720000  0.52820000  0.51390000  1.0 -0.0885738062
C  C31  1  0.51860000  0.94720000  0.47780000  1.0 -0.1741533655
C  C32  1  0.48140000  0.05280000  0.52220000  1.0 -0.1741533655
C  C33  1  0.49150000  0.07070000  0.45850000  1.0 0.1487471136
C  C34  1  0.50850000  0.92930000  0.54150000  1.0 0.1561628205
C  C35  1  0.99270000  0.00960000  0.46830000  1.0 0.0723576767
C  C36  1  0.00730000  0.99040000  0.53170000  1.0 0.0723576767
C  C37  1  0.04330000  0.89210000  0.47530000  1.0 -0.0962643204
C  C38  1  0.95670000  0.10790000  0.52470000  1.0 -0.0962643204
C  C39  1  0.30870000  0.82840000  0.23080000  1.0 0.1871423048
C  C40  1  0.69130000  0.17160000  0.76920000  1.0 0.1871423048
C  C41  1  0.19270000  0.91030000  0.25030000  1.0 -0.1809530335
C  C42  1  0.80730000  0.08970000  0.74970000  1.0 -0.1809530335
C  C43  1  0.57580000  0.40320000  0.61400000  1.0 0.0723576767
C  C44  1  0.42420000  0.59680000  0.38600000  1.0 0.0723576767
C  C45  1  0.68050000  0.47400000  0.63620000  1.0 -0.1194239965
C  C46  1  0.31950000  0.52600000  0.36380000  1.0 -0.1194239965
C  C47  1  0.55950000  0.42070000  0.50890000  1.0 -0.0785966146
C  C48  1  0.44050000  0.57930000  0.49110000  1.0 -0.0785966146
C  C49  1  0.96190000  0.07840000  0.43330000  1.0 -0.1121329996
C  C50  1  0.03810000  0.92160000  0.56670000  1.0 -0.1121329996
C  C51  1  0.05360000  0.87470000  0.54050000  1.0 -0.0693821462
C  C52  1  0.94640000  0.12530000  0.45950000  1.0 -0.0693821462
C  C53  1  0.21710000  0.84850000  0.23910000  1.0 -0.0470885022
C  C54  1  0.78290000  0.15150000  0.76090000  1.0 -0.0470885022
C  C55  1  0.55000000  0.37060000  0.68170000  1.0 -0.1194239965
C  C56  1  0.45000000  0.62940000  0.31830000  1.0 -0.1194239965
C  C57  1  0.53820000  0.38490000  0.57050000  1.0 -0.1194239965
C  C58  1  0.46180000  0.61510000  0.42950000  1.0 -0.1121329996
C  C59  1  0.65810000  0.43930000  0.69960000  1.0 -0.0785966146
C  C60  1  0.34190000  0.56070000  0.30040000  1.0 -0.0785966146
C  C61  1  0.14580000  0.80450000  0.23600000  1.0 0.5494268311
C  C62  1  0.85420000  0.19550000  0.76400000  1.0 0.5494268311
C  C63  1  0.58810000  0.38850000  0.72080000  1.0 -0.0785966146
C  C64  1  0.41190000  0.61150000  0.27920000  1.0 -0.0785966146
C  C65  1  0.00700000  0.86800000  0.10520000  1.0 0.5494268311
C  C66  1  0.99300000  0.13200000  0.89480000  1.0 0.5494268311
C  C67  1  0.00430000  0.93510000  0.05130000  1.0 -0.0962643204
C  C68  1  0.99570000  0.06490000  0.94870000  1.0 -0.0962643204
C  C69  1  0.92400000  0.97680000  0.04290000  1.0 -0.1809530335
C  C70  1  0.07600000  0.02320000  0.95710000  1.0 -0.1863820183
C  C71  1  0.08230000  0.95920000  0.00810000  1.0 0.1871423048
C  C72  1  0.91770000  0.04080000  0.99190000  1.0 0.1871423048
S  S1  1  0.63747000  0.97475000  0.11176000  1.0 1.191831576
S  S2  1  0.36253000  0.02525000  0.88824000  1.0 1.191831576
S  S3  1  0.74420000  0.55415000  0.49530000  1.0 1.2133499158
S  S4  1  0.25580000  0.44585000  0.50470000  1.0 1.2133499158
S  S5  1  0.99623000  0.97667000  0.36226000  1.0 1.2133499158
S  S6  1  0.00377000  0.02333000  0.63774000  1.0 1.2133499158
S  S7  1  0.46798000  0.30586000  0.71368000  1.0 1.196542449
S  S8  1  0.53202000  0.69414000  0.28632000  1.0 1.191831576
N  N1  1  0.23370000  0.01590000  0.25830000  1.0 -0.1396047699
N  N2  1  0.76630000  0.98410000  0.74170000  1.0 -0.1396047699
N  N3  1  0.48330000  0.14170000  0.42020000  1.0 -0.3422416377
N  N4  1  0.51670000  0.85830000  0.57980000  1.0 -0.3460418212
N  N5  1  0.33680000  0.77470000  0.20940000  1.0 -0.1470895785
N  N6  1  0.66320000  0.22530000  0.79060000  1.0 -0.1396047699
N  N7  1  0.16170000  0.91340000  0.01300000  1.0 0.0007936619
N  N8  1  0.83830000  0.08660000  0.98700000  1.0 -0.0008830303
O  O1  1  0.70180000  0.80130000  0.28870000  1.0 -0.7987553405
O  O2  1  0.29820000  0.19870000  0.71130000  1.0 -0.7987553405
O  O3  1  0.67680000  0.93090000  0.28340000  1.0 -0.8981847095
O  O4  1  0.32320000  0.06910000  0.71660000  1.0 -0.8981847095
O  O5  1  0.84420000  0.88830000  0.31100000  1.0 -0.8207500207
O  O6  1  0.15580000  0.11170000  0.68900000  1.0 -0.8207500207
O  O7  1  0.65240000  0.90940000  0.16510000  1.0 -0.6382425802
O  O8  1  0.34760000  0.09060000  0.83490000  1.0 -0.6382425802
O  O9  1  0.88340000  0.78010000  0.27730000  1.0 -0.9309356736
O  O10  1  0.11660000  0.21990000  0.72270000  1.0 -0.9309356736
O  O11  1  0.50260000  0.94170000  0.25470000  1.0 -0.5982759672
O  O12  1  0.49740000  0.05830000  0.74530000  1.0 -0.5982759672
O  O13  1  0.64620000  0.71920000  0.40660000  1.0 -0.8695888
O  O14  1  0.35380000  0.28080000  0.59340000  1.0 -0.8695888
O  O15  1  0.67170000  0.84180000  0.40780000  1.0 -0.8695888
O  O16  1  0.32830000  0.15820000  0.59220000  1.0 -0.8695888
O  O17  1  0.49550000  0.25360000  0.68720000  1.0 -0.6120236047
O  O18  1  0.50450000  0.74640000  0.31280000  1.0 -0.6120236047
O  O19  1  0.82280000  0.73110000  0.39690000  1.0 -0.8894859778
O  O20  1  0.17720000  0.26890000  0.60310000  1.0 -0.8981847095
O  O21  1  0.75140000  0.57730000  0.42750000  1.0 -0.6120236047
O  O22  1  0.24860000  0.42270000  0.57250000  1.0 -0.6120236047
O  O23  1  0.38310000  0.34270000  0.69390000  1.0 -0.6182997155
O  O24  1  0.61690000  0.65730000  0.30610000  1.0 -0.6182997155
O  O25  1  0.59500000  0.02900000  0.13360000  1.0 -0.6300347276
O  O26  1  0.40500000  0.97100000  0.86640000  1.0 -0.6300347276
O  O27  1  0.55300000  0.97980000  0.34980000  1.0 -0.6120236047
O  O28  1  0.44700000  0.02020000  0.65020000  1.0 -0.6120236047
O  O29  1  0.41240000  0.03500000  0.24210000  1.0 -0.4963743167
O  O30  1  0.58760000  0.96500000  0.75790000  1.0 -0.4963743167
O  O31  1  0.51450000  0.09220000  0.32790000  1.0 -0.4963743167
O  O32  1  0.48550000  0.90780000  0.67210000  1.0 -0.4963743167
O  O33  1  0.84160000  0.83850000  0.43310000  1.0 -0.8981847095
O  O34  1  0.15840000  0.16150000  0.56690000  1.0 -0.8894859778
O  O35  1  0.90160000  0.99730000  0.35800000  1.0 -0.6300347276
O  O36  1  0.09840000  0.00270000  0.64200000  1.0 -0.6300347276
O  O37  1  0.02120000  0.91200000  0.35150000  1.0 -0.6300347276
O  O38  1  0.97880000  0.08800000  0.64850000  1.0 -0.6300347276
O  O39  1  0.71570000  0.99700000  0.06750000  1.0 -0.5396553653
O  O40  1  0.28430000  0.00300000  0.93250000  1.0 -0.5396553653
O  O41  1  0.70840000  0.61000000  0.51730000  1.0 -0.6382425802
O  O42  1  0.29160000  0.39000000  0.48270000  1.0 -0.6382425802
O  O43  1  0.82560000  0.52170000  0.52070000  1.0 -0.51666116
O  O44  1  0.17440000  0.47830000  0.47930000  1.0 -0.5094168909
O  O45  1  0.05420000  0.03380000  0.32290000  1.0 -0.5396553653
O  O46  1  0.94580000  0.96620000  0.67710000  1.0 -0.5396553653
O  O47  1  0.16550000  0.74990000  0.22790000  1.0 -0.5094168909
O  O48  1  0.83450000  0.25010000  0.77210000  1.0 -0.5094168909
O  O49  1  0.06260000  0.82740000  0.24100000  1.0 -0.5982759672
O  O50  1  0.93740000  0.17260000  0.75900000  1.0 -0.5982759672
O  O51  1  0.46960000  0.27880000  0.78110000  1.0 -0.5460495281
O  O52  1  0.53040000  0.72120000  0.21890000  1.0 -0.5460495281
O  O53  1  0.94030000  0.85480000  0.14730000  1.0 -0.5773828554
O  O54  1  0.05970000  0.14520000  0.85270000  1.0 -0.5773828554
O  O55  1  0.07510000  0.82750000  0.10900000  1.0 -0.4923055696
O  O56  1  0.92490000  0.17250000  0.89100000  1.0 -0.4923055696
