# DDEC6 charges by PACMAN v1.1 (https://github.com/mtap-research/PACMAN-charge/)
data_RINPEJ_ion_pacman
_symmetry_space_group_name_H-M   'P 1'
_cell_length_a   13.38920000
_cell_length_b   13.38920000
_cell_length_c   22.95540000
_cell_angle_alpha   90.00000000
_cell_angle_beta   90.00000000
_cell_angle_gamma   121.33200000
_symmetry_Int_Tables_number   1
_chemical_formula_structural   CdH24C30N5O8
_chemical_formula_sum   'Cd4 H96 C120 N20 O32'
_cell_volume   3515.10008921
_cell_formula_units_Z   4
loop_
 _symmetry_equiv_pos_site_id
 _symmetry_equiv_pos_as_xyz
  1  'x, y, z'
loop_
 _atom_site_type_symbol
 _atom_site_label
 _atom_site_symmetry_multiplicity
 _atom_site_fract_x
 _atom_site_fract_y
 _atom_site_fract_z
 _atom_site_occupancy
 _atom_site_charge
Cd  Cd1  1  0.68052000  0.34016000  0.56478000  1.0 0.9249355924
Cd  Cd2  1  0.65984000  0.31948000  0.93522000  1.0 0.9252532852
Cd  Cd3  1  0.31948000  0.65984000  0.06478000  1.0 0.9249355924
Cd  Cd4  1  0.34016000  0.68052000  0.43522000  1.0 0.9249355924
H  H1  1  0.00660000  0.55840000  0.41860000  1.0 0.1197614969
H  H2  1  0.44160000  0.99340000  0.08140000  1.0 0.1197614969
H  H3  1  0.02840000  0.84640000  0.65130000  1.0 0.1197614969
H  H4  1  0.15360000  0.97160000  0.84870000  1.0 0.1197614969
H  H5  1  0.70760000  0.30160000  0.35570000  1.0 0.1197614969
H  H6  1  0.69840000  0.29240000  0.14430000  1.0 0.1197614969
H  H7  1  0.97070000  0.49390000  0.24920000  1.0 0.1287294137
H  H8  1  0.50610000  0.02930000  0.25080000  1.0 0.1287294137
H  H9  1  0.08150000  0.60930000  0.32600000  1.0 0.1197614969
H  H10  1  0.39070000  0.91850000  0.17400000  1.0 0.1197614969
H  H11  1  0.77610000  0.68190000  0.69550000  1.0 0.1287294137
H  H12  1  0.31810000  0.22390000  0.80450000  1.0 0.1287294137
H  H13  1  0.70310000  0.92970000  0.65920000  1.0 0.1081714911
H  H14  1  0.07030000  0.29690000  0.84080000  1.0 0.1081714911
H  H15  1  0.35140000  0.09100000  0.69790000  1.0 0.1401631576
H  H16  1  0.90900000  0.64860000  0.80210000  1.0 0.1401631576
H  H17  1  0.62780000  0.66960000  0.54190000  1.0 0.1197614969
H  H18  1  0.33040000  0.37220000  0.95810000  1.0 0.1197614969
H  H19  1  0.26820000  0.04260000  0.53030000  1.0 0.1197614969
H  H20  1  0.95740000  0.73180000  0.96970000  1.0 0.1197614969
H  H21  1  0.88490000  0.90030000  0.84040000  1.0 0.1197614969
H  H22  1  0.09970000  0.11510000  0.65960000  1.0 0.1197614969
H  H23  1  0.64740000  0.85400000  0.56520000  1.0 0.1197614969
H  H24  1  0.14600000  0.35260000  0.93480000  1.0 0.1197614969
H  H25  1  0.08040000  0.88780000  0.55360000  1.0 0.1197614969
H  H26  1  0.11220000  0.91960000  0.94640000  1.0 0.1197614969
H  H27  1  0.73860000  0.08660000  0.80590000  1.0 0.1401631576
H  H28  1  0.91340000  0.26140000  0.69410000  1.0 0.1401631576
H  H29  1  0.89590000  0.12970000  0.95500000  1.0 0.1287294137
H  H30  1  0.87030000  0.10410000  0.54500000  1.0 0.1287294137
H  H31  1  0.94460000  0.99760000  0.92960000  1.0 0.1197614969
H  H32  1  0.00240000  0.05540000  0.57040000  1.0 0.1197614969
H  H33  1  0.99340000  0.44160000  0.91860000  1.0 0.1197614969
H  H34  1  0.55840000  0.00660000  0.58140000  1.0 0.1197614969
H  H35  1  0.97160000  0.15360000  0.15130000  1.0 0.1197614969
H  H36  1  0.84640000  0.02840000  0.34870000  1.0 0.1197614969
H  H37  1  0.29240000  0.69840000  0.85570000  1.0 0.1197614969
H  H38  1  0.30160000  0.70760000  0.64430000  1.0 0.1197614969
H  H39  1  0.02930000  0.50610000  0.74920000  1.0 0.1287294137
H  H40  1  0.49390000  0.97070000  0.75080000  1.0 0.1287294137
H  H41  1  0.91850000  0.39070000  0.82600000  1.0 0.1197614969
H  H42  1  0.60930000  0.08150000  0.67400000  1.0 0.1197614969
H  H43  1  0.22390000  0.31810000  0.19550000  1.0 0.1287294137
H  H44  1  0.68190000  0.77610000  0.30450000  1.0 0.1287294137
H  H45  1  0.29690000  0.07030000  0.15920000  1.0 0.1081714911
H  H46  1  0.92970000  0.70310000  0.34080000  1.0 0.1081714911
H  H47  1  0.64860000  0.90900000  0.19790000  1.0 0.1401631576
H  H48  1  0.09100000  0.35140000  0.30210000  1.0 0.1401631576
H  H49  1  0.37220000  0.33040000  0.04190000  1.0 0.1197614969
H  H50  1  0.66960000  0.62780000  0.45810000  1.0 0.1197614969
H  H51  1  0.73180000  0.95740000  0.03030000  1.0 0.1197614969
H  H52  1  0.04260000  0.26820000  0.46970000  1.0 0.1197614969
H  H53  1  0.11510000  0.09970000  0.34040000  1.0 0.1197614969
H  H54  1  0.90030000  0.88490000  0.15960000  1.0 0.1197614969
H  H55  1  0.35260000  0.14600000  0.06520000  1.0 0.1197614969
H  H56  1  0.85400000  0.64740000  0.43480000  1.0 0.1197614969
H  H57  1  0.91960000  0.11220000  0.05360000  1.0 0.1197614969
H  H58  1  0.88780000  0.08040000  0.44640000  1.0 0.1197614969
H  H59  1  0.26140000  0.91340000  0.30590000  1.0 0.1401631576
H  H60  1  0.08660000  0.73860000  0.19410000  1.0 0.1401631576
H  H61  1  0.10410000  0.87030000  0.45500000  1.0 0.1287294137
H  H62  1  0.12970000  0.89590000  0.04500000  1.0 0.1287294137
H  H63  1  0.05540000  0.00240000  0.42960000  1.0 0.1197614969
H  H64  1  0.99760000  0.94460000  0.07040000  1.0 0.1197614969
H  H65  1  0.47480000  0.98900000  0.97410000  1.0 0.2702323404
H  H66  1  0.39520000  0.86340000  0.96940000  1.0 0.260593189
H  H67  1  0.30260000  0.95040000  0.94410000  1.0 0.1287294137
H  H68  1  0.31490000  0.88590000  0.89010000  1.0 0.1287294137
H  H69  1  0.39890000  0.02130000  0.89700000  1.0 0.1401631576
H  H70  1  0.56530000  0.90550000  0.93750000  1.0 0.1401631576
H  H71  1  0.56400000  0.99440000  0.89340000  1.0 0.1197614969
H  H72  1  0.47570000  0.85990000  0.88580000  1.0 0.1287294137
H  H73  1  0.52520000  0.01100000  0.47410000  1.0 0.2702323404
H  H74  1  0.60480000  0.13660000  0.46940000  1.0 0.260593189
H  H75  1  0.69740000  0.04960000  0.44410000  1.0 0.1287294137
H  H76  1  0.68510000  0.11410000  0.39010000  1.0 0.1287294137
H  H77  1  0.60110000  0.97870000  0.39700000  1.0 0.1401631576
H  H78  1  0.43470000  0.09450000  0.43750000  1.0 0.1401631576
H  H79  1  0.43600000  0.00560000  0.39340000  1.0 0.1197614969
H  H80  1  0.52430000  0.14010000  0.38580000  1.0 0.1287294137
H  H81  1  0.01100000  0.52520000  0.52590000  1.0 0.2702323404
H  H82  1  0.13660000  0.60480000  0.53060000  1.0 0.260593189
H  H83  1  0.04960000  0.69740000  0.55590000  1.0 0.1287294137
H  H84  1  0.11410000  0.68510000  0.60990000  1.0 0.1287294137
H  H85  1  0.97870000  0.60110000  0.60300000  1.0 0.1401631576
H  H86  1  0.09450000  0.43470000  0.56250000  1.0 0.1401631576
H  H87  1  0.00560000  0.43600000  0.60660000  1.0 0.1197614969
H  H88  1  0.14010000  0.52430000  0.61420000  1.0 0.1287294137
H  H89  1  0.98900000  0.47480000  0.02590000  1.0 0.2702323404
H  H90  1  0.86340000  0.39520000  0.03060000  1.0 0.260593189
H  H91  1  0.95040000  0.30260000  0.05590000  1.0 0.1287294137
H  H92  1  0.88590000  0.31490000  0.10990000  1.0 0.1287294137
H  H93  1  0.02130000  0.39890000  0.10300000  1.0 0.1401631576
H  H94  1  0.90550000  0.56530000  0.06250000  1.0 0.1401631576
H  H95  1  0.99440000  0.56400000  0.10660000  1.0 0.1197614969
H  H96  1  0.85990000  0.47570000  0.11420000  1.0 0.1287294137
C  C1  1  0.79640000  0.39860000  0.45700000  1.0 0.5542630983
C  C2  1  0.60140000  0.20360000  0.04300000  1.0 0.5542630983
C  C3  1  0.84580000  0.42680000  0.39790000  1.0 -0.0266420556
C  C4  1  0.57320000  0.15420000  0.10210000  1.0 -0.0266420556
C  C5  1  0.95980000  0.51620000  0.38720000  1.0 -0.0973535915
C  C6  1  0.48380000  0.04020000  0.11280000  1.0 -0.0973535915
C  C7  1  0.10460000  0.90280000  0.64110000  1.0 -0.1416764438
C  C8  1  0.09720000  0.89540000  0.85890000  1.0 -0.1416764438
C  C9  1  0.78430000  0.36310000  0.35090000  1.0 -0.1486526779
C  C10  1  0.63690000  0.21570000  0.14910000  1.0 -0.1486526779
C  C11  1  0.94050000  0.47730000  0.28690000  1.0 -0.1309840051
C  C12  1  0.52270000  0.05950000  0.21310000  1.0 -0.1309840051
C  C13  1  0.18540000  0.95840000  0.68260000  1.0 0.1492599697
C  C14  1  0.04160000  0.81460000  0.81740000  1.0 0.1492599697
C  C15  1  0.83350000  0.38790000  0.29610000  1.0 0.1401631576
C  C16  1  0.61210000  0.16650000  0.20390000  1.0 0.1401631576
C  C17  1  0.44870000  0.17130000  0.59700000  1.0 0.5138571766
C  C18  1  0.82870000  0.55130000  0.90300000  1.0 0.5138571766
C  C19  1  0.69510000  0.54670000  0.59950000  1.0 0.5138571766
C  C20  1  0.45330000  0.30490000  0.90050000  1.0 0.5138571766
C  C21  1  0.00670000  0.54510000  0.33220000  1.0 -0.0728689878
C  C22  1  0.45490000  0.99330000  0.16780000  1.0 -0.0728689878
C  C23  1  0.74590000  0.71150000  0.66890000  1.0 -0.1416764438
C  C24  1  0.28850000  0.25410000  0.83110000  1.0 -0.1416764438
C  C25  1  0.32980000  0.07820000  0.61260000  1.0 -0.0227941553
C  C26  1  0.92180000  0.67020000  0.88740000  1.0 -0.0227941553
C  C27  1  0.74490000  0.81090000  0.68380000  1.0 0.1492599697
C  C28  1  0.18910000  0.25510000  0.81620000  1.0 0.1492599697
C  C29  1  0.70500000  0.86420000  0.64740000  1.0 -0.1600297409
C  C30  1  0.13580000  0.29500000  0.85260000  1.0 -0.1600297409
C  C31  1  0.70380000  0.65320000  0.61570000  1.0 -0.0603866829
C  C32  1  0.34680000  0.29620000  0.88430000  1.0 -0.0603866829
C  C33  1  0.29800000  0.04960000  0.66840000  1.0 -0.1416764438
C  C34  1  0.95040000  0.70200000  0.83160000  1.0 -0.1486526779
C  C35  1  0.66090000  0.70550000  0.57730000  1.0 -0.0603866829
C  C36  1  0.29450000  0.33910000  0.92270000  1.0 -0.0603866829
C  C37  1  0.24780000  0.02060000  0.56890000  1.0 -0.0914676542
C  C38  1  0.97940000  0.75220000  0.93110000  1.0 -0.0914676542
C  C39  1  0.80680000  0.98380000  0.81230000  1.0 0.1590442789
C  C40  1  0.01620000  0.19320000  0.68770000  1.0 0.1590442789
C  C41  1  0.86680000  0.95660000  0.85010000  1.0 -0.1416764438
C  C42  1  0.04340000  0.13320000  0.64990000  1.0 -0.1416764438
C  C43  1  0.66790000  0.81650000  0.59250000  1.0 -0.0778947391
C  C44  1  0.18350000  0.33210000  0.90750000  1.0 -0.0778947391
C  C45  1  0.13450000  0.92950000  0.58280000  1.0 -0.0973535915
C  C46  1  0.07050000  0.86550000  0.91720000  1.0 -0.0914676542
C  C47  1  0.77980000  0.06660000  0.83110000  1.0 -0.1783450562
C  C48  1  0.93340000  0.22020000  0.66890000  1.0 -0.1783450562
C  C49  1  0.81000000  0.11780000  0.88270000  1.0 -0.0039854836
C  C50  1  0.88220000  0.19000000  0.61730000  1.0 -0.0039854836
C  C51  1  0.76770000  0.19950000  0.89890000  1.0 0.5227126014
C  C52  1  0.80050000  0.23230000  0.60110000  1.0 0.5227126014
C  C53  1  0.87260000  0.09240000  0.91910000  1.0 -0.1085237096
C  C54  1  0.90760000  0.12740000  0.58090000  1.0 -0.1085237096
C  C55  1  0.90130000  0.01410000  0.90410000  1.0 -0.0778947391
C  C56  1  0.98590000  0.09870000  0.59590000  1.0 -0.0778947391
C  C57  1  0.20360000  0.60140000  0.95700000  1.0 0.5542630983
C  C58  1  0.39860000  0.79640000  0.54300000  1.0 0.5542630983
C  C59  1  0.15420000  0.57320000  0.89790000  1.0 -0.0266420556
C  C60  1  0.42680000  0.84580000  0.60210000  1.0 -0.0266420556
C  C61  1  0.04020000  0.48380000  0.88720000  1.0 -0.0973535915
C  C62  1  0.51620000  0.95980000  0.61280000  1.0 -0.0973535915
C  C63  1  0.89540000  0.09720000  0.14110000  1.0 -0.1416764438
C  C64  1  0.90280000  0.10460000  0.35890000  1.0 -0.1416764438
C  C65  1  0.21570000  0.63690000  0.85090000  1.0 -0.1486526779
C  C66  1  0.36310000  0.78430000  0.64910000  1.0 -0.1486526779
C  C67  1  0.05950000  0.52270000  0.78690000  1.0 -0.1309840051
C  C68  1  0.47730000  0.94050000  0.71310000  1.0 -0.1309840051
C  C69  1  0.81460000  0.04160000  0.18260000  1.0 0.1492599697
C  C70  1  0.95840000  0.18540000  0.31740000  1.0 0.1492599697
C  C71  1  0.16650000  0.61210000  0.79610000  1.0 0.1401631576
C  C72  1  0.38790000  0.83350000  0.70390000  1.0 0.1401631576
C  C73  1  0.55130000  0.82870000  0.09700000  1.0 0.5138571766
C  C74  1  0.17130000  0.44870000  0.40300000  1.0 0.5138571766
C  C75  1  0.30490000  0.45330000  0.09950000  1.0 0.5138571766
C  C76  1  0.54670000  0.69510000  0.40050000  1.0 0.5138571766
C  C77  1  0.99330000  0.45490000  0.83220000  1.0 -0.0728689878
C  C78  1  0.54510000  0.00670000  0.66780000  1.0 -0.0728689878
C  C79  1  0.25410000  0.28850000  0.16890000  1.0 -0.1486526779
C  C80  1  0.71150000  0.74590000  0.33110000  1.0 -0.1486526779
C  C81  1  0.67020000  0.92180000  0.11260000  1.0 -0.0227941553
C  C82  1  0.07820000  0.32980000  0.38740000  1.0 -0.0227941553
C  C83  1  0.25510000  0.18910000  0.18380000  1.0 0.1492599697
C  C84  1  0.81090000  0.74490000  0.31620000  1.0 0.1492599697
C  C85  1  0.29500000  0.13580000  0.14740000  1.0 -0.1600297409
C  C86  1  0.86420000  0.70500000  0.35260000  1.0 -0.1600297409
C  C87  1  0.29620000  0.34680000  0.11570000  1.0 -0.0603866829
C  C88  1  0.65320000  0.70380000  0.38430000  1.0 -0.0603866829
C  C89  1  0.70200000  0.95040000  0.16840000  1.0 -0.1486526779
C  C90  1  0.04960000  0.29800000  0.33160000  1.0 -0.1486526779
C  C91  1  0.33910000  0.29450000  0.07730000  1.0 -0.0547420214
C  C92  1  0.70550000  0.66090000  0.42270000  1.0 -0.0603866829
C  C93  1  0.75220000  0.97940000  0.06890000  1.0 -0.0914676542
C  C94  1  0.02060000  0.24780000  0.43110000  1.0 -0.0914676542
C  C95  1  0.19320000  0.01620000  0.31230000  1.0 0.1590442789
C  C96  1  0.98380000  0.80680000  0.18770000  1.0 0.1590442789
C  C97  1  0.13320000  0.04340000  0.35010000  1.0 -0.1416764438
C  C98  1  0.95660000  0.86680000  0.14990000  1.0 -0.1416764438
C  C99  1  0.33210000  0.18350000  0.09250000  1.0 -0.0778947391
C  C100  1  0.81650000  0.66790000  0.40750000  1.0 -0.0778947391
C  C101  1  0.86550000  0.07050000  0.08280000  1.0 -0.0914676542
C  C102  1  0.92950000  0.13450000  0.41720000  1.0 -0.0914676542
C  C103  1  0.22020000  0.93340000  0.33110000  1.0 -0.1783450562
C  C104  1  0.06660000  0.77980000  0.16890000  1.0 -0.1783450562
C  C105  1  0.19000000  0.88220000  0.38270000  1.0 -0.0039854836
C  C106  1  0.11780000  0.81000000  0.11730000  1.0 -0.0039854836
C  C107  1  0.23230000  0.80050000  0.39890000  1.0 0.5227126014
C  C108  1  0.19950000  0.76770000  0.10110000  1.0 0.5227126014
C  C109  1  0.12740000  0.90760000  0.41910000  1.0 -0.1085237096
C  C110  1  0.09240000  0.87260000  0.08090000  1.0 -0.1085237096
C  C111  1  0.09870000  0.98590000  0.40410000  1.0 -0.0778947391
C  C112  1  0.01410000  0.90130000  0.09590000  1.0 -0.0778947391
C  C113  1  0.35690000  0.94830000  0.91750000  1.0 -0.2613072451
C  C114  1  0.51660000  0.92180000  0.91360000  1.0 -0.2613072451
C  C115  1  0.64310000  0.05170000  0.41750000  1.0 -0.2613072451
C  C116  1  0.48340000  0.07820000  0.41360000  1.0 -0.2613072451
C  C117  1  0.05170000  0.64310000  0.58250000  1.0 -0.2613072451
C  C118  1  0.07820000  0.48340000  0.58640000  1.0 -0.2613072451
C  C119  1  0.94830000  0.35690000  0.08250000  1.0 -0.2613072451
C  C120  1  0.92180000  0.51660000  0.08640000  1.0 -0.2613072451
N  N1  1  0.77120000  0.32360000  0.24650000  1.0 -0.1226196456
N  N2  1  0.67640000  0.22880000  0.25350000  1.0 -0.1226196456
N  N3  1  0.76950000  0.93650000  0.75620000  1.0 -0.1226196456
N  N4  1  0.06350000  0.23050000  0.74380000  1.0 -0.1226196456
N  N5  1  0.78730000  0.85710000  0.74410000  1.0 -0.0914676542
N  N6  1  0.14290000  0.21270000  0.75590000  1.0 -0.0973535915
N  N7  1  0.16300000  0.93200000  0.74310000  1.0 -0.1416764438
N  N8  1  0.06800000  0.83700000  0.75690000  1.0 -0.1416764438
N  N9  1  0.22880000  0.67640000  0.74650000  1.0 -0.1226196456
N  N10  1  0.32360000  0.77120000  0.75350000  1.0 -0.1226196456
N  N11  1  0.23050000  0.06350000  0.25620000  1.0 -0.1226196456
N  N12  1  0.93650000  0.76950000  0.24380000  1.0 -0.1226196456
N  N13  1  0.21270000  0.14290000  0.24410000  1.0 -0.0973535915
N  N14  1  0.85710000  0.78730000  0.25590000  1.0 -0.0973535915
N  N15  1  0.83700000  0.06800000  0.24310000  1.0 -0.1309840051
N  N16  1  0.93200000  0.16300000  0.25690000  1.0 -0.1309840051
N  N17  1  0.43580000  0.92980000  0.94870000  1.0 -0.0778947391
N  N18  1  0.56420000  0.07020000  0.44870000  1.0 -0.0778947391
N  N19  1  0.07020000  0.56420000  0.55130000  1.0 -0.0778947391
N  N20  1  0.92980000  0.43580000  0.05130000  1.0 -0.0778947391
O  O1  1  0.68870000  0.32630000  0.46250000  1.0 -0.5173565018
O  O2  1  0.67370000  0.31130000  0.03750000  1.0 -0.5173565018
O  O3  1  0.85960000  0.45420000  0.50090000  1.0 -0.5535591113
O  O4  1  0.54580000  0.14040000  0.99910000  1.0 -0.5535591113
O  O5  1  0.63480000  0.49040000  0.55480000  1.0 -0.4838754403
O  O6  1  0.50960000  0.36520000  0.94520000  1.0 -0.4838754403
O  O7  1  0.75000000  0.51440000  0.62450000  1.0 -0.4597803074
O  O8  1  0.48560000  0.25000000  0.87550000  1.0 -0.4597803074
O  O9  1  0.51670000  0.23270000  0.63310000  1.0 -0.4307217168
O  O10  1  0.76730000  0.48330000  0.86690000  1.0 -0.4307217168
O  O11  1  0.47897000  0.18777000  0.54570000  1.0 -0.4742535668
O  O12  1  0.81223000  0.52103000  0.95430000  1.0 -0.4742535668
O  O13  1  0.81130000  0.25270000  0.94710000  1.0 -0.5304217505
O  O14  1  0.74730000  0.18870000  0.55290000  1.0 -0.5304217505
O  O15  1  0.69830000  0.20730000  0.87340000  1.0 -0.4032678175
O  O16  1  0.79270000  0.30170000  0.62660000  1.0 -0.4032678175
O  O17  1  0.31130000  0.67370000  0.96250000  1.0 -0.5173565018
O  O18  1  0.32630000  0.68870000  0.53750000  1.0 -0.5173565018
O  O19  1  0.14040000  0.54580000  0.00090000  1.0 -0.5535591113
O  O20  1  0.45420000  0.85960000  0.49910000  1.0 -0.5535591113
O  O21  1  0.36520000  0.50960000  0.05480000  1.0 -0.4838754403
O  O22  1  0.49040000  0.63480000  0.44520000  1.0 -0.4838754403
O  O23  1  0.25000000  0.48560000  0.12450000  1.0 -0.4597803074
O  O24  1  0.51440000  0.75000000  0.37550000  1.0 -0.4597803074
O  O25  1  0.48330000  0.76730000  0.13310000  1.0 -0.4307217168
O  O26  1  0.23270000  0.51670000  0.36690000  1.0 -0.4307217168
O  O27  1  0.52103000  0.81223000  0.04570000  1.0 -0.4742535668
O  O28  1  0.18777000  0.47897000  0.45430000  1.0 -0.4742535668
O  O29  1  0.18870000  0.74730000  0.44710000  1.0 -0.5304217505
O  O30  1  0.25270000  0.81130000  0.05290000  1.0 -0.5304217505
O  O31  1  0.30170000  0.79270000  0.37340000  1.0 -0.405163722
O  O32  1  0.20730000  0.69830000  0.12660000  1.0 -0.4032678175
