# DDEC6 charges by PACMAN v1.1 (https://github.com/mtap-research/PACMAN-charge/)
data_RIPKIM01_FSR_pacman
_symmetry_space_group_name_H-M   'P 1'
_cell_length_a   15.99100000
_cell_length_b   15.99100000
_cell_length_c   8.59900000
_cell_angle_alpha   89.77500000
_cell_angle_beta   90.22500000
_cell_angle_gamma   131.28200000
_symmetry_Int_Tables_number   1
_chemical_formula_structural   CuH13C12(NO2)2
_chemical_formula_sum   'Cu4 H52 C48 N8 O16'
_cell_volume   1652.37129284
_cell_formula_units_Z   4
loop_
 _symmetry_equiv_pos_site_id
 _symmetry_equiv_pos_as_xyz
  1  'x, y, z'
loop_
 _atom_site_type_symbol
 _atom_site_label
 _atom_site_symmetry_multiplicity
 _atom_site_fract_x
 _atom_site_fract_y
 _atom_site_fract_z
 _atom_site_occupancy
 _atom_site_charge
Cu  Cu1  1  0.91737000  0.49227000  0.44934000  1.0 0.7512544614
Cu  Cu2  1  0.49227000  0.91737000  0.05066000  1.0 0.7512544614
Cu  Cu3  1  0.08263000  0.50773000  0.55066000  1.0 0.7512544614
Cu  Cu4  1  0.50773000  0.08263000  0.94934000  1.0 0.7512544614
H  H1  1  0.86900000  0.62120000  0.26270000  1.0 0.1148617488
H  H2  1  0.62120000  0.86900000  0.23730000  1.0 0.1148617488
H  H3  1  0.13100000  0.37880000  0.73730000  1.0 0.1148617488
H  H4  1  0.37880000  0.13100000  0.76270000  1.0 0.1148617488
H  H5  1  0.73220000  0.59980000  0.13300000  1.0 0.1355850768
H  H6  1  0.59980000  0.73220000  0.36700000  1.0 0.1355850768
H  H7  1  0.26780000  0.40020000  0.86700000  1.0 0.1355850768
H  H8  1  0.40020000  0.26780000  0.63300000  1.0 0.1355850768
H  H9  1  0.52470000  0.28030000  0.25070000  1.0 0.1355850768
H  H10  1  0.28030000  0.52470000  0.24930000  1.0 0.1355850768
H  H11  1  0.47530000  0.71970000  0.74930000  1.0 0.1355850768
H  H12  1  0.71970000  0.47530000  0.75070000  1.0 0.1355850768
H  H13  1  0.66850000  0.31110000  0.37790000  1.0 0.1148617488
H  H14  1  0.31110000  0.66850000  0.12210000  1.0 0.1148617488
H  H15  1  0.33150000  0.68890000  0.62210000  1.0 0.1148617488
H  H16  1  0.68890000  0.33150000  0.87790000  1.0 0.1148617488
H  H17  1  0.35400000  0.31140000  0.04850000  1.0 0.1473096174
H  H18  1  0.31140000  0.35400000  0.45150000  1.0 0.1473096174
H  H19  1  0.64600000  0.68860000  0.95150000  1.0 0.1473096174
H  H20  1  0.68860000  0.64600000  0.54850000  1.0 0.1473096174
H  H21  1  0.40750000  0.25730000  0.05370000  1.0 0.1473096174
H  H22  1  0.25730000  0.40750000  0.44630000  1.0 0.1473096174
H  H23  1  0.59250000  0.74270000  0.94630000  1.0 0.1473096174
H  H24  1  0.74270000  0.59250000  0.55370000  1.0 0.1473096174
H  H25  1  0.38160000  0.28740000  0.20890000  1.0 0.1473096174
H  H26  1  0.28740000  0.38160000  0.29110000  1.0 0.1473096174
H  H27  1  0.61840000  0.71260000  0.79110000  1.0 0.1473096174
H  H28  1  0.71260000  0.61840000  0.70890000  1.0 0.1473096174
H  H29  1  0.06910000  0.45930000  0.01180000  1.0 0.1473096174
H  H30  1  0.45930000  0.06910000  0.48820000  1.0 0.1473096174
H  H31  1  0.93090000  0.54070000  0.98820000  1.0 0.1473096174
H  H32  1  0.54070000  0.93090000  0.51180000  1.0 0.1473096174
H  H33  1  0.05160000  0.36260000  0.09970000  1.0 0.1341641467
H  H34  1  0.36260000  0.05160000  0.40030000  1.0 0.1341641467
H  H35  1  0.94840000  0.63740000  0.90030000  1.0 0.1341641467
H  H36  1  0.63740000  0.94840000  0.59970000  1.0 0.1341641467
H  H37  1  0.90780000  0.28840000  0.91750000  1.0 0.0989028137
H  H38  1  0.28840000  0.90780000  0.58250000  1.0 0.0989028137
H  H39  1  0.09220000  0.71160000  0.08250000  1.0 0.0989028137
H  H40  1  0.71160000  0.09220000  0.41750000  1.0 0.0989028137
H  H41  1  0.87550000  0.35150000  0.99780000  1.0 0.0989028137
H  H42  1  0.35150000  0.87550000  0.50220000  1.0 0.0989028137
H  H43  1  0.12450000  0.64850000  0.00220000  1.0 0.0989028137
H  H44  1  0.64850000  0.12450000  0.49780000  1.0 0.0989028137
H  H45  1  0.85220000  0.17660000  0.13450000  1.0 0.1341641467
H  H46  1  0.17660000  0.85220000  0.36550000  1.0 0.1341641467
H  H47  1  0.14780000  0.82340000  0.86550000  1.0 0.1341641467
H  H48  1  0.82340000  0.14780000  0.63450000  1.0 0.1341641467
H  H49  1  0.82920000  0.24420000  0.22560000  1.0 0.1473096174
H  H50  1  0.24420000  0.82920000  0.27440000  1.0 0.1473096174
H  H51  1  0.17080000  0.75580000  0.77440000  1.0 0.1473096174
H  H52  1  0.75580000  0.17080000  0.72560000  1.0 0.1473096174
C  C1  1  0.79814000  0.55106000  0.26120000  1.0 0.0691992637
C  C2  1  0.55106000  0.79814000  0.23880000  1.0 0.0691992637
C  C3  1  0.20186000  0.44894000  0.73880000  1.0 0.0691992637
C  C4  1  0.44894000  0.20186000  0.76120000  1.0 0.0691992637
C  C5  1  0.71601000  0.53899000  0.18330000  1.0 -0.1713292416
C  C6  1  0.53899000  0.71601000  0.31670000  1.0 -0.1713292416
C  C7  1  0.28399000  0.46101000  0.81670000  1.0 -0.1713292416
C  C8  1  0.46101000  0.28399000  0.68330000  1.0 -0.1713292416
C  C9  1  0.61030000  0.43810000  0.17890000  1.0 0.0691992637
C  C10  1  0.43810000  0.61030000  0.32110000  1.0 0.0691992637
C  C11  1  0.38970000  0.56190000  0.82110000  1.0 0.0691992637
C  C12  1  0.56190000  0.38970000  0.67890000  1.0 0.0691992637
C  C13  1  0.59432000  0.35148000  0.25250000  1.0 -0.1782917757
C  C14  1  0.35148000  0.59432000  0.24750000  1.0 -0.1782917757
C  C15  1  0.40568000  0.64852000  0.74750000  1.0 -0.1782917757
C  C16  1  0.64852000  0.40568000  0.75250000  1.0 -0.1782917757
C  C17  1  0.68173000  0.37067000  0.32840000  1.0 0.0809903067
C  C18  1  0.37067000  0.68173000  0.17160000  1.0 0.0809903067
C  C19  1  0.31827000  0.62933000  0.67160000  1.0 0.0809903067
C  C20  1  0.62933000  0.31827000  0.82840000  1.0 0.0809903067
C  C21  1  0.51758000  0.42162000  0.09990000  1.0 0.2625974935
C  C22  1  0.42162000  0.51758000  0.40010000  1.0 0.2625974935
C  C23  1  0.48242000  0.57838000  0.90010000  1.0 0.2625974935
C  C24  1  0.57838000  0.48242000  0.59990000  1.0 0.2625974935
C  C25  1  0.40534000  0.30966000  0.10310000  1.0 -0.5003789742
C  C26  1  0.30966000  0.40534000  0.39690000  1.0 -0.5003789742
C  C27  1  0.59466000  0.69034000  0.89690000  1.0 -0.5003789742
C  C28  1  0.69034000  0.59466000  0.60310000  1.0 -0.5003789742
C  C29  1  0.02228000  0.44452000  0.23800000  1.0 0.6172429096
C  C30  1  0.44452000  0.02228000  0.26200000  1.0 0.6172429096
C  C31  1  0.97772000  0.55548000  0.76200000  1.0 0.6172429096
C  C32  1  0.55548000  0.97772000  0.73800000  1.0 0.6172429096
C  C33  1  0.02149000  0.39851000  0.08480000  1.0 -0.3322977502
C  C34  1  0.39851000  0.02149000  0.41520000  1.0 -0.3322977502
C  C35  1  0.97851000  0.60149000  0.91520000  1.0 -0.3322977502
C  C36  1  0.60149000  0.97851000  0.58480000  1.0 -0.3322977502
C  C37  1  0.90431000  0.31469000  0.01660000  1.0 -0.0899479244
C  C38  1  0.31469000  0.90431000  0.48340000  1.0 -0.0899479244
C  C39  1  0.09569000  0.68531000  0.98340000  1.0 -0.0899479244
C  C40  1  0.68531000  0.09569000  0.51660000  1.0 -0.0899479244
C  C41  1  0.82573000  0.21627000  0.12360000  1.0 -0.3220429275
C  C42  1  0.21627000  0.82573000  0.37640000  1.0 -0.3220429275
C  C43  1  0.17427000  0.78373000  0.87640000  1.0 -0.3220429275
C  C44  1  0.78373000  0.17427000  0.62360000  1.0 -0.3220429275
C  C45  1  0.70466000  0.13374000  0.07250000  1.0 0.6172429096
C  C46  1  0.13374000  0.70466000  0.42750000  1.0 0.6172429096
C  C47  1  0.29534000  0.86626000  0.92750000  1.0 0.6172429096
C  C48  1  0.86626000  0.29534000  0.57250000  1.0 0.6172429096
N  N1  1  0.78330000  0.46950000  0.33450000  1.0 -0.2392386276
N  N2  1  0.46950000  0.78330000  0.16550000  1.0 -0.2392386276
N  N3  1  0.21670000  0.53050000  0.66550000  1.0 -0.2392386276
N  N4  1  0.53050000  0.21670000  0.83450000  1.0 -0.2392386276
N  N5  1  0.54466000  0.50834000  0.03600000  1.0 -0.2475735325
N  N6  1  0.50834000  0.54466000  0.46400000  1.0 -0.2475735325
N  N7  1  0.45534000  0.49166000  0.96400000  1.0 -0.2475735325
N  N8  1  0.49166000  0.45534000  0.53600000  1.0 -0.2475735325
O  O1  1  0.95507000  0.45893000  0.25420000  1.0 -0.519513143
O  O2  1  0.45893000  0.95507000  0.24580000  1.0 -0.519513143
O  O3  1  0.04493000  0.54107000  0.74580000  1.0 -0.519513143
O  O4  1  0.54107000  0.04493000  0.75420000  1.0 -0.519513143
O  O5  1  0.09050000  0.46510000  0.34000000  1.0 -0.5316620845
O  O6  1  0.46510000  0.09050000  0.16000000  1.0 -0.5316620845
O  O7  1  0.90950000  0.53490000  0.66000000  1.0 -0.5316620845
O  O8  1  0.53490000  0.90950000  0.84000000  1.0 -0.5316620845
O  O9  1  0.65288000  0.03372000  0.09630000  1.0 -0.519513143
O  O10  1  0.03372000  0.65288000  0.40370000  1.0 -0.519513143
O  O11  1  0.34712000  0.96628000  0.90370000  1.0 -0.519513143
O  O12  1  0.96628000  0.34712000  0.59630000  1.0 -0.519513143
O  O13  1  0.66495000  0.17265000  0.01450000  1.0 -0.519513143
O  O14  1  0.17265000  0.66495000  0.48550000  1.0 -0.519513143
O  O15  1  0.33505000  0.82735000  0.98550000  1.0 -0.519513143
O  O16  1  0.82735000  0.33505000  0.51450000  1.0 -0.519513143
