# DDEC6 charges by PACMAN v1.1 (https://github.com/mtap-research/PACMAN-charge/)
data_RIQCUS_FSR_pacman
_symmetry_space_group_name_H-M   'P 1'
_cell_length_a   10.18300000
_cell_length_b   28.29700000
_cell_length_c   12.01140000
_cell_angle_alpha   90.00000000
_cell_angle_beta   118.89100000
_cell_angle_gamma   90.00000000
_symmetry_Int_Tables_number   1
_chemical_formula_structural   Zn2H16C21N2O9
_chemical_formula_sum   'Zn8 H64 C84 N8 O36'
_cell_volume   3030.30242878
_cell_formula_units_Z   4
loop_
 _symmetry_equiv_pos_site_id
 _symmetry_equiv_pos_as_xyz
  1  'x, y, z'
loop_
 _atom_site_type_symbol
 _atom_site_label
 _atom_site_symmetry_multiplicity
 _atom_site_fract_x
 _atom_site_fract_y
 _atom_site_fract_z
 _atom_site_occupancy
 _atom_site_charge
Zn  Zn1  1  0.32520000  0.84204000  0.40410000  1.0 0.8857959426
Zn  Zn2  1  0.26670000  0.64352000  0.15130000  1.0 0.8368225015
Zn  Zn3  1  0.67480000  0.34204000  0.09590000  1.0 0.8857959426
Zn  Zn4  1  0.73330000  0.14352000  0.34870000  1.0 0.8368225015
Zn  Zn5  1  0.67480000  0.15796000  0.59590000  1.0 0.8857959426
Zn  Zn6  1  0.73330000  0.35648000  0.84870000  1.0 0.8368225015
Zn  Zn7  1  0.32520000  0.65796000  0.90410000  1.0 0.8857959426
Zn  Zn8  1  0.26670000  0.85648000  0.65130000  1.0 0.8368225015
H  H1  1  0.65300000  0.76570000  0.86980000  1.0 0.1302758678
H  H2  1  0.78310000  0.80410000  0.61480000  1.0 0.1090040677
H  H3  1  0.38200000  0.77090000  0.05520000  1.0 0.1393257222
H  H4  1  0.88380000  0.73310000  0.99160000  1.0 0.1090040677
H  H5  1  0.28430000  0.90810000  0.04890000  1.0 0.1488545343
H  H6  1  0.00300000  0.76650000  0.73080000  1.0 0.1302758678
H  H7  1  0.23540000  0.91030000  0.85030000  1.0 0.1194986954
H  H8  1  0.35390000  0.78130000  0.84940000  1.0 0.1194986954
H  H9  1  0.56030000  0.99410000  0.71050000  1.0 0.1488545343
H  H10  1  0.96000000  0.62530000  0.95500000  1.0 0.1090040677
H  H11  1  0.70110000  0.61630000  0.81030000  1.0 0.1302758678
H  H12  1  0.60730000  0.58760000  0.85920000  1.0 0.1393257222
H  H13  1  0.63610000  0.64170000  0.88920000  1.0 0.1393257222
H  H14  1  0.82590000  0.60930000  0.16800000  1.0 0.1302758678
H  H15  1  0.69980000  0.57460000  0.07620000  1.0 0.1302758678
H  H16  1  0.86750000  0.55800000  0.14630000  1.0 0.1393257222
H  H17  1  0.34700000  0.26570000  0.63020000  1.0 0.1302758678
H  H18  1  0.21690000  0.30410000  0.88520000  1.0 0.1090040677
H  H19  1  0.61800000  0.27090000  0.44480000  1.0 0.1393257222
H  H20  1  0.11620000  0.23310000  0.50840000  1.0 0.1090040677
H  H21  1  0.71570000  0.40810000  0.45110000  1.0 0.1488545343
H  H22  1  0.99700000  0.26650000  0.76920000  1.0 0.1302758678
H  H23  1  0.76460000  0.41030000  0.64970000  1.0 0.1194986954
H  H24  1  0.64610000  0.28130000  0.65060000  1.0 0.1194986954
H  H25  1  0.43970000  0.49410000  0.78950000  1.0 0.1488545343
H  H26  1  0.04000000  0.12530000  0.54500000  1.0 0.1090040677
H  H27  1  0.29890000  0.11630000  0.68970000  1.0 0.1302758678
H  H28  1  0.39270000  0.08760000  0.64080000  1.0 0.1393257222
H  H29  1  0.36390000  0.14170000  0.61080000  1.0 0.1393257222
H  H30  1  0.17410000  0.10930000  0.33200000  1.0 0.1302758678
H  H31  1  0.30020000  0.07460000  0.42380000  1.0 0.1302758678
H  H32  1  0.13250000  0.05800000  0.35370000  1.0 0.1393257222
H  H33  1  0.34700000  0.23430000  0.13020000  1.0 0.1302758678
H  H34  1  0.21690000  0.19590000  0.38520000  1.0 0.1090040677
H  H35  1  0.61800000  0.22910000  0.94480000  1.0 0.1393257222
H  H36  1  0.11620000  0.26690000  0.00840000  1.0 0.1090040677
H  H37  1  0.71570000  0.09190000  0.95110000  1.0 0.1488545343
H  H38  1  0.99700000  0.23350000  0.26920000  1.0 0.1302758678
H  H39  1  0.76460000  0.08970000  0.14970000  1.0 0.1194986954
H  H40  1  0.64610000  0.21870000  0.15060000  1.0 0.1194986954
H  H41  1  0.43970000  0.00590000  0.28950000  1.0 0.1488545343
H  H42  1  0.04000000  0.37470000  0.04500000  1.0 0.1090040677
H  H43  1  0.29890000  0.38370000  0.18970000  1.0 0.1302758678
H  H44  1  0.39270000  0.41240000  0.14080000  1.0 0.1393257222
H  H45  1  0.36390000  0.35830000  0.11080000  1.0 0.1393257222
H  H46  1  0.17410000  0.39070000  0.83200000  1.0 0.1302758678
H  H47  1  0.30020000  0.42540000  0.92380000  1.0 0.1302758678
H  H48  1  0.13250000  0.44200000  0.85370000  1.0 0.1393257222
H  H49  1  0.65300000  0.73430000  0.36980000  1.0 0.1302758678
H  H50  1  0.78310000  0.69590000  0.11480000  1.0 0.1090040677
H  H51  1  0.38200000  0.72910000  0.55520000  1.0 0.1393257222
H  H52  1  0.88380000  0.76690000  0.49160000  1.0 0.1090040677
H  H53  1  0.28430000  0.59190000  0.54890000  1.0 0.1488545343
H  H54  1  0.00300000  0.73350000  0.23080000  1.0 0.1302758678
H  H55  1  0.23540000  0.58970000  0.35030000  1.0 0.1194986954
H  H56  1  0.35390000  0.71870000  0.34940000  1.0 0.1194986954
H  H57  1  0.56030000  0.50590000  0.21050000  1.0 0.1488545343
H  H58  1  0.96000000  0.87470000  0.45500000  1.0 0.1090040677
H  H59  1  0.70110000  0.88370000  0.31030000  1.0 0.1302758678
H  H60  1  0.60730000  0.91240000  0.35920000  1.0 0.1393257222
H  H61  1  0.63610000  0.85830000  0.38920000  1.0 0.1393257222
H  H62  1  0.82590000  0.89070000  0.66800000  1.0 0.1302758678
H  H63  1  0.69980000  0.92540000  0.57620000  1.0 0.1302758678
H  H64  1  0.86750000  0.94200000  0.64630000  1.0 0.1393257222
C  C1  1  0.96000000  0.73950000  0.86200000  1.0 -0.0094012603
C  C2  1  0.09900000  0.70900000  0.93500000  1.0 0.5601417936
C  C3  1  0.32600000  0.83720000  0.06900000  1.0 0.0464444786
C  C4  1  0.72100000  0.76560000  0.83900000  1.0 -0.076451891
C  C5  1  0.68200000  0.78620000  0.72700000  1.0 -0.050462651
C  C6  1  0.80000000  0.78750000  0.68700000  1.0 -0.1130903502
C  C7  1  0.35300000  0.79990000  0.01400000  1.0 -0.1602198732
C  C8  1  0.85800000  0.74440000  0.91100000  1.0 -0.1290327318
C  C9  1  0.29100000  0.88100000  0.00800000  1.0 -0.1423697852
C  C10  1  0.54500000  0.81150000  0.64300000  1.0 0.575035385
C  C11  1  0.34100000  0.82920000  0.20500000  1.0 0.5208099997
C  C12  1  0.93000000  0.76490000  0.75600000  1.0 -0.1005254023
C  C13  1  0.40100000  0.96710000  0.40500000  1.0 -0.0442667621
C  C14  1  0.27200000  0.88220000  0.89500000  1.0 0.0233003191
C  C15  1  0.33700000  0.80670000  0.89000000  1.0 0.1194986954
C  C16  1  0.54100000  0.99790000  0.62700000  1.0 -0.1602198732
C  C17  1  0.44300000  0.96480000  0.52800000  1.0 -0.050462651
C  C18  1  0.95500000  0.61120000  0.02300000  1.0 0.2886188147
C  C19  1  0.67900000  0.61300000  0.87900000  1.0 -0.3437897422
C  C20  1  0.80200000  0.58440000  0.10700000  1.0 -0.3117426568
C  C21  1  0.35900000  0.92310000  0.55900000  1.0 0.5887071556
C  C22  1  0.04000000  0.23950000  0.63800000  1.0 -0.0094012603
C  C23  1  0.90100000  0.20900000  0.56500000  1.0 0.5601417936
C  C24  1  0.67400000  0.33720000  0.43100000  1.0 0.0464444786
C  C25  1  0.27900000  0.26560000  0.66100000  1.0 -0.076451891
C  C26  1  0.31800000  0.28620000  0.77300000  1.0 -0.050462651
C  C27  1  0.20000000  0.28750000  0.81300000  1.0 -0.1130903502
C  C28  1  0.64700000  0.29990000  0.48600000  1.0 -0.1602198732
C  C29  1  0.14200000  0.24440000  0.58900000  1.0 -0.1290327318
C  C30  1  0.70900000  0.38100000  0.49200000  1.0 -0.1423697852
C  C31  1  0.45500000  0.31150000  0.85700000  1.0 0.5744038738
C  C32  1  0.65900000  0.32920000  0.29500000  1.0 0.5208099997
C  C33  1  0.07000000  0.26490000  0.74400000  1.0 -0.1005254023
C  C34  1  0.59900000  0.46710000  0.09500000  1.0 -0.0442667621
C  C35  1  0.72800000  0.38220000  0.60500000  1.0 0.0233003191
C  C36  1  0.66300000  0.30670000  0.61000000  1.0 0.1194986954
C  C37  1  0.45900000  0.49790000  0.87300000  1.0 -0.1602198732
C  C38  1  0.55700000  0.46480000  0.97200000  1.0 -0.050462651
C  C39  1  0.04500000  0.11120000  0.47700000  1.0 0.2886188147
C  C40  1  0.32100000  0.11300000  0.62100000  1.0 -0.3437897422
C  C41  1  0.19800000  0.08440000  0.39300000  1.0 -0.3117426568
C  C42  1  0.64100000  0.42310000  0.94100000  1.0 0.5887071556
C  C43  1  0.04000000  0.26050000  0.13800000  1.0 -0.0094012603
C  C44  1  0.90100000  0.29100000  0.06500000  1.0 0.5601417936
C  C45  1  0.67400000  0.16280000  0.93100000  1.0 0.0464444786
C  C46  1  0.27900000  0.23440000  0.16100000  1.0 -0.076451891
C  C47  1  0.31800000  0.21380000  0.27300000  1.0 -0.050462651
C  C48  1  0.20000000  0.21250000  0.31300000  1.0 -0.1130903502
C  C49  1  0.64700000  0.20010000  0.98600000  1.0 -0.1602198732
C  C50  1  0.14200000  0.25560000  0.08900000  1.0 -0.1290327318
C  C51  1  0.70900000  0.11900000  0.99200000  1.0 -0.1423697852
C  C52  1  0.45500000  0.18850000  0.35700000  1.0 0.5744038738
C  C53  1  0.65900000  0.17080000  0.79500000  1.0 0.5208099997
C  C54  1  0.07000000  0.23510000  0.24400000  1.0 -0.1005254023
C  C55  1  0.59900000  0.03290000  0.59500000  1.0 -0.0442667621
C  C56  1  0.72800000  0.11780000  0.10500000  1.0 0.0233003191
C  C57  1  0.66300000  0.19330000  0.11000000  1.0 0.1194986954
C  C58  1  0.45900000  0.00210000  0.37300000  1.0 -0.1602198732
C  C59  1  0.55700000  0.03520000  0.47200000  1.0 -0.050462651
C  C60  1  0.04500000  0.38880000  0.97700000  1.0 0.2833874143
C  C61  1  0.32100000  0.38700000  0.12100000  1.0 -0.3437897422
C  C62  1  0.19800000  0.41560000  0.89300000  1.0 -0.3117426568
C  C63  1  0.64100000  0.07690000  0.44100000  1.0 0.5887071556
C  C64  1  0.96000000  0.76050000  0.36200000  1.0 -0.0094012603
C  C65  1  0.09900000  0.79100000  0.43500000  1.0 0.5601417936
C  C66  1  0.32600000  0.66280000  0.56900000  1.0 0.0464444786
C  C67  1  0.72100000  0.73440000  0.33900000  1.0 -0.076451891
C  C68  1  0.68200000  0.71380000  0.22700000  1.0 -0.050462651
C  C69  1  0.80000000  0.71250000  0.18700000  1.0 -0.1130903502
C  C70  1  0.35300000  0.70010000  0.51400000  1.0 -0.1602198732
C  C71  1  0.85800000  0.75560000  0.41100000  1.0 -0.1290327318
C  C72  1  0.29100000  0.61900000  0.50800000  1.0 -0.1423697852
C  C73  1  0.54500000  0.68850000  0.14300000  1.0 0.5744038738
C  C74  1  0.34100000  0.67080000  0.70500000  1.0 0.5208099997
C  C75  1  0.93000000  0.73510000  0.25600000  1.0 -0.1005254023
C  C76  1  0.40100000  0.53290000  0.90500000  1.0 -0.0442667621
C  C77  1  0.27200000  0.61780000  0.39500000  1.0 0.0233003191
C  C78  1  0.33700000  0.69330000  0.39000000  1.0 0.1194986954
C  C79  1  0.54100000  0.50210000  0.12700000  1.0 -0.1602198732
C  C80  1  0.44300000  0.53520000  0.02800000  1.0 -0.050462651
C  C81  1  0.95500000  0.88880000  0.52300000  1.0 0.2886188147
C  C82  1  0.67900000  0.88700000  0.37900000  1.0 -0.3437897422
C  C83  1  0.80200000  0.91560000  0.60700000  1.0 -0.3117426568
C  C84  1  0.35900000  0.57690000  0.05900000  1.0 0.5887071556
N  N1  1  0.82000000  0.60140000  0.00000000  1.0 0.0342649809
N  N2  1  0.29800000  0.84700000  0.83200000  1.0 -0.2096462332
N  N3  1  0.18000000  0.10140000  0.50000000  1.0 0.0342649809
N  N4  1  0.70200000  0.34700000  0.66800000  1.0 -0.2096462332
N  N5  1  0.18000000  0.39860000  0.00000000  1.0 0.035156346
N  N6  1  0.70200000  0.15300000  0.16800000  1.0 -0.2096462332
N  N7  1  0.82000000  0.89860000  0.50000000  1.0 0.0342649809
N  N8  1  0.29800000  0.65300000  0.33200000  1.0 -0.2096462332
O  O1  1  0.12900000  0.69750000  0.04200000  1.0 -0.5245348298
O  O2  1  0.38400000  0.79470000  0.25500000  1.0 -0.4457721569
O  O3  1  0.51800000  0.83020000  0.53500000  1.0 -0.5774219119
O  O4  1  0.26100000  0.89800000  0.47500000  1.0 -0.5528740667
O  O5  1  0.30800000  0.86650000  0.24300000  1.0 -0.5123992198
O  O6  1  0.16100000  0.70120000  0.87200000  1.0 -0.5123992198
O  O7  1  0.45700000  0.81710000  0.69300000  1.0 -0.5730506264
O  O8  1  0.07200000  0.60550000  0.11400000  1.0 -0.4184260451
O  O9  1  0.38500000  0.91970000  0.67600000  1.0 -0.5317223751
O  O10  1  0.87100000  0.19750000  0.45800000  1.0 -0.5245348298
O  O11  1  0.61600000  0.29470000  0.24500000  1.0 -0.4457721569
O  O12  1  0.48200000  0.33020000  0.96500000  1.0 -0.5774219119
O  O13  1  0.73900000  0.39800000  0.02500000  1.0 -0.5528740667
O  O14  1  0.69200000  0.36650000  0.25700000  1.0 -0.5123992198
O  O15  1  0.83900000  0.20120000  0.62800000  1.0 -0.5123992198
O  O16  1  0.54300000  0.31710000  0.80700000  1.0 -0.5730506264
O  O17  1  0.92800000  0.10550000  0.38600000  1.0 -0.4184260451
O  O18  1  0.61500000  0.41970000  0.82400000  1.0 -0.5317223751
O  O19  1  0.87100000  0.30250000  0.95800000  1.0 -0.5245348298
O  O20  1  0.61600000  0.20530000  0.74500000  1.0 -0.4457721569
O  O21  1  0.48200000  0.16980000  0.46500000  1.0 -0.5774219119
O  O22  1  0.73900000  0.10200000  0.52500000  1.0 -0.5528740667
O  O23  1  0.69200000  0.13350000  0.75700000  1.0 -0.5123992198
O  O24  1  0.83900000  0.29880000  0.12800000  1.0 -0.5123992198
O  O25  1  0.54300000  0.18290000  0.30700000  1.0 -0.5730506264
O  O26  1  0.92800000  0.39450000  0.88600000  1.0 -0.4184260451
O  O27  1  0.61500000  0.08030000  0.32400000  1.0 -0.5317223751
O  O28  1  0.12900000  0.80250000  0.54200000  1.0 -0.5245348298
O  O29  1  0.38400000  0.70530000  0.75500000  1.0 -0.4457721569
O  O30  1  0.51800000  0.66980000  0.03500000  1.0 -0.5774219119
O  O31  1  0.26100000  0.60200000  0.97500000  1.0 -0.5528740667
O  O32  1  0.30800000  0.63350000  0.74300000  1.0 -0.5123992198
O  O33  1  0.16100000  0.79880000  0.37200000  1.0 -0.5123992198
O  O34  1  0.45700000  0.68290000  0.19300000  1.0 -0.5730506264
O  O35  1  0.07200000  0.89450000  0.61400000  1.0 -0.4184260451
O  O36  1  0.38500000  0.58030000  0.17600000  1.0 -0.5317223751
