# DDEC6 charges by PACMAN v1.1 (https://github.com/mtap-research/PACMAN-charge/)
data_RIQQOB_ASR_pacman
_symmetry_space_group_name_H-M   'P 1'
_cell_length_a   10.98290000
_cell_length_b   11.88250000
_cell_length_c   13.08270000
_cell_angle_alpha   87.51000000
_cell_angle_beta   103.28400000
_cell_angle_gamma   101.32200000
_symmetry_Int_Tables_number   1
_chemical_formula_structural   Ca3P4H8(CO)14
_chemical_formula_sum   'Ca6 P8 H16 C28 O28'
_cell_volume   1629.32575612
_cell_formula_units_Z   2
loop_
 _symmetry_equiv_pos_site_id
 _symmetry_equiv_pos_as_xyz
  1  'x, y, z'
loop_
 _atom_site_type_symbol
 _atom_site_label
 _atom_site_symmetry_multiplicity
 _atom_site_fract_x
 _atom_site_fract_y
 _atom_site_fract_z
 _atom_site_occupancy
 _atom_site_charge
Ca  Ca1  1  0.32505000  0.96712000  0.14151000  1.0 1.4619586069
Ca  Ca2  1  0.67495000  0.03288000  0.85849000  1.0 1.4619586069
Ca  Ca3  1  0.97315000  0.96882000  0.28375000  1.0 1.5352634389
Ca  Ca4  1  0.02685000  0.03118000  0.71625000  1.0 1.5344665248
Ca  Ca5  1  0.65715000  0.04821000  0.35095000  1.0 1.4489991266
Ca  Ca6  1  0.34285000  0.95179000  0.64905000  1.0 1.4489991266
P  P1  1  0.65765000  0.98676000  0.12456000  1.0 1.2777889866
P  P2  1  0.34235000  0.01324000  0.87544000  1.0 1.2777889866
P  P3  1  0.80116000  0.83453000  0.03176000  1.0 1.2721756
P  P4  1  0.19884000  0.16547000  0.96824000  1.0 1.2721756
P  P5  1  0.17572000  0.14151000  0.49046000  1.0 1.2721756
P  P6  1  0.82428000  0.85849000  0.50954000  1.0 1.2721756
P  P7  1  0.32100000  0.00301000  0.37978000  1.0 1.2777889866
P  P8  1  0.67900000  0.99699000  0.62022000  1.0 1.2777889866
H  H1  1  0.47500000  0.65600000  0.99100000  1.0 0.1394595701
H  H2  1  0.52500000  0.34400000  0.00900000  1.0 0.1394595701
H  H3  1  0.69700000  0.78600000  0.26000000  1.0 0.1461847399
H  H4  1  0.30300000  0.21400000  0.74000000  1.0 0.1461847399
H  H5  1  0.61800000  0.64400000  0.35600000  1.0 0.1394595701
H  H6  1  0.38200000  0.35600000  0.64400000  1.0 0.1394595701
H  H7  1  0.40600000  0.49700000  0.07900000  1.0 0.1309519794
H  H8  1  0.59400000  0.50300000  0.92100000  1.0 0.1309519794
H  H9  1  0.29600000  0.36900000  0.17200000  1.0 0.1394595701
H  H10  1  0.70400000  0.63100000  0.82800000  1.0 0.1394595701
H  H11  1  0.59400000  0.47900000  0.42400000  1.0 0.1309519794
H  H12  1  0.40600000  0.52100000  0.57600000  1.0 0.1309519794
H  H13  1  0.52000000  0.31800000  0.51300000  1.0 0.1461847399
H  H14  1  0.48000000  0.68200000  0.48700000  1.0 0.1461847399
H  H15  1  0.23900000  0.20600000  0.25900000  1.0 0.1461847399
H  H16  1  0.76100000  0.79400000  0.74100000  1.0 0.1461847399
C  C1  1  0.64690000  0.84730000  0.05860000  1.0 -0.2236684214
C  C2  1  0.35310000  0.15270000  0.94140000  1.0 -0.225047658
C  C3  1  0.59700000  0.74340000  0.11890000  1.0 0.1104500193
C  C4  1  0.40300000  0.25660000  0.88110000  1.0 0.1104500193
C  C5  1  0.50940000  0.65110000  0.06530000  1.0 -0.091075995
C  C6  1  0.49060000  0.34890000  0.93470000  1.0 -0.091075995
C  C7  1  0.63700000  0.73560000  0.22680000  1.0 -0.091075995
C  C8  1  0.36300000  0.26440000  0.77320000  1.0 -0.0980590111
C  C9  1  0.59050000  0.63990000  0.28120000  1.0 -0.091075995
C  C10  1  0.40950000  0.36010000  0.71880000  1.0 -0.091075995
C  C11  1  0.46480000  0.55470000  0.11990000  1.0 -0.1186175149
C  C12  1  0.53520000  0.44530000  0.88010000  1.0 -0.1186175149
C  C13  1  0.50300000  0.54690000  0.22840000  1.0 0.0768349927
C  C14  1  0.49700000  0.45310000  0.77160000  1.0 0.0768349927
C  C15  1  0.45570000  0.44450000  0.28760000  1.0 0.0879727502
C  C16  1  0.54430000  0.55550000  0.71240000  1.0 0.0879727502
C  C17  1  0.35050000  0.36200000  0.24110000  1.0 -0.091075995
C  C18  1  0.64950000  0.63800000  0.75890000  1.0 -0.091075995
C  C19  1  0.51700000  0.42460000  0.39070000  1.0 -0.1335309099
C  C20  1  0.48300000  0.57540000  0.60930000  1.0 -0.1335309099
C  C21  1  0.47540000  0.32740000  0.44520000  1.0 -0.091075995
C  C22  1  0.52460000  0.67260000  0.55480000  1.0 -0.091075995
C  C23  1  0.30950000  0.26340000  0.29430000  1.0 -0.0980590111
C  C24  1  0.69050000  0.73660000  0.70570000  1.0 -0.0980590111
C  C25  1  0.37180000  0.24490000  0.39710000  1.0 0.1104500193
C  C26  1  0.62820000  0.75510000  0.60290000  1.0 0.1104500193
C  C27  1  0.32890000  0.13670000  0.45530000  1.0 -0.2100461003
C  C28  1  0.67110000  0.86330000  0.54470000  1.0 -0.2100461003
O  O1  1  0.56580000  0.85240000  0.95466000  1.0 -0.3169130486
O  O2  1  0.43420000  0.14760000  0.04534000  1.0 -0.3169130486
O  O3  1  0.54190000  0.97160000  0.17255000  1.0 -0.8042946856
O  O4  1  0.45810000  0.02840000  0.82745000  1.0 -0.8042946856
O  O5  1  0.65700000  0.07480000  0.03624000  1.0 -0.6893128556
O  O6  1  0.34300000  0.92520000  0.96376000  1.0 -0.6893128556
O  O7  1  0.77480000  0.01330000  0.21350000  1.0 -0.8516059916
O  O8  1  0.22520000  0.98670000  0.78650000  1.0 -0.8516059916
O  O9  1  0.78710000  0.70600000  0.99780000  1.0 -0.66959926
O  O10  1  0.21290000  0.29400000  0.00220000  1.0 -0.66959926
O  O11  1  0.81410000  0.90940000  0.93820000  1.0 -0.7496800821
O  O12  1  0.18590000  0.09060000  0.06180000  1.0 -0.7496800821
O  O13  1  0.90480000  0.85720000  0.12890000  1.0 -0.7699903946
O  O14  1  0.09520000  0.14280000  0.87110000  1.0 -0.7699903946
O  O15  1  0.41630000  0.12980000  0.55557000  1.0 -0.3918557864
O  O16  1  0.58370000  0.87020000  0.44443000  1.0 -0.3918557864
O  O17  1  0.19090000  0.26840000  0.53200000  1.0 -0.66959926
O  O18  1  0.80910000  0.73160000  0.46800000  1.0 -0.66959926
O  O19  1  0.06910000  0.12370000  0.39480000  1.0 -0.7699903946
O  O20  1  0.93090000  0.87630000  0.60520000  1.0 -0.7699903946
O  O21  1  0.16590000  0.06140000  0.58120000  1.0 -0.7888239723
O  O22  1  0.83410000  0.93860000  0.41880000  1.0 -0.7888239723
O  O23  1  0.34280000  0.91330000  0.46695000  1.0 -0.71092395
O  O24  1  0.65720000  0.08670000  0.53305000  1.0 -0.71092395
O  O25  1  0.19630000  0.97360000  0.29920000  1.0 -0.8353998464
O  O26  1  0.80370000  0.02640000  0.70080000  1.0 -0.8353998464
O  O27  1  0.43030000  0.03030000  0.32385000  1.0 -0.7888239723
O  O28  1  0.56970000  0.96970000  0.67615000  1.0 -0.7888239723
