# DDEC6 charges by PACMAN v1.1 (https://github.com/mtap-research/PACMAN-charge/)
data_RIQWEX_ASR_pacman
_symmetry_space_group_name_H-M   'P 1'
_cell_length_a   17.97740000
_cell_length_b   17.97740000
_cell_length_c   17.97740000
_cell_angle_alpha   102.62800000
_cell_angle_beta   102.62800000
_cell_angle_gamma   124.24600000
_symmetry_Int_Tables_number   1
_chemical_formula_structural   Zr3NiH36C60(NO3)4
_chemical_formula_sum   'Zr6 Ni2 H72 C120 N8 O24'
_cell_volume   4245.45407004
_cell_formula_units_Z   2
loop_
 _symmetry_equiv_pos_site_id
 _symmetry_equiv_pos_as_xyz
  1  'x, y, z'
loop_
 _atom_site_type_symbol
 _atom_site_label
 _atom_site_symmetry_multiplicity
 _atom_site_fract_x
 _atom_site_fract_y
 _atom_site_fract_z
 _atom_site_occupancy
 _atom_site_charge
Zr  Zr1  1  0.64682000  0.64682000  0.00000000  1.0 2.3707615726
Zr  Zr2  1  0.35318000  0.35318000  0.00000000  1.0 2.3707615726
Zr  Zr3  1  0.50000000  0.38912000  0.88912000  1.0 2.4608741992
Zr  Zr4  1  0.61088000  0.50000000  0.11088000  1.0 2.4608741992
Zr  Zr5  1  0.50000000  0.61088000  0.11088000  1.0 2.4608741992
Zr  Zr6  1  0.38912000  0.50000000  0.88912000  1.0 2.4608741992
Ni  Ni1  1  0.75000000  0.25000000  0.50000000  1.0 0.4003594511
Ni  Ni2  1  0.25000000  0.75000000  0.50000000  1.0 0.4003594511
H  H1  1  0.87787000  0.71835000  0.90762000  1.0 0.0949373984
H  H2  1  0.97025000  0.87787000  0.15952000  1.0 0.0949373984
H  H3  1  0.81073000  0.97025000  0.09238000  1.0 0.0949373984
H  H4  1  0.71835000  0.81073000  0.84048000  1.0 0.0949373984
H  H5  1  0.18927000  0.28165000  0.15952000  1.0 0.0949373984
H  H6  1  0.12213000  0.02975000  0.84048000  1.0 0.0949373984
H  H7  1  0.02975000  0.18927000  0.90762000  1.0 0.0949373984
H  H8  1  0.28165000  0.12213000  0.09238000  1.0 0.0949373984
H  H9  1  0.12213000  0.28165000  0.09238000  1.0 0.0949373984
H  H10  1  0.02975000  0.12213000  0.84048000  1.0 0.0949373984
H  H11  1  0.18927000  0.02975000  0.90762000  1.0 0.0949373984
H  H12  1  0.28165000  0.18927000  0.15952000  1.0 0.0949373984
H  H13  1  0.81073000  0.71835000  0.84048000  1.0 0.0949373984
H  H14  1  0.87787000  0.97025000  0.15952000  1.0 0.0949373984
H  H15  1  0.97025000  0.81073000  0.09238000  1.0 0.0949373984
H  H16  1  0.71835000  0.87787000  0.90762000  1.0 0.0949373984
H  H17  1  0.98684000  0.72899000  0.84383000  1.0 0.0727956363
H  H18  1  0.14301000  0.98684000  0.25785000  1.0 0.0727956363
H  H19  1  0.88516000  0.14301000  0.15617000  1.0 0.0727956363
H  H20  1  0.72899000  0.88516000  0.74215000  1.0 0.0727956363
H  H21  1  0.11484000  0.27101000  0.25785000  1.0 0.0727956363
H  H22  1  0.01316000  0.85699000  0.74215000  1.0 0.0727956363
H  H23  1  0.85699000  0.11484000  0.84383000  1.0 0.0727956363
H  H24  1  0.27101000  0.01316000  0.15617000  1.0 0.0727956363
H  H25  1  0.01316000  0.27101000  0.15617000  1.0 0.0727956363
H  H26  1  0.85699000  0.01316000  0.74215000  1.0 0.0727956363
H  H27  1  0.11484000  0.85699000  0.84383000  1.0 0.0727956363
H  H28  1  0.27101000  0.11484000  0.25785000  1.0 0.0727956363
H  H29  1  0.88516000  0.72899000  0.74215000  1.0 0.0727956363
H  H30  1  0.98684000  0.14301000  0.25785000  1.0 0.0727956363
H  H31  1  0.14301000  0.88516000  0.15617000  1.0 0.0727956363
H  H32  1  0.72899000  0.98684000  0.84383000  1.0 0.0727956363
H  H33  1  0.93683000  0.61530000  0.73033000  1.0 0.0727956363
H  H34  1  0.20650000  0.93683000  0.32153000  1.0 0.0727956363
H  H35  1  0.88497000  0.20650000  0.26967000  1.0 0.0727956363
H  H36  1  0.61530000  0.88497000  0.67847000  1.0 0.0727956363
H  H37  1  0.11503000  0.38470000  0.32153000  1.0 0.0727956363
H  H38  1  0.06317000  0.79350000  0.67847000  1.0 0.0727956363
H  H39  1  0.79350000  0.11503000  0.73033000  1.0 0.0727956363
H  H40  1  0.38470000  0.06317000  0.26967000  1.0 0.0727956363
H  H41  1  0.06317000  0.38470000  0.26967000  1.0 0.0727956363
H  H42  1  0.79350000  0.06317000  0.67847000  1.0 0.0727956363
H  H43  1  0.11503000  0.79350000  0.73033000  1.0 0.0727956363
H  H44  1  0.38470000  0.11503000  0.32153000  1.0 0.0727956363
H  H45  1  0.88497000  0.61530000  0.67847000  1.0 0.0727956363
H  H46  1  0.93683000  0.20650000  0.32153000  1.0 0.0727956363
H  H47  1  0.20650000  0.88497000  0.26967000  1.0 0.0727956363
H  H48  1  0.61530000  0.93683000  0.73033000  1.0 0.0727956363
H  H49  1  0.68001000  0.42632000  0.74631000  1.0 0.1136775755
H  H50  1  0.93370000  0.68001000  0.25369000  1.0 0.1136775755
H  H51  1  0.68001000  0.93370000  0.25369000  1.0 0.1136775755
H  H52  1  0.42632000  0.68001000  0.74631000  1.0 0.1136775755
H  H53  1  0.31999000  0.57368000  0.25369000  1.0 0.1136775755
H  H54  1  0.31999000  0.06630000  0.74631000  1.0 0.1136775755
H  H55  1  0.06630000  0.31999000  0.74631000  1.0 0.1136775755
H  H56  1  0.57368000  0.31999000  0.25369000  1.0 0.1136775755
H  H57  1  0.65848000  0.46653000  0.56369000  1.0 0.1302189932
H  H58  1  0.09479000  0.65848000  0.19195000  1.0 0.1302189932
H  H59  1  0.90284000  0.09479000  0.43631000  1.0 0.1302189932
H  H60  1  0.46653000  0.90284000  0.80805000  1.0 0.1302189932
H  H61  1  0.09716000  0.53347000  0.19195000  1.0 0.1302189932
H  H62  1  0.34152000  0.90521000  0.80805000  1.0 0.1302189932
H  H63  1  0.90521000  0.09716000  0.56369000  1.0 0.1302189932
H  H64  1  0.53347000  0.34152000  0.43631000  1.0 0.1302189932
H  H65  1  0.34152000  0.53347000  0.43631000  1.0 0.1302189932
H  H66  1  0.90521000  0.34152000  0.80805000  1.0 0.1302189932
H  H67  1  0.09716000  0.90521000  0.56369000  1.0 0.1302189932
H  H68  1  0.53347000  0.09716000  0.19195000  1.0 0.1302189932
H  H69  1  0.90284000  0.46653000  0.80805000  1.0 0.1302189932
H  H70  1  0.65848000  0.09479000  0.19195000  1.0 0.1302189932
H  H71  1  0.09479000  0.90284000  0.43631000  1.0 0.1302189932
H  H72  1  0.46653000  0.65848000  0.56369000  1.0 0.1302189932
C  C1  1  0.68970000  0.55140000  0.86170000  1.0 0.6266345375
C  C2  1  0.82800000  0.68970000  0.13830000  1.0 0.6266345375
C  C3  1  0.68970000  0.82800000  0.13830000  1.0 0.6266345375
C  C4  1  0.55140000  0.68970000  0.86170000  1.0 0.6266345375
C  C5  1  0.31030000  0.44860000  0.13830000  1.0 0.6266345375
C  C6  1  0.31030000  0.17200000  0.86170000  1.0 0.6266345375
C  C7  1  0.17200000  0.31030000  0.86170000  1.0 0.6266345375
C  C8  1  0.44860000  0.31030000  0.13830000  1.0 0.6266345375
C  C9  1  0.75880000  0.57690000  0.81810000  1.0 -0.018239835
C  C10  1  0.94070000  0.75880000  0.18190000  1.0 -0.018239835
C  C11  1  0.75880000  0.94070000  0.18190000  1.0 -0.018239835
C  C12  1  0.57690000  0.75880000  0.81810000  1.0 -0.018239835
C  C13  1  0.24120000  0.42310000  0.18190000  1.0 -0.018239835
C  C14  1  0.24120000  0.05930000  0.81810000  1.0 -0.018239835
C  C15  1  0.05930000  0.24120000  0.81810000  1.0 -0.018239835
C  C16  1  0.42310000  0.24120000  0.18190000  1.0 -0.018239835
C  C17  1  0.85510000  0.66520000  0.85810000  1.0 -0.083172688
C  C18  1  0.99700000  0.85510000  0.18990000  1.0 -0.083172688
C  C19  1  0.80710000  0.99700000  0.14190000  1.0 -0.083172688
C  C20  1  0.66520000  0.80710000  0.81010000  1.0 -0.083172688
C  C21  1  0.19290000  0.33480000  0.18990000  1.0 -0.083172688
C  C22  1  0.14490000  0.00300000  0.81010000  1.0 -0.083172688
C  C23  1  0.00300000  0.19290000  0.85810000  1.0 -0.083172688
C  C24  1  0.33480000  0.14490000  0.14190000  1.0 -0.083172688
C  C25  1  0.14490000  0.33480000  0.14190000  1.0 -0.083172688
C  C26  1  0.00300000  0.14490000  0.81010000  1.0 -0.083172688
C  C27  1  0.19290000  0.00300000  0.85810000  1.0 -0.083172688
C  C28  1  0.33480000  0.19290000  0.18990000  1.0 -0.083172688
C  C29  1  0.80710000  0.66520000  0.81010000  1.0 -0.083172688
C  C30  1  0.85510000  0.99700000  0.18990000  1.0 -0.083172688
C  C31  1  0.99700000  0.80710000  0.14190000  1.0 -0.083172688
C  C32  1  0.66520000  0.85510000  0.85810000  1.0 -0.083172688
C  C33  1  0.91920000  0.67030000  0.81830000  1.0 -0.0662059418
C  C34  1  0.10090000  0.91920000  0.24890000  1.0 -0.0662059418
C  C35  1  0.85200000  0.10090000  0.18170000  1.0 -0.0662059418
C  C36  1  0.67030000  0.85200000  0.75110000  1.0 -0.0662059418
C  C37  1  0.14800000  0.32970000  0.24890000  1.0 -0.0662059418
C  C38  1  0.08080000  0.89910000  0.75110000  1.0 -0.0662059418
C  C39  1  0.89910000  0.14800000  0.81830000  1.0 -0.0662059418
C  C40  1  0.32970000  0.08080000  0.18170000  1.0 -0.0662059418
C  C41  1  0.08080000  0.32970000  0.18170000  1.0 -0.0662059418
C  C42  1  0.89910000  0.08080000  0.75110000  1.0 -0.0640566746
C  C43  1  0.14800000  0.89910000  0.81830000  1.0 -0.0662059418
C  C44  1  0.32970000  0.14800000  0.24890000  1.0 -0.0662059418
C  C45  1  0.85200000  0.67030000  0.75110000  1.0 -0.0662059418
C  C46  1  0.91920000  0.10090000  0.24890000  1.0 -0.0662059418
C  C47  1  0.10090000  0.85200000  0.18170000  1.0 -0.0662059418
C  C48  1  0.67030000  0.91920000  0.81830000  1.0 -0.0662059418
C  C49  1  0.89060000  0.60330000  0.75370000  1.0 -0.0640566746
C  C50  1  0.13690000  0.89060000  0.28730000  1.0 -0.0640566746
C  C51  1  0.84960000  0.13690000  0.24630000  1.0 -0.0640566746
C  C52  1  0.60330000  0.84960000  0.71270000  1.0 -0.0640566746
C  C53  1  0.15040000  0.39670000  0.28730000  1.0 -0.0640566746
C  C54  1  0.10940000  0.86310000  0.71270000  1.0 -0.0640566746
C  C55  1  0.86310000  0.15040000  0.75370000  1.0 -0.0640566746
C  C56  1  0.39670000  0.10940000  0.24630000  1.0 -0.0640566746
C  C57  1  0.10940000  0.39670000  0.24630000  1.0 -0.0640566746
C  C58  1  0.86310000  0.10940000  0.71270000  1.0 -0.0640566746
C  C59  1  0.15040000  0.86310000  0.75370000  1.0 -0.0640566746
C  C60  1  0.39670000  0.15040000  0.28730000  1.0 -0.0640566746
C  C61  1  0.84960000  0.60330000  0.71270000  1.0 -0.0640566746
C  C62  1  0.89060000  0.13690000  0.28730000  1.0 -0.0640566746
C  C63  1  0.13690000  0.84960000  0.24630000  1.0 -0.0640566746
C  C64  1  0.60330000  0.89060000  0.75370000  1.0 -0.0640566746
C  C65  1  0.80270000  0.51740000  0.71470000  1.0 0.0035398241
C  C66  1  0.08800000  0.80270000  0.28530000  1.0 0.0035398241
C  C67  1  0.80270000  0.08800000  0.28530000  1.0 0.0035398241
C  C68  1  0.51740000  0.80270000  0.71470000  1.0 0.0035398241
C  C69  1  0.19730000  0.48260000  0.28530000  1.0 0.0035398241
C  C70  1  0.19730000  0.91200000  0.71470000  1.0 0.0035398241
C  C71  1  0.91200000  0.19730000  0.71470000  1.0 0.0035398241
C  C72  1  0.48260000  0.19730000  0.28530000  1.0 0.0035398241
C  C73  1  0.73420000  0.49240000  0.75820000  1.0 -0.2420108139
C  C74  1  0.97600000  0.73420000  0.24180000  1.0 -0.2420108139
C  C75  1  0.73420000  0.97600000  0.24180000  1.0 -0.2420108139
C  C76  1  0.49240000  0.73420000  0.75820000  1.0 -0.2420108139
C  C77  1  0.26580000  0.50760000  0.24180000  1.0 -0.2420108139
C  C78  1  0.26580000  0.02400000  0.75820000  1.0 -0.2420108139
C  C79  1  0.02400000  0.26580000  0.75820000  1.0 -0.2420108139
C  C80  1  0.50760000  0.26580000  0.24180000  1.0 -0.2420108139
C  C81  1  0.77880000  0.42490000  0.64610000  1.0 -0.1843150563
C  C82  1  0.13270000  0.77880000  0.35390000  1.0 -0.1859615154
C  C83  1  0.77880000  0.13270000  0.35390000  1.0 -0.1843150563
C  C84  1  0.42490000  0.77880000  0.64610000  1.0 -0.1859615154
C  C85  1  0.22120000  0.57510000  0.35390000  1.0 -0.1843150563
C  C86  1  0.22120000  0.86730000  0.64610000  1.0 -0.1859615154
C  C87  1  0.86730000  0.22120000  0.64610000  1.0 -0.1843150563
C  C88  1  0.57510000  0.22120000  0.35390000  1.0 -0.1843150563
C  C89  1  0.71580000  0.37900000  0.56280000  1.0 0.1534190469
C  C90  1  0.15300000  0.71580000  0.33680000  1.0 0.1534190469
C  C91  1  0.81620000  0.15300000  0.43720000  1.0 0.1534190469
C  C92  1  0.37900000  0.81620000  0.66320000  1.0 0.1534190469
C  C93  1  0.18380000  0.62100000  0.33680000  1.0 0.1534190469
C  C94  1  0.28420000  0.84700000  0.66320000  1.0 0.1534190469
C  C95  1  0.84700000  0.18380000  0.56280000  1.0 0.1534190469
C  C96  1  0.62100000  0.28420000  0.43720000  1.0 0.1534190469
C  C97  1  0.28420000  0.62100000  0.43720000  1.0 0.1534190469
C  C98  1  0.84700000  0.28420000  0.66320000  1.0 0.1534190469
C  C99  1  0.18380000  0.84700000  0.56280000  1.0 0.1534190469
C  C100  1  0.62100000  0.18380000  0.33680000  1.0 0.1534190469
C  C101  1  0.81620000  0.37900000  0.66320000  1.0 0.1534190469
C  C102  1  0.71580000  0.15300000  0.33680000  1.0 0.1534190469
C  C103  1  0.15300000  0.81620000  0.43720000  1.0 0.1534190469
C  C104  1  0.37900000  0.71580000  0.56280000  1.0 0.1534190469
C  C105  1  0.64940000  0.40980000  0.53260000  1.0 -0.1263559616
C  C106  1  0.11680000  0.64940000  0.23960000  1.0 -0.1263559616
C  C107  1  0.87720000  0.11680000  0.46740000  1.0 -0.1263559616
C  C108  1  0.40980000  0.87720000  0.76040000  1.0 -0.1263559616
C  C109  1  0.12280000  0.59020000  0.23960000  1.0 -0.1263559616
C  C110  1  0.35060000  0.88320000  0.76040000  1.0 -0.1263559616
C  C111  1  0.88320000  0.12280000  0.53260000  1.0 -0.1263559616
C  C112  1  0.59020000  0.35060000  0.46740000  1.0 -0.1263559616
C  C113  1  0.35060000  0.59020000  0.46740000  1.0 -0.1263559616
C  C114  1  0.88320000  0.35060000  0.76040000  1.0 -0.1263559616
C  C115  1  0.12280000  0.88320000  0.53260000  1.0 -0.1263559616
C  C116  1  0.59020000  0.12280000  0.23960000  1.0 -0.1263559616
C  C117  1  0.87720000  0.40980000  0.76040000  1.0 -0.1263559616
C  C118  1  0.64940000  0.11680000  0.23960000  1.0 -0.1263559616
C  C119  1  0.11680000  0.87720000  0.46740000  1.0 -0.1263559616
C  C120  1  0.40980000  0.64940000  0.53260000  1.0 -0.1263559616
N  N1  1  0.69300000  0.30700000  0.50000000  1.0 -0.2019861496
N  N2  1  0.19300000  0.69300000  0.38600000  1.0 -0.2019861496
N  N3  1  0.80700000  0.19300000  0.50000000  1.0 -0.2019861496
N  N4  1  0.30700000  0.80700000  0.61400000  1.0 -0.2019861496
N  N5  1  0.30700000  0.69300000  0.50000000  1.0 -0.2019861496
N  N6  1  0.80700000  0.30700000  0.61400000  1.0 -0.2019861496
N  N7  1  0.19300000  0.80700000  0.50000000  1.0 -0.2019861496
N  N8  1  0.69300000  0.19300000  0.38600000  1.0 -0.2019861496
O  O1  1  0.51710000  0.51710000  0.89080000  1.0 -1.1855522699
O  O2  1  0.62630000  0.51710000  0.00000000  1.0 -1.1855522699
O  O3  1  0.62630000  0.62630000  0.10920000  1.0 -1.1855522699
O  O4  1  0.51710000  0.62630000  0.00000000  1.0 -1.1855522699
O  O5  1  0.37370000  0.48290000  0.00000000  1.0 -1.1855522699
O  O6  1  0.48290000  0.37370000  0.00000000  1.0 -1.1855522699
O  O7  1  0.37370000  0.37370000  0.89080000  1.0 -1.1855522699
O  O8  1  0.48290000  0.48290000  0.10920000  1.0 -1.1855522699
O  O9  1  0.61810000  0.46350000  0.84540000  1.0 -0.6203498251
O  O10  1  0.77270000  0.61810000  0.15460000  1.0 -0.6203498251
O  O11  1  0.61810000  0.77270000  0.15460000  1.0 -0.6203498251
O  O12  1  0.46350000  0.61810000  0.84540000  1.0 -0.6203498251
O  O13  1  0.38190000  0.53650000  0.15460000  1.0 -0.6203498251
O  O14  1  0.38190000  0.22730000  0.84540000  1.0 -0.6203498251
O  O15  1  0.22730000  0.38190000  0.84540000  1.0 -0.6203498251
O  O16  1  0.53650000  0.38190000  0.15460000  1.0 -0.6203498251
O  O17  1  0.71530000  0.63070000  0.91540000  1.0 -0.5830174691
O  O18  1  0.79990000  0.71530000  0.08460000  1.0 -0.5830174691
O  O19  1  0.71530000  0.79990000  0.08460000  1.0 -0.5830174691
O  O20  1  0.63070000  0.71530000  0.91540000  1.0 -0.5830174691
O  O21  1  0.28470000  0.36930000  0.08460000  1.0 -0.5830174691
O  O22  1  0.28470000  0.20010000  0.91540000  1.0 -0.5830174691
O  O23  1  0.20010000  0.28470000  0.91540000  1.0 -0.5830174691
O  O24  1  0.36930000  0.28470000  0.08460000  1.0 -0.5830174691
