# DDEC6 charges by PACMAN v1.1 (https://github.com/mtap-research/PACMAN-charge/)
data_RIRCON_ASR_pacman
_symmetry_space_group_name_H-M   'P 1'
_cell_length_a   9.94219000
_cell_length_b   9.94219000
_cell_length_c   19.13860000
_cell_angle_alpha   63.06900000
_cell_angle_beta   116.93100000
_cell_angle_gamma   139.34800000
_symmetry_Int_Tables_number   1
_chemical_formula_structural   SrZnH6C14(NO4)2
_chemical_formula_sum   'Sr2 Zn2 H12 C28 N4 O16'
_cell_volume   1079.15043129
_cell_formula_units_Z   2
loop_
 _symmetry_equiv_pos_site_id
 _symmetry_equiv_pos_as_xyz
  1  'x, y, z'
loop_
 _atom_site_type_symbol
 _atom_site_label
 _atom_site_symmetry_multiplicity
 _atom_site_fract_x
 _atom_site_fract_y
 _atom_site_fract_z
 _atom_site_occupancy
 _atom_site_charge
Sr  Sr1  1  0.51407000  0.51407000  0.75000000  1.0 1.4560120275
Sr  Sr2  1  0.48593000  0.48593000  0.25000000  1.0 1.4560120275
Zn  Zn1  1  0.00000000  0.00000000  0.50000000  1.0 0.7784539631
Zn  Zn2  1  0.00000000  0.00000000  0.00000000  1.0 0.7784539631
H  H1  1  0.28990000  0.86750000  0.42140000  1.0 0.1357479712
H  H2  1  0.18170000  0.56090000  0.64490000  1.0 0.1150283685
H  H3  1  0.05730000  0.69450000  0.63360000  1.0 0.1275057813
H  H4  1  0.86750000  0.28990000  0.07860000  1.0 0.1357479712
H  H5  1  0.56090000  0.18170000  0.85510000  1.0 0.1150283685
H  H6  1  0.69450000  0.05730000  0.86640000  1.0 0.1275057813
H  H7  1  0.71010000  0.13250000  0.57860000  1.0 0.1357479712
H  H8  1  0.81830000  0.43910000  0.35510000  1.0 0.1150283685
H  H9  1  0.94270000  0.30550000  0.36640000  1.0 0.1275057813
H  H10  1  0.13250000  0.71010000  0.92140000  1.0 0.1357479712
H  H11  1  0.43910000  0.81830000  0.14490000  1.0 0.1150283685
H  H12  1  0.30550000  0.94270000  0.13360000  1.0 0.1275057813
C  C1  1  0.16884000  0.90576000  0.46320000  1.0 0.0988273753
C  C2  1  0.24406000  0.83074000  0.46535000  1.0 -0.1201018577
C  C3  1  0.25027000  0.69933000  0.53418000  1.0 0.010370311
C  C4  1  0.17941000  0.64819000  0.59794000  1.0 -0.1554097364
C  C5  1  0.10483000  0.72917000  0.59068000  1.0 0.0988273753
C  C6  1  0.16985000  0.05815000  0.39160000  1.0 0.5455352238
C  C7  1  0.33353000  0.61547000  0.53829000  1.0 0.5560191742
C  C8  1  0.90576000  0.16884000  0.03680000  1.0 0.0988273753
C  C9  1  0.83074000  0.24406000  0.03465000  1.0 -0.1201018577
C  C10  1  0.69933000  0.25027000  0.96582000  1.0 0.010370311
C  C11  1  0.64819000  0.17941000  0.90206000  1.0 -0.1554097364
C  C12  1  0.72917000  0.10483000  0.90932000  1.0 0.0988273753
C  C13  1  0.05815000  0.16985000  0.10840000  1.0 0.5455352238
C  C14  1  0.61547000  0.33353000  0.96171000  1.0 0.5560191742
C  C15  1  0.83116000  0.09424000  0.53680000  1.0 0.0988273753
C  C16  1  0.75594000  0.16926000  0.53465000  1.0 -0.1201018577
C  C17  1  0.74973000  0.30067000  0.46582000  1.0 0.010370311
C  C18  1  0.82059000  0.35181000  0.40206000  1.0 -0.1554097364
C  C19  1  0.89517000  0.27083000  0.40932000  1.0 0.0988273753
C  C20  1  0.83015000  0.94185000  0.60840000  1.0 0.5455352238
C  C21  1  0.66647000  0.38453000  0.46171000  1.0 0.5560191742
C  C22  1  0.09424000  0.83116000  0.96320000  1.0 0.0988273753
C  C23  1  0.16926000  0.75594000  0.96535000  1.0 -0.1201018577
C  C24  1  0.30067000  0.74973000  0.03418000  1.0 0.010370311
C  C25  1  0.35181000  0.82059000  0.09794000  1.0 -0.1554097364
C  C26  1  0.27083000  0.89517000  0.09068000  1.0 0.0988273753
C  C27  1  0.94185000  0.83015000  0.89160000  1.0 0.5455352238
C  C28  1  0.38453000  0.66647000  0.03829000  1.0 0.5560191742
N  N1  1  0.09865000  0.85455000  0.52471000  1.0 -0.2303689847
N  N2  1  0.85455000  0.09865000  0.97529000  1.0 -0.2303689847
N  N3  1  0.90135000  0.14545000  0.47529000  1.0 -0.2303689847
N  N4  1  0.14545000  0.90135000  0.02471000  1.0 -0.2303689847
O  O1  1  0.10663000  0.12637000  0.39623000  1.0 -0.5379970103
O  O2  1  0.23553000  0.11007000  0.33426000  1.0 -0.5743806491
O  O3  1  0.33920000  0.50080000  0.60232000  1.0 -0.6512893716
O  O4  1  0.38932000  0.66568000  0.47745000  1.0 -0.5330969224
O  O5  1  0.12637000  0.10663000  0.10377000  1.0 -0.5379970103
O  O6  1  0.11007000  0.23553000  0.16574000  1.0 -0.5743806491
O  O7  1  0.50080000  0.33920000  0.89768000  1.0 -0.6512893716
O  O8  1  0.66568000  0.38932000  0.02255000  1.0 -0.5330969224
O  O9  1  0.89337000  0.87363000  0.60377000  1.0 -0.5379970103
O  O10  1  0.76447000  0.88993000  0.66574000  1.0 -0.5743806491
O  O11  1  0.66080000  0.49920000  0.39768000  1.0 -0.6512893716
O  O12  1  0.61068000  0.33432000  0.52255000  1.0 -0.5379970103
O  O13  1  0.87363000  0.89337000  0.89623000  1.0 -0.5379970103
O  O14  1  0.88993000  0.76447000  0.83426000  1.0 -0.5743806491
O  O15  1  0.49920000  0.66080000  0.10232000  1.0 -0.6512893716
O  O16  1  0.33432000  0.61068000  0.97745000  1.0 -0.5379970103
