# DDEC6 charges by PACMAN v1.1 (https://github.com/mtap-research/PACMAN-charge/)
data_RIRDEF_FSR_pacman
_symmetry_space_group_name_H-M   'P 1'
_cell_length_a   9.66450000
_cell_length_b   9.66450000
_cell_length_c   15.30880000
_cell_angle_alpha   90.00000000
_cell_angle_beta   90.00000000
_cell_angle_gamma   90.00000000
_symmetry_Int_Tables_number   1
_chemical_formula_structural   ZnSiH16C24(N2F5)2
_chemical_formula_sum   'Zn2 Si2 H32 C48 N8 F20'
_cell_volume   1429.88111436
_cell_formula_units_Z   2
loop_
 _symmetry_equiv_pos_site_id
 _symmetry_equiv_pos_as_xyz
  1  'x, y, z'
loop_
 _atom_site_type_symbol
 _atom_site_label
 _atom_site_symmetry_multiplicity
 _atom_site_fract_x
 _atom_site_fract_y
 _atom_site_fract_z
 _atom_site_occupancy
 _atom_site_charge
Zn  Zn1  1  0.50000000  0.50000000  0.75000000  1.0 0.7405112447
Zn  Zn2  1  0.50000000  0.50000000  0.25000000  1.0 0.7405112447
Si  Si1  1  0.50000000  0.50000000  0.50000000  1.0 1.0436714651
Si  Si2  1  0.50000000  0.50000000  0.00000000  1.0 1.0436714651
H  H1  1  0.58304000  0.75614000  0.85201000  1.0 0.0763691725
H  H2  1  0.41696000  0.24386000  0.85201000  1.0 0.0763691725
H  H3  1  0.24386000  0.58304000  0.85201000  1.0 0.0763691725
H  H4  1  0.75614000  0.41696000  0.85201000  1.0 0.0763691725
H  H5  1  0.41696000  0.75614000  0.64799000  1.0 0.0763691725
H  H6  1  0.58304000  0.24386000  0.64799000  1.0 0.0763691725
H  H7  1  0.75614000  0.58304000  0.64799000  1.0 0.0763691725
H  H8  1  0.24386000  0.41696000  0.64799000  1.0 0.0763691725
H  H9  1  0.41696000  0.24386000  0.14799000  1.0 0.0763691725
H  H10  1  0.58304000  0.75614000  0.14799000  1.0 0.0763691725
H  H11  1  0.75614000  0.41696000  0.14799000  1.0 0.0763691725
H  H12  1  0.24386000  0.58304000  0.14799000  1.0 0.0763691725
H  H13  1  0.58304000  0.24386000  0.35201000  1.0 0.0763691725
H  H14  1  0.41696000  0.75614000  0.35201000  1.0 0.0763691725
H  H15  1  0.24386000  0.41696000  0.35201000  1.0 0.0763691725
H  H16  1  0.75614000  0.58304000  0.35201000  1.0 0.0763691725
H  H17  1  0.74980000  0.92640000  0.85570000  1.0 0.1077267701
H  H18  1  0.25020000  0.07360000  0.85570000  1.0 0.1077267701
H  H19  1  0.07360000  0.74980000  0.85570000  1.0 0.1077267701
H  H20  1  0.92640000  0.25020000  0.85570000  1.0 0.1077267701
H  H21  1  0.25020000  0.92640000  0.64430000  1.0 0.1077267701
H  H22  1  0.74980000  0.07360000  0.64430000  1.0 0.1077267701
H  H23  1  0.92640000  0.74980000  0.64430000  1.0 0.1077267701
H  H24  1  0.07360000  0.25020000  0.64430000  1.0 0.1077267701
H  H25  1  0.25020000  0.07360000  0.14430000  1.0 0.1077267701
H  H26  1  0.74980000  0.92640000  0.14430000  1.0 0.1077267701
H  H27  1  0.92640000  0.25020000  0.14430000  1.0 0.1077267701
H  H28  1  0.07360000  0.74980000  0.14430000  1.0 0.1077267701
H  H29  1  0.74980000  0.07360000  0.35570000  1.0 0.1077267701
H  H30  1  0.25020000  0.92640000  0.35570000  1.0 0.1077267701
H  H31  1  0.07360000  0.25020000  0.35570000  1.0 0.1077267701
H  H32  1  0.92640000  0.74980000  0.35570000  1.0 0.1077267701
C  C1  1  0.85670000  0.85670000  0.75000000  1.0 0.100084147
C  C2  1  0.14330000  0.14330000  0.75000000  1.0 0.100084147
C  C3  1  0.14330000  0.85670000  0.75000000  1.0 0.100084147
C  C4  1  0.85670000  0.14330000  0.75000000  1.0 0.100084147
C  C5  1  0.14330000  0.14330000  0.25000000  1.0 0.100084147
C  C6  1  0.85670000  0.85670000  0.25000000  1.0 0.100084147
C  C7  1  0.85670000  0.14330000  0.25000000  1.0 0.100084147
C  C8  1  0.14330000  0.85670000  0.25000000  1.0 0.100084147
C  C9  1  0.65460000  0.75510000  0.80950000  1.0 0.0590989651
C  C10  1  0.34540000  0.24490000  0.80950000  1.0 0.0590989651
C  C11  1  0.24490000  0.65460000  0.80950000  1.0 0.0590989651
C  C12  1  0.75510000  0.34540000  0.80950000  1.0 0.0590989651
C  C13  1  0.34540000  0.75510000  0.69050000  1.0 0.0590989651
C  C14  1  0.65460000  0.24490000  0.69050000  1.0 0.0590989651
C  C15  1  0.75510000  0.65460000  0.69050000  1.0 0.0590989651
C  C16  1  0.24490000  0.34540000  0.69050000  1.0 0.0590989651
C  C17  1  0.34540000  0.24490000  0.19050000  1.0 0.0590989651
C  C18  1  0.65460000  0.75510000  0.19050000  1.0 0.0590989651
C  C19  1  0.75510000  0.34540000  0.19050000  1.0 0.0590989651
C  C20  1  0.24490000  0.65460000  0.19050000  1.0 0.0590989651
C  C21  1  0.65460000  0.24490000  0.30950000  1.0 0.0590989651
C  C22  1  0.34540000  0.75510000  0.30950000  1.0 0.0590989651
C  C23  1  0.24490000  0.34540000  0.30950000  1.0 0.0590989651
C  C24  1  0.75510000  0.65460000  0.30950000  1.0 0.0590989651
C  C25  1  0.75290000  0.85670000  0.81200000  1.0 -0.2453265427
C  C26  1  0.24710000  0.14330000  0.81200000  1.0 -0.2453265427
C  C27  1  0.14330000  0.75290000  0.81200000  1.0 -0.2453265427
C  C28  1  0.85670000  0.24710000  0.81200000  1.0 -0.2453265427
C  C29  1  0.24710000  0.85670000  0.68800000  1.0 -0.2453265427
C  C30  1  0.75290000  0.14330000  0.68800000  1.0 -0.2453265427
C  C31  1  0.85670000  0.75290000  0.68800000  1.0 -0.2453265427
C  C32  1  0.14330000  0.24710000  0.68800000  1.0 -0.2453265427
C  C33  1  0.24710000  0.14330000  0.18800000  1.0 -0.2453265427
C  C34  1  0.75290000  0.85670000  0.18800000  1.0 -0.2453265427
C  C35  1  0.85670000  0.24710000  0.18800000  1.0 -0.2453265427
C  C36  1  0.14330000  0.75290000  0.18800000  1.0 -0.2453265427
C  C37  1  0.75290000  0.14330000  0.31200000  1.0 -0.2453265427
C  C38  1  0.24710000  0.85670000  0.31200000  1.0 -0.2453265427
C  C39  1  0.14330000  0.24710000  0.31200000  1.0 -0.2453265427
C  C40  1  0.85670000  0.75290000  0.31200000  1.0 -0.2453265427
C  C41  1  0.00000000  0.92700000  0.75000000  1.0 -0.0040578155
C  C42  1  0.00000000  0.07300000  0.75000000  1.0 -0.0063684903
C  C43  1  0.07300000  0.00000000  0.75000000  1.0 -0.0063684903
C  C44  1  0.92700000  0.00000000  0.75000000  1.0 -0.0063684903
C  C45  1  0.00000000  0.07300000  0.25000000  1.0 -0.0040578155
C  C46  1  0.00000000  0.92700000  0.25000000  1.0 -0.0040578155
C  C47  1  0.92700000  0.00000000  0.25000000  1.0 -0.0040578155
C  C48  1  0.07300000  0.00000000  0.25000000  1.0 -0.0040578155
N  N1  1  0.65490000  0.65490000  0.75000000  1.0 -0.2938832281
N  N2  1  0.34510000  0.34510000  0.75000000  1.0 -0.2938832281
N  N3  1  0.34510000  0.65490000  0.75000000  1.0 -0.2938832281
N  N4  1  0.65490000  0.34510000  0.75000000  1.0 -0.2938832281
N  N5  1  0.34510000  0.34510000  0.25000000  1.0 -0.2938832281
N  N6  1  0.65490000  0.65490000  0.25000000  1.0 -0.2938832281
N  N7  1  0.65490000  0.34510000  0.25000000  1.0 -0.2938832281
N  N8  1  0.34510000  0.65490000  0.25000000  1.0 -0.2938832281
F  F1  1  0.50000000  0.50000000  0.61050000  1.0 -0.391382703
F  F2  1  0.50000000  0.50000000  0.88950000  1.0 -0.391382703
F  F3  1  0.50000000  0.50000000  0.38950000  1.0 -0.391382703
F  F4  1  0.50000000  0.50000000  0.11050000  1.0 -0.391382703
F  F5  1  0.54600000  0.66630000  0.50000000  1.0 -0.0433098408
F  F6  1  0.45400000  0.33370000  0.50000000  1.0 -0.0433098408
F  F7  1  0.33370000  0.54600000  0.50000000  1.0 -0.0433098408
F  F8  1  0.66630000  0.45400000  0.50000000  1.0 -0.0433098408
F  F9  1  0.45400000  0.66630000  0.00000000  1.0 -0.0433098408
F  F10  1  0.54600000  0.33370000  0.00000000  1.0 -0.0433098408
F  F11  1  0.66630000  0.54600000  0.00000000  1.0 -0.0433098408
F  F12  1  0.33370000  0.45400000  0.00000000  1.0 -0.0433098408
F  F13  1  0.39700000  0.63800000  0.50000000  1.0 -0.0040578155
F  F14  1  0.60300000  0.36200000  0.50000000  1.0 -0.0040578155
F  F15  1  0.36200000  0.39700000  0.50000000  1.0 -0.0040578155
F  F16  1  0.63800000  0.60300000  0.50000000  1.0 -0.0040578155
F  F17  1  0.60300000  0.63800000  0.00000000  1.0 -0.0040578155
F  F18  1  0.39700000  0.36200000  0.00000000  1.0 -0.0040578155
F  F19  1  0.63800000  0.39700000  0.00000000  1.0 -0.0040578155
F  F20  1  0.36200000  0.60300000  0.00000000  1.0 -0.0040578155
