# DDEC6 charges by PACMAN v1.1 (https://github.com/mtap-research/PACMAN-charge/)
data_RIRDAB_ASR_pacman
_symmetry_space_group_name_H-M   'P 1'
_cell_length_a   9.67340000
_cell_length_b   9.67340000
_cell_length_c   15.17060000
_cell_angle_alpha   90.00000000
_cell_angle_beta   90.00000000
_cell_angle_gamma   90.00000000
_symmetry_Int_Tables_number   1
_chemical_formula_structural   ZnSiH16C24(N2F3)2
_chemical_formula_sum   'Zn2 Si2 H32 C48 N8 F12'
_cell_volume   1419.58385169
_cell_formula_units_Z   2
loop_
 _symmetry_equiv_pos_site_id
 _symmetry_equiv_pos_as_xyz
  1  'x, y, z'
loop_
 _atom_site_type_symbol
 _atom_site_label
 _atom_site_symmetry_multiplicity
 _atom_site_fract_x
 _atom_site_fract_y
 _atom_site_fract_z
 _atom_site_occupancy
 _atom_site_charge
Zn  Zn1  1  0.50000000  0.50000000  0.25000000  1.0 0.7492415962
Zn  Zn2  1  0.50000000  0.50000000  0.75000000  1.0 0.7492415962
Si  Si1  1  0.50000000  0.50000000  0.00000000  1.0 1.7286506948
Si  Si2  1  0.50000000  0.50000000  0.50000000  1.0 1.7286506948
H  H1  1  0.24621000  0.41168000  0.14365000  1.0 0.1230153126
H  H2  1  0.75379000  0.58832000  0.14365000  1.0 0.1230153126
H  H3  1  0.58832000  0.24621000  0.14365000  1.0 0.1230153126
H  H4  1  0.41168000  0.75379000  0.14365000  1.0 0.1230153126
H  H5  1  0.75379000  0.41168000  0.35635000  1.0 0.1230153126
H  H6  1  0.24621000  0.58832000  0.35635000  1.0 0.1230153126
H  H7  1  0.41168000  0.24621000  0.35635000  1.0 0.1230153126
H  H8  1  0.58832000  0.75379000  0.35635000  1.0 0.1230153126
H  H9  1  0.75379000  0.58832000  0.85635000  1.0 0.1230153126
H  H10  1  0.24621000  0.41168000  0.85635000  1.0 0.1230153126
H  H11  1  0.41168000  0.75379000  0.85635000  1.0 0.1230153126
H  H12  1  0.58832000  0.24621000  0.85635000  1.0 0.1230153126
H  H13  1  0.24621000  0.58832000  0.64365000  1.0 0.1230153126
H  H14  1  0.75379000  0.41168000  0.64365000  1.0 0.1230153126
H  H15  1  0.58832000  0.75379000  0.64365000  1.0 0.1230153126
H  H16  1  0.41168000  0.24621000  0.64365000  1.0 0.1230153126
H  H17  1  0.07317000  0.24882000  0.14447000  1.0 0.1339368057
H  H18  1  0.92683000  0.75118000  0.14447000  1.0 0.1339368057
H  H19  1  0.75118000  0.07317000  0.14447000  1.0 0.1339368057
H  H20  1  0.24882000  0.92683000  0.14447000  1.0 0.1339368057
H  H21  1  0.92683000  0.24882000  0.35553000  1.0 0.1339368057
H  H22  1  0.07317000  0.75118000  0.35553000  1.0 0.1339368057
H  H23  1  0.24882000  0.07317000  0.35553000  1.0 0.1339368057
H  H24  1  0.75118000  0.92683000  0.35553000  1.0 0.1339368057
H  H25  1  0.92683000  0.75118000  0.85553000  1.0 0.1339368057
H  H26  1  0.07317000  0.24882000  0.85553000  1.0 0.1339368057
H  H27  1  0.24882000  0.92683000  0.85553000  1.0 0.1339368057
H  H28  1  0.75118000  0.07317000  0.85553000  1.0 0.1339368057
H  H29  1  0.07317000  0.75118000  0.64447000  1.0 0.1339368057
H  H30  1  0.92683000  0.24882000  0.64447000  1.0 0.1339368057
H  H31  1  0.75118000  0.92683000  0.64447000  1.0 0.1339368057
H  H32  1  0.24882000  0.07317000  0.64447000  1.0 0.1339368057
C  C1  1  0.24550000  0.34290000  0.18840000  1.0 0.0974987206
C  C2  1  0.75450000  0.65710000  0.18840000  1.0 0.0974987206
C  C3  1  0.65710000  0.24550000  0.18840000  1.0 0.0974987206
C  C4  1  0.34290000  0.75450000  0.18840000  1.0 0.0974987206
C  C5  1  0.75450000  0.34290000  0.31160000  1.0 0.0974987206
C  C6  1  0.24550000  0.65710000  0.31160000  1.0 0.0974987206
C  C7  1  0.34290000  0.24550000  0.31160000  1.0 0.0974987206
C  C8  1  0.65710000  0.75450000  0.31160000  1.0 0.0974987206
C  C9  1  0.75450000  0.65710000  0.81160000  1.0 0.0974987206
C  C10  1  0.24550000  0.34290000  0.81160000  1.0 0.0974987206
C  C11  1  0.34290000  0.75450000  0.81160000  1.0 0.0974987206
C  C12  1  0.65710000  0.24550000  0.81160000  1.0 0.0974987206
C  C13  1  0.24550000  0.65710000  0.68840000  1.0 0.0974987206
C  C14  1  0.75450000  0.34290000  0.68840000  1.0 0.0974987206
C  C15  1  0.65710000  0.75450000  0.68840000  1.0 0.0974987206
C  C16  1  0.34290000  0.24550000  0.68840000  1.0 0.0974987206
C  C17  1  0.14350000  0.24500000  0.18810000  1.0 -0.2141854409
C  C18  1  0.85650000  0.75500000  0.18810000  1.0 -0.2141854409
C  C19  1  0.75500000  0.14350000  0.18810000  1.0 -0.2141854409
C  C20  1  0.24500000  0.85650000  0.18810000  1.0 -0.2141854409
C  C21  1  0.85650000  0.24500000  0.31190000  1.0 -0.2141854409
C  C22  1  0.14350000  0.75500000  0.31190000  1.0 -0.2141854409
C  C23  1  0.24500000  0.14350000  0.31190000  1.0 -0.2141854409
C  C24  1  0.75500000  0.85650000  0.31190000  1.0 -0.2141854409
C  C25  1  0.85650000  0.75500000  0.81190000  1.0 -0.2141854409
C  C26  1  0.14350000  0.24500000  0.81190000  1.0 -0.2141854409
C  C27  1  0.24500000  0.85650000  0.81190000  1.0 -0.2141854409
C  C28  1  0.75500000  0.14350000  0.81190000  1.0 -0.2141854409
C  C29  1  0.14350000  0.75500000  0.68810000  1.0 -0.2141854409
C  C30  1  0.85650000  0.24500000  0.68810000  1.0 -0.2141854409
C  C31  1  0.75500000  0.85650000  0.68810000  1.0 -0.2141854409
C  C32  1  0.24500000  0.14350000  0.68810000  1.0 -0.2141854409
C  C33  1  0.14100000  0.14100000  0.25000000  1.0 0.1118650754
C  C34  1  0.85900000  0.85900000  0.25000000  1.0 0.1118650754
C  C35  1  0.85900000  0.14100000  0.25000000  1.0 0.1118650754
C  C36  1  0.14100000  0.85900000  0.25000000  1.0 0.1118650754
C  C37  1  0.85900000  0.85900000  0.75000000  1.0 0.1118650754
C  C38  1  0.14100000  0.14100000  0.75000000  1.0 0.1118650754
C  C39  1  0.14100000  0.85900000  0.75000000  1.0 0.1118650754
C  C40  1  0.85900000  0.14100000  0.75000000  1.0 0.1118650754
C  C41  1  0.07000000  0.00000000  0.25000000  1.0 0.0026633581
C  C42  1  0.93000000  0.00000000  0.25000000  1.0 0.0026633581
C  C43  1  0.00000000  0.07000000  0.25000000  1.0 0.0026633581
C  C44  1  0.00000000  0.93000000  0.25000000  1.0 0.0026633581
C  C45  1  0.93000000  0.00000000  0.75000000  1.0 0.0026633581
C  C46  1  0.07000000  0.00000000  0.75000000  1.0 0.0026633581
C  C47  1  0.00000000  0.93000000  0.75000000  1.0 0.0026633581
C  C48  1  0.00000000  0.07000000  0.75000000  1.0 0.0026633581
N  N1  1  0.34430000  0.34430000  0.25000000  1.0 -0.2264325823
N  N2  1  0.65570000  0.65570000  0.25000000  1.0 -0.2264325823
N  N3  1  0.65570000  0.34430000  0.25000000  1.0 -0.2264325823
N  N4  1  0.34430000  0.65570000  0.25000000  1.0 -0.2264325823
N  N5  1  0.65570000  0.65570000  0.75000000  1.0 -0.2264325823
N  N6  1  0.34430000  0.34430000  0.75000000  1.0 -0.2264325823
N  N7  1  0.34430000  0.65570000  0.75000000  1.0 -0.2264325823
N  N8  1  0.65570000  0.34430000  0.75000000  1.0 -0.2264325823
F  F1  1  0.60340000  0.63770000  0.00000000  1.0 -0.5327583346
F  F2  1  0.39660000  0.36230000  0.00000000  1.0 -0.5327583346
F  F3  1  0.36230000  0.60340000  0.00000000  1.0 -0.5327583346
F  F4  1  0.63770000  0.39660000  0.00000000  1.0 -0.5327583346
F  F5  1  0.39660000  0.63770000  0.50000000  1.0 -0.5327583346
F  F6  1  0.60340000  0.36230000  0.50000000  1.0 -0.5327583346
F  F7  1  0.63770000  0.60340000  0.50000000  1.0 -0.5327583346
F  F8  1  0.36230000  0.39660000  0.50000000  1.0 -0.5327583346
F  F9  1  0.50000000  0.50000000  0.11280000  1.0 -0.5106827709
F  F10  1  0.50000000  0.50000000  0.38720000  1.0 -0.5106827709
F  F11  1  0.50000000  0.50000000  0.88720000  1.0 -0.5106827709
F  F12  1  0.50000000  0.50000000  0.61280000  1.0 -0.5106827709
