# DDEC6 charges by PACMAN v1.1 (https://github.com/mtap-research/PACMAN-charge/)
data_RISJIQ_FSR_pacman
_symmetry_space_group_name_H-M   'P 1'
_cell_length_a   19.41050000
_cell_length_b   19.41050000
_cell_length_c   19.41050000
_cell_angle_alpha   152.47100000
_cell_angle_beta   111.86900000
_cell_angle_gamma   74.97310000
_symmetry_Int_Tables_number   1
_chemical_formula_structural   ZnH22C20NO5
_chemical_formula_sum   'Zn4 H88 C80 N4 O20'
_cell_volume   3093.59992392
_cell_formula_units_Z   4
loop_
 _symmetry_equiv_pos_site_id
 _symmetry_equiv_pos_as_xyz
  1  'x, y, z'
loop_
 _atom_site_type_symbol
 _atom_site_label
 _atom_site_symmetry_multiplicity
 _atom_site_fract_x
 _atom_site_fract_y
 _atom_site_fract_z
 _atom_site_occupancy
 _atom_site_charge
Zn  Zn1  1  0.48587000  0.63925000  0.15338000  1.0 0.9428405597
Zn  Zn2  1  0.51413000  0.36075000  0.84662000  1.0 0.9428405597
Zn  Zn3  1  0.98587000  0.83249000  0.84662000  1.0 0.9428405597
Zn  Zn4  1  0.01413000  0.16751000  0.15338000  1.0 0.9428405597
H  H1  1  0.90953000  0.87029000  0.27982000  1.0 0.1328523292
H  H2  1  0.40953000  0.12971000  0.03924000  1.0 0.1328523292
H  H3  1  0.09047000  0.12971000  0.72018000  1.0 0.1328523292
H  H4  1  0.59047000  0.87029000  0.96076000  1.0 0.1328523292
H  H5  1  0.83415000  0.01227000  0.56386000  1.0 0.1231707766
H  H6  1  0.55159000  0.98773000  0.82188000  1.0 0.1231707766
H  H7  1  0.94841000  0.77029000  0.43614000  1.0 0.1231707766
H  H8  1  0.66585000  0.22971000  0.17812000  1.0 0.1231707766
H  H9  1  0.16585000  0.98773000  0.43614000  1.0 0.1231707766
H  H10  1  0.44841000  0.01227000  0.17812000  1.0 0.1231707766
H  H11  1  0.05159000  0.22971000  0.56386000  1.0 0.1231707766
H  H12  1  0.33415000  0.77029000  0.82188000  1.0 0.1231707766
H  H13  1  0.71347000  0.89586000  0.44673000  1.0 0.1231707766
H  H14  1  0.55087000  0.10414000  0.81761000  1.0 0.1231707766
H  H15  1  0.94913000  0.76674000  0.55327000  1.0 0.1231707766
H  H16  1  0.78653000  0.23326000  0.18239000  1.0 0.1231707766
H  H17  1  0.28653000  0.10414000  0.55327000  1.0 0.1231707766
H  H18  1  0.44913000  0.89586000  0.18239000  1.0 0.1231707766
H  H19  1  0.05087000  0.23326000  0.44673000  1.0 0.1231707766
H  H20  1  0.21347000  0.76674000  0.81761000  1.0 0.1231707766
H  H21  1  0.73997000  0.52833000  0.01876000  1.0 0.1456017944
H  H22  1  0.49043000  0.47167000  0.21164000  1.0 0.1456017944
H  H23  1  0.00957000  0.22121000  0.98124000  1.0 0.1456017944
H  H24  1  0.76003000  0.77879000  0.78836000  1.0 0.1456017944
H  H25  1  0.26003000  0.47167000  0.98124000  1.0 0.1456017944
H  H26  1  0.50957000  0.52833000  0.78836000  1.0 0.1456017944
H  H27  1  0.99043000  0.77879000  0.01876000  1.0 0.1456017944
H  H28  1  0.23997000  0.22121000  0.21164000  1.0 0.1456017944
H  H29  1  0.86006000  0.64853000  0.13835000  1.0 0.1231707766
H  H30  1  0.48982000  0.35147000  0.21153000  1.0 0.1231707766
H  H31  1  0.01018000  0.22171000  0.86165000  1.0 0.1231707766
H  H32  1  0.63994000  0.77829000  0.78847000  1.0 0.1231707766
H  H33  1  0.13994000  0.35147000  0.86165000  1.0 0.1231707766
H  H34  1  0.51018000  0.64853000  0.78847000  1.0 0.1231707766
H  H35  1  0.98982000  0.77829000  0.13835000  1.0 0.1231707766
H  H36  1  0.36006000  0.22171000  0.21153000  1.0 0.1231707766
H  H37  1  0.45715000  0.01373000  0.55658000  1.0 0.1085923144
H  H38  1  0.54285000  0.98627000  0.44342000  1.0 0.1085923144
H  H39  1  0.95715000  0.40057000  0.44342000  1.0 0.1085923144
H  H40  1  0.04285000  0.59943000  0.55658000  1.0 0.1085923144
H  H41  1  0.33502000  0.66048000  0.24116000  1.0 0.0405723893
H  H42  1  0.58068000  0.33952000  0.67454000  1.0 0.0405723893
H  H43  1  0.91932000  0.59386000  0.75884000  1.0 0.0405723893
H  H44  1  0.16498000  0.40614000  0.32546000  1.0 0.0405723893
H  H45  1  0.66498000  0.33952000  0.75884000  1.0 0.0405723893
H  H46  1  0.41932000  0.66048000  0.32546000  1.0 0.0405723893
H  H47  1  0.08068000  0.40614000  0.24116000  1.0 0.0405723893
H  H48  1  0.83502000  0.59386000  0.67454000  1.0 0.0405723893
H  H49  1  0.36607000  0.68362000  0.35041000  1.0 0.018988238
H  H50  1  0.66679000  0.31638000  0.68245000  1.0 0.018988238
H  H51  1  0.83321000  0.51566000  0.64959000  1.0 0.018988238
H  H52  1  0.13393000  0.48434000  0.31755000  1.0 0.018988238
H  H53  1  0.63393000  0.31638000  0.64959000  1.0 0.018988238
H  H54  1  0.33321000  0.68362000  0.31755000  1.0 0.018988238
H  H55  1  0.16679000  0.48434000  0.35041000  1.0 0.018988238
H  H56  1  0.86607000  0.51566000  0.68245000  1.0 0.018988238
H  H57  1  0.42048000  0.64570000  0.27666000  1.0 0.0405723893
H  H58  1  0.63096000  0.35430000  0.77478000  1.0 0.0405723893
H  H59  1  0.86904000  0.64382000  0.72334000  1.0 0.0405723893
H  H60  1  0.07952000  0.35618000  0.22522000  1.0 0.0405723893
H  H61  1  0.57952000  0.35430000  0.72334000  1.0 0.0405723893
H  H62  1  0.36904000  0.64570000  0.22522000  1.0 0.0405723893
H  H63  1  0.13096000  0.35618000  0.27666000  1.0 0.0405723893
H  H64  1  0.92048000  0.64382000  0.77478000  1.0 0.0405723893
H  H65  1  0.39924000  0.06380000  0.67614000  1.0 0.1085923144
H  H66  1  0.61234000  0.93620000  0.33544000  1.0 0.1085923144
H  H67  1  0.88766000  0.22310000  0.32386000  1.0 0.1085923144
H  H68  1  0.10076000  0.77690000  0.66456000  1.0 0.1085923144
H  H69  1  0.60076000  0.93620000  0.32386000  1.0 0.1085923144
H  H70  1  0.38766000  0.06380000  0.66456000  1.0 0.1085923144
H  H71  1  0.11234000  0.77690000  0.67614000  1.0 0.1085923144
H  H72  1  0.89924000  0.22310000  0.33544000  1.0 0.1085923144
H  H73  1  0.38726000  0.93363000  0.61349000  1.0 0.1085923144
H  H74  1  0.67986000  0.06637000  0.45363000  1.0 0.1085923144
H  H75  1  0.82014000  0.27377000  0.38651000  1.0 0.1085923144
H  H76  1  0.11274000  0.72623000  0.54637000  1.0 0.1085923144
H  H77  1  0.61274000  0.06637000  0.38651000  1.0 0.1085923144
H  H78  1  0.32014000  0.93363000  0.54637000  1.0 0.1085923144
H  H79  1  0.17986000  0.72623000  0.61349000  1.0 0.1085923144
H  H80  1  0.88726000  0.27377000  0.45363000  1.0 0.1085923144
H  H81  1  0.32020000  0.95279000  0.55389000  1.0 0.1085923144
H  H82  1  0.60110000  0.04721000  0.36741000  1.0 0.1085923144
H  H83  1  0.89890000  0.26631000  0.44611000  1.0 0.1085923144
H  H84  1  0.17980000  0.73369000  0.63259000  1.0 0.1085923144
H  H85  1  0.67980000  0.04721000  0.44611000  1.0 0.1085923144
H  H86  1  0.39890000  0.95279000  0.63259000  1.0 0.1085923144
H  H87  1  0.10110000  0.73369000  0.55389000  1.0 0.1085923144
H  H88  1  0.82020000  0.26631000  0.36741000  1.0 0.1085923144
C  C1  1  0.94650000  0.92510000  0.37160000  1.0 -0.1993918956
C  C2  1  0.44650000  0.07490000  0.02140000  1.0 -0.1993918956
C  C3  1  0.05350000  0.07490000  0.62840000  1.0 -0.1993918956
C  C4  1  0.55350000  0.92510000  0.97860000  1.0 -0.1993918956
C  C5  1  0.93215000  0.92285000  0.43450000  1.0 0.0305020122
C  C6  1  0.51165000  0.07715000  0.00930000  1.0 0.0305020122
C  C7  1  0.98835000  0.99765000  0.56550000  1.0 0.0305020122
C  C8  1  0.56785000  0.00235000  0.99070000  1.0 0.0305020122
C  C9  1  0.06785000  0.07715000  0.56550000  1.0 0.0305020122
C  C10  1  0.48835000  0.92285000  0.99070000  1.0 0.0305020122
C  C11  1  0.01165000  0.00235000  0.43450000  1.0 0.0305020122
C  C12  1  0.43215000  0.99765000  0.00930000  1.0 0.0305020122
C  C13  1  0.85802000  0.84382000  0.36200000  1.0 0.0557657874
C  C14  1  0.51818000  0.15618000  0.01420000  1.0 0.0557657874
C  C15  1  0.98182000  0.99602000  0.63800000  1.0 0.0557657874
C  C16  1  0.64198000  0.00398000  0.98580000  1.0 0.0557657874
C  C17  1  0.14198000  0.15618000  0.63800000  1.0 0.0557657874
C  C18  1  0.48182000  0.84382000  0.98580000  1.0 0.0557657874
C  C19  1  0.01818000  0.00398000  0.36200000  1.0 0.0557657874
C  C20  1  0.35802000  0.99602000  0.01420000  1.0 0.0557657874
C  C21  1  0.81481000  0.91451000  0.45270000  1.0 -0.155558096
C  C22  1  0.53819000  0.08549000  0.90030000  1.0 -0.155558096
C  C23  1  0.96181000  0.86211000  0.54730000  1.0 -0.155558096
C  C24  1  0.68519000  0.13789000  0.09970000  1.0 -0.155558096
C  C25  1  0.18519000  0.08549000  0.54730000  1.0 -0.155558096
C  C26  1  0.46181000  0.91451000  0.09970000  1.0 -0.155558096
C  C27  1  0.03819000  0.13789000  0.45270000  1.0 -0.155558096
C  C28  1  0.31481000  0.86211000  0.90030000  1.0 -0.155558096
C  C29  1  0.74342000  0.84462000  0.38340000  1.0 -0.0972940332
C  C30  1  0.53878000  0.15538000  0.89880000  1.0 -0.0972940332
C  C31  1  0.96122000  0.86002000  0.61660000  1.0 -0.0972940332
C  C32  1  0.75658000  0.13998000  0.10120000  1.0 -0.0972940332
C  C33  1  0.25658000  0.15538000  0.61660000  1.0 -0.0972940332
C  C34  1  0.46122000  0.84462000  0.10120000  1.0 -0.0972940332
C  C35  1  0.03878000  0.13998000  0.38340000  1.0 -0.0972940332
C  C36  1  0.24342000  0.86002000  0.89880000  1.0 -0.0972940332
C  C37  1  0.71569000  0.69949000  0.22120000  1.0 -0.0316809786
C  C38  1  0.52171000  0.30051000  0.01620000  1.0 -0.0316809786
C  C39  1  0.97829000  0.99449000  0.77880000  1.0 -0.0316809786
C  C40  1  0.78431000  0.00551000  0.98380000  1.0 -0.0316809786
C  C41  1  0.28431000  0.30051000  0.77880000  1.0 -0.0316809786
C  C42  1  0.47829000  0.69949000  0.98380000  1.0 -0.0316809786
C  C43  1  0.02171000  0.00551000  0.22120000  1.0 -0.0316809786
C  C44  1  0.21569000  0.99449000  0.01620000  1.0 -0.0316809786
C  C45  1  0.75879000  0.62699000  0.12980000  1.0 -0.0972940332
C  C46  1  0.50281000  0.37301000  0.13180000  1.0 -0.0972940332
C  C47  1  0.99719000  0.12899000  0.87020000  1.0 -0.0972940332
C  C48  1  0.74121000  0.87101000  0.86820000  1.0 -0.0972940332
C  C49  1  0.24121000  0.37301000  0.87020000  1.0 -0.0972940332
C  C50  1  0.49719000  0.62699000  0.86820000  1.0 -0.0972940332
C  C51  1  0.00281000  0.87101000  0.12980000  1.0 -0.0972940332
C  C52  1  0.25879000  0.12899000  0.13180000  1.0 -0.0972940332
C  C53  1  0.83006000  0.69956000  0.20150000  1.0 -0.1511103713
C  C54  1  0.50194000  0.30044000  0.13050000  1.0 -0.1511103713
C  C55  1  0.99806000  0.12856000  0.79850000  1.0 -0.1511103713
C  C56  1  0.66994000  0.87144000  0.86950000  1.0 -0.1511103713
C  C57  1  0.16994000  0.30044000  0.79850000  1.0 -0.1511103713
C  C58  1  0.49806000  0.69956000  0.86950000  1.0 -0.1511103713
C  C59  1  0.00194000  0.87144000  0.20150000  1.0 -0.1511103713
C  C60  1  0.33006000  0.12856000  0.13050000  1.0 -0.1511103713
C  C61  1  0.63759000  0.62259000  0.14380000  1.0 0.5696236476
C  C62  1  0.52121000  0.37741000  0.01500000  1.0 0.5696236476
C  C63  1  0.97879000  0.99379000  0.85620000  1.0 0.5696236476
C  C64  1  0.86241000  0.00621000  0.98500000  1.0 0.5696236476
C  C65  1  0.36241000  0.37741000  0.85620000  1.0 0.5696236476
C  C66  1  0.47879000  0.62259000  0.98500000  1.0 0.5696236476
C  C67  1  0.02121000  0.00621000  0.14380000  1.0 0.5696236476
C  C68  1  0.13759000  0.99379000  0.01500000  1.0 0.5696236476
C  C69  1  0.44410000  0.90750000  0.46340000  1.0 0.2939650549
C  C70  1  0.55590000  0.09250000  0.53660000  1.0 0.2939650549
C  C71  1  0.94410000  0.48070000  0.53660000  1.0 0.2939650549
C  C72  1  0.05590000  0.51930000  0.46340000  1.0 0.2939650549
C  C73  1  0.37490000  0.96020000  0.58530000  1.0 -0.425110744
C  C74  1  0.62510000  0.03980000  0.41470000  1.0 -0.425110744
C  C75  1  0.87490000  0.28960000  0.41470000  1.0 -0.425110744
C  C76  1  0.12510000  0.71040000  0.58530000  1.0 -0.425110744
C  C77  1  0.37900000  0.69940000  0.32040000  1.0 -0.2227700704
C  C78  1  0.62100000  0.30060000  0.67960000  1.0 -0.2227700704
C  C79  1  0.87900000  0.55860000  0.67960000  1.0 -0.2227700704
C  C80  1  0.12100000  0.44140000  0.32040000  1.0 -0.2227700704
N  N1  1  0.40140000  0.85710000  0.45570000  1.0 -0.1123639976
N  N2  1  0.59860000  0.14290000  0.54430000  1.0 -0.1123639976
N  N3  1  0.90140000  0.44570000  0.54430000  1.0 -0.1123639976
N  N4  1  0.09860000  0.55430000  0.45570000  1.0 -0.1123639976
O  O1  1  0.59744000  0.70371000  0.23333000  1.0 -0.5576823072
O  O2  1  0.52962000  0.29629000  0.89373000  1.0 -0.5576823072
O  O3  1  0.97038000  0.86411000  0.76667000  1.0 -0.5576823072
O  O4  1  0.90256000  0.13589000  0.10627000  1.0 -0.5576823072
O  O5  1  0.40256000  0.29629000  0.76667000  1.0 -0.5576823072
O  O6  1  0.47038000  0.70371000  0.10627000  1.0 -0.5576823072
O  O7  1  0.02962000  0.13589000  0.23333000  1.0 -0.5576823072
O  O8  1  0.09744000  0.86411000  0.89373000  1.0 -0.5576823072
O  O9  1  0.61758000  0.48936000  0.99942000  1.0 -0.5376269312
O  O10  1  0.51006000  0.51064000  0.12822000  1.0 -0.5376269312
O  O11  1  0.98994000  0.11816000  0.00058000  1.0 -0.5376269312
O  O12  1  0.88242000  0.88184000  0.87178000  1.0 -0.5376269312
O  O13  1  0.38242000  0.51064000  0.00058000  1.0 -0.5376269312
O  O14  1  0.48994000  0.48936000  0.87178000  1.0 -0.5376269312
O  O15  1  0.01006000  0.88184000  0.99942000  1.0 -0.5376269312
O  O16  1  0.11758000  0.11816000  0.12822000  1.0 -0.5376269312
O  O17  1  0.46820000  0.82450000  0.35630000  1.0 -0.4559511112
O  O18  1  0.53180000  0.17550000  0.64370000  1.0 -0.4559511112
O  O19  1  0.96820000  0.61190000  0.64370000  1.0 -0.4559511112
O  O20  1  0.03180000  0.38810000  0.35630000  1.0 -0.4559511112
