# DDEC6 charges by PACMAN v1.1 (https://github.com/mtap-research/PACMAN-charge/)
data_RITGUY_FSR_pacman
_symmetry_space_group_name_H-M   'P 1'
_cell_length_a   8.22220000
_cell_length_b   16.22470000
_cell_length_c   16.46140000
_cell_angle_alpha   93.27500000
_cell_angle_beta   95.79700000
_cell_angle_gamma   97.89500000
_symmetry_Int_Tables_number   1
_chemical_formula_structural   Ag4H4C13N(O3F4)2
_chemical_formula_sum   'Ag16 H16 C52 N4 O24 F32'
_cell_volume   2158.43260119
_cell_formula_units_Z   4
loop_
 _symmetry_equiv_pos_site_id
 _symmetry_equiv_pos_as_xyz
  1  'x, y, z'
loop_
 _atom_site_type_symbol
 _atom_site_label
 _atom_site_symmetry_multiplicity
 _atom_site_fract_x
 _atom_site_fract_y
 _atom_site_fract_z
 _atom_site_occupancy
 _atom_site_charge
Ag  Ag1  1  0.52053000  0.56661000  0.55714000  1.0 0.451984007
Ag  Ag2  1  0.47947000  0.43339000  0.44286000  1.0 0.451984007
Ag  Ag3  1  0.86810000  0.60514000  0.63444000  1.0 0.3707235344
Ag  Ag4  1  0.13190000  0.39486000  0.36556000  1.0 0.3707235344
Ag  Ag5  1  0.81738000  0.41957000  0.60770000  1.0 0.420430828
Ag  Ag6  1  0.18262000  0.58043000  0.39230000  1.0 0.420430828
Ag  Ag7  1  0.81583000  0.34626000  0.44151000  1.0 0.3707235344
Ag  Ag8  1  0.18417000  0.65374000  0.55849000  1.0 0.3707235344
Ag  Ag9  1  0.83327000  0.49037000  0.34775000  1.0 0.4024349862
Ag  Ag10  1  0.16673000  0.50963000  0.65225000  1.0 0.4024349862
Ag  Ag11  1  0.84632000  0.63660000  0.45633000  1.0 0.420430828
Ag  Ag12  1  0.15368000  0.36340000  0.54367000  1.0 0.420430828
Ag  Ag13  1  0.54569000  0.76279000  0.68416000  1.0 0.5600304642
Ag  Ag14  1  0.45431000  0.23721000  0.31584000  1.0 0.5600304642
Ag  Ag15  1  0.47232000  0.36038000  0.72300000  1.0 0.5837859698
Ag  Ag16  1  0.52768000  0.63962000  0.27700000  1.0 0.5837859698
H  H1  1  0.34350000  0.52340000  0.84580000  1.0 0.102150838
H  H2  1  0.65650000  0.47660000  0.15420000  1.0 0.102150838
H  H3  1  0.34810000  0.55810000  0.98500000  1.0 0.0723415378
H  H4  1  0.65190000  0.44190000  0.01500000  1.0 0.0723415378
H  H5  1  0.78220000  0.70760000  0.98090000  1.0 0.102150838
H  H6  1  0.21780000  0.29240000  0.01910000  1.0 0.102150838
H  H7  1  0.76820000  0.68050000  0.84010000  1.0 0.1083631206
H  H8  1  0.23180000  0.31950000  0.15990000  1.0 0.1083631206
H  H9  1  0.33400000  0.83910000  0.49660000  1.0 0.1083631206
H  H10  1  0.66600000  0.16090000  0.50340000  1.0 0.1083631206
H  H11  1  0.32350000  0.96870000  0.44580000  1.0 0.102150838
H  H12  1  0.67650000  0.03130000  0.55420000  1.0 0.102150838
H  H13  1  0.67200000  0.92790000  0.29870000  1.0 0.1083631206
H  H14  1  0.32800000  0.07210000  0.70130000  1.0 0.1083631206
H  H15  1  0.67850000  0.79750000  0.34840000  1.0 0.0943378397
H  H16  1  0.32150000  0.20250000  0.65160000  1.0 0.0943378397
C  C1  1  0.76460000  0.52530000  0.52600000  1.0 -0.4103358946
C  C2  1  0.23540000  0.47470000  0.47400000  1.0 -0.4103358946
C  C3  1  0.77060000  0.47290000  0.47050000  1.0 -0.3665064982
C  C4  1  0.22940000  0.52710000  0.52950000  1.0 -0.3665064982
C  C5  1  0.54130000  0.58100000  0.74000000  1.0 0.5694471189
C  C6  1  0.45870000  0.41900000  0.26000000  1.0 0.5694471189
C  C7  1  0.55280000  0.59900000  0.82940000  1.0 -0.0278965532
C  C8  1  0.44720000  0.40100000  0.17060000  1.0 -0.0278965532
C  C9  1  0.42930000  0.56150000  0.87290000  1.0 -0.1436299047
C  C10  1  0.57070000  0.43850000  0.12710000  1.0 -0.1436299047
C  C11  1  0.43340000  0.58060000  0.95630000  1.0 -0.1612347643
C  C12  1  0.56660000  0.41940000  0.04370000  1.0 -0.1612347643
C  C13  1  0.56750000  0.63390000  0.99570000  1.0 0.0371892838
C  C14  1  0.43250000  0.36610000  0.00430000  1.0 0.0371892838
C  C15  1  0.69390000  0.67160000  0.95300000  1.0 -0.1521065644
C  C16  1  0.30610000  0.32840000  0.04700000  1.0 -0.1521065644
C  C17  1  0.68650000  0.65510000  0.86940000  1.0 -0.1272051688
C  C18  1  0.31350000  0.34490000  0.13060000  1.0 -0.1272051688
C  C19  1  0.56890000  0.65020000  0.08380000  1.0 0.3024321833
C  C20  1  0.43110000  0.34980000  0.91620000  1.0 0.3024321833
C  C21  1  0.50640000  0.72130000  0.45840000  1.0 0.5600304642
C  C22  1  0.49360000  0.27870000  0.54160000  1.0 0.5600304642
C  C23  1  0.50720000  0.80480000  0.42610000  1.0 -0.0107366609
C  C24  1  0.49280000  0.19520000  0.57390000  1.0 -0.0107366609
C  C25  1  0.40040000  0.85670000  0.45660000  1.0 -0.1018530055
C  C26  1  0.59960000  0.14330000  0.54340000  1.0 -0.1018530055
C  C27  1  0.39500000  0.93450000  0.42630000  1.0 -0.1272051688
C  C28  1  0.60500000  0.06550000  0.57370000  1.0 -0.1272051688
C  C29  1  0.49470000  0.96170000  0.36750000  1.0 0.0315533877
C  C30  1  0.50530000  0.03830000  0.63250000  1.0 0.0315533877
C  C31  1  0.60370000  0.91000000  0.33780000  1.0 -0.1272051688
C  C32  1  0.39630000  0.09000000  0.66220000  1.0 -0.1272051688
C  C33  1  0.60740000  0.83200000  0.36780000  1.0 -0.1272051688
C  C34  1  0.39260000  0.16800000  0.63220000  1.0 -0.1272051688
C  C35  1  0.48850000  0.04360000  0.34050000  1.0 0.3024321833
C  C36  1  0.51150000  0.95640000  0.65950000  1.0 0.3024321833
C  C37  1  0.14730000  0.69620000  0.75600000  1.0 0.4024349862
C  C38  1  0.85270000  0.30380000  0.24400000  1.0 0.4024349862
C  C39  1  0.20340000  0.75610000  0.83240000  1.0 0.5404455253
C  C40  1  0.79660000  0.24390000  0.16760000  1.0 0.5404455253
C  C41  1  0.98480000  0.79820000  0.57270000  1.0 0.3818848916
C  C42  1  0.01520000  0.20180000  0.42730000  1.0 0.3818848916
C  C43  1  0.97900000  0.89150000  0.59540000  1.0 0.51268043
C  C44  1  0.02100000  0.10850000  0.40460000  1.0 0.51268043
C  C45  1  0.03540000  0.73200000  0.32880000  1.0 0.3162549772
C  C46  1  0.96460000  0.26800000  0.67120000  1.0 0.3162549772
C  C47  1  0.03750000  0.79970000  0.26820000  1.0 0.4708819279
C  C48  1  0.96250000  0.20030000  0.73180000  1.0 0.4708819279
C  C49  1  0.05340000  0.53840000  0.21200000  1.0 0.1892388799
C  C50  1  0.94660000  0.46160000  0.78800000  1.0 0.1892388799
C  C51  1  0.05980000  0.54930000  0.12030000  1.0 0.3707235344
C  C52  1  0.94020000  0.45070000  0.87970000  1.0 0.3707235344
N  N1  1  0.56480000  0.65950000  0.15250000  1.0 -0.4400498084
N  N2  1  0.43520000  0.34050000  0.84750000  1.0 -0.4299222044
N  N3  1  0.48050000  0.10950000  0.32020000  1.0 -0.3823880664
N  N4  1  0.51950000  0.89050000  0.67980000  1.0 -0.3823880664
O  O1  1  0.46230000  0.51200000  0.70770000  1.0 -0.5392114929
O  O2  1  0.53770000  0.48800000  0.29230000  1.0 -0.5392114929
O  O3  1  0.61130000  0.63490000  0.69630000  1.0 -0.5034444145
O  O4  1  0.38870000  0.36510000  0.30370000  1.0 -0.5034444145
O  O5  1  0.47470000  0.71020000  0.52970000  1.0 -0.5189693383
O  O6  1  0.52530000  0.28980000  0.47030000  1.0 -0.5189693383
O  O7  1  0.54150000  0.66160000  0.41190000  1.0 -0.5567554644
O  O8  1  0.45850000  0.33840000  0.58810000  1.0 -0.5567554644
O  O9  1  0.99620000  0.67980000  0.74120000  1.0 -0.4014315716
O  O10  1  0.00380000  0.32020000  0.25880000  1.0 -0.4014315716
O  O11  1  0.25520000  0.67320000  0.71780000  1.0 -0.4780794195
O  O12  1  0.74480000  0.32680000  0.28220000  1.0 -0.4780794195
O  O13  1  0.85230000  0.75540000  0.55570000  1.0 -0.4299222044
O  O14  1  0.14770000  0.24460000  0.44430000  1.0 -0.4299222044
O  O15  1  0.12640000  0.77980000  0.57470000  1.0 -0.4103358946
O  O16  1  0.87360000  0.22020000  0.42530000  1.0 -0.4103358946
O  O17  1  0.89820000  0.71370000  0.35370000  1.0 -0.4400498084
O  O18  1  0.10180000  0.28630000  0.64630000  1.0 -0.4400498084
O  O19  1  0.16340000  0.70260000  0.34190000  1.0 -0.4014315716
O  O20  1  0.83660000  0.29740000  0.65810000  1.0 -0.4014315716
O  O21  1  0.91370000  0.53120000  0.23440000  1.0 -0.4103358946
O  O22  1  0.08630000  0.46880000  0.76560000  1.0 -0.4103358946
O  O23  1  0.19040000  0.53600000  0.25400000  1.0 -0.4923674426
O  O24  1  0.80960000  0.46400000  0.74600000  1.0 -0.4923674426
F  F1  1  0.13600000  0.82020000  0.83330000  1.0 -0.1612347643
F  F2  1  0.86400000  0.17980000  0.16670000  1.0 -0.1612347643
F  F3  1  0.15740000  0.72020000  0.89870000  1.0 -0.2031749822
F  F4  1  0.84260000  0.27980000  0.10130000  1.0 -0.2031749822
F  F5  1  0.36410000  0.77350000  0.84880000  1.0 -0.2031749822
F  F6  1  0.63590000  0.22650000  0.15120000  1.0 -0.2031749822
F  F7  1  0.84720000  0.91510000  0.57150000  1.0 -0.1732024959
F  F8  1  0.15280000  0.08490000  0.42850000  1.0 -0.1732024959
F  F9  1  0.98400000  0.90390000  0.67130000  1.0 -0.1612347643
F  F10  1  0.01600000  0.09610000  0.32870000  1.0 -0.1612347643
F  F11  1  0.10320000  0.93870000  0.57690000  1.0 -0.1833083145
F  F12  1  0.89680000  0.06130000  0.42310000  1.0 -0.1833083145
F  F13  1  0.01440000  0.87360000  0.30910000  1.0 -0.1732024959
F  F14  1  0.98560000  0.12640000  0.69090000  1.0 -0.1732024959
F  F15  1  0.91830000  0.79530000  0.21680000  1.0 0.0315533877
F  F16  1  0.08170000  0.20470000  0.78320000  1.0 0.0371892838
F  F17  1  0.18390000  0.82450000  0.24560000  1.0 -0.1612347643
F  F18  1  0.81610000  0.17550000  0.75440000  1.0 -0.1612347643
F  F19  1  0.95800000  0.59400000  0.09100000  1.0 0.0723415378
F  F20  1  0.04200000  0.40600000  0.90900000  1.0 0.0768364855
F  F21  1  0.19600000  0.56190000  0.09530000  1.0 0.1425832847
F  F22  1  0.80400000  0.43810000  0.90470000  1.0 0.1425832847
F  F23  1  0.99400000  0.47090000  0.08140000  1.0 -0.0920487828
F  F24  1  0.00600000  0.52910000  0.91860000  1.0 -0.0920487828
F  F25  1  0.15900000  0.63090000  0.11410000  1.0 -0.0107366609
F  F26  1  0.84100000  0.36910000  0.88590000  1.0 -0.0107366609
F  F27  1  0.16000000  0.51190000  0.08840000  1.0 0.0537390821
F  F28  1  0.84000000  0.48810000  0.91160000  1.0 0.0537390821
F  F29  1  0.92800000  0.56000000  0.08100000  1.0 0.102150838
F  F30  1  0.07200000  0.44000000  0.91900000  1.0 0.102150838
F  F31  1  0.98500000  0.75000000  0.19000000  1.0 0.0315533877
F  F32  1  0.01500000  0.25000000  0.81000000  1.0 0.0315533877
