# DDEC6 charges by PACMAN v1.1 (https://github.com/mtap-research/PACMAN-charge/)
data_RIVDEF_FSR_pacman
_symmetry_space_group_name_H-M   'P 1'
_cell_length_a   11.47700000
_cell_length_b   11.47700000
_cell_length_c   22.58500000
_cell_angle_alpha   90.00000000
_cell_angle_beta   90.00000000
_cell_angle_gamma   120.00000000
_symmetry_Int_Tables_number   1
_chemical_formula_structural   CdBH12C8N3O4
_chemical_formula_sum   'Cd6 B6 H72 C48 N18 O24'
_cell_volume   2576.36558881
_cell_formula_units_Z   6
loop_
 _symmetry_equiv_pos_site_id
 _symmetry_equiv_pos_as_xyz
  1  'x, y, z'
loop_
 _atom_site_type_symbol
 _atom_site_label
 _atom_site_symmetry_multiplicity
 _atom_site_fract_x
 _atom_site_fract_y
 _atom_site_fract_z
 _atom_site_occupancy
 _atom_site_charge
Cd  Cd1  1  0.46990000  0.23495000  0.08333000  1.0 0.9885163763
Cd  Cd2  1  0.23495000  0.46990000  0.25000000  1.0 0.9885163763
Cd  Cd3  1  0.76505000  0.53010000  0.75000000  1.0 0.9885163763
Cd  Cd4  1  0.76505000  0.23495000  0.41667000  1.0 0.9885163763
Cd  Cd5  1  0.23495000  0.76505000  0.91667000  1.0 0.9885163763
Cd  Cd6  1  0.53010000  0.76505000  0.58333000  1.0 0.9885163763
B  B1  1  0.35230000  0.00000000  0.00000000  1.0 0.8213594713
B  B2  1  0.35230000  0.35230000  0.16667000  1.0 0.8213594713
B  B3  1  0.00000000  0.64770000  0.83333000  1.0 0.8213594713
B  B4  1  0.00000000  0.35230000  0.33333333  1.0 0.8213594713
B  B5  1  0.64770000  0.00000000  0.50000000  1.0 0.8213594713
B  B6  1  0.64770000  0.64770000  0.66666667  1.0 0.8213594713
H  H1  1  0.14220000  0.95680000  0.11000000  1.0 0.0952383015
H  H2  1  0.18540000  0.14220000  0.27667000  1.0 0.0914955115
H  H3  1  0.04320000  0.85780000  0.72333000  1.0 0.0952383015
H  H4  1  0.04320000  0.18540000  0.44333000  1.0 0.0952383015
H  H5  1  0.18540000  0.04320000  0.89000000  1.0 0.0914955115
H  H6  1  0.85780000  0.04320000  0.61000000  1.0 0.0914955115
H  H7  1  0.14220000  0.18540000  0.05667000  1.0 0.0952383015
H  H8  1  0.81460000  0.85780000  0.77667000  1.0 0.0952383015
H  H9  1  0.95680000  0.14220000  0.22333000  1.0 0.0914955115
H  H10  1  0.95680000  0.81460000  0.94333000  1.0 0.0914955115
H  H11  1  0.81460000  0.95680000  0.39000000  1.0 0.0914955115
H  H12  1  0.85780000  0.81460000  0.55667000  1.0 0.0914955115
H  H13  1  0.17600000  0.83490000  0.07990000  1.0 0.0914955115
H  H14  1  0.34110000  0.17600000  0.24657000  1.0 0.0914955115
H  H15  1  0.16510000  0.82400000  0.75343000  1.0 0.0914955115
H  H16  1  0.16510000  0.34110000  0.41323000  1.0 0.0914955115
H  H17  1  0.34110000  0.16510000  0.92010000  1.0 0.0914955115
H  H18  1  0.82400000  0.16510000  0.57990000  1.0 0.0914955115
H  H19  1  0.17600000  0.34110000  0.08677000  1.0 0.0914955115
H  H20  1  0.65890000  0.82400000  0.74657000  1.0 0.0914955115
H  H21  1  0.83490000  0.17600000  0.25343000  1.0 0.0914955115
H  H22  1  0.83490000  0.65890000  0.91323000  1.0 0.0914955115
H  H23  1  0.65890000  0.83490000  0.42010000  1.0 0.0914955115
H  H24  1  0.82400000  0.65890000  0.58677000  1.0 0.0914955115
H  H25  1  0.09930000  0.90470000  0.03590000  1.0 0.0914955115
H  H26  1  0.19460000  0.09930000  0.20257000  1.0 0.0914955115
H  H27  1  0.09530000  0.90070000  0.79743000  1.0 0.0914955115
H  H28  1  0.09530000  0.19460000  0.36923000  1.0 0.0914955115
H  H29  1  0.19460000  0.09530000  0.96410000  1.0 0.0914955115
H  H30  1  0.90070000  0.09530000  0.53590000  1.0 0.0914955115
H  H31  1  0.09930000  0.19460000  0.13077000  1.0 0.0914955115
H  H32  1  0.80540000  0.90070000  0.70257000  1.0 0.0914955115
H  H33  1  0.90470000  0.09930000  0.29743000  1.0 0.0914955115
H  H34  1  0.90470000  0.80540000  0.86923000  1.0 0.0914955115
H  H35  1  0.80540000  0.90470000  0.46410000  1.0 0.0914955115
H  H36  1  0.90070000  0.80540000  0.63077000  1.0 0.0914955115
H  H37  1  0.66630000  0.24860000  0.96490000  1.0 0.0914955115
H  H38  1  0.41770000  0.66630000  0.13157000  1.0 0.0914955115
H  H39  1  0.75140000  0.33370000  0.86843000  1.0 0.0914955115
H  H40  1  0.75140000  0.41770000  0.29823000  1.0 0.0914955115
H  H41  1  0.41770000  0.75140000  0.03510000  1.0 0.0914955115
H  H42  1  0.33370000  0.75140000  0.46490000  1.0 0.0914955115
H  H43  1  0.66630000  0.41770000  0.20177000  1.0 0.0914955115
H  H44  1  0.58230000  0.33370000  0.63157000  1.0 0.0914955115
H  H45  1  0.24860000  0.66630000  0.36843000  1.0 0.0914955115
H  H46  1  0.24860000  0.58230000  0.79823000  1.0 0.0914955115
H  H47  1  0.58230000  0.24860000  0.53510000  1.0 0.0914955115
H  H48  1  0.33370000  0.58230000  0.70177000  1.0 0.0914955115
H  H49  1  0.53450000  0.16060000  0.91380000  1.0 0.0914955115
H  H50  1  0.37390000  0.53450000  0.08047000  1.0 0.0914955115
H  H51  1  0.83940000  0.46550000  0.91953000  1.0 0.0914955115
H  H52  1  0.83940000  0.37390000  0.24713000  1.0 0.0914955115
H  H53  1  0.37390000  0.83940000  0.08620000  1.0 0.0914955115
H  H54  1  0.46550000  0.83940000  0.41380000  1.0 0.0914955115
H  H55  1  0.53450000  0.37390000  0.25287000  1.0 0.0914955115
H  H56  1  0.62610000  0.46550000  0.58047000  1.0 0.0914955115
H  H57  1  0.16060000  0.53450000  0.41953000  1.0 0.0914955115
H  H58  1  0.16060000  0.62610000  0.74713000  1.0 0.0914955115
H  H59  1  0.62610000  0.16060000  0.58620000  1.0 0.0914955115
H  H60  1  0.46550000  0.62610000  0.75287000  1.0 0.0914955115
H  H61  1  0.60330000  0.07560000  0.95260000  1.0 0.1105602957
H  H62  1  0.52770000  0.60330000  0.11927000  1.0 0.1105602957
H  H63  1  0.92440000  0.39670000  0.88073000  1.0 0.1105602957
H  H64  1  0.92440000  0.52770000  0.28593000  1.0 0.1105602957
H  H65  1  0.52770000  0.92440000  0.04740000  1.0 0.1105602957
H  H66  1  0.39670000  0.92440000  0.45260000  1.0 0.1105602957
H  H67  1  0.60330000  0.52770000  0.21407000  1.0 0.1105602957
H  H68  1  0.47230000  0.39670000  0.61927000  1.0 0.1105602957
H  H69  1  0.07560000  0.60330000  0.38073000  1.0 0.1105602957
H  H70  1  0.07560000  0.47230000  0.78593000  1.0 0.1105602957
H  H71  1  0.47230000  0.07560000  0.54740000  1.0 0.1105602957
H  H72  1  0.39670000  0.47230000  0.71407000  1.0 0.1105602957
C  C1  1  0.96650000  0.48325000  0.08333000  1.0 -0.2840895843
C  C2  1  0.48325000  0.96650000  0.25000000  1.0 -0.2856192928
C  C3  1  0.51675000  0.03350000  0.75000000  1.0 -0.2840895843
C  C4  1  0.51675000  0.48325000  0.41667000  1.0 -0.2840895843
C  C5  1  0.48325000  0.51675000  0.91667000  1.0 -0.2840895843
C  C6  1  0.03350000  0.51675000  0.58333000  1.0 -0.2856192928
C  C7  1  0.82510000  0.41255000  0.08333000  1.0 0.3108022767
C  C8  1  0.41255000  0.82510000  0.25000000  1.0 0.3108022767
C  C9  1  0.58745000  0.17490000  0.75000000  1.0 0.3108022767
C  C10  1  0.58745000  0.41255000  0.41667000  1.0 0.3108022767
C  C11  1  0.41255000  0.58745000  0.91667000  1.0 0.3108022767
C  C12  1  0.17490000  0.58745000  0.58333000  1.0 0.3108022767
C  C13  1  0.03810000  0.55030000  0.03180000  1.0 0.3108022767
C  C14  1  0.48780000  0.03810000  0.19847000  1.0 0.3108022767
C  C15  1  0.44970000  0.96190000  0.80153000  1.0 0.3108022767
C  C16  1  0.44970000  0.48780000  0.36513000  1.0 0.3108022767
C  C17  1  0.48780000  0.44970000  0.96820000  1.0 0.3108022767
C  C18  1  0.96190000  0.44970000  0.53180000  1.0 0.3108022767
C  C19  1  0.03810000  0.48780000  0.13487000  1.0 0.3108022767
C  C20  1  0.51220000  0.96190000  0.69847000  1.0 0.3108022767
C  C21  1  0.55030000  0.03810000  0.30153000  1.0 0.3108022767
C  C22  1  0.55030000  0.51220000  0.86513000  1.0 0.3108022767
C  C23  1  0.51220000  0.55030000  0.46820000  1.0 0.3108022767
C  C24  1  0.96190000  0.51220000  0.63487000  1.0 0.3108022767
C  C25  1  0.17180000  0.92510000  0.07050000  1.0 -0.0993322436
C  C26  1  0.24670000  0.17180000  0.23717000  1.0 -0.0993322436
C  C27  1  0.07490000  0.82820000  0.76283000  1.0 -0.0993322436
C  C28  1  0.07490000  0.24670000  0.40383000  1.0 -0.0993322436
C  C29  1  0.24670000  0.07490000  0.92950000  1.0 -0.0993322436
C  C30  1  0.82820000  0.07490000  0.57050000  1.0 -0.0993322436
C  C31  1  0.17180000  0.24670000  0.09617000  1.0 -0.0993322436
C  C32  1  0.75330000  0.82820000  0.73717000  1.0 -0.0993322436
C  C33  1  0.92510000  0.17180000  0.26283000  1.0 -0.0993322436
C  C34  1  0.92510000  0.75330000  0.90383000  1.0 -0.0993322436
C  C35  1  0.75330000  0.92510000  0.42950000  1.0 -0.0993322436
C  C36  1  0.82820000  0.75330000  0.59617000  1.0 -0.0993322436
C  C37  1  0.57710000  0.15360000  0.95540000  1.0 -0.1412672007
C  C38  1  0.42350000  0.57710000  0.12207000  1.0 -0.1412672007
C  C39  1  0.84640000  0.42290000  0.87793000  1.0 -0.1412672007
C  C40  1  0.84640000  0.42350000  0.28873000  1.0 -0.1412672007
C  C41  1  0.42350000  0.84640000  0.04460000  1.0 -0.1412672007
C  C42  1  0.42290000  0.84640000  0.45540000  1.0 -0.1412672007
C  C43  1  0.57710000  0.42350000  0.21127000  1.0 -0.1412672007
C  C44  1  0.57650000  0.42290000  0.62207000  1.0 -0.1412672007
C  C45  1  0.15360000  0.57710000  0.37793000  1.0 -0.1412672007
C  C46  1  0.15360000  0.57650000  0.78873000  1.0 -0.1412672007
C  C47  1  0.57650000  0.15360000  0.54460000  1.0 -0.1412672007
C  C48  1  0.42290000  0.57650000  0.71127000  1.0 -0.1412672007
N  N1  1  0.71140000  0.35570000  0.08333000  1.0 -0.4330571812
N  N2  1  0.35570000  0.71140000  0.25000000  1.0 -0.4381623548
N  N3  1  0.64430000  0.28860000  0.75000000  1.0 -0.4330571812
N  N4  1  0.64430000  0.35570000  0.41667000  1.0 -0.4330571812
N  N5  1  0.35570000  0.64430000  0.91667000  1.0 -0.4381623548
N  N6  1  0.28860000  0.64430000  0.58333000  1.0 -0.4381623548
N  N7  1  0.09890000  0.60760000  0.99160000  1.0 -0.4330571812
N  N8  1  0.49130000  0.09890000  0.15827000  1.0 -0.4330571812
N  N9  1  0.39240000  0.90110000  0.84173000  1.0 -0.4330571812
N  N10  1  0.39240000  0.49130000  0.32493000  1.0 -0.4330571812
N  N11  1  0.49130000  0.39240000  0.00840000  1.0 -0.4330571812
N  N12  1  0.90110000  0.39240000  0.49160000  1.0 -0.4330571812
N  N13  1  0.09890000  0.49130000  0.17507000  1.0 -0.4330571812
N  N14  1  0.50870000  0.90110000  0.65827000  1.0 -0.4330571812
N  N15  1  0.60760000  0.09890000  0.34173000  1.0 -0.4330571812
N  N16  1  0.60760000  0.50870000  0.82493000  1.0 -0.4330571812
N  N17  1  0.50870000  0.60760000  0.50840000  1.0 -0.4330571812
N  N18  1  0.90110000  0.50870000  0.67507000  1.0 -0.4330571812
O  O1  1  0.29380000  0.02310000  0.05290000  1.0 -0.4381623548
O  O2  1  0.27070000  0.29380000  0.21957000  1.0 -0.4381623548
O  O3  1  0.97690000  0.70620000  0.78043000  1.0 -0.4381623548
O  O4  1  0.97690000  0.27070000  0.38623000  1.0 -0.4381623548
O  O5  1  0.27070000  0.97690000  0.94710000  1.0 -0.4381623548
O  O6  1  0.70620000  0.97690000  0.55290000  1.0 -0.4381623548
O  O7  1  0.29380000  0.27070000  0.11377000  1.0 -0.4381623548
O  O8  1  0.72930000  0.70620000  0.71957000  1.0 -0.4381623548
O  O9  1  0.02310000  0.29380000  0.28043000  1.0 -0.4381623548
O  O10  1  0.02310000  0.72930000  0.88623000  1.0 -0.4381623548
O  O11  1  0.72930000  0.02310000  0.44710000  1.0 -0.4381623548
O  O12  1  0.70620000  0.72930000  0.61377000  1.0 -0.4381623548
O  O13  1  0.48170000  0.12220000  0.00130000  1.0 -0.46881508
O  O14  1  0.35950000  0.48170000  0.16797000  1.0 -0.46881508
O  O15  1  0.87780000  0.51830000  0.83203000  1.0 -0.46881508
O  O16  1  0.87780000  0.35950000  0.33463000  1.0 -0.46881508
O  O17  1  0.35950000  0.87780000  0.99870000  1.0 -0.46881508
O  O18  1  0.51830000  0.87780000  0.50130000  1.0 -0.46881508
O  O19  1  0.48170000  0.35950000  0.16537000  1.0 -0.46881508
O  O20  1  0.64050000  0.51830000  0.66797000  1.0 -0.46881508
O  O21  1  0.12220000  0.48170000  0.33203000  1.0 -0.46881508
O  O22  1  0.12220000  0.64050000  0.83463000  1.0 -0.46881508
O  O23  1  0.64050000  0.12220000  0.49870000  1.0 -0.46881508
O  O24  1  0.51830000  0.64050000  0.66537000  1.0 -0.46881508
