# DDEC6 charges by PACMAN v1.1 (https://github.com/mtap-research/PACMAN-charge/)
data_RIWBIM_FSR_pacman
_symmetry_space_group_name_H-M   'P 1'
_cell_length_a   9.78050000
_cell_length_b   13.01640000
_cell_length_c   13.08100000
_cell_angle_alpha   75.53500000
_cell_angle_beta   79.24100000
_cell_angle_gamma   79.30600000
_symmetry_Int_Tables_number   1
_chemical_formula_structural   CuH16C24(N2O3)2
_chemical_formula_sum   'Cu2 H32 C48 N8 O12'
_cell_volume   1567.17945232
_cell_formula_units_Z   2
loop_
 _symmetry_equiv_pos_site_id
 _symmetry_equiv_pos_as_xyz
  1  'x, y, z'
loop_
 _atom_site_type_symbol
 _atom_site_label
 _atom_site_symmetry_multiplicity
 _atom_site_fract_x
 _atom_site_fract_y
 _atom_site_fract_z
 _atom_site_occupancy
 _atom_site_charge
Cu  Cu1  1  0.57619000  0.97462000  0.83760000  1.0 0.7849868477
Cu  Cu2  1  0.42381000  0.02538000  0.16240000  1.0 0.7849868477
H  H1  1  0.95147000  0.71167000  0.25245000  1.0 0.2218488942
H  H2  1  0.04853000  0.28833000  0.74755000  1.0 0.2218488942
H  H3  1  0.10020000  0.11967000  0.05433000  1.0 0.1215450196
H  H4  1  0.89980000  0.88033000  0.94567000  1.0 0.1215450196
H  H5  1  0.99900000  0.41600000  0.92041000  1.0 0.2066309393
H  H6  1  0.00100000  0.58400000  0.07959000  1.0 0.2066309393
H  H7  1  0.38205000  0.18017000  0.77670000  1.0 0.1105622516
H  H8  1  0.61795000  0.81983000  0.22330000  1.0 0.1105622516
H  H9  1  0.36485000  0.35915000  0.77345000  1.0 0.1406821401
H  H10  1  0.63515000  0.64085000  0.22655000  1.0 0.1406821401
H  H11  1  0.75050000  0.30131000  0.86001000  1.0 0.1311985617
H  H12  1  0.24950000  0.69869000  0.13999000  1.0 0.1311985617
H  H13  1  0.76282000  0.12523000  0.84900000  1.0 0.1105622516
H  H14  1  0.23718000  0.87477000  0.15100000  1.0 0.1105622516
H  H15  1  0.44631000  0.65384000  0.76430000  1.0 0.1311985617
H  H16  1  0.55369000  0.34616000  0.23570000  1.0 0.1311985617
H  H17  1  0.43497000  0.83235000  0.76601000  1.0 0.1215450196
H  H18  1  0.56503000  0.16765000  0.23399000  1.0 0.1215450196
H  H19  1  0.72716000  0.76307000  0.94758000  1.0 0.1215450196
H  H20  1  0.27284000  0.23693000  0.05242000  1.0 0.1215450196
H  H21  1  0.74424000  0.58305000  0.95300000  1.0 0.1406821401
H  H22  1  0.25576000  0.41695000  0.04700000  1.0 0.1406821401
H  H23  1  0.00740000  0.97135000  0.33157000  1.0 0.1215450196
H  H24  1  0.99260000  0.02865000  0.66843000  1.0 0.1215450196
H  H25  1  0.78951000  0.00020000  0.30036000  1.0 0.1215450196
H  H26  1  0.21049000  0.99980000  0.69964000  1.0 0.1215450196
H  H27  1  0.66003000  0.93804000  0.34123000  1.0 0.1406821401
H  H28  1  0.33997000  0.06196000  0.65877000  1.0 0.1406821401
H  H29  1  0.97812000  0.18011000  0.17961000  1.0 0.1311985617
H  H30  1  0.02188000  0.81989000  0.82039000  1.0 0.1311985617
H  H31  1  0.82965000  0.24813000  0.19903000  1.0 0.1215450196
H  H32  1  0.17035000  0.75187000  0.80097000  1.0 0.1215450196
C  C1  1  0.90180000  0.77010000  0.27880000  1.0 -0.3132972627
C  C2  1  0.09820000  0.22990000  0.72120000  1.0 -0.3132972627
C  C3  1  0.05960000  0.07130000  0.03220000  1.0 -0.2262007802
C  C4  1  0.94040000  0.92870000  0.96780000  1.0 -0.2262007802
C  C5  1  0.97120000  0.36410000  0.98010000  1.0 -0.3528451979
C  C6  1  0.02880000  0.63590000  0.01990000  1.0 -0.3528451979
C  C7  1  0.45680000  0.20520000  0.79270000  1.0 0.102419594
C  C8  1  0.54320000  0.79480000  0.20730000  1.0 0.102419594
C  C9  1  0.44500000  0.31230000  0.79190000  1.0 -0.1930158793
C  C10  1  0.55500000  0.68770000  0.20810000  1.0 -0.1930158793
C  C11  1  0.55420000  0.34920000  0.81890000  1.0 0.1955501341
C  C12  1  0.44580000  0.65080000  0.18110000  1.0 0.1955501341
C  C13  1  0.67540000  0.27840000  0.84190000  1.0 -0.1984190701
C  C14  1  0.32460000  0.72160000  0.15810000  1.0 -0.1984190701
C  C15  1  0.68070000  0.17260000  0.83700000  1.0 0.1105622516
C  C16  1  0.31930000  0.82740000  0.16300000  1.0 0.1105622516
C  C17  1  0.59730000  0.59920000  0.86000000  1.0 0.1955501341
C  C18  1  0.40270000  0.40080000  0.14000000  1.0 0.1955501341
C  C19  1  0.50390000  0.67440000  0.80240000  1.0 -0.1984190701
C  C20  1  0.49610000  0.32560000  0.19760000  1.0 -0.1984190701
C  C21  1  0.49890000  0.78140000  0.80310000  1.0 0.1105622516
C  C22  1  0.50110000  0.21860000  0.19690000  1.0 0.1105622516
C  C23  1  0.67040000  0.74080000  0.91010000  1.0 0.102419594
C  C24  1  0.32960000  0.25920000  0.08990000  1.0 0.102419594
C  C25  1  0.68090000  0.63250000  0.91400000  1.0 -0.2071731597
C  C26  1  0.31910000  0.36750000  0.08600000  1.0 -0.2071731597
C  C27  1  0.74850000  0.98220000  0.65810000  1.0 0.5615583599
C  C28  1  0.25150000  0.01780000  0.34190000  1.0 0.5615583599
C  C29  1  0.87790000  0.98790000  0.57500000  1.0 -0.0859370663
C  C30  1  0.12210000  0.01210000  0.42500000  1.0 -0.0859370663
C  C31  1  0.00450000  0.98250000  0.39950000  1.0 -0.2534017026
C  C32  1  0.99550000  0.01750000  0.60050000  1.0 -0.2534017026
C  C33  1  0.88320000  0.96950000  0.47350000  1.0 0.2218488942
C  C34  1  0.11680000  0.03050000  0.52650000  1.0 0.2218488942
C  C35  1  0.75800000  0.93580000  0.34710000  1.0 -0.0534144159
C  C36  1  0.24200000  0.06420000  0.65290000  1.0 -0.0534144159
C  C37  1  0.84050000  0.84240000  0.31140000  1.0 0.0376355775
C  C38  1  0.15950000  0.15760000  0.68860000  1.0 0.0376355775
C  C39  1  0.29880000  0.01650000  0.94740000  1.0 0.578468138
C  C40  1  0.70120000  0.98350000  0.05260000  1.0 0.578468138
C  C41  1  0.14490000  0.00390000  0.97130000  1.0 -0.1111816078
C  C42  1  0.85510000  0.99610000  0.02870000  1.0 -0.1158025324
C  C43  1  0.91640000  0.06920000  0.06120000  1.0 0.2218488942
C  C44  1  0.08360000  0.93080000  0.93880000  1.0 0.2218488942
C  C45  1  0.89540000  0.21530000  0.14690000  1.0 -0.0534144159
C  C46  1  0.10460000  0.78470000  0.85310000  1.0 -0.0534144159
C  C47  1  0.93600000  0.29850000  0.05560000  1.0 -0.0027761866
C  C48  1  0.06400000  0.70150000  0.94440000  1.0 -0.0027761866
N  N1  1  0.58210000  0.81413000  0.85460000  1.0 -0.1984190701
N  N2  1  0.41790000  0.18587000  0.14540000  1.0 -0.1984190701
N  N3  1  0.57240000  0.13551000  0.81570000  1.0 -0.2071731597
N  N4  1  0.42760000  0.86449000  0.18430000  1.0 -0.2071731597
N  N5  1  0.53570000  0.46150000  0.81660000  1.0 -0.0859370663
N  N6  1  0.46430000  0.53850000  0.18340000  1.0 -0.0859370663
N  N7  1  0.61440000  0.48660000  0.86430000  1.0 -0.1111816078
N  N8  1  0.38560000  0.51340000  0.13570000  1.0 -0.1111816078
O  O1  1  0.34610000  0.06004000  0.00515000  1.0 -0.5849588572
O  O2  1  0.65390000  0.93996000  0.99485000  1.0 -0.5849588572
O  O3  1  0.76930000  0.96306000  0.75497000  1.0 -0.5479442536
O  O4  1  0.23070000  0.03694000  0.24503000  1.0 -0.5479442536
O  O5  1  0.76850000  0.93580000  0.45380000  1.0 -0.1499177276
O  O6  1  0.23150000  0.06420000  0.54620000  1.0 -0.1499177276
O  O7  1  0.62890000  0.99880000  0.63210000  1.0 -0.5479442536
O  O8  1  0.37110000  0.00120000  0.36790000  1.0 -0.5479442536
O  O9  1  0.37102000  0.98361000  0.86715000  1.0 -0.5479442536
O  O10  1  0.62898000  0.01639000  0.13285000  1.0 -0.5479442536
O  O11  1  0.83220000  0.13650000  0.12080000  1.0 -0.1847007036
O  O12  1  0.16780000  0.86350000  0.87920000  1.0 -0.1847007036
