# DDEC6 charges by PACMAN v1.1 (https://github.com/mtap-research/PACMAN-charge/)
data_RIWBAE_FSR_pacman
_symmetry_space_group_name_H-M   'P 1'
_cell_length_a   9.29263000
_cell_length_b   9.29263000
_cell_length_c   16.23410000
_cell_angle_alpha   85.87240000
_cell_angle_beta   94.12760000
_cell_angle_gamma   103.35600000
_symmetry_Int_Tables_number   1
_chemical_formula_structural   CuH20C24(NO4)2
_chemical_formula_sum   'Cu2 H40 C48 N4 O16'
_cell_volume   1358.19491847
_cell_formula_units_Z   2
loop_
 _symmetry_equiv_pos_site_id
 _symmetry_equiv_pos_as_xyz
  1  'x, y, z'
loop_
 _atom_site_type_symbol
 _atom_site_label
 _atom_site_symmetry_multiplicity
 _atom_site_fract_x
 _atom_site_fract_y
 _atom_site_fract_z
 _atom_site_occupancy
 _atom_site_charge
Cu  Cu1  1  0.50000000  0.00000000  0.50000000  1.0 0.8305300508
Cu  Cu2  1  0.00000000  0.50000000  0.00000000  1.0 0.8305300508
H  H1  1  0.55401000  0.27385000  0.46057000  1.0 0.3259066973
H  H2  1  0.27385000  0.55401000  0.03943000  1.0 0.3259066973
H  H3  1  0.44599000  0.72615000  0.53943000  1.0 0.3259066973
H  H4  1  0.72615000  0.44599000  0.96057000  1.0 0.3259066973
H  H5  1  0.66872000  0.25274000  0.51386000  1.0 0.3383009468
H  H6  1  0.25274000  0.66872000  0.98614000  1.0 0.3383009468
H  H7  1  0.33128000  0.74726000  0.48614000  1.0 0.3383009468
H  H8  1  0.74726000  0.33128000  0.01386000  1.0 0.3383009468
H  H9  1  0.22143000  0.92117000  0.21238000  1.0 0.1294169187
H  H10  1  0.92117000  0.22143000  0.28762000  1.0 0.1294169187
H  H11  1  0.77857000  0.07883000  0.78762000  1.0 0.1294169187
H  H12  1  0.07883000  0.77857000  0.71238000  1.0 0.1294169187
H  H13  1  0.16915000  0.86327000  0.08408000  1.0 0.1198407241
H  H14  1  0.86327000  0.16915000  0.41592000  1.0 0.1198407241
H  H15  1  0.83085000  0.13673000  0.91592000  1.0 0.1198407241
H  H16  1  0.13673000  0.83085000  0.58408000  1.0 0.1198407241
H  H17  1  0.17241000  0.94961000  0.99734000  1.0 0.1198407241
H  H18  1  0.94961000  0.17241000  0.50266000  1.0 0.1198407241
H  H19  1  0.82759000  0.05039000  0.00266000  1.0 0.1198407241
H  H20  1  0.05039000  0.82759000  0.49734000  1.0 0.1198407241
H  H21  1  0.36816000  0.06498000  0.79071000  1.0 0.1294169187
H  H22  1  0.06498000  0.36816000  0.70929000  1.0 0.1294169187
H  H23  1  0.63184000  0.93502000  0.20929000  1.0 0.1294169187
H  H24  1  0.93502000  0.63184000  0.29071000  1.0 0.1294169187
H  H25  1  0.46773000  0.97093000  0.68801000  1.0 0.1114817122
H  H26  1  0.97093000  0.46773000  0.81199000  1.0 0.1114817122
H  H27  1  0.53227000  0.02907000  0.31199000  1.0 0.1114817122
H  H28  1  0.02907000  0.53227000  0.18801000  1.0 0.1114817122
H  H29  1  0.18381000  0.30585000  0.61746000  1.0 0.1294169187
H  H30  1  0.30585000  0.18381000  0.88254000  1.0 0.1294169187
H  H31  1  0.81619000  0.69415000  0.38254000  1.0 0.1294169187
H  H32  1  0.69415000  0.81619000  0.11746000  1.0 0.1294169187
H  H33  1  0.57139000  0.13361000  0.09928000  1.0 0.2209814523
H  H34  1  0.13361000  0.57139000  0.40072000  1.0 0.2209814523
H  H35  1  0.42861000  0.86639000  0.90072000  1.0 0.2209814523
H  H36  1  0.86639000  0.42861000  0.59928000  1.0 0.2209814523
H  H37  1  0.28819000  0.20353000  0.51903000  1.0 0.1114817122
H  H38  1  0.20353000  0.28819000  0.98097000  1.0 0.1114817122
H  H39  1  0.71181000  0.79647000  0.48097000  1.0 0.1114817122
H  H40  1  0.79647000  0.71181000  0.01903000  1.0 0.1114817122
C  C1  1  0.09041000  0.05779000  0.16684000  1.0 0.2134298716
C  C2  1  0.05779000  0.09041000  0.33316000  1.0 0.2134298716
C  C3  1  0.90959000  0.94221000  0.83316000  1.0 0.2134298716
C  C4  1  0.94221000  0.90959000  0.66684000  1.0 0.2134298716
C  C5  1  0.15091000  0.00369000  0.31082000  1.0 -0.0987014066
C  C6  1  0.00369000  0.15091000  0.18918000  1.0 -0.0987014066
C  C7  1  0.84909000  0.99631000  0.68918000  1.0 -0.0987014066
C  C8  1  0.99631000  0.84909000  0.81082000  1.0 -0.0987014066
C  C9  1  0.16389000  0.98371000  0.22731000  1.0 -0.2444689054
C  C10  1  0.98371000  0.16389000  0.27269000  1.0 -0.2444689054
C  C11  1  0.83611000  0.01629000  0.77269000  1.0 -0.2444689054
C  C12  1  0.01629000  0.83611000  0.72731000  1.0 -0.2444689054
C  C13  1  0.26389000  0.19911000  0.71736000  1.0 0.1114817122
C  C14  1  0.19911000  0.26389000  0.78264000  1.0 0.1114817122
C  C15  1  0.73611000  0.80089000  0.28264000  1.0 0.1114817122
C  C16  1  0.80089000  0.73611000  0.21736000  1.0 0.1114817122
C  C17  1  0.24607000  0.93873000  0.37564000  1.0 0.575902823
C  C18  1  0.93873000  0.24607000  0.12436000  1.0 0.575902823
C  C19  1  0.75393000  0.06127000  0.62436000  1.0 0.575902823
C  C20  1  0.06127000  0.75393000  0.87564000  1.0 0.575902823
C  C21  1  0.19055000  0.96125000  0.05635000  1.0 -0.0401039937
C  C22  1  0.96125000  0.19055000  0.44365000  1.0 -0.0401039937
C  C23  1  0.80945000  0.03875000  0.94365000  1.0 -0.0401039937
C  C24  1  0.03875000  0.80945000  0.55635000  1.0 -0.0401039937
C  C25  1  0.34658000  0.03222000  0.07366000  1.0 0.0263814271
C  C26  1  0.03222000  0.34658000  0.42634000  1.0 0.0248964649
C  C27  1  0.65342000  0.96778000  0.92634000  1.0 0.0248964649
C  C28  1  0.96778000  0.65342000  0.57366000  1.0 0.0263814271
C  C29  1  0.35055000  0.09605000  0.73593000  1.0 -0.1789213963
C  C30  1  0.09605000  0.35055000  0.76407000  1.0 -0.1789213963
C  C31  1  0.64945000  0.90395000  0.26407000  1.0 -0.1789213963
C  C32  1  0.90395000  0.64945000  0.23593000  1.0 -0.1789213963
C  C33  1  0.41026000  0.03954000  0.67351000  1.0 0.0983234706
C  C34  1  0.03954000  0.41026000  0.82649000  1.0 0.0983234706
C  C35  1  0.58974000  0.96046000  0.32649000  1.0 0.0983234706
C  C36  1  0.96046000  0.58974000  0.17351000  1.0 0.0983234706
C  C37  1  0.24150000  0.23810000  0.63366000  1.0 -0.1870232638
C  C38  1  0.23810000  0.24150000  0.86634000  1.0 -0.1870232638
C  C39  1  0.75850000  0.76190000  0.36634000  1.0 -0.1870232638
C  C40  1  0.76190000  0.75850000  0.13366000  1.0 -0.1870232638
C  C41  1  0.47230000  0.08890000  0.08798000  1.0 -0.306374539
C  C42  1  0.08890000  0.47230000  0.41202000  1.0 -0.306374539
C  C43  1  0.52770000  0.91110000  0.91202000  1.0 -0.306374539
C  C44  1  0.91110000  0.52770000  0.58798000  1.0 -0.306374539
C  C45  1  0.30530000  0.17590000  0.57444000  1.0 0.0983234706
C  C46  1  0.17590000  0.30530000  0.92556000  1.0 0.0983234706
C  C47  1  0.69470000  0.82410000  0.42556000  1.0 0.0983234706
C  C48  1  0.82410000  0.69470000  0.07444000  1.0 0.0983234706
N  N1  1  0.39016000  0.07824000  0.59314000  1.0 -0.2742101814
N  N2  1  0.07824000  0.39016000  0.90686000  1.0 -0.2742101814
N  N3  1  0.60984000  0.92176000  0.40686000  1.0 -0.2742101814
N  N4  1  0.92176000  0.60984000  0.09314000  1.0 -0.2742101814
O  O1  1  0.33800000  0.03310000  0.41606000  1.0 -0.5579465594
O  O2  1  0.03310000  0.33800000  0.08394000  1.0 -0.5579465594
O  O3  1  0.66200000  0.96690000  0.58394000  1.0 -0.5579465594
O  O4  1  0.96690000  0.66200000  0.91606000  1.0 -0.5579465594
O  O5  1  0.09355000  0.04497000  0.08315000  1.0 -0.1789213963
O  O6  1  0.04497000  0.09355000  0.41685000  1.0 -0.1789213963
O  O7  1  0.90645000  0.95503000  0.91685000  1.0 -0.1789213963
O  O8  1  0.95503000  0.90645000  0.58315000  1.0 -0.1789213963
O  O9  1  0.23120000  0.80188000  0.38327000  1.0 -0.5469523485
O  O10  1  0.80188000  0.23120000  0.11673000  1.0 -0.5469523485
O  O11  1  0.76880000  0.19812000  0.61673000  1.0 -0.5469523485
O  O12  1  0.19812000  0.76880000  0.88327000  1.0 -0.5469523485
O  O13  1  0.61479000  0.21539000  0.47108000  1.0 -0.6608260538
O  O14  1  0.21539000  0.61479000  0.02892000  1.0 -0.6608260538
O  O15  1  0.38521000  0.78461000  0.52892000  1.0 -0.6608260538
O  O16  1  0.78461000  0.38521000  0.97108000  1.0 -0.6608260538
