# DDEC6 charges by PACMAN v1.1 (https://github.com/mtap-research/PACMAN-charge/)
data_RIWQIB_FSR_pacman
_symmetry_space_group_name_H-M   'P 1'
_cell_length_a   12.11650000
_cell_length_b   12.11650000
_cell_length_c   13.53980000
_cell_angle_alpha   86.52280000
_cell_angle_beta   93.47720000
_cell_angle_gamma   79.18240000
_symmetry_Int_Tables_number   1
_chemical_formula_structural   CdH14C15(NO)4
_chemical_formula_sum   'Cd4 H56 C60 N16 O16'
_cell_volume   1943.58703325
_cell_formula_units_Z   4
loop_
 _symmetry_equiv_pos_site_id
 _symmetry_equiv_pos_as_xyz
  1  'x, y, z'
loop_
 _atom_site_type_symbol
 _atom_site_label
 _atom_site_symmetry_multiplicity
 _atom_site_fract_x
 _atom_site_fract_y
 _atom_site_fract_z
 _atom_site_occupancy
 _atom_site_charge
Cd  Cd1  1  0.46054000  0.94880000  0.37121000  1.0 0.8592664818
Cd  Cd2  1  0.94880000  0.46054000  0.12879000  1.0 0.8592664818
Cd  Cd3  1  0.53946000  0.05120000  0.62879000  1.0 0.8592664818
Cd  Cd4  1  0.05120000  0.53946000  0.87121000  1.0 0.8592664818
H  H1  1  0.27298000  0.78018000  0.66272000  1.0 0.0873880009
H  H2  1  0.78018000  0.27298000  0.83728000  1.0 0.0873880009
H  H3  1  0.72702000  0.21982000  0.33728000  1.0 0.0873880009
H  H4  1  0.21982000  0.72702000  0.16272000  1.0 0.0873880009
H  H5  1  0.35975000  0.73299000  0.75302000  1.0 0.1074180278
H  H6  1  0.73299000  0.35975000  0.74698000  1.0 0.1074180278
H  H7  1  0.64025000  0.26701000  0.24698000  1.0 0.1074180278
H  H8  1  0.26701000  0.64025000  0.25302000  1.0 0.1074180278
H  H9  1  0.22235000  0.89001000  0.38661000  1.0 0.1295244866
H  H10  1  0.89001000  0.22235000  0.11339000  1.0 0.1295244866
H  H11  1  0.77765000  0.10999000  0.61339000  1.0 0.1295244866
H  H12  1  0.10999000  0.77765000  0.88661000  1.0 0.1295244866
H  H13  1  0.41006000  0.72082000  0.55245000  1.0 0.1392749108
H  H14  1  0.72082000  0.41006000  0.94755000  1.0 0.1392749108
H  H15  1  0.58994000  0.27918000  0.44755000  1.0 0.1392749108
H  H16  1  0.27918000  0.58994000  0.05245000  1.0 0.1392749108
H  H17  1  0.49667000  0.67035000  0.64170000  1.0 0.1392749108
H  H18  1  0.67035000  0.49667000  0.85830000  1.0 0.1392749108
H  H19  1  0.50333000  0.32965000  0.35830000  1.0 0.1392749108
H  H20  1  0.32965000  0.50333000  0.14170000  1.0 0.1392749108
H  H21  1  0.28895000  0.19227000  0.37491000  1.0 0.1074180278
H  H22  1  0.19227000  0.28895000  0.12509000  1.0 0.1074180278
H  H23  1  0.71105000  0.80773000  0.62509000  1.0 0.1074180278
H  H24  1  0.80773000  0.71105000  0.87491000  1.0 0.1074180278
H  H25  1  0.96846000  0.15724000  0.37178000  1.0 0.1295244866
H  H26  1  0.15724000  0.96846000  0.12822000  1.0 0.1295244866
H  H27  1  0.03154000  0.84276000  0.62822000  1.0 0.1295244866
H  H28  1  0.84276000  0.03154000  0.87178000  1.0 0.1295244866
H  H29  1  0.27745000  0.59985000  0.61402000  1.0 0.1295244866
H  H30  1  0.59985000  0.27745000  0.88598000  1.0 0.1295244866
H  H31  1  0.72255000  0.40015000  0.38598000  1.0 0.1295244866
H  H32  1  0.40015000  0.72255000  0.11402000  1.0 0.1295244866
H  H33  1  0.36913000  0.55075000  0.69994000  1.0 0.1199758122
H  H34  1  0.55075000  0.36913000  0.80006000  1.0 0.1199758122
H  H35  1  0.63087000  0.44925000  0.30006000  1.0 0.1199758122
H  H36  1  0.44925000  0.63087000  0.19994000  1.0 0.1199758122
H  H37  1  0.10066000  0.27228000  0.36858000  1.0 0.1392749108
H  H38  1  0.27228000  0.10066000  0.13142000  1.0 0.1392749108
H  H39  1  0.89934000  0.72772000  0.63142000  1.0 0.1392749108
H  H40  1  0.72772000  0.89934000  0.86858000  1.0 0.1392749108
H  H41  1  0.70437000  0.00527000  0.35870000  1.0 0.1199758122
H  H42  1  0.00527000  0.70437000  0.14130000  1.0 0.1199758122
H  H43  1  0.29563000  0.99473000  0.64130000  1.0 0.1199758122
H  H44  1  0.99473000  0.29563000  0.85870000  1.0 0.1199758122
H  H45  1  0.63160000  0.70488000  0.38477000  1.0 0.1199758122
H  H46  1  0.70488000  0.63160000  0.11523000  1.0 0.1199758122
H  H47  1  0.36840000  0.29512000  0.61523000  1.0 0.1199758122
H  H48  1  0.29512000  0.36840000  0.88477000  1.0 0.1199758122
H  H49  1  0.95451000  0.73529000  0.38727000  1.0 0.1295244866
H  H50  1  0.73529000  0.95451000  0.11273000  1.0 0.1295244866
H  H51  1  0.04549000  0.26471000  0.61273000  1.0 0.1295244866
H  H52  1  0.26471000  0.04549000  0.88727000  1.0 0.1295244866
H  H53  1  0.81905000  0.62327000  0.38817000  1.0 0.1458146418
H  H54  1  0.62327000  0.81905000  0.11183000  1.0 0.1458146418
H  H55  1  0.18095000  0.37673000  0.61183000  1.0 0.1458146418
H  H56  1  0.37673000  0.18095000  0.88817000  1.0 0.1458146418
C  C1  1  0.47360000  0.84140000  0.62320000  1.0 0.6051116655
C  C2  1  0.84140000  0.47360000  0.87680000  1.0 0.6051116655
C  C3  1  0.52640000  0.15860000  0.37680000  1.0 0.6051116655
C  C4  1  0.15860000  0.52640000  0.12320000  1.0 0.6051116655
C  C5  1  0.08300000  0.01000000  0.37900000  1.0 0.1074180278
C  C6  1  0.01000000  0.08300000  0.12100000  1.0 0.1074180278
C  C7  1  0.91700000  0.99000000  0.62100000  1.0 0.1074180278
C  C8  1  0.99000000  0.91700000  0.87900000  1.0 0.1074180278
C  C9  1  0.33730000  0.72150000  0.68500000  1.0 -0.1003836417
C  C10  1  0.72150000  0.33730000  0.81500000  1.0 -0.1003836417
C  C11  1  0.66270000  0.27850000  0.31500000  1.0 -0.1003836417
C  C12  1  0.27850000  0.66270000  0.18500000  1.0 -0.1003836417
C  C13  1  0.21180000  0.59340000  0.74920000  1.0 0.5983978579
C  C14  1  0.59340000  0.21180000  0.75080000  1.0 0.5983978579
C  C15  1  0.78820000  0.40660000  0.25080000  1.0 0.5983978579
C  C16  1  0.40660000  0.78820000  0.24920000  1.0 0.5983978579
C  C17  1  0.19750000  0.96770000  0.38260000  1.0 0.0125914664
C  C18  1  0.96770000  0.19750000  0.11740000  1.0 0.0125914664
C  C19  1  0.80250000  0.03230000  0.61740000  1.0 0.0125914664
C  C20  1  0.03230000  0.80250000  0.88260000  1.0 0.0125914664
C  C21  1  0.84160000  0.88320000  0.37260000  1.0 0.1045298273
C  C22  1  0.88320000  0.84160000  0.12740000  1.0 0.1045298273
C  C23  1  0.15840000  0.11680000  0.62740000  1.0 0.1074180278
C  C24  1  0.11680000  0.15840000  0.87260000  1.0 0.1074180278
C  C25  1  0.43380000  0.73100000  0.62050000  1.0 -0.3280420085
C  C26  1  0.73100000  0.43380000  0.87950000  1.0 -0.3280420085
C  C27  1  0.56620000  0.26900000  0.37950000  1.0 -0.3280420085
C  C28  1  0.26900000  0.56620000  0.12050000  1.0 -0.3280420085
C  C29  1  0.23640000  0.14540000  0.37580000  1.0 0.0623697745
C  C30  1  0.14540000  0.23640000  0.12420000  1.0 0.0623697745
C  C31  1  0.76360000  0.85460000  0.62420000  1.0 0.0623697745
C  C32  1  0.85460000  0.76360000  0.87580000  1.0 0.0623697745
C  C33  1  0.04500000  0.12660000  0.37390000  1.0 -0.1003836417
C  C34  1  0.12660000  0.04500000  0.12610000  1.0 -0.1003836417
C  C35  1  0.95500000  0.87340000  0.62610000  1.0 -0.1003836417
C  C36  1  0.87340000  0.95500000  0.87390000  1.0 -0.1003836417
C  C37  1  0.30340000  0.60920000  0.68160000  1.0 -0.3280420085
C  C38  1  0.60920000  0.30340000  0.81840000  1.0 -0.3280420085
C  C39  1  0.69660000  0.39080000  0.31840000  1.0 -0.3280420085
C  C40  1  0.39080000  0.69660000  0.18160000  1.0 -0.3280420085
C  C41  1  0.12310000  0.19430000  0.37220000  1.0 -0.1180982467
C  C42  1  0.19430000  0.12310000  0.12780000  1.0 -0.1180982467
C  C43  1  0.87690000  0.80570000  0.62780000  1.0 -0.1180982467
C  C44  1  0.80570000  0.87690000  0.87220000  1.0 -0.1180982467
C  C45  1  0.72770000  0.92750000  0.36640000  1.0 0.0125914664
C  C46  1  0.92750000  0.72770000  0.13360000  1.0 0.0125914664
C  C47  1  0.27230000  0.07250000  0.63360000  1.0 0.0125914664
C  C48  1  0.07250000  0.27230000  0.86640000  1.0 0.0125914664
C  C49  1  0.68470000  0.75090000  0.38050000  1.0 0.0623697745
C  C50  1  0.75090000  0.68470000  0.11950000  1.0 0.0623697745
C  C51  1  0.31530000  0.24910000  0.61950000  1.0 0.0623697745
C  C52  1  0.24910000  0.31530000  0.88050000  1.0 0.0623697745
C  C53  1  0.87820000  0.76720000  0.38230000  1.0 -0.1103427773
C  C54  1  0.76720000  0.87820000  0.11770000  1.0 -0.1103427773
C  C55  1  0.12180000  0.23280000  0.61770000  1.0 -0.1103427773
C  C56  1  0.23280000  0.12180000  0.88230000  1.0 -0.1103427773
C  C57  1  0.79770000  0.70130000  0.38430000  1.0 -0.1299721157
C  C58  1  0.70130000  0.79770000  0.11570000  1.0 -0.1299721157
C  C59  1  0.20230000  0.29870000  0.61570000  1.0 -0.1299721157
C  C60  1  0.29870000  0.20230000  0.88430000  1.0 -0.1299721157
N  N1  1  0.27360000  0.03440000  0.38060000  1.0 -0.2194686127
N  N2  1  0.03440000  0.27360000  0.11940000  1.0 -0.2194686127
N  N3  1  0.72640000  0.96560000  0.61940000  1.0 -0.2194686127
N  N4  1  0.96560000  0.72640000  0.88060000  1.0 -0.2194686127
N  N5  1  0.01350000  0.92630000  0.38130000  1.0 -0.1180982467
N  N6  1  0.92630000  0.01350000  0.11870000  1.0 -0.1103427773
N  N7  1  0.98650000  0.07370000  0.61870000  1.0 -0.1180982467
N  N8  1  0.07370000  0.98650000  0.88130000  1.0 -0.1180982467
N  N9  1  0.64920000  0.86320000  0.37100000  1.0 -0.2194686127
N  N10  1  0.86320000  0.64920000  0.12900000  1.0 -0.2194686127
N  N11  1  0.35080000  0.13680000  0.62900000  1.0 -0.2194686127
N  N12  1  0.13680000  0.35080000  0.87100000  1.0 -0.2194686127
N  N13  1  0.91140000  0.96660000  0.36980000  1.0 -0.1299721157
N  N14  1  0.96660000  0.91140000  0.13020000  1.0 -0.1299721157
N  N15  1  0.08860000  0.03340000  0.63020000  1.0 -0.1299721157
N  N16  1  0.03340000  0.08860000  0.86980000  1.0 -0.1299721157
O  O1  1  0.47924000  0.89824000  0.54390000  1.0 -0.5714517986
O  O2  1  0.89824000  0.47924000  0.95610000  1.0 -0.5714517986
O  O3  1  0.52076000  0.10176000  0.45610000  1.0 -0.5714517986
O  O4  1  0.10176000  0.52076000  0.04390000  1.0 -0.5714517986
O  O5  1  0.23179000  0.58859000  0.84090000  1.0 -0.5714517986
O  O6  1  0.58859000  0.23179000  0.65910000  1.0 -0.5714517986
O  O7  1  0.76821000  0.41141000  0.15910000  1.0 -0.5714517986
O  O8  1  0.41141000  0.76821000  0.34090000  1.0 -0.5714517986
O  O9  1  0.50015000  0.87755000  0.70430000  1.0 -0.5463146498
O  O10  1  0.87755000  0.50015000  0.79570000  1.0 -0.5463146498
O  O11  1  0.49985000  0.12245000  0.29570000  1.0 -0.5463146498
O  O12  1  0.12245000  0.49985000  0.20430000  1.0 -0.5463146498
O  O13  1  0.11592000  0.58312000  0.71240000  1.0 -0.5804278483
O  O14  1  0.58312000  0.11592000  0.78760000  1.0 -0.5804278483
O  O15  1  0.88408000  0.41688000  0.28760000  1.0 -0.5804278483
O  O16  1  0.41688000  0.88408000  0.21240000  1.0 -0.5804278483
