# DDEC6 charges by PACMAN v1.1 (https://github.com/mtap-research/PACMAN-charge/)
data_RIXBEG_FSR_pacman
_symmetry_space_group_name_H-M   'P 1'
_cell_length_a   13.34030000
_cell_length_b   13.34030000
_cell_length_c   27.44120000
_cell_angle_alpha   86.12580000
_cell_angle_beta   93.87420000
_cell_angle_gamma   142.06700000
_symmetry_Int_Tables_number   1
_chemical_formula_structural   MnH21C24SN4O7
_chemical_formula_sum   'Mn4 H84 C96 S4 N16 O28'
_cell_volume   2994.43043468
_cell_formula_units_Z   4
loop_
 _symmetry_equiv_pos_site_id
 _symmetry_equiv_pos_as_xyz
  1  'x, y, z'
loop_
 _atom_site_type_symbol
 _atom_site_label
 _atom_site_symmetry_multiplicity
 _atom_site_fract_x
 _atom_site_fract_y
 _atom_site_fract_z
 _atom_site_occupancy
 _atom_site_charge
Mn  Mn1  1  0.66442000  0.12250000  0.20252000  1.0 0.9016202956
Mn  Mn2  1  0.12250000  0.66442000  0.29748000  1.0 0.9016202956
Mn  Mn3  1  0.33558000  0.87750000  0.79748000  1.0 0.9016202956
Mn  Mn4  1  0.87750000  0.33558000  0.70252000  1.0 0.9016202956
H  H1  1  0.94690000  0.36390000  0.16290000  1.0 0.3192903964
H  H2  1  0.36390000  0.94690000  0.33710000  1.0 0.3192903964
H  H3  1  0.05310000  0.63610000  0.83710000  1.0 0.3192903964
H  H4  1  0.63610000  0.05310000  0.66290000  1.0 0.3192903964
H  H5  1  0.97710000  0.44010000  0.20330000  1.0 0.3325120179
H  H6  1  0.44010000  0.97710000  0.29670000  1.0 0.3325120179
H  H7  1  0.02290000  0.55990000  0.79670000  1.0 0.3325120179
H  H8  1  0.55990000  0.02290000  0.70330000  1.0 0.3325120179
H  H9  1  0.04260000  0.55280000  0.11400000  1.0 0.2917953252
H  H10  1  0.55280000  0.04260000  0.38600000  1.0 0.2917953252
H  H11  1  0.95740000  0.44720000  0.88600000  1.0 0.2917953252
H  H12  1  0.44720000  0.95740000  0.61400000  1.0 0.2917953252
H  H13  1  0.29150000  0.69270000  0.13800000  1.0 0.1316276255
H  H14  1  0.69270000  0.29150000  0.36200000  1.0 0.1316276255
H  H15  1  0.70850000  0.30730000  0.86200000  1.0 0.1316276255
H  H16  1  0.30730000  0.70850000  0.63800000  1.0 0.1316276255
H  H17  1  0.36080000  0.85520000  0.12600000  1.0 0.1201801563
H  H18  1  0.85520000  0.36080000  0.37400000  1.0 0.1201801563
H  H19  1  0.63920000  0.14480000  0.87400000  1.0 0.1201801563
H  H20  1  0.14480000  0.63920000  0.62600000  1.0 0.1201801563
H  H21  1  0.41388000  0.08052000  0.08010000  1.0 0.1201801563
H  H22  1  0.08052000  0.41388000  0.41990000  1.0 0.1201801563
H  H23  1  0.58612000  0.91948000  0.91990000  1.0 0.1201801563
H  H24  1  0.91948000  0.58612000  0.58010000  1.0 0.1201801563
H  H25  1  0.58660000  0.24120000  0.01460000  1.0 0.1201801563
H  H26  1  0.24120000  0.58660000  0.48540000  1.0 0.1201801563
H  H27  1  0.41340000  0.75880000  0.98540000  1.0 0.1201801563
H  H28  1  0.75880000  0.41340000  0.51460000  1.0 0.1201801563
H  H29  1  0.50960000  0.12880000  0.93900000  1.0 0.1091672233
H  H30  1  0.12880000  0.50960000  0.56100000  1.0 0.1091672233
H  H31  1  0.49040000  0.87120000  0.06100000  1.0 0.1091672233
H  H32  1  0.87120000  0.49040000  0.43900000  1.0 0.1091672233
H  H33  1  0.08330000  0.69190000  0.99280000  1.0 0.1316276255
H  H34  1  0.69190000  0.08330000  0.50720000  1.0 0.1316276255
H  H35  1  0.91670000  0.30810000  0.00720000  1.0 0.1316276255
H  H36  1  0.30810000  0.91670000  0.49280000  1.0 0.1316276255
H  H37  1  0.40050000  0.07970000  0.22930000  1.0 0.1091672233
H  H38  1  0.07970000  0.40050000  0.27070000  1.0 0.1091672233
H  H39  1  0.59950000  0.92030000  0.77070000  1.0 0.1091672233
H  H40  1  0.92030000  0.59950000  0.72930000  1.0 0.1091672233
H  H41  1  0.33560000  0.19500000  0.21810000  1.0 0.1201801563
H  H42  1  0.19500000  0.33560000  0.28190000  1.0 0.1201801563
H  H43  1  0.66440000  0.80500000  0.78190000  1.0 0.1201801563
H  H44  1  0.80500000  0.66440000  0.71810000  1.0 0.1201801563
H  H45  1  0.68270000  0.49990000  0.11930000  1.0 0.1316276255
H  H46  1  0.49990000  0.68270000  0.38070000  1.0 0.1316276255
H  H47  1  0.31730000  0.50010000  0.88070000  1.0 0.1316276255
H  H48  1  0.50010000  0.31730000  0.61930000  1.0 0.1316276255
H  H49  1  0.74650000  0.38370000  0.13620000  1.0 0.1091672233
H  H50  1  0.38370000  0.74650000  0.36380000  1.0 0.1091672233
H  H51  1  0.25350000  0.61630000  0.86380000  1.0 0.1091672233
H  H52  1  0.61630000  0.25350000  0.63620000  1.0 0.1091672233
H  H53  1  0.24100000  0.26200000  0.19070000  1.0 0.1201801563
H  H54  1  0.26200000  0.24100000  0.30930000  1.0 0.1201801563
H  H55  1  0.75900000  0.73800000  0.80930000  1.0 0.1201801563
H  H56  1  0.73800000  0.75900000  0.69070000  1.0 0.1201801563
H  H57  1  0.18240000  0.38120000  0.17410000  1.0 0.1006910251
H  H58  1  0.38120000  0.18240000  0.32590000  1.0 0.1006910251
H  H59  1  0.81760000  0.61880000  0.82590000  1.0 0.1006910251
H  H60  1  0.61880000  0.81760000  0.67410000  1.0 0.1006910251
H  H61  1  0.58260000  0.74180000  0.10190000  1.0 0.1006910251
H  H62  1  0.74180000  0.58260000  0.39810000  1.0 0.1006910251
H  H63  1  0.41740000  0.25820000  0.89810000  1.0 0.1006910251
H  H64  1  0.25820000  0.41740000  0.60190000  1.0 0.1006910251
H  H65  1  0.65510000  0.63230000  0.11740000  1.0 0.1316276255
H  H66  1  0.63230000  0.65510000  0.38260000  1.0 0.1316276255
H  H67  1  0.34490000  0.36770000  0.88260000  1.0 0.1316276255
H  H68  1  0.36770000  0.34490000  0.61740000  1.0 0.1316276255
H  H69  1  0.69150000  0.97470000  0.28860000  1.0 0.1091672233
H  H70  1  0.97470000  0.69150000  0.21140000  1.0 0.1091672233
H  H71  1  0.30850000  0.02530000  0.71140000  1.0 0.1091672233
H  H72  1  0.02530000  0.30850000  0.78860000  1.0 0.1091672233
H  H73  1  0.79100000  0.89620000  0.31010000  1.0 0.1316276255
H  H74  1  0.89620000  0.79100000  0.18990000  1.0 0.1316276255
H  H75  1  0.20900000  0.10380000  0.68990000  1.0 0.1316276255
H  H76  1  0.10380000  0.20900000  0.81010000  1.0 0.1316276255
H  H77  1  0.91140000  0.96780000  0.17370000  1.0 0.1316276255
H  H78  1  0.96780000  0.91140000  0.32630000  1.0 0.1316276255
H  H79  1  0.08860000  0.03220000  0.82630000  1.0 0.1316276255
H  H80  1  0.03220000  0.08860000  0.67370000  1.0 0.1316276255
H  H81  1  0.81880000  0.05520000  0.15750000  1.0 0.1006910251
H  H82  1  0.05520000  0.81880000  0.34250000  1.0 0.1006910251
H  H83  1  0.18120000  0.94480000  0.84250000  1.0 0.1006910251
H  H84  1  0.94480000  0.18120000  0.65750000  1.0 0.1006910251
C  C1  1  0.27874000  0.77146000  0.19614000  1.0 0.626810935
C  C2  1  0.77146000  0.27874000  0.30386000  1.0 0.626810935
C  C3  1  0.72126000  0.22854000  0.80386000  1.0 0.626810935
C  C4  1  0.22854000  0.72126000  0.69614000  1.0 0.626810935
C  C5  1  0.27234000  0.74846000  0.14165000  1.0 -0.2071761949
C  C6  1  0.74846000  0.27234000  0.35835000  1.0 -0.2071761949
C  C7  1  0.72766000  0.25154000  0.85835000  1.0 -0.2071761949
C  C8  1  0.25154000  0.72766000  0.64165000  1.0 -0.2071761949
C  C9  1  0.23196000  0.87284000  0.04224000  1.0 -0.0833017857
C  C10  1  0.87284000  0.23196000  0.45776000  1.0 -0.0833017857
C  C11  1  0.76804000  0.12716000  0.95776000  1.0 -0.0833017857
C  C12  1  0.12716000  0.76804000  0.54224000  1.0 -0.0833017857
C  C13  1  0.38249000  0.03571000  0.04944000  1.0 -0.0881981844
C  C14  1  0.03571000  0.38249000  0.45056000  1.0 -0.0881981844
C  C15  1  0.61751000  0.96429000  0.95056000  1.0 -0.0881981844
C  C16  1  0.96429000  0.61751000  0.54944000  1.0 -0.0881981844
C  C17  1  0.48566000  0.13114000  0.01032000  1.0 -0.0833017857
C  C18  1  0.13114000  0.48566000  0.48968000  1.0 -0.0833017857
C  C19  1  0.51434000  0.86886000  0.98968000  1.0 -0.0833017857
C  C20  1  0.86886000  0.51434000  0.51032000  1.0 -0.0833017857
C  C21  1  0.43949000  0.06371000  0.96500000  1.0 -0.1030577229
C  C22  1  0.06371000  0.43949000  0.53500000  1.0 -0.1030577229
C  C23  1  0.56051000  0.93629000  0.03500000  1.0 -0.1030577229
C  C24  1  0.93629000  0.56051000  0.46500000  1.0 -0.1030577229
C  C25  1  0.28857000  0.89883000  0.95791000  1.0 -0.0205662002
C  C26  1  0.89883000  0.28857000  0.54209000  1.0 -0.0205662002
C  C27  1  0.71143000  0.10117000  0.04209000  1.0 -0.0205662002
C  C28  1  0.10117000  0.71143000  0.45791000  1.0 -0.0205662002
C  C29  1  0.18388000  0.80212000  0.99690000  1.0 -0.1110809327
C  C30  1  0.80212000  0.18388000  0.50310000  1.0 -0.1110809327
C  C31  1  0.81612000  0.19788000  0.00310000  1.0 -0.1110809327
C  C32  1  0.19788000  0.81612000  0.49690000  1.0 -0.1110809327
C  C33  1  0.23799000  0.82361000  0.90895000  1.0 0.5553407042
C  C34  1  0.82361000  0.23799000  0.59105000  1.0 0.5553407042
C  C35  1  0.76201000  0.17639000  0.09105000  1.0 0.5553407042
C  C36  1  0.17639000  0.76201000  0.40895000  1.0 0.5553407042
C  C37  1  0.46250000  0.16950000  0.20810000  1.0 0.088245006
C  C38  1  0.16950000  0.46250000  0.29190000  1.0 0.088245006
C  C39  1  0.53750000  0.83050000  0.79190000  1.0 0.088245006
C  C40  1  0.83050000  0.53750000  0.70810000  1.0 0.088245006
C  C41  1  0.42040000  0.23640000  0.20060000  1.0 -0.1953958193
C  C42  1  0.23640000  0.42040000  0.29940000  1.0 -0.1953958193
C  C43  1  0.57960000  0.76360000  0.79940000  1.0 -0.1953958193
C  C44  1  0.76360000  0.57960000  0.70060000  1.0 -0.1953958193
C  C45  1  0.50230000  0.36350000  0.16770000  1.0 0.1006910251
C  C46  1  0.36350000  0.50230000  0.33230000  1.0 0.1006910251
C  C47  1  0.49770000  0.63650000  0.83230000  1.0 0.1006910251
C  C48  1  0.63650000  0.49770000  0.66770000  1.0 0.1006910251
C  C49  1  0.62540000  0.41680000  0.14290000  1.0 -0.1838100882
C  C50  1  0.41680000  0.62540000  0.35710000  1.0 -0.1838100882
C  C51  1  0.37460000  0.58320000  0.85710000  1.0 -0.1838100882
C  C52  1  0.58320000  0.37460000  0.64290000  1.0 -0.1838100882
C  C53  1  0.66306000  0.34554000  0.15340000  1.0 0.088245006
C  C54  1  0.34554000  0.66306000  0.34660000  1.0 0.088245006
C  C55  1  0.33694000  0.65446000  0.84660000  1.0 0.088245006
C  C56  1  0.65446000  0.33694000  0.65340000  1.0 0.088245006
C  C57  1  0.45540000  0.43360000  0.15770000  1.0 0.1006910251
C  C58  1  0.43360000  0.45540000  0.34230000  1.0 0.1006910251
C  C59  1  0.54460000  0.56640000  0.84230000  1.0 0.1006910251
C  C60  1  0.56640000  0.54460000  0.65770000  1.0 0.1006910251
C  C61  1  0.31350000  0.36010000  0.17300000  1.0 -0.2071761949
C  C62  1  0.36010000  0.31350000  0.32700000  1.0 -0.2071761949
C  C63  1  0.68650000  0.63990000  0.82700000  1.0 -0.2071761949
C  C64  1  0.63990000  0.68650000  0.67300000  1.0 -0.2071761949
C  C65  1  0.27790000  0.43210000  0.16190000  1.0 0.1006910251
C  C66  1  0.43210000  0.27790000  0.33810000  1.0 0.1006910251
C  C67  1  0.72210000  0.56790000  0.83810000  1.0 0.1006910251
C  C68  1  0.56790000  0.72210000  0.66190000  1.0 0.1006910251
C  C69  1  0.51360000  0.64420000  0.11970000  1.0 0.045068842
C  C70  1  0.64420000  0.51360000  0.38030000  1.0 0.045068842
C  C71  1  0.48640000  0.35580000  0.88030000  1.0 0.045068842
C  C72  1  0.35580000  0.48640000  0.61970000  1.0 0.045068842
C  C73  1  0.55840000  0.58000000  0.12930000  1.0 -0.1925317825
C  C74  1  0.58000000  0.55840000  0.37070000  1.0 -0.1925317825
C  C75  1  0.44160000  0.42000000  0.87070000  1.0 -0.1925317825
C  C76  1  0.42000000  0.44160000  0.62930000  1.0 -0.1925317825
C  C77  1  0.73600000  0.97320000  0.26440000  1.0 0.1006910251
C  C78  1  0.97320000  0.73600000  0.23560000  1.0 0.1091672233
C  C79  1  0.26400000  0.02680000  0.73560000  1.0 0.1091672233
C  C80  1  0.02680000  0.26400000  0.76440000  1.0 0.1091672233
C  C81  1  0.79360000  0.92260000  0.27760000  1.0 -0.2071761949
C  C82  1  0.92260000  0.79360000  0.22240000  1.0 -0.2071761949
C  C83  1  0.20640000  0.07740000  0.72240000  1.0 -0.2071761949
C  C84  1  0.07740000  0.20640000  0.77760000  1.0 -0.2071761949
C  C85  1  0.85352000  0.91148000  0.24378000  1.0 0.1006910251
C  C86  1  0.91148000  0.85352000  0.25622000  1.0 0.1006910251
C  C87  1  0.14648000  0.08852000  0.75622000  1.0 0.1006910251
C  C88  1  0.08852000  0.14648000  0.74378000  1.0 0.1006910251
C  C89  1  0.86530000  0.96550000  0.19840000  1.0 -0.2157767148
C  C90  1  0.96550000  0.86530000  0.30160000  1.0 -0.2157767148
C  C91  1  0.13470000  0.03450000  0.80160000  1.0 -0.2157767148
C  C92  1  0.03450000  0.13470000  0.69840000  1.0 -0.2157767148
C  C93  1  0.80800000  0.01760000  0.18910000  1.0 0.0709106425
C  C94  1  0.01760000  0.80800000  0.31090000  1.0 0.0709106425
C  C95  1  0.19200000  0.98240000  0.81090000  1.0 0.0709106425
C  C96  1  0.98240000  0.19200000  0.68910000  1.0 0.0709106425
S  S1  1  0.09439000  0.74857000  0.09117000  1.0 1.0791038244
S  S2  1  0.74857000  0.09439000  0.40883000  1.0 1.0791038244
S  S3  1  0.90561000  0.25143000  0.90883000  1.0 1.0791038244
S  S4  1  0.25143000  0.90561000  0.59117000  1.0 1.0791038244
N  N1  1  0.11967000  0.65693000  0.11591000  1.0 -0.4450232716
N  N2  1  0.65693000  0.11967000  0.38409000  1.0 -0.4450232716
N  N3  1  0.88033000  0.34307000  0.88409000  1.0 -0.4450232716
N  N4  1  0.34307000  0.88033000  0.61591000  1.0 -0.4450232716
N  N5  1  0.58738000  0.22682000  0.18639000  1.0 -0.2329252728
N  N6  1  0.22682000  0.58738000  0.31361000  1.0 -0.2329252728
N  N7  1  0.41262000  0.77318000  0.81361000  1.0 -0.2329252728
N  N8  1  0.77318000  0.41262000  0.68639000  1.0 -0.2329252728
N  N9  1  0.36640000  0.56500000  0.13620000  1.0 -0.2457478078
N  N10  1  0.56500000  0.36640000  0.36380000  1.0 -0.2457478078
N  N11  1  0.63360000  0.43500000  0.86380000  1.0 -0.2457478078
N  N12  1  0.43500000  0.63360000  0.63620000  1.0 -0.2457478078
N  N13  1  0.74031000  0.01809000  0.22084000  1.0 -0.2071761949
N  N14  1  0.01809000  0.74031000  0.27916000  1.0 -0.2071761949
N  N15  1  0.25969000  0.98191000  0.77916000  1.0 -0.2071761949
N  N16  1  0.98191000  0.25969000  0.72084000  1.0 -0.2071761949
O  O1  1  0.41659000  0.88701000  0.21527000  1.0 -0.5502253921
O  O2  1  0.88701000  0.41659000  0.28473000  1.0 -0.5502253921
O  O3  1  0.58341000  0.11299000  0.78473000  1.0 -0.5502253921
O  O4  1  0.11299000  0.58341000  0.71527000  1.0 -0.5502253921
O  O5  1  0.14741000  0.66919000  0.21896000  1.0 -0.5502253921
O  O6  1  0.66919000  0.14741000  0.28104000  1.0 -0.5502253921
O  O7  1  0.85259000  0.33081000  0.78104000  1.0 -0.5502253921
O  O8  1  0.33081000  0.85259000  0.71896000  1.0 -0.5502253921
O  O9  1  0.14605000  0.85855000  0.12647000  1.0 -0.5502253921
O  O10  1  0.85855000  0.14605000  0.37353000  1.0 -0.5502253921
O  O11  1  0.85395000  0.14145000  0.87353000  1.0 -0.5502253921
O  O12  1  0.14145000  0.85395000  0.62647000  1.0 -0.5502253921
O  O13  1  0.93176000  0.62484000  0.07062000  1.0 -0.5502253921
O  O14  1  0.62484000  0.93176000  0.42938000  1.0 -0.5502253921
O  O15  1  0.06824000  0.37516000  0.92938000  1.0 -0.5502253921
O  O16  1  0.37516000  0.06824000  0.57062000  1.0 -0.5502253921
O  O17  1  0.09415000  0.67945000  0.90411000  1.0 -0.5502253921
O  O18  1  0.67945000  0.09415000  0.59589000  1.0 -0.5502253921
O  O19  1  0.90585000  0.32055000  0.09589000  1.0 -0.5502253921
O  O20  1  0.32055000  0.90585000  0.40411000  1.0 -0.5502253921
O  O21  1  0.34165000  0.90915000  0.87595000  1.0 -0.5756492646
O  O22  1  0.90915000  0.34165000  0.62405000  1.0 -0.5756492646
O  O23  1  0.65835000  0.09085000  0.12405000  1.0 -0.5756492646
O  O24  1  0.09085000  0.65835000  0.37595000  1.0 -0.5756492646
O  O25  1  0.92220000  0.35120000  0.19158000  1.0 -0.6819653989
O  O26  1  0.35120000  0.92220000  0.30842000  1.0 -0.6819653989
O  O27  1  0.07780000  0.64880000  0.80842000  1.0 -0.6819653989
O  O28  1  0.64880000  0.07780000  0.69158000  1.0 -0.6819653989
