# DDEC6 charges by PACMAN v1.1 (https://github.com/mtap-research/PACMAN-charge/)
data_RIYNOF_FSR_pacman
_symmetry_space_group_name_H-M   'P 1'
_cell_length_a   17.11820000
_cell_length_b   17.11820000
_cell_length_c   17.11820000
_cell_angle_alpha   110.22300000
_cell_angle_beta   110.22300000
_cell_angle_gamma   110.22300000
_symmetry_Int_Tables_number   1
_chemical_formula_structural   Cd3H12C20(NO2)4
_chemical_formula_sum   'Cd18 H72 C120 N24 O48'
_cell_volume   3750.14201718
_cell_formula_units_Z   6
loop_
 _symmetry_equiv_pos_site_id
 _symmetry_equiv_pos_as_xyz
  1  'x, y, z'
loop_
 _atom_site_type_symbol
 _atom_site_label
 _atom_site_symmetry_multiplicity
 _atom_site_fract_x
 _atom_site_fract_y
 _atom_site_fract_z
 _atom_site_occupancy
 _atom_site_charge
Cd  Cd1  1  0.39192000  0.98264000  0.74249000  1.0 0.9206316938
Cd  Cd2  1  0.43981000  0.21598000  0.85684000  1.0 0.7410793473
Cd  Cd3  1  0.46810000  0.23640000  0.88130000  1.0 0.7514186173
Cd  Cd4  1  0.98264000  0.74249000  0.39192000  1.0 0.9206316938
Cd  Cd5  1  0.21598000  0.85684000  0.43981000  1.0 0.7410793473
Cd  Cd6  1  0.23640000  0.88130000  0.46810000  1.0 0.7514186173
Cd  Cd7  1  0.74249000  0.39192000  0.98264000  1.0 0.9206316938
Cd  Cd8  1  0.85684000  0.43981000  0.21598000  1.0 0.7410793473
Cd  Cd9  1  0.88130000  0.46810000  0.23640000  1.0 0.7514186173
Cd  Cd10  1  0.60808000  0.01736000  0.25751000  1.0 0.9206316938
Cd  Cd11  1  0.56019000  0.78402000  0.14316000  1.0 0.7410793473
Cd  Cd12  1  0.53190000  0.76360000  0.11870000  1.0 0.7514186173
Cd  Cd13  1  0.01736000  0.25751000  0.60808000  1.0 0.9206316938
Cd  Cd14  1  0.78402000  0.14316000  0.56019000  1.0 0.7410793473
Cd  Cd15  1  0.76360000  0.11870000  0.53190000  1.0 0.7514186173
Cd  Cd16  1  0.25751000  0.60808000  0.01736000  1.0 0.9206316938
Cd  Cd17  1  0.14316000  0.56019000  0.78402000  1.0 0.7410793473
Cd  Cd18  1  0.11870000  0.53190000  0.76360000  1.0 0.7514186173
H  H1  1  0.35370000  0.73750000  0.85830000  1.0 0.297115164
H  H2  1  0.23620000  0.37200000  0.85430000  1.0 0.3152465989
H  H3  1  0.36820000  0.08320000  0.07290000  1.0 0.120626839
H  H4  1  0.33120000  0.95890000  0.10370000  1.0 0.120626839
H  H5  1  0.35500000  0.69340000  0.70340000  1.0 0.1580532629
H  H6  1  0.37300000  0.77200000  0.67370000  1.0 0.1480376516
H  H7  1  0.46180000  0.78100000  0.75350000  1.0 0.1580532629
H  H8  1  0.59510000  0.56950000  0.88410000  1.0 0.120626839
H  H9  1  0.47980000  0.61140000  0.84680000  1.0 0.1260983963
H  H10  1  0.25250000  0.25710000  0.94990000  1.0 0.1580532629
H  H11  1  0.17250000  0.20390000  0.83890000  1.0 0.1580532629
H  H12  1  0.25090000  0.17550000  0.86990000  1.0 0.1480376516
H  H13  1  0.73750000  0.85830000  0.35370000  1.0 0.297115164
H  H14  1  0.37200000  0.85430000  0.23620000  1.0 0.3152465989
H  H15  1  0.08320000  0.07290000  0.36820000  1.0 0.120626839
H  H16  1  0.95890000  0.10370000  0.33120000  1.0 0.120626839
H  H17  1  0.69340000  0.70340000  0.35500000  1.0 0.1580532629
H  H18  1  0.77200000  0.67370000  0.37300000  1.0 0.1480376516
H  H19  1  0.78100000  0.75350000  0.46180000  1.0 0.1580532629
H  H20  1  0.56950000  0.88410000  0.59510000  1.0 0.120626839
H  H21  1  0.61140000  0.84680000  0.47980000  1.0 0.1260983963
H  H22  1  0.25710000  0.94990000  0.25250000  1.0 0.1580532629
H  H23  1  0.20390000  0.83890000  0.17250000  1.0 0.1580532629
H  H24  1  0.17550000  0.86990000  0.25090000  1.0 0.1480376516
H  H25  1  0.85830000  0.35370000  0.73750000  1.0 0.297115164
H  H26  1  0.85430000  0.23620000  0.37200000  1.0 0.3152465989
H  H27  1  0.07290000  0.36820000  0.08320000  1.0 0.120626839
H  H28  1  0.10370000  0.33120000  0.95890000  1.0 0.120626839
H  H29  1  0.70340000  0.35500000  0.69340000  1.0 0.1580532629
H  H30  1  0.67370000  0.37300000  0.77200000  1.0 0.1480376516
H  H31  1  0.75350000  0.46180000  0.78100000  1.0 0.1580532629
H  H32  1  0.88410000  0.59510000  0.56950000  1.0 0.120626839
H  H33  1  0.84680000  0.47980000  0.61140000  1.0 0.1260983963
H  H34  1  0.94990000  0.25250000  0.25710000  1.0 0.1580532629
H  H35  1  0.83890000  0.17250000  0.20390000  1.0 0.1580532629
H  H36  1  0.86990000  0.25090000  0.17550000  1.0 0.1480376516
H  H37  1  0.64630000  0.26250000  0.14170000  1.0 0.297115164
H  H38  1  0.76380000  0.62800000  0.14570000  1.0 0.3152465989
H  H39  1  0.63180000  0.91680000  0.92710000  1.0 0.120626839
H  H40  1  0.66880000  0.04110000  0.89630000  1.0 0.120626839
H  H41  1  0.64500000  0.30660000  0.29660000  1.0 0.1580532629
H  H42  1  0.62700000  0.22800000  0.32630000  1.0 0.1480376516
H  H43  1  0.53820000  0.21900000  0.24650000  1.0 0.1580532629
H  H44  1  0.40490000  0.43050000  0.11590000  1.0 0.120626839
H  H45  1  0.52020000  0.38860000  0.15320000  1.0 0.1260983963
H  H46  1  0.74750000  0.74290000  0.05010000  1.0 0.1580532629
H  H47  1  0.82750000  0.79610000  0.16110000  1.0 0.1580532629
H  H48  1  0.74910000  0.82450000  0.13010000  1.0 0.1480376516
H  H49  1  0.26250000  0.14170000  0.64630000  1.0 0.297115164
H  H50  1  0.62800000  0.14570000  0.76380000  1.0 0.3152465989
H  H51  1  0.91680000  0.92710000  0.63180000  1.0 0.120626839
H  H52  1  0.04110000  0.89630000  0.66880000  1.0 0.120626839
H  H53  1  0.30660000  0.29660000  0.64500000  1.0 0.1580532629
H  H54  1  0.22800000  0.32630000  0.62700000  1.0 0.1480376516
H  H55  1  0.21900000  0.24650000  0.53820000  1.0 0.1580532629
H  H56  1  0.43050000  0.11590000  0.40490000  1.0 0.120626839
H  H57  1  0.38860000  0.15320000  0.52020000  1.0 0.1260983963
H  H58  1  0.74290000  0.05010000  0.74750000  1.0 0.1580532629
H  H59  1  0.79610000  0.16110000  0.82750000  1.0 0.1580532629
H  H60  1  0.82450000  0.13010000  0.74910000  1.0 0.1480376516
H  H61  1  0.14170000  0.64630000  0.26250000  1.0 0.297115164
H  H62  1  0.14570000  0.76380000  0.62800000  1.0 0.3152465989
H  H63  1  0.92710000  0.63180000  0.91680000  1.0 0.120626839
H  H64  1  0.89630000  0.66880000  0.04110000  1.0 0.120626839
H  H65  1  0.29660000  0.64500000  0.30660000  1.0 0.1580532629
H  H66  1  0.32630000  0.62700000  0.22800000  1.0 0.1480376516
H  H67  1  0.24650000  0.53820000  0.21900000  1.0 0.1580532629
H  H68  1  0.11590000  0.40490000  0.43050000  1.0 0.120626839
H  H69  1  0.15320000  0.52020000  0.38860000  1.0 0.1260983963
H  H70  1  0.05010000  0.74750000  0.74290000  1.0 0.1580532629
H  H71  1  0.16110000  0.82750000  0.79610000  1.0 0.1580532629
H  H72  1  0.13010000  0.74910000  0.82450000  1.0 0.1480376516
C  C1  1  0.41090000  0.10650000  0.94630000  1.0 0.5315713256
C  C2  1  0.38520000  0.02170000  0.96170000  1.0 -0.0703379765
C  C3  1  0.36610000  0.02750000  0.03500000  1.0 -0.1213419871
C  C4  1  0.34360000  0.95210000  0.05370000  1.0 -0.1213419871
C  C5  1  0.33950000  0.86800000  0.00030000  1.0 -0.1096942306
C  C6  1  0.31130000  0.78500000  0.01700000  1.0 0.5433128347
C  C7  1  0.36000000  0.86280000  0.92620000  1.0 0.1046759059
C  C8  1  0.38070000  0.93640000  0.90600000  1.0 0.0938326053
C  C9  1  0.38330000  0.82010000  0.80340000  1.0 0.402535366
C  C10  1  0.39420000  0.76150000  0.72690000  1.0 -0.5393025111
C  C11  1  0.60000000  0.43150000  0.91610000  1.0 0.5315713256
C  C12  1  0.52020000  0.45270000  0.88800000  1.0 -0.1096942306
C  C13  1  0.53600000  0.53250000  0.87730000  1.0 -0.1096942306
C  C14  1  0.46700000  0.55950000  0.85690000  1.0 -0.1274877916
C  C15  1  0.38100000  0.51220000  0.85130000  1.0 -0.0951511356
C  C16  1  0.30480000  0.53900000  0.82990000  1.0 0.5459993352
C  C17  1  0.36400000  0.43210000  0.86350000  1.0 0.1113497212
C  C18  1  0.43020000  0.40070000  0.87850000  1.0 0.0675824155
C  C19  1  0.30510000  0.30360000  0.87570000  1.0 0.3836477269
C  C20  1  0.23950000  0.22850000  0.88440000  1.0 -0.550594058
C  C21  1  0.10650000  0.94630000  0.41090000  1.0 0.5315713256
C  C22  1  0.02170000  0.96170000  0.38520000  1.0 -0.0703379765
C  C23  1  0.02750000  0.03500000  0.36610000  1.0 -0.1213419871
C  C24  1  0.95210000  0.05370000  0.34360000  1.0 -0.1213419871
C  C25  1  0.86800000  0.00030000  0.33950000  1.0 -0.1096942306
C  C26  1  0.78500000  0.01700000  0.31130000  1.0 0.5433128347
C  C27  1  0.86280000  0.92620000  0.36000000  1.0 0.1046759059
C  C28  1  0.93640000  0.90600000  0.38070000  1.0 0.0938326053
C  C29  1  0.82010000  0.80340000  0.38330000  1.0 0.402535366
C  C30  1  0.76150000  0.72690000  0.39420000  1.0 -0.5393025111
C  C31  1  0.43150000  0.91610000  0.60000000  1.0 0.5315713256
C  C32  1  0.45270000  0.88800000  0.52020000  1.0 -0.1096942306
C  C33  1  0.53250000  0.87730000  0.53600000  1.0 -0.1096942306
C  C34  1  0.55950000  0.85690000  0.46700000  1.0 -0.1274877916
C  C35  1  0.51220000  0.85130000  0.38100000  1.0 -0.0951511356
C  C36  1  0.53900000  0.82990000  0.30480000  1.0 0.5459993352
C  C37  1  0.43210000  0.86350000  0.36400000  1.0 0.1113497212
C  C38  1  0.40070000  0.87850000  0.43020000  1.0 0.0675824155
C  C39  1  0.30360000  0.87570000  0.30510000  1.0 0.3836477269
C  C40  1  0.22850000  0.88440000  0.23950000  1.0 -0.550594058
C  C41  1  0.94630000  0.41090000  0.10650000  1.0 0.5315713256
C  C42  1  0.96170000  0.38520000  0.02170000  1.0 -0.0703379765
C  C43  1  0.03500000  0.36610000  0.02750000  1.0 -0.1213419871
C  C44  1  0.05370000  0.34360000  0.95210000  1.0 -0.1213419871
C  C45  1  0.00030000  0.33950000  0.86800000  1.0 -0.1096942306
C  C46  1  0.01700000  0.31130000  0.78500000  1.0 0.5433128347
C  C47  1  0.92620000  0.36000000  0.86280000  1.0 0.1046759059
C  C48  1  0.90600000  0.38070000  0.93640000  1.0 0.0938326053
C  C49  1  0.80340000  0.38330000  0.82010000  1.0 0.402535366
C  C50  1  0.72690000  0.39420000  0.76150000  1.0 -0.5393025111
C  C51  1  0.91610000  0.60000000  0.43150000  1.0 0.5315713256
C  C52  1  0.88800000  0.52020000  0.45270000  1.0 -0.1096942306
C  C53  1  0.87730000  0.53600000  0.53250000  1.0 -0.1096942306
C  C54  1  0.85690000  0.46700000  0.55950000  1.0 -0.1274877916
C  C55  1  0.85130000  0.38100000  0.51220000  1.0 -0.0951511356
C  C56  1  0.82990000  0.30480000  0.53900000  1.0 0.5459993352
C  C57  1  0.86350000  0.36400000  0.43210000  1.0 0.1113497212
C  C58  1  0.87850000  0.43020000  0.40070000  1.0 0.0675824155
C  C59  1  0.87570000  0.30510000  0.30360000  1.0 0.3836477269
C  C60  1  0.88440000  0.23950000  0.22850000  1.0 -0.550594058
C  C61  1  0.58910000  0.89350000  0.05370000  1.0 0.5315713256
C  C62  1  0.61480000  0.97830000  0.03830000  1.0 -0.0703379765
C  C63  1  0.63390000  0.97250000  0.96500000  1.0 -0.1213419871
C  C64  1  0.65640000  0.04790000  0.94630000  1.0 -0.1213419871
C  C65  1  0.66050000  0.13200000  0.99970000  1.0 -0.1096942306
C  C66  1  0.68870000  0.21500000  0.98300000  1.0 0.5433128347
C  C67  1  0.64000000  0.13720000  0.07380000  1.0 0.1113497212
C  C68  1  0.61930000  0.06360000  0.09400000  1.0 0.0938326053
C  C69  1  0.61670000  0.17990000  0.19660000  1.0 0.402535366
C  C70  1  0.60580000  0.23850000  0.27310000  1.0 -0.5393025111
C  C71  1  0.40000000  0.56850000  0.08390000  1.0 0.5315713256
C  C72  1  0.47980000  0.54730000  0.11200000  1.0 -0.1096942306
C  C73  1  0.46400000  0.46750000  0.12270000  1.0 -0.1096942306
C  C74  1  0.53300000  0.44050000  0.14310000  1.0 -0.1274877916
C  C75  1  0.61900000  0.48780000  0.14870000  1.0 -0.0951511356
C  C76  1  0.69520000  0.46100000  0.17010000  1.0 0.5459993352
C  C77  1  0.63600000  0.56790000  0.13650000  1.0 0.1113497212
C  C78  1  0.56980000  0.59930000  0.12150000  1.0 0.0675824155
C  C79  1  0.69490000  0.69640000  0.12430000  1.0 0.3836477269
C  C80  1  0.76050000  0.77150000  0.11560000  1.0 -0.550594058
C  C81  1  0.89350000  0.05370000  0.58910000  1.0 0.5315713256
C  C82  1  0.97830000  0.03830000  0.61480000  1.0 -0.0703379765
C  C83  1  0.97250000  0.96500000  0.63390000  1.0 -0.1213419871
C  C84  1  0.04790000  0.94630000  0.65640000  1.0 -0.1213419871
C  C85  1  0.13200000  0.99970000  0.66050000  1.0 -0.1096942306
C  C86  1  0.21500000  0.98300000  0.68870000  1.0 0.5433128347
C  C87  1  0.13720000  0.07380000  0.64000000  1.0 0.1113497212
C  C88  1  0.06360000  0.09400000  0.61930000  1.0 0.0938326053
C  C89  1  0.17990000  0.19660000  0.61670000  1.0 0.402535366
C  C90  1  0.23850000  0.27310000  0.60580000  1.0 -0.5393025111
C  C91  1  0.56850000  0.08390000  0.40000000  1.0 0.5315713256
C  C92  1  0.54730000  0.11200000  0.47980000  1.0 -0.1096942306
C  C93  1  0.46750000  0.12270000  0.46400000  1.0 -0.1096942306
C  C94  1  0.44050000  0.14310000  0.53300000  1.0 -0.1274877916
C  C95  1  0.48780000  0.14870000  0.61900000  1.0 -0.0951511356
C  C96  1  0.46100000  0.17010000  0.69520000  1.0 0.5459993352
C  C97  1  0.56790000  0.13650000  0.63600000  1.0 0.1113497212
C  C98  1  0.59930000  0.12150000  0.56980000  1.0 0.0675824155
C  C99  1  0.69640000  0.12430000  0.69490000  1.0 0.3836477269
C  C100  1  0.77150000  0.11560000  0.76050000  1.0 -0.550594058
C  C101  1  0.05370000  0.58910000  0.89350000  1.0 0.5315713256
C  C102  1  0.03830000  0.61480000  0.97830000  1.0 -0.0703379765
C  C103  1  0.96500000  0.63390000  0.97250000  1.0 -0.1213419871
C  C104  1  0.94630000  0.65640000  0.04790000  1.0 -0.1213419871
C  C105  1  0.99970000  0.66050000  0.13200000  1.0 -0.1096942306
C  C106  1  0.98300000  0.68870000  0.21500000  1.0 0.5433128347
C  C107  1  0.07380000  0.64000000  0.13720000  1.0 0.1113497212
C  C108  1  0.09400000  0.61930000  0.06360000  1.0 0.0938326053
C  C109  1  0.19660000  0.61670000  0.17990000  1.0 0.402535366
C  C110  1  0.27310000  0.60580000  0.23850000  1.0 -0.5393025111
C  C111  1  0.08390000  0.40000000  0.56850000  1.0 0.5315713256
C  C112  1  0.11200000  0.47980000  0.54730000  1.0 -0.1096942306
C  C113  1  0.12270000  0.46400000  0.46750000  1.0 -0.1096942306
C  C114  1  0.14310000  0.53300000  0.44050000  1.0 -0.1274877916
C  C115  1  0.14870000  0.61900000  0.48780000  1.0 -0.0951511356
C  C116  1  0.17010000  0.69520000  0.46100000  1.0 0.5459993352
C  C117  1  0.13650000  0.63600000  0.56790000  1.0 0.1113497212
C  C118  1  0.12150000  0.56980000  0.59930000  1.0 0.0675824155
C  C119  1  0.12430000  0.69490000  0.69640000  1.0 0.3836477269
C  C120  1  0.11560000  0.76050000  0.77150000  1.0 -0.550594058
N  N1  1  0.39441000  0.90799000  0.82740000  1.0 -0.4444177081
N  N2  1  0.36308000  0.79140000  0.86132000  1.0 -0.3141797761
N  N3  1  0.39026000  0.31862000  0.88442000  1.0 -0.4574424158
N  N4  1  0.28750000  0.36939000  0.86231000  1.0 -0.2803000639
N  N5  1  0.90799000  0.82740000  0.39441000  1.0 -0.4444177081
N  N6  1  0.79140000  0.86132000  0.36308000  1.0 -0.3141797761
N  N7  1  0.31862000  0.88442000  0.39026000  1.0 -0.4574424158
N  N8  1  0.36939000  0.86231000  0.28750000  1.0 -0.2803000639
N  N9  1  0.82740000  0.39441000  0.90799000  1.0 -0.4444177081
N  N10  1  0.86132000  0.36308000  0.79140000  1.0 -0.3141797761
N  N11  1  0.88442000  0.39026000  0.31862000  1.0 -0.4574424158
N  N12  1  0.86231000  0.28750000  0.36939000  1.0 -0.2803000639
N  N13  1  0.60559000  0.09201000  0.17260000  1.0 -0.4444177081
N  N14  1  0.63692000  0.20860000  0.13868000  1.0 -0.3141797761
N  N15  1  0.60974000  0.68138000  0.11558000  1.0 -0.4574424158
N  N16  1  0.71250000  0.63061000  0.13769000  1.0 -0.2803000639
N  N17  1  0.09201000  0.17260000  0.60559000  1.0 -0.4444177081
N  N18  1  0.20860000  0.13868000  0.63692000  1.0 -0.3141797761
N  N19  1  0.68138000  0.11558000  0.60974000  1.0 -0.4574424158
N  N20  1  0.63061000  0.13769000  0.71250000  1.0 -0.2803000639
N  N21  1  0.17260000  0.60559000  0.09201000  1.0 -0.4444177081
N  N22  1  0.13868000  0.63692000  0.20860000  1.0 -0.3141797761
N  N23  1  0.11558000  0.60974000  0.68138000  1.0 -0.4574424158
N  N24  1  0.13769000  0.71250000  0.63061000  1.0 -0.2803000639
O  O1  1  0.45046000  0.10921000  0.89623000  1.0 -0.5185277591
O  O2  1  0.39676000  0.17104000  0.98260000  1.0 -0.5118531615
O  O3  1  0.29059000  0.70397000  0.95074000  1.0 -0.6241462162
O  O4  1  0.30332000  0.79228000  0.08760000  1.0 -0.527683569
O  O5  1  0.58443000  0.35679000  0.92448000  1.0 -0.5393025111
O  O6  1  0.68250000  0.48781000  0.93629000  1.0 -0.4874927233
O  O7  1  0.24046000  0.50691000  0.85073000  1.0 -0.550594058
O  O8  1  0.30553000  0.58953000  0.79214000  1.0 -0.550594058
O  O9  1  0.10921000  0.89623000  0.45046000  1.0 -0.5185277591
O  O10  1  0.17104000  0.98260000  0.39676000  1.0 -0.5118531615
O  O11  1  0.70397000  0.95074000  0.29059000  1.0 -0.6241462162
O  O12  1  0.79228000  0.08760000  0.30332000  1.0 -0.527683569
O  O13  1  0.35679000  0.92448000  0.58443000  1.0 -0.5393025111
O  O14  1  0.48781000  0.93629000  0.68250000  1.0 -0.4874927233
O  O15  1  0.50691000  0.85073000  0.24046000  1.0 -0.550594058
O  O16  1  0.58953000  0.79214000  0.30553000  1.0 -0.550594058
O  O17  1  0.89623000  0.45046000  0.10921000  1.0 -0.5185277591
O  O18  1  0.98260000  0.39676000  0.17104000  1.0 -0.5118531615
O  O19  1  0.95074000  0.29059000  0.70397000  1.0 -0.6241462162
O  O20  1  0.08760000  0.30332000  0.79228000  1.0 -0.527683569
O  O21  1  0.92448000  0.58443000  0.35679000  1.0 -0.5393025111
O  O22  1  0.93629000  0.68250000  0.48781000  1.0 -0.4874927233
O  O23  1  0.85073000  0.24046000  0.50691000  1.0 -0.550594058
O  O24  1  0.79214000  0.30553000  0.58953000  1.0 -0.550594058
O  O25  1  0.54954000  0.89079000  0.10377000  1.0 -0.5185277591
O  O26  1  0.60324000  0.82896000  0.01740000  1.0 -0.5118531615
O  O27  1  0.70941000  0.29603000  0.04926000  1.0 -0.6241462162
O  O28  1  0.69668000  0.20772000  0.91240000  1.0 -0.527683569
O  O29  1  0.41557000  0.64321000  0.07552000  1.0 -0.5393025111
O  O30  1  0.31750000  0.51219000  0.06371000  1.0 -0.4874927233
O  O31  1  0.75954000  0.49309000  0.14927000  1.0 -0.550594058
O  O32  1  0.69447000  0.41047000  0.20786000  1.0 -0.550594058
O  O33  1  0.89079000  0.10377000  0.54954000  1.0 -0.5185277591
O  O34  1  0.82896000  0.01740000  0.60324000  1.0 -0.5118531615
O  O35  1  0.29603000  0.04926000  0.70941000  1.0 -0.6241462162
O  O36  1  0.20772000  0.91240000  0.69668000  1.0 -0.527683569
O  O37  1  0.64321000  0.07552000  0.41557000  1.0 -0.5393025111
O  O38  1  0.51219000  0.06371000  0.31750000  1.0 -0.4874927233
O  O39  1  0.49309000  0.14927000  0.75954000  1.0 -0.550594058
O  O40  1  0.41047000  0.20786000  0.69447000  1.0 -0.550594058
O  O41  1  0.10377000  0.54954000  0.89079000  1.0 -0.5185277591
O  O42  1  0.01740000  0.60324000  0.82896000  1.0 -0.5118531615
O  O43  1  0.04926000  0.70941000  0.29603000  1.0 -0.6241462162
O  O44  1  0.91240000  0.69668000  0.20772000  1.0 -0.527683569
O  O45  1  0.07552000  0.41557000  0.64321000  1.0 -0.5393025111
O  O46  1  0.06371000  0.31750000  0.51219000  1.0 -0.4874927233
O  O47  1  0.14927000  0.75954000  0.49309000  1.0 -0.550594058
O  O48  1  0.20786000  0.69447000  0.41047000  1.0 -0.550594058
