# DDEC6 charges by PACMAN v1.1 (https://github.com/mtap-research/PACMAN-charge/)
data_RIYPAS_ASR_pacman
_symmetry_space_group_name_H-M   'P 1'
_cell_length_a   16.56070000
_cell_length_b   16.56070000
_cell_length_c   16.56070000
_cell_angle_alpha   68.70340000
_cell_angle_beta   68.70340000
_cell_angle_gamma   68.70340000
_symmetry_Int_Tables_number   1
_chemical_formula_structural   CuH5C11(NO2)2
_chemical_formula_sum   'Cu6 H30 C66 N12 O24'
_cell_volume   3800.24489936
_cell_formula_units_Z   6
loop_
 _symmetry_equiv_pos_site_id
 _symmetry_equiv_pos_as_xyz
  1  'x, y, z'
loop_
 _atom_site_type_symbol
 _atom_site_label
 _atom_site_symmetry_multiplicity
 _atom_site_fract_x
 _atom_site_fract_y
 _atom_site_fract_z
 _atom_site_occupancy
 _atom_site_charge
Cu  Cu1  1  0.50599000  0.07560000  0.50599000  1.0 0.8687767222
Cu  Cu2  1  0.07560000  0.50599000  0.50599000  1.0 0.8687767222
Cu  Cu3  1  0.50599000  0.50599000  0.07560000  1.0 0.8687767222
Cu  Cu4  1  0.92440000  0.49401000  0.49401000  1.0 0.8687767222
Cu  Cu5  1  0.49401000  0.92440000  0.49401000  1.0 0.8687767222
Cu  Cu6  1  0.49401000  0.49401000  0.92440000  1.0 0.8687767222
H  H1  1  0.51810000  0.99980000  0.21280000  1.0 0.1189407364
H  H2  1  0.99980000  0.21280000  0.51810000  1.0 0.1189407364
H  H3  1  0.21280000  0.51810000  0.99980000  1.0 0.1189407364
H  H4  1  0.00020000  0.48190000  0.78720000  1.0 0.1189407364
H  H5  1  0.78720000  0.00020000  0.48190000  1.0 0.1189407364
H  H6  1  0.48190000  0.78720000  0.00020000  1.0 0.1189407364
H  H7  1  0.48190000  0.00020000  0.78720000  1.0 0.1189407364
H  H8  1  0.00020000  0.78720000  0.48190000  1.0 0.1189407364
H  H9  1  0.78720000  0.48190000  0.00020000  1.0 0.1189407364
H  H10  1  0.99980000  0.51810000  0.21280000  1.0 0.1189407364
H  H11  1  0.21280000  0.99980000  0.51810000  1.0 0.1189407364
H  H12  1  0.51810000  0.21280000  0.99980000  1.0 0.1189407364
H  H13  1  0.53040000  0.23020000  0.23020000  1.0 0.1448752716
H  H14  1  0.23020000  0.23020000  0.53040000  1.0 0.1448752716
H  H15  1  0.23020000  0.53040000  0.23020000  1.0 0.1448752716
H  H16  1  0.76980000  0.46960000  0.76980000  1.0 0.1448752716
H  H17  1  0.76980000  0.76980000  0.46960000  1.0 0.1448752716
H  H18  1  0.46960000  0.76980000  0.76980000  1.0 0.1448752716
H  H19  1  0.57530000  0.11240000  0.92660000  1.0 0.1189407364
H  H20  1  0.11240000  0.92660000  0.57530000  1.0 0.1189407364
H  H21  1  0.92660000  0.57530000  0.11240000  1.0 0.1189407364
H  H22  1  0.88760000  0.42470000  0.07340000  1.0 0.1189407364
H  H23  1  0.07340000  0.88760000  0.42470000  1.0 0.1189407364
H  H24  1  0.42470000  0.07340000  0.88760000  1.0 0.1189407364
H  H25  1  0.42470000  0.88760000  0.07340000  1.0 0.1189407364
H  H26  1  0.88760000  0.07340000  0.42470000  1.0 0.1189407364
H  H27  1  0.07340000  0.42470000  0.88760000  1.0 0.1189407364
H  H28  1  0.11240000  0.57530000  0.92660000  1.0 0.1189407364
H  H29  1  0.92660000  0.11240000  0.57530000  1.0 0.1189407364
H  H30  1  0.57530000  0.92660000  0.11240000  1.0 0.1189407364
C  C1  1  0.50740000  0.04760000  0.04760000  1.0 0.1134034138
C  C2  1  0.04760000  0.04760000  0.50740000  1.0 0.1134034138
C  C3  1  0.04760000  0.50740000  0.04760000  1.0 0.1189407364
C  C4  1  0.95240000  0.49260000  0.95240000  1.0 0.1189407364
C  C5  1  0.95240000  0.95240000  0.49260000  1.0 0.1134034138
C  C6  1  0.49260000  0.95240000  0.95240000  1.0 0.1134034138
C  C7  1  0.51570000  0.09820000  0.09820000  1.0 0.008302048
C  C8  1  0.09820000  0.09820000  0.51570000  1.0 0.008302048
C  C9  1  0.09820000  0.51570000  0.09820000  1.0 0.008302048
C  C10  1  0.90180000  0.48430000  0.90180000  1.0 0.008302048
C  C11  1  0.90180000  0.90180000  0.48430000  1.0 0.0042576858
C  C12  1  0.48430000  0.90180000  0.90180000  1.0 0.008302048
C  C13  1  0.51884000  0.05974000  0.18644000  1.0 -0.1604706033
C  C14  1  0.05974000  0.18644000  0.51884000  1.0 -0.1604706033
C  C15  1  0.18644000  0.51884000  0.05974000  1.0 -0.1604706033
C  C16  1  0.94026000  0.48116000  0.81356000  1.0 -0.1604706033
C  C17  1  0.81356000  0.94026000  0.48116000  1.0 -0.1604706033
C  C18  1  0.48116000  0.81356000  0.94026000  1.0 -0.1604706033
C  C19  1  0.48116000  0.94026000  0.81356000  1.0 -0.1604706033
C  C20  1  0.94026000  0.81356000  0.48116000  1.0 -0.1604706033
C  C21  1  0.81356000  0.48116000  0.94026000  1.0 -0.1604706033
C  C22  1  0.05974000  0.51884000  0.18644000  1.0 -0.1604706033
C  C23  1  0.18644000  0.05974000  0.51884000  1.0 -0.1604706033
C  C24  1  0.51884000  0.18644000  0.05974000  1.0 -0.1604706033
C  C25  1  0.52337000  0.10897000  0.23687000  1.0 -0.0182079064
C  C26  1  0.10897000  0.23687000  0.52337000  1.0 -0.0182079064
C  C27  1  0.23687000  0.52337000  0.10897000  1.0 -0.0182079064
C  C28  1  0.89103000  0.47663000  0.76313000  1.0 -0.0182079064
C  C29  1  0.76313000  0.89103000  0.47663000  1.0 -0.0182079064
C  C30  1  0.47663000  0.76313000  0.89103000  1.0 -0.0182079064
C  C31  1  0.47663000  0.89103000  0.76313000  1.0 -0.0182079064
C  C32  1  0.89103000  0.76313000  0.47663000  1.0 -0.0182079064
C  C33  1  0.76313000  0.47663000  0.89103000  1.0 -0.0182079064
C  C34  1  0.10897000  0.52337000  0.23687000  1.0 -0.0182079064
C  C35  1  0.23687000  0.10897000  0.52337000  1.0 -0.0182079064
C  C36  1  0.52337000  0.23687000  0.10897000  1.0 -0.0182079064
C  C37  1  0.52630000  0.19730000  0.19730000  1.0 -0.106767425
C  C38  1  0.19730000  0.19730000  0.52630000  1.0 -0.106767425
C  C39  1  0.19730000  0.52630000  0.19730000  1.0 -0.106767425
C  C40  1  0.80270000  0.47370000  0.80270000  1.0 -0.106767425
C  C41  1  0.80270000  0.80270000  0.47370000  1.0 -0.106767425
C  C42  1  0.47370000  0.80270000  0.80270000  1.0 -0.106767425
C  C43  1  0.51868000  0.06758000  0.33458000  1.0 0.5897835974
C  C44  1  0.06758000  0.33458000  0.51868000  1.0 0.5897835974
C  C45  1  0.33458000  0.51868000  0.06758000  1.0 0.5897835974
C  C46  1  0.93242000  0.48132000  0.66542000  1.0 0.5897835974
C  C47  1  0.66542000  0.93242000  0.48132000  1.0 0.5897835974
C  C48  1  0.48132000  0.66542000  0.93242000  1.0 0.5897835974
C  C49  1  0.48132000  0.93242000  0.66542000  1.0 0.5897835974
C  C50  1  0.93242000  0.66542000  0.48132000  1.0 0.5897835974
C  C51  1  0.66542000  0.48132000  0.93242000  1.0 0.5897835974
C  C52  1  0.06758000  0.51868000  0.33458000  1.0 0.5897835974
C  C53  1  0.33458000  0.06758000  0.51868000  1.0 0.5897835974
C  C54  1  0.51868000  0.33458000  0.06758000  1.0 0.5897835974
C  C55  1  0.54390000  0.06860000  0.95530000  1.0 0.0281168626
C  C56  1  0.06860000  0.95530000  0.54390000  1.0 0.0281168626
C  C57  1  0.95530000  0.54390000  0.06860000  1.0 0.0353347718
C  C58  1  0.93140000  0.45610000  0.04470000  1.0 0.0281168626
C  C59  1  0.04470000  0.93140000  0.45610000  1.0 0.0281168626
C  C60  1  0.45610000  0.04470000  0.93140000  1.0 0.0281168626
C  C61  1  0.45610000  0.93140000  0.04470000  1.0 0.0281168626
C  C62  1  0.93140000  0.04470000  0.45610000  1.0 0.024648409
C  C63  1  0.04470000  0.45610000  0.93140000  1.0 0.0281168626
C  C64  1  0.06860000  0.54390000  0.95530000  1.0 0.0281168626
C  C65  1  0.95530000  0.06860000  0.54390000  1.0 0.024648409
C  C66  1  0.54390000  0.95530000  0.06860000  1.0 0.024648409
N  N1  1  0.46790000  0.09250000  0.97740000  1.0 -0.1604706033
N  N2  1  0.09250000  0.97740000  0.46790000  1.0 -0.1518757905
N  N3  1  0.97740000  0.46790000  0.09250000  1.0 -0.1518757905
N  N4  1  0.90750000  0.53210000  0.02260000  1.0 -0.1604706033
N  N5  1  0.02260000  0.90750000  0.53210000  1.0 -0.1604706033
N  N6  1  0.53210000  0.02260000  0.90750000  1.0 -0.1604706033
N  N7  1  0.53210000  0.90750000  0.02260000  1.0 -0.1604706033
N  N8  1  0.90750000  0.02260000  0.53210000  1.0 -0.1372182832
N  N9  1  0.02260000  0.53210000  0.90750000  1.0 -0.1518757905
N  N10  1  0.09250000  0.46790000  0.97740000  1.0 -0.1604706033
N  N11  1  0.97740000  0.09250000  0.46790000  1.0 -0.1604706033
N  N12  1  0.46790000  0.97740000  0.09250000  1.0 -0.134310262
O  O1  1  0.52163000  0.11583000  0.37653000  1.0 -0.5143317745
O  O2  1  0.11583000  0.37653000  0.52163000  1.0 -0.5143317745
O  O3  1  0.37653000  0.52163000  0.11583000  1.0 -0.5143317745
O  O4  1  0.88417000  0.47837000  0.62347000  1.0 -0.5143317745
O  O5  1  0.62347000  0.88417000  0.47837000  1.0 -0.5209699847
O  O6  1  0.47837000  0.62347000  0.88417000  1.0 -0.5143317745
O  O7  1  0.47837000  0.88417000  0.62347000  1.0 -0.5209699847
O  O8  1  0.88417000  0.62347000  0.47837000  1.0 -0.5209699847
O  O9  1  0.62347000  0.47837000  0.88417000  1.0 -0.5209699847
O  O10  1  0.11583000  0.52163000  0.37653000  1.0 -0.5143317745
O  O11  1  0.37653000  0.11583000  0.52163000  1.0 -0.5143317745
O  O12  1  0.52163000  0.37653000  0.11583000  1.0 -0.5143317745
O  O13  1  0.51278000  0.98778000  0.36658000  1.0 -0.5209699847
O  O14  1  0.98778000  0.36658000  0.51278000  1.0 -0.5209699847
O  O15  1  0.36658000  0.51278000  0.98778000  1.0 -0.5209699847
O  O16  1  0.01222000  0.48722000  0.63342000  1.0 -0.5209699847
O  O17  1  0.63342000  0.01222000  0.48722000  1.0 -0.5209699847
O  O18  1  0.48722000  0.63342000  0.01222000  1.0 -0.5209699847
O  O19  1  0.48722000  0.01222000  0.63342000  1.0 -0.5209699847
O  O20  1  0.01222000  0.63342000  0.48722000  1.0 -0.5209699847
O  O21  1  0.63342000  0.48722000  0.01222000  1.0 -0.5209699847
O  O22  1  0.98778000  0.51278000  0.36658000  1.0 -0.5209699847
O  O23  1  0.36658000  0.98778000  0.51278000  1.0 -0.5209699847
O  O24  1  0.51278000  0.36658000  0.98778000  1.0 -0.5209699847
