# DDEC6 charges by PACMAN v1.1 (https://github.com/mtap-research/PACMAN-charge/)
data_RIYWED_FSR_pacman
_symmetry_space_group_name_H-M   'P 1'
_cell_length_a   6.95340000
_cell_length_b   22.63800000
_cell_length_c   23.11200000
_cell_angle_alpha   90.00000000
_cell_angle_beta   90.00000000
_cell_angle_gamma   90.00000000
_symmetry_Int_Tables_number   1
_chemical_formula_structural   Ca2P3H21C24O23
_chemical_formula_sum   'Ca8 P12 H84 C96 O92'
_cell_volume   3638.08463135
_cell_formula_units_Z   4
loop_
 _symmetry_equiv_pos_site_id
 _symmetry_equiv_pos_as_xyz
  1  'x, y, z'
loop_
 _atom_site_type_symbol
 _atom_site_label
 _atom_site_symmetry_multiplicity
 _atom_site_fract_x
 _atom_site_fract_y
 _atom_site_fract_z
 _atom_site_occupancy
 _atom_site_charge
Ca  Ca1  1  0.93570000  0.50113000  0.46847000  1.0 1.4355969644
Ca  Ca2  1  0.06430000  0.00113000  0.53153000  1.0 1.4355969644
Ca  Ca3  1  0.06430000  0.50113000  0.96847000  1.0 1.4355969644
Ca  Ca4  1  0.93570000  0.00113000  0.03153000  1.0 1.4355969644
Ca  Ca5  1  0.56320000  0.99093000  0.45707000  1.0 1.433721385
Ca  Ca6  1  0.43680000  0.49093000  0.54293000  1.0 1.433721385
Ca  Ca7  1  0.43680000  0.99093000  0.95707000  1.0 1.433721385
Ca  Ca8  1  0.56320000  0.49093000  0.04293000  1.0 1.433721385
P  P1  1  0.43750000  0.52588000  0.41484000  1.0 1.2719042218
P  P2  1  0.56250000  0.02588000  0.58516000  1.0 1.2719042218
P  P3  1  0.56250000  0.52588000  0.91484000  1.0 1.2719042218
P  P4  1  0.43750000  0.02588000  0.08516000  1.0 1.2719042218
P  P5  1  0.91840000  0.34265000  0.46557000  1.0 1.2817813074
P  P6  1  0.08160000  0.84265000  0.53443000  1.0 1.2817813074
P  P7  1  0.08160000  0.34265000  0.96557000  1.0 1.2817813074
P  P8  1  0.91840000  0.84265000  0.03443000  1.0 1.2817813074
P  P9  1  0.06400000  0.96294000  0.40479000  1.0 1.2817813074
P  P10  1  0.93600000  0.46294000  0.59521000  1.0 1.2817813074
P  P11  1  0.93600000  0.96294000  0.90479000  1.0 1.2817813074
P  P12  1  0.06400000  0.46294000  0.09521000  1.0 1.2817813074
H  H1  1  0.33220000  0.60080000  0.38030000  1.0 0.3899570636
H  H2  1  0.66780000  0.10080000  0.61970000  1.0 0.3899570636
H  H3  1  0.66780000  0.60080000  0.88030000  1.0 0.3899570636
H  H4  1  0.33220000  0.10080000  0.11970000  1.0 0.3899570636
H  H5  1  0.26150000  0.26690000  0.34660000  1.0 0.3624423585
H  H6  1  0.73850000  0.76690000  0.65340000  1.0 0.3624423585
H  H7  1  0.73850000  0.26690000  0.84660000  1.0 0.3624423585
H  H8  1  0.26150000  0.76690000  0.15340000  1.0 0.3624423585
H  H9  1  0.02530000  0.62350000  0.49370000  1.0 0.3899570636
H  H10  1  0.97470000  0.12350000  0.50630000  1.0 0.3899570636
H  H11  1  0.97470000  0.62350000  0.99370000  1.0 0.402140007
H  H12  1  0.02530000  0.12350000  0.00630000  1.0 0.3899570636
H  H13  1  0.81910000  0.61920000  0.48570000  1.0 0.402140007
H  H14  1  0.18090000  0.11920000  0.51430000  1.0 0.402140007
H  H15  1  0.18090000  0.61920000  0.98570000  1.0 0.402140007
H  H16  1  0.81910000  0.11920000  0.01430000  1.0 0.402140007
H  H17  1  0.47550000  0.86970000  0.45810000  1.0 0.4096288001
H  H18  1  0.52450000  0.36970000  0.54190000  1.0 0.4096288001
H  H19  1  0.52450000  0.86970000  0.95810000  1.0 0.4096288001
H  H20  1  0.47550000  0.36970000  0.04190000  1.0 0.4096288001
H  H21  1  0.61430000  0.87720000  0.50710000  1.0 0.3899570636
H  H22  1  0.38570000  0.37720000  0.49290000  1.0 0.3899570636
H  H23  1  0.38570000  0.87720000  0.00710000  1.0 0.3899570636
H  H24  1  0.61430000  0.37720000  0.99290000  1.0 0.3899570636
H  H25  1  0.59490000  0.56940000  0.15690000  1.0 0.3679488665
H  H26  1  0.40510000  0.06940000  0.84310000  1.0 0.3679488665
H  H27  1  0.40510000  0.56940000  0.65690000  1.0 0.3679488665
H  H28  1  0.59490000  0.06940000  0.34310000  1.0 0.3679488665
H  H29  1  0.15150000  0.29190000  0.47630000  1.0 0.379669766
H  H30  1  0.84850000  0.79190000  0.52370000  1.0 0.379669766
H  H31  1  0.84850000  0.29190000  0.97630000  1.0 0.379669766
H  H32  1  0.15150000  0.79190000  0.02370000  1.0 0.379669766
H  H33  1  0.81130000  0.30060000  0.20310000  1.0 0.3899570636
H  H34  1  0.18870000  0.80060000  0.79690000  1.0 0.3899570636
H  H35  1  0.18870000  0.30060000  0.70310000  1.0 0.3899570636
H  H36  1  0.81130000  0.80060000  0.29690000  1.0 0.3899570636
H  H37  1  0.12030000  0.87600000  0.41000000  1.0 0.3899570636
H  H38  1  0.87970000  0.37600000  0.59000000  1.0 0.3899570636
H  H39  1  0.87970000  0.87600000  0.91000000  1.0 0.3899570636
H  H40  1  0.12030000  0.37600000  0.09000000  1.0 0.3899570636
H  H41  1  0.15600000  0.22620000  0.24950000  1.0 0.3679488665
H  H42  1  0.84400000  0.72620000  0.75050000  1.0 0.3679488665
H  H43  1  0.84400000  0.22620000  0.74950000  1.0 0.3679488665
H  H44  1  0.15600000  0.72620000  0.25050000  1.0 0.3679488665
H  H45  1  0.91600000  0.92130000  0.14160000  1.0 0.379669766
H  H46  1  0.08400000  0.42130000  0.85840000  1.0 0.379669766
H  H47  1  0.08400000  0.92130000  0.64160000  1.0 0.379669766
H  H48  1  0.91600000  0.42130000  0.35840000  1.0 0.379669766
H  H49  1  0.35500000  0.40380000  0.38730000  1.0 0.1216993379
H  H50  1  0.64500000  0.90380000  0.61270000  1.0 0.1216993379
H  H51  1  0.64500000  0.40380000  0.88730000  1.0 0.1216993379
H  H52  1  0.35500000  0.90380000  0.11270000  1.0 0.1216993379
H  H53  1  0.45090000  0.39060000  0.21410000  1.0 0.1216993379
H  H54  1  0.54910000  0.89060000  0.78590000  1.0 0.1216993379
H  H55  1  0.54910000  0.39060000  0.71410000  1.0 0.1216993379
H  H56  1  0.45090000  0.89060000  0.28590000  1.0 0.1216993379
H  H57  1  0.53260000  0.54660000  0.29640000  1.0 0.1216993379
H  H58  1  0.46740000  0.04660000  0.70360000  1.0 0.1216993379
H  H59  1  0.46740000  0.54660000  0.79640000  1.0 0.1216993379
H  H60  1  0.53260000  0.04660000  0.20360000  1.0 0.1216993379
H  H61  1  0.72950000  0.23280000  0.48510000  1.0 0.1133279754
H  H62  1  0.27050000  0.73280000  0.51490000  1.0 0.1133279754
H  H63  1  0.27050000  0.23280000  0.98510000  1.0 0.1133279754
H  H64  1  0.72950000  0.73280000  0.01490000  1.0 0.1133279754
H  H65  1  0.62650000  0.16310000  0.32750000  1.0 0.1216993379
H  H66  1  0.37350000  0.66310000  0.67250000  1.0 0.1216993379
H  H67  1  0.37350000  0.16310000  0.82750000  1.0 0.1216993379
H  H68  1  0.62650000  0.66310000  0.17250000  1.0 0.1216993379
H  H69  1  0.87740000  0.32490000  0.34230000  1.0 0.1216993379
H  H70  1  0.12260000  0.82490000  0.65770000  1.0 0.1216993379
H  H71  1  0.12260000  0.32490000  0.84230000  1.0 0.1216993379
H  H72  1  0.87740000  0.82490000  0.15770000  1.0 0.1216993379
H  H73  1  0.12760000  0.08180000  0.37760000  1.0 0.1265183391
H  H74  1  0.87240000  0.58180000  0.62240000  1.0 0.1265183391
H  H75  1  0.87240000  0.08180000  0.87760000  1.0 0.1265183391
H  H76  1  0.12760000  0.58180000  0.12240000  1.0 0.1265183391
H  H77  1  0.04600000  0.09870000  0.20540000  1.0 0.1216993379
H  H78  1  0.95400000  0.59870000  0.79460000  1.0 0.1216993379
H  H79  1  0.95400000  0.09870000  0.70540000  1.0 0.1216993379
H  H80  1  0.04600000  0.59870000  0.29460000  1.0 0.1216993379
H  H81  1  0.97950000  0.93930000  0.28340000  1.0 0.1265183391
H  H82  1  0.02050000  0.43930000  0.71660000  1.0 0.1216993379
H  H83  1  0.02050000  0.93930000  0.78340000  1.0 0.1265183391
H  H84  1  0.97950000  0.43930000  0.21660000  1.0 0.1265183391
C  C1  1  0.44020000  0.48130000  0.34970000  1.0 -0.1902872507
C  C2  1  0.55980000  0.98130000  0.65030000  1.0 -0.1902872507
C  C3  1  0.55980000  0.48130000  0.84970000  1.0 -0.1902872507
C  C4  1  0.44020000  0.98130000  0.15030000  1.0 -0.1902872507
C  C5  1  0.39210000  0.42140000  0.35180000  1.0 -0.0790058519
C  C6  1  0.60790000  0.92140000  0.64820000  1.0 -0.0790058519
C  C7  1  0.60790000  0.42140000  0.85180000  1.0 -0.0695488581
C  C8  1  0.39210000  0.92140000  0.14820000  1.0 -0.0790058519
C  C9  1  0.39870000  0.38750000  0.30100000  1.0 -0.0286326806
C  C10  1  0.60130000  0.88750000  0.69900000  1.0 -0.0286326806
C  C11  1  0.60130000  0.38750000  0.80100000  1.0 -0.0286326806
C  C12  1  0.39870000  0.88750000  0.19900000  1.0 -0.0286326806
C  C13  1  0.33800000  0.32420000  0.30050000  1.0 0.5601664102
C  C14  1  0.66200000  0.82420000  0.69950000  1.0 0.5601664102
C  C15  1  0.66200000  0.32420000  0.80050000  1.0 0.5601664102
C  C16  1  0.33800000  0.82420000  0.19950000  1.0 0.5601664102
C  C17  1  0.45000000  0.41360000  0.24850000  1.0 -0.0790058519
C  C18  1  0.55000000  0.91360000  0.75150000  1.0 -0.0790058519
C  C19  1  0.55000000  0.41360000  0.74850000  1.0 -0.0790058519
C  C20  1  0.45000000  0.91360000  0.25150000  1.0 -0.0790058519
C  C21  1  0.49980000  0.47290000  0.24620000  1.0 -0.0496054002
C  C22  1  0.50020000  0.97290000  0.75380000  1.0 -0.0496054002
C  C23  1  0.50020000  0.47290000  0.74620000  1.0 -0.0496054002
C  C24  1  0.49980000  0.97290000  0.25380000  1.0 -0.0496054002
C  C25  1  0.55170000  0.49890000  0.18960000  1.0 0.5698161116
C  C26  1  0.44830000  0.99890000  0.81040000  1.0 0.5698161116
C  C27  1  0.44830000  0.49890000  0.68960000  1.0 0.5698161116
C  C28  1  0.55170000  0.99890000  0.31040000  1.0 0.5698161116
C  C29  1  0.49600000  0.50620000  0.29750000  1.0 -0.0888475083
C  C30  1  0.50400000  0.00620000  0.70250000  1.0 -0.0888475083
C  C31  1  0.50400000  0.50620000  0.79750000  1.0 -0.0888475083
C  C32  1  0.49600000  0.00620000  0.20250000  1.0 -0.0888475083
C  C33  1  0.81900000  0.28580000  0.41930000  1.0 -0.1902872507
C  C34  1  0.18100000  0.78580000  0.58070000  1.0 -0.1902872507
C  C35  1  0.18100000  0.28580000  0.91930000  1.0 -0.1902872507
C  C36  1  0.81900000  0.78580000  0.08070000  1.0 -0.1902872507
C  C37  1  0.73600000  0.23600000  0.44410000  1.0 -0.1020279834
C  C38  1  0.26400000  0.73600000  0.55590000  1.0 -0.1020279834
C  C39  1  0.26400000  0.23600000  0.94410000  1.0 -0.1020279834
C  C40  1  0.73600000  0.73600000  0.05590000  1.0 -0.1020279834
C  C41  1  0.66300000  0.19150000  0.41040000  1.0 -0.014374843
C  C42  1  0.33700000  0.69150000  0.58960000  1.0 -0.014374843
C  C43  1  0.33700000  0.19150000  0.91040000  1.0 -0.014374843
C  C44  1  0.66300000  0.69150000  0.08960000  1.0 -0.014374843
C  C45  1  0.56900000  0.13840000  0.44160000  1.0 0.5801853305
C  C46  1  0.43100000  0.63840000  0.55840000  1.0 0.5801853305
C  C47  1  0.43100000  0.13840000  0.94160000  1.0 0.5801853305
C  C48  1  0.56900000  0.63840000  0.05840000  1.0 0.5801853305
C  C49  1  0.67290000  0.19460000  0.35080000  1.0 -0.0790058519
C  C50  1  0.32710000  0.69460000  0.64920000  1.0 -0.0790058519
C  C51  1  0.32710000  0.19460000  0.85080000  1.0 -0.0790058519
C  C52  1  0.67290000  0.69460000  0.14920000  1.0 -0.0790058519
C  C53  1  0.75600000  0.24680000  0.32450000  1.0 -0.0286326806
C  C54  1  0.24400000  0.74680000  0.67550000  1.0 -0.0286326806
C  C55  1  0.24400000  0.24680000  0.82450000  1.0 -0.0286326806
C  C56  1  0.75600000  0.74680000  0.17550000  1.0 -0.0286326806
C  C57  1  0.74800000  0.24980000  0.25960000  1.0 0.5465032375
C  C58  1  0.25200000  0.74980000  0.74040000  1.0 0.5465032375
C  C59  1  0.25200000  0.24980000  0.75960000  1.0 0.5465032375
C  C60  1  0.74800000  0.74980000  0.24040000  1.0 0.5465032375
C  C61  1  0.82500000  0.29030000  0.35940000  1.0 -0.0888475083
C  C62  1  0.17500000  0.79030000  0.64060000  1.0 -0.0888475083
C  C63  1  0.17500000  0.29030000  0.85940000  1.0 -0.0888475083
C  C64  1  0.82500000  0.79030000  0.14060000  1.0 -0.0888475083
C  C65  1  0.05410000  0.00470000  0.33930000  1.0 -0.1842152709
C  C66  1  0.94590000  0.50470000  0.66070000  1.0 -0.1842152709
C  C67  1  0.94590000  0.00470000  0.83930000  1.0 -0.1902872507
C  C68  1  0.05410000  0.50470000  0.16070000  1.0 -0.1842152709
C  C69  1  0.09810000  0.06450000  0.34120000  1.0 -0.0598884672
C  C70  1  0.90190000  0.56450000  0.65880000  1.0 -0.0598884672
C  C71  1  0.90190000  0.06450000  0.84120000  1.0 -0.0598884672
C  C72  1  0.09810000  0.56450000  0.15880000  1.0 -0.0598884672
C  C73  1  0.10100000  0.10010000  0.29200000  1.0 -0.0238381
C  C74  1  0.89900000  0.60010000  0.70800000  1.0 -0.0238381
C  C75  1  0.89900000  0.10010000  0.79200000  1.0 -0.0238381
C  C76  1  0.10100000  0.60010000  0.20800000  1.0 -0.0238381
C  C77  1  0.16600000  0.16320000  0.29540000  1.0 0.5698161116
C  C78  1  0.83400000  0.66320000  0.70460000  1.0 0.5698161116
C  C79  1  0.83400000  0.16320000  0.79540000  1.0 0.5698161116
C  C80  1  0.16600000  0.66320000  0.20460000  1.0 0.5698161116
C  C81  1  0.04890000  0.07490000  0.23930000  1.0 -0.0888475083
C  C82  1  0.95110000  0.57490000  0.76070000  1.0 -0.0888475083
C  C83  1  0.95110000  0.07490000  0.73930000  1.0 -0.0888475083
C  C84  1  0.04890000  0.57490000  0.26070000  1.0 -0.0888475083
C  C85  1  0.00080000  0.01480000  0.23560000  1.0 -0.0598884672
C  C86  1  0.99920000  0.51480000  0.76440000  1.0 -0.0598884672
C  C87  1  0.99920000  0.01480000  0.73560000  1.0 -0.0598884672
C  C88  1  0.00080000  0.51480000  0.26440000  1.0 -0.0598884672
C  C89  1  0.95730000  0.99130000  0.17790000  1.0 0.5601664102
C  C90  1  0.04270000  0.49130000  0.82210000  1.0 0.5601664102
C  C91  1  0.04270000  0.99130000  0.67790000  1.0 0.5601664102
C  C92  1  0.95730000  0.49130000  0.32210000  1.0 0.5601664102
C  C93  1  0.00750000  0.98030000  0.28590000  1.0 -0.0695488581
C  C94  1  0.99250000  0.48030000  0.71410000  1.0 -0.0695488581
C  C95  1  0.99250000  0.98030000  0.78590000  1.0 -0.0695488581
C  C96  1  0.00750000  0.48030000  0.21410000  1.0 -0.0695488581
O  O1  1  0.61190000  0.51480000  0.45130000  1.0 -0.8297045166
O  O2  1  0.38810000  0.01480000  0.54870000  1.0 -0.8297045166
O  O3  1  0.38810000  0.51480000  0.95130000  1.0 -0.8297045166
O  O4  1  0.61190000  0.01480000  0.04870000  1.0 -0.8297045166
O  O5  1  0.25860000  0.51350000  0.45080000  1.0 -0.8716911757
O  O6  1  0.74140000  0.01350000  0.54920000  1.0 -0.8716911757
O  O7  1  0.74140000  0.51350000  0.95080000  1.0 -0.8716911757
O  O8  1  0.25860000  0.01350000  0.04920000  1.0 -0.8716911757
O  O9  1  0.44290000  0.59080000  0.39110000  1.0 -0.5712842131
O  O10  1  0.55710000  0.09080000  0.60890000  1.0 -0.5712842131
O  O11  1  0.55710000  0.59080000  0.89110000  1.0 -0.5712842131
O  O12  1  0.44290000  0.09080000  0.10890000  1.0 -0.5712842131
O  O13  1  0.30270000  0.30160000  0.35070000  1.0 -0.4560100222
O  O14  1  0.69730000  0.80160000  0.64930000  1.0 -0.4533568883
O  O15  1  0.69730000  0.30160000  0.85070000  1.0 -0.4533568883
O  O16  1  0.30270000  0.80160000  0.14930000  1.0 -0.4560100222
O  O17  1  0.31790000  0.29680000  0.25300000  1.0 -0.5500147873
O  O18  1  0.68210000  0.79680000  0.74700000  1.0 -0.5500147873
O  O19  1  0.68210000  0.29680000  0.75300000  1.0 -0.5500147873
O  O20  1  0.31790000  0.79680000  0.24700000  1.0 -0.5500147873
O  O21  1  0.91950000  0.60040000  0.49870000  1.0 -0.753147372
O  O22  1  0.08050000  0.10040000  0.50130000  1.0 -0.753147372
O  O23  1  0.08050000  0.60040000  0.99870000  1.0 -0.753147372
O  O24  1  0.91950000  0.10040000  0.00130000  1.0 -0.753147372
O  O25  1  0.55460000  0.89010000  0.47770000  1.0 -0.7714570695
O  O26  1  0.44540000  0.39010000  0.52230000  1.0 -0.7714570695
O  O27  1  0.44540000  0.89010000  0.97770000  1.0 -0.7714570695
O  O28  1  0.55460000  0.39010000  0.02230000  1.0 -0.7714570695
O  O29  1  0.58170000  0.55680000  0.19080000  1.0 -0.4533568883
O  O30  1  0.41830000  0.05680000  0.80920000  1.0 -0.4533568883
O  O31  1  0.41830000  0.55680000  0.69080000  1.0 -0.4533568883
O  O32  1  0.58170000  0.05680000  0.30920000  1.0 -0.4533568883
O  O33  1  0.56150000  0.46930000  0.14510000  1.0 -0.5500147873
O  O34  1  0.43850000  0.96930000  0.85490000  1.0 -0.5500147873
O  O35  1  0.43850000  0.46930000  0.64510000  1.0 -0.5500147873
O  O36  1  0.56150000  0.96930000  0.35490000  1.0 -0.5500147873
O  O37  1  0.91360000  0.40160000  0.43410000  1.0 -0.7887002462
O  O38  1  0.08640000  0.90160000  0.56590000  1.0 -0.7887002462
O  O39  1  0.08640000  0.40160000  0.93410000  1.0 -0.7887002462
O  O40  1  0.91360000  0.90160000  0.06590000  1.0 -0.7887002462
O  O41  1  0.81090000  0.33990000  0.52340000  1.0 -0.753147372
O  O42  1  0.18910000  0.83990000  0.47660000  1.0 -0.753147372
O  O43  1  0.18910000  0.33990000  0.02340000  1.0 -0.753147372
O  O44  1  0.81090000  0.83990000  0.97660000  1.0 -0.753147372
O  O45  1  0.13610000  0.32870000  0.47400000  1.0 -0.590651627
O  O46  1  0.86390000  0.82870000  0.52600000  1.0 -0.590651627
O  O47  1  0.86390000  0.32870000  0.97400000  1.0 -0.590651627
O  O48  1  0.13610000  0.82870000  0.02600000  1.0 -0.590651627
O  O49  1  0.58660000  0.08700000  0.41610000  1.0 -0.6634882474
O  O50  1  0.41340000  0.58700000  0.58390000  1.0 -0.6634882474
O  O51  1  0.41340000  0.08700000  0.91610000  1.0 -0.6634882474
O  O52  1  0.58660000  0.58700000  0.08390000  1.0 -0.6634882474
O  O53  1  0.46280000  0.14660000  0.48230000  1.0 -0.5144180441
O  O54  1  0.53720000  0.64660000  0.51770000  1.0 -0.515014925
O  O55  1  0.53720000  0.14660000  0.98230000  1.0 -0.515014925
O  O56  1  0.46280000  0.64660000  0.01770000  1.0 -0.515014925
O  O57  1  0.81890000  0.30030000  0.23940000  1.0 -0.4533568883
O  O58  1  0.18110000  0.80030000  0.76060000  1.0 -0.4533568883
O  O59  1  0.18110000  0.30030000  0.73940000  1.0 -0.4533568883
O  O60  1  0.81890000  0.80030000  0.26060000  1.0 -0.4533568883
O  O61  1  0.68520000  0.20910000  0.23010000  1.0 -0.4860311532
O  O62  1  0.31480000  0.70910000  0.76990000  1.0 -0.4860311532
O  O63  1  0.31480000  0.20910000  0.73010000  1.0 -0.4860311532
O  O64  1  0.68520000  0.70910000  0.26990000  1.0 -0.4860311532
O  O65  1  0.23460000  0.98090000  0.44000000  1.0 -0.8407349894
O  O66  1  0.76540000  0.48090000  0.56000000  1.0 -0.8407349894
O  O67  1  0.76540000  0.98090000  0.94000000  1.0 -0.8407349894
O  O68  1  0.23460000  0.48090000  0.06000000  1.0 -0.8407349894
O  O69  1  0.88390000  0.97320000  0.44150000  1.0 -0.8407349894
O  O70  1  0.11610000  0.47320000  0.55850000  1.0 -0.8407349894
O  O71  1  0.11610000  0.97320000  0.94150000  1.0 -0.8407349894
O  O72  1  0.88390000  0.47320000  0.05850000  1.0 -0.8407349894
O  O73  1  0.07740000  0.89740000  0.38320000  1.0 -0.5954996729
O  O74  1  0.92260000  0.39740000  0.61680000  1.0 -0.590651627
O  O75  1  0.92260000  0.89740000  0.88320000  1.0 -0.590651627
O  O76  1  0.07740000  0.39740000  0.11680000  1.0 -0.590651627
O  O77  1  0.17320000  0.18980000  0.24500000  1.0 -0.4698315346
O  O78  1  0.82680000  0.68980000  0.75500000  1.0 -0.4698315346
O  O79  1  0.82680000  0.18980000  0.74500000  1.0 -0.4698315346
O  O80  1  0.17320000  0.68980000  0.25500000  1.0 -0.4698315346
O  O81  1  0.20570000  0.18640000  0.34210000  1.0 -0.5031917328
O  O82  1  0.79430000  0.68640000  0.65790000  1.0 -0.5031917328
O  O83  1  0.79430000  0.18640000  0.84210000  1.0 -0.5031917328
O  O84  1  0.20570000  0.68640000  0.15790000  1.0 -0.5031917328
O  O85  1  0.92610000  0.93230000  0.17620000  1.0 -0.4698315346
O  O86  1  0.07390000  0.43230000  0.82380000  1.0 -0.4698315346
O  O87  1  0.07390000  0.93230000  0.67620000  1.0 -0.4698315346
O  O88  1  0.92610000  0.43230000  0.32380000  1.0 -0.4698315346
O  O89  1  0.95080000  0.02140000  0.13460000  1.0 -0.5333492094
O  O90  1  0.04920000  0.52140000  0.86540000  1.0 -0.5333492094
O  O91  1  0.04920000  0.02140000  0.63460000  1.0 -0.5333492094
O  O92  1  0.95080000  0.52140000  0.36540000  1.0 -0.5333492094
