# DDEC6 charges by PACMAN v1.1 (https://github.com/mtap-research/PACMAN-charge/)
data_RIYWIH_ASR_pacman
_symmetry_space_group_name_H-M   'P 1'
_cell_length_a   22.41650000
_cell_length_b   6.97311000
_cell_length_c   23.06520000
_cell_angle_alpha   90.00000000
_cell_angle_beta   91.54000000
_cell_angle_gamma   90.00000000
_symmetry_Int_Tables_number   1
_chemical_formula_structural   Ca2P3(C8O7)3
_chemical_formula_sum   'Ca8 P12 C96 O84'
_cell_volume   3604.08191496
_cell_formula_units_Z   4
loop_
 _symmetry_equiv_pos_site_id
 _symmetry_equiv_pos_as_xyz
  1  'x, y, z'
loop_
 _atom_site_type_symbol
 _atom_site_label
 _atom_site_symmetry_multiplicity
 _atom_site_fract_x
 _atom_site_fract_y
 _atom_site_fract_z
 _atom_site_occupancy
 _atom_site_charge
Ca  Ca1  1  0.99310000  0.95240000  0.46750000  1.0 1.4876120063
Ca  Ca2  1  0.99310000  0.04760000  0.96750000  1.0 1.4876120063
Ca  Ca3  1  0.96860000  0.46620000  0.54140000  1.0 1.4876120063
Ca  Ca4  1  0.96860000  0.53380000  0.04140000  1.0 1.4876120063
Ca  Ca5  1  0.49090000  0.08080000  0.54293000  1.0 1.4704000029
Ca  Ca6  1  0.49090000  0.91920000  0.04293000  1.0 1.4704000029
Ca  Ca7  1  0.47180000  0.59120000  0.46490000  1.0 1.4704000029
Ca  Ca8  1  0.47180000  0.40880000  0.96490000  1.0 1.4704000029
P  P1  1  0.95750000  0.97380000  0.59140000  1.0 1.3203369054
P  P2  1  0.95750000  0.02620000  0.09140000  1.0 1.3203369054
P  P3  1  0.01320000  0.44780000  0.41850000  1.0 1.3447072479
P  P4  1  0.01320000  0.55220000  0.91850000  1.0 1.3447072479
P  P5  1  0.63670000  0.59190000  0.46270000  1.0 1.2847702476
P  P6  1  0.63670000  0.40810000  0.96270000  1.0 1.2868375751
P  P7  1  0.44570000  0.07930000  0.41770000  1.0 1.3203369054
P  P8  1  0.44570000  0.92070000  0.91770000  1.0 1.3203369054
P  P9  1  0.50610000  0.57600000  0.60090000  1.0 1.3303419324
P  P10  1  0.50610000  0.42400000  0.10090000  1.0 1.3303419324
P  P11  1  0.15000000  0.54620000  0.52110000  1.0 1.2868375751
P  P12  1  0.15000000  0.45380000  0.02110000  1.0 1.2868375751
C  C1  1  0.99620000  0.97100000  0.66100000  1.0 -0.273433092
C  C2  1  0.99620000  0.02900000  0.16100000  1.0 -0.273433092
C  C3  1  0.96580000  0.97800000  0.71270000  1.0 0.1713594339
C  C4  1  0.96580000  0.02200000  0.21270000  1.0 0.1713594339
C  C5  1  0.99820000  0.99600000  0.76490000  1.0 -0.1254220483
C  C6  1  0.99820000  0.00400000  0.26490000  1.0 -0.1254220483
C  C7  1  0.06100000  0.99400000  0.76530000  1.0 0.1759667071
C  C8  1  0.06100000  0.00600000  0.26530000  1.0 0.1759667071
C  C9  1  0.08880000  0.92500000  0.71580000  1.0 -0.102931389
C  C10  1  0.08880000  0.07500000  0.21580000  1.0 -0.102931389
C  C11  1  0.05840000  0.94900000  0.66210000  1.0 0.2103437046
C  C12  1  0.05840000  0.05100000  0.16210000  1.0 0.2103437046
C  C13  1  0.96960000  0.04300000  0.82210000  1.0 0.6081497642
C  C14  1  0.96960000  0.95700000  0.32210000  1.0 0.6081497642
C  C15  1  0.15400000  0.86700000  0.71860000  1.0 0.5711477968
C  C16  1  0.15400000  0.13300000  0.21860000  1.0 0.5711477968
C  C17  1  0.96780000  0.40700000  0.35430000  1.0 -0.289060804
C  C18  1  0.96780000  0.59300000  0.85430000  1.0 -0.289060804
C  C19  1  0.98230000  0.49900000  0.30310000  1.0 0.1625741469
C  C20  1  0.98230000  0.50100000  0.80310000  1.0 0.1625741469
C  C21  1  0.94500000  0.47400000  0.25400000  1.0 -0.1077796331
C  C22  1  0.94500000  0.52600000  0.75400000  1.0 -0.1077796331
C  C23  1  0.88460000  0.43200000  0.26310000  1.0 0.1625741469
C  C24  1  0.88460000  0.56800000  0.76310000  1.0 0.1625741469
C  C25  1  0.87070000  0.33000000  0.31350000  1.0 -0.0921016922
C  C26  1  0.87070000  0.67000000  0.81350000  1.0 -0.0921016922
C  C27  1  0.90850000  0.35300000  0.36230000  1.0 0.1713594339
C  C28  1  0.90850000  0.64700000  0.86230000  1.0 0.1713594339
C  C29  1  0.96830000  0.51600000  0.19430000  1.0 0.5790018054
C  C30  1  0.96830000  0.48400000  0.69430000  1.0 0.5790018054
C  C31  1  0.80640000  0.27100000  0.32400000  1.0 0.5711477968
C  C32  1  0.80640000  0.72900000  0.82400000  1.0 0.5790018054
C  C33  1  0.69440000  0.68300000  0.41700000  1.0 -0.2612936152
C  C34  1  0.69440000  0.31700000  0.91700000  1.0 -0.2612936152
C  C35  1  0.74050000  0.78900000  0.44210000  1.0 0.1967620897
C  C36  1  0.74050000  0.21100000  0.94210000  1.0 0.1967620897
C  C37  1  0.79140000  0.82700000  0.41080000  1.0 -0.102931389
C  C38  1  0.79140000  0.17300000  0.91080000  1.0 -0.102931389
C  C39  1  0.78740000  0.81200000  0.34980000  1.0 0.1871527704
C  C40  1  0.78740000  0.18800000  0.84980000  1.0 0.1871527704
C  C41  1  0.73710000  0.72900000  0.32290000  1.0 -0.1430728463
C  C42  1  0.73710000  0.27100000  0.82290000  1.0 -0.1430728463
C  C43  1  0.69599000  0.63500000  0.35790000  1.0 0.2182944539
C  C44  1  0.69599000  0.36500000  0.85790000  1.0 0.2182944539
C  C45  1  0.84700000  0.90500000  0.44130000  1.0 0.5981065008
C  C46  1  0.84700000  0.09500000  0.94130000  1.0 0.5981065008
C  C47  1  0.73120000  0.71800000  0.25740000  1.0 0.5541800829
C  C48  1  0.73120000  0.28200000  0.75740000  1.0 0.5541800829
C  C49  1  0.48900000  0.10600000  0.35310000  1.0 -0.2786168781
C  C50  1  0.48900000  0.89400000  0.85310000  1.0 -0.2786168781
C  C51  1  0.46860000  0.00500000  0.30410000  1.0 0.1713594339
C  C52  1  0.46860000  0.99500000  0.80410000  1.0 0.1713594339
C  C53  1  0.50520000  0.00100000  0.25570000  1.0 -0.1077796331
C  C54  1  0.50520000  0.99900000  0.75570000  1.0 -0.1077796331
C  C55  1  0.56710000  0.00600000  0.26650000  1.0 0.1625741469
C  C56  1  0.56710000  0.99400000  0.76650000  1.0 0.1625741469
C  C57  1  0.58940000  0.08700000  0.31810000  1.0 -0.1077796331
C  C58  1  0.58940000  0.91300000  0.81810000  1.0 -0.1077796331
C  C59  1  0.55080000  0.10500000  0.36440000  1.0 0.1967620897
C  C60  1  0.55080000  0.89500000  0.86440000  1.0 0.1967620897
C  C61  1  0.47830000  0.95300000  0.19670000  1.0 0.5884587588
C  C62  1  0.47830000  0.04700000  0.69670000  1.0 0.5884587588
C  C63  1  0.65360000  0.15100000  0.32750000  1.0 0.5711477968
C  C64  1  0.65360000  0.84900000  0.82750000  1.0 0.5711477968
C  C65  1  0.46390000  0.54800000  0.66610000  1.0 -0.2612936152
C  C66  1  0.46390000  0.45200000  0.16610000  1.0 -0.2612936152
C  C67  1  0.49300000  0.51400000  0.71930000  1.0 0.1713594339
C  C68  1  0.49300000  0.48600000  0.21930000  1.0 0.1713594339
C  C69  1  0.45970000  0.49800000  0.76890000  1.0 -0.1077796331
C  C70  1  0.45970000  0.50200000  0.26890000  1.0 -0.102931389
C  C71  1  0.40440000  0.59300000  0.76940000  1.0 0.1524331095
C  C72  1  0.40440000  0.40700000  0.26940000  1.0 0.1524331095
C  C73  1  0.37690000  0.65500000  0.71780000  1.0 -0.1077796331
C  C74  1  0.37690000  0.34500000  0.21780000  1.0 -0.1077796331
C  C75  1  0.40400000  0.61200000  0.66550000  1.0 0.2103437046
C  C76  1  0.40400000  0.38800000  0.16550000  1.0 0.2103437046
C  C77  1  0.48020000  0.43500000  0.82930000  1.0 0.5790018054
C  C78  1  0.48020000  0.56500000  0.32930000  1.0 0.5790018054
C  C79  1  0.31150000  0.70700000  0.72380000  1.0 0.5711477968
C  C80  1  0.31150000  0.29300000  0.22380000  1.0 0.5711477968
C  C81  1  0.18340000  0.39000000  0.57560000  1.0 -0.289060804
C  C82  1  0.18340000  0.61000000  0.07560000  1.0 -0.2786168781
C  C83  1  0.21950000  0.24700000  0.55160000  1.0 0.2103437046
C  C84  1  0.21950000  0.75300000  0.05160000  1.0 0.2103437046
C  C85  1  0.27520000  0.21300000  0.58010000  1.0 -0.1430728463
C  C86  1  0.27520000  0.78700000  0.08010000  1.0 -0.1430728463
C  C87  1  0.27530000  0.22200000  0.64080000  1.0 0.2103437046
C  C88  1  0.27530000  0.77800000  0.14080000  1.0 0.2103437046
C  C89  1  0.22640000  0.29800000  0.67110000  1.0 -0.1173885715
C  C90  1  0.22640000  0.70200000  0.17110000  1.0 -0.1173885715
C  C91  1  0.18340000  0.39900000  0.63630000  1.0 0.2309236052
C  C92  1  0.18340000  0.60100000  0.13630000  1.0 0.2309236052
C  C93  1  0.32500000  0.14500000  0.54130000  1.0 0.5884587588
C  C94  1  0.32500000  0.85500000  0.04130000  1.0 0.5884587588
C  C95  1  0.22840000  0.29400000  0.73700000  1.0 0.5403497191
C  C96  1  0.22840000  0.70600000  0.23700000  1.0 0.5403497191
O  O1  1  0.96920000  0.78680000  0.55820000  1.0 -0.8399363337
O  O2  1  0.96920000  0.21320000  0.05820000  1.0 -0.8399363337
O  O3  1  0.97870000  0.14100000  0.55410000  1.0 -0.8262271313
O  O4  1  0.97870000  0.85900000  0.05410000  1.0 -0.8262271313
O  O5  1  0.88960000  0.99300000  0.60050000  1.0 -0.4692697925
O  O6  1  0.88960000  0.00700000  0.10050000  1.0 -0.4692697925
O  O7  1  0.91530000  0.07000000  0.82420000  1.0 -0.3980703033
O  O8  1  0.91530000  0.93000000  0.32420000  1.0 -0.3980703033
O  O9  1  0.00200000  0.03800000  0.86690000  1.0 -0.5339989689
O  O10  1  0.00200000  0.96200000  0.36690000  1.0 -0.5339989689
O  O11  1  0.18000000  0.86500000  0.67150000  1.0 -0.3980703033
O  O12  1  0.18000000  0.13500000  0.17150000  1.0 -0.3980703033
O  O13  1  0.17550000  0.79600000  0.76390000  1.0 -0.3499422473
O  O14  1  0.17550000  0.20400000  0.26390000  1.0 -0.3499422473
O  O15  1  0.07840000  0.47600000  0.39970000  1.0 -0.3980703033
O  O16  1  0.07840000  0.52400000  0.89970000  1.0 -0.3980703033
O  O17  1  0.00680000  0.27330000  0.45860000  1.0 -0.8215587166
O  O18  1  0.00680000  0.72670000  0.95860000  1.0 -0.8215587166
O  O19  1  0.99280000  0.62700000  0.45060000  1.0 -0.8399363337
O  O20  1  0.99280000  0.37300000  0.95060000  1.0 -0.8399363337
O  O21  1  0.02340000  0.50900000  0.18840000  1.0 -0.4365031225
O  O22  1  0.02340000  0.49100000  0.68840000  1.0 -0.4365031225
O  O23  1  0.93650000  0.57300000  0.15290000  1.0 -0.4692697925
O  O24  1  0.93650000  0.42700000  0.65290000  1.0 -0.4692697925
O  O25  1  0.77090000  0.29600000  0.28230000  1.0 -0.3200532524
O  O26  1  0.77090000  0.70400000  0.78230000  1.0 -0.3200532524
O  O27  1  0.79210000  0.27700000  0.37590000  1.0 -0.4122791765
O  O28  1  0.79210000  0.72300000  0.87590000  1.0 -0.4122791765
O  O29  1  0.57600000  0.60200000  0.42990000  1.0 -0.6297260551
O  O30  1  0.57600000  0.39800000  0.92990000  1.0 -0.6297260551
O  O31  1  0.65140000  0.38100000  0.47810000  1.0 -0.4787133165
O  O32  1  0.65140000  0.61900000  0.97810000  1.0 -0.486252559
O  O33  1  0.63670000  0.72100000  0.51720000  1.0 -0.5576456812
O  O34  1  0.63670000  0.27900000  0.01720000  1.0 -0.5576456812
O  O35  1  0.84390000  0.92100000  0.49470000  1.0 -0.3710467098
O  O36  1  0.84390000  0.07900000  0.99470000  1.0 -0.3710467098
O  O37  1  0.89300000  0.94100000  0.41550000  1.0 -0.4365031225
O  O38  1  0.89300000  0.05900000  0.91550000  1.0 -0.4365031225
O  O39  1  0.68300000  0.66300000  0.23570000  1.0 -0.3618405489
O  O40  1  0.68300000  0.33700000  0.73570000  1.0 -0.3618405489
O  O41  1  0.76920000  0.79400000  0.22650000  1.0 -0.3499422473
O  O42  1  0.76920000  0.20600000  0.72650000  1.0 -0.3499422473
O  O43  1  0.45060000  0.25800000  0.45520000  1.0 -0.7896005688
O  O44  1  0.45060000  0.74200000  0.95520000  1.0 -0.7896005688
O  O45  1  0.47240000  0.91300000  0.45320000  1.0 -0.8639514473
O  O46  1  0.47240000  0.08700000  0.95320000  1.0 -0.8639514473
O  O47  1  0.38010000  0.03900000  0.39870000  1.0 -0.4189149765
O  O48  1  0.38010000  0.96100000  0.89870000  1.0 -0.4189149765
O  O49  1  0.42500000  0.90200000  0.19470000  1.0 -0.4122791765
O  O50  1  0.42500000  0.09800000  0.69470000  1.0 -0.4122791765
O  O51  1  0.50800000  0.96100000  0.15200000  1.0 -0.486252559
O  O52  1  0.50800000  0.03900000  0.65200000  1.0 -0.486252559
O  O53  1  0.66860000  0.19600000  0.37800000  1.0 -0.3710467098
O  O54  1  0.66860000  0.80400000  0.87800000  1.0 -0.3710467098
O  O55  1  0.68360000  0.20200000  0.28600000  1.0 -0.3102499125
O  O56  1  0.68360000  0.79800000  0.78600000  1.0 -0.3102499125
O  O57  1  0.57360000  0.59200000  0.61620000  1.0 -0.4787133165
O  O58  1  0.57360000  0.40800000  0.11620000  1.0 -0.4787133165
O  O59  1  0.48610000  0.75200000  0.56570000  1.0 -0.7896005688
O  O60  1  0.48610000  0.24800000  0.06570000  1.0 -0.7896005688
O  O61  1  0.49540000  0.40700000  0.55960000  1.0 -0.8262271313
O  O62  1  0.49540000  0.59300000  0.05960000  1.0 -0.8262271313
O  O63  1  0.52940000  0.49100000  0.84740000  1.0 -0.4122791765
O  O64  1  0.52940000  0.50900000  0.34740000  1.0 -0.4122791765
O  O65  1  0.43810000  0.40700000  0.86260000  1.0 -0.4993003038
O  O66  1  0.43810000  0.59300000  0.36260000  1.0 -0.4993003038
O  O67  1  0.29020000  0.69200000  0.77300000  1.0 -0.3422921625
O  O68  1  0.29020000  0.30800000  0.27300000  1.0 -0.3422921625
O  O69  1  0.28150000  0.73000000  0.67860000  1.0 -0.3927398203
O  O70  1  0.28150000  0.27000000  0.17860000  1.0 -0.3927398203
O  O71  1  0.08320000  0.57600000  0.53370000  1.0 -0.6695852307
O  O72  1  0.08320000  0.42400000  0.03370000  1.0 -0.6695852307
O  O73  1  0.18340000  0.73800000  0.51490000  1.0 -0.51840848
O  O74  1  0.18340000  0.26200000  0.01490000  1.0 -0.51840848
O  O75  1  0.15400000  0.43300000  0.46280000  1.0 -0.3810457018
O  O76  1  0.15400000  0.56700000  0.96280000  1.0 -0.3810457018
O  O77  1  0.31800000  0.19800000  0.48950000  1.0 -0.3422921625
O  O78  1  0.31800000  0.80200000  0.98950000  1.0 -0.3422921625
O  O79  1  0.37190000  0.07600000  0.56110000  1.0 -0.4530563829
O  O80  1  0.37190000  0.92400000  0.06110000  1.0 -0.4530563829
O  O81  1  0.18440000  0.33300000  0.76660000  1.0 -0.3200532524
O  O82  1  0.18440000  0.66700000  0.26660000  1.0 -0.3200532524
O  O83  1  0.27280000  0.23400000  0.76590000  1.0 -0.3102499125
O  O84  1  0.27280000  0.76600000  0.26590000  1.0 -0.3102499125
