# DDEC6 charges by PACMAN v1.1 (https://github.com/mtap-research/PACMAN-charge/)
data_RIZXUT_ASR_pacman
_symmetry_space_group_name_H-M   'P 1'
_cell_length_a   14.72800000
_cell_length_b   14.72800000
_cell_length_c   14.72800000
_cell_angle_alpha   90.00000000
_cell_angle_beta   90.00000000
_cell_angle_gamma   90.00000000
_symmetry_Int_Tables_number   1
_chemical_formula_structural   Zn2H3C9N3O10
_chemical_formula_sum   'Zn8 H12 C36 N12 O40'
_cell_volume   3194.70915635
_cell_formula_units_Z   4
loop_
 _symmetry_equiv_pos_site_id
 _symmetry_equiv_pos_as_xyz
  1  'x, y, z'
loop_
 _atom_site_type_symbol
 _atom_site_label
 _atom_site_symmetry_multiplicity
 _atom_site_fract_x
 _atom_site_fract_y
 _atom_site_fract_z
 _atom_site_occupancy
 _atom_site_charge
Zn  Zn1  1  0.18670000  0.18670000  0.18670000  1.0 1.0956044387
Zn  Zn2  1  0.31330000  0.81330000  0.68670000  1.0 1.0956044387
Zn  Zn3  1  0.68670000  0.31330000  0.81330000  1.0 1.0956044387
Zn  Zn4  1  0.81330000  0.68670000  0.31330000  1.0 1.0928404521
Zn  Zn5  1  0.04680000  0.04680000  0.04680000  1.0 0.4964095842
Zn  Zn6  1  0.45320000  0.95320000  0.54680000  1.0 0.4964095842
Zn  Zn7  1  0.54680000  0.45320000  0.95320000  1.0 0.4964095842
Zn  Zn8  1  0.95320000  0.54680000  0.45320000  1.0 0.4964095842
H  H1  1  0.33840000  0.24940000  0.98090000  1.0 0.2180053894
H  H2  1  0.16160000  0.75060000  0.48090000  1.0 0.2180053894
H  H3  1  0.83840000  0.25060000  0.01910000  1.0 0.2180053894
H  H4  1  0.98090000  0.33840000  0.24940000  1.0 0.2180053894
H  H5  1  0.66160000  0.74940000  0.51910000  1.0 0.2180053894
H  H6  1  0.51910000  0.66160000  0.74940000  1.0 0.2180053894
H  H7  1  0.48090000  0.16160000  0.75060000  1.0 0.2180053894
H  H8  1  0.01910000  0.83840000  0.25060000  1.0 0.2180053894
H  H9  1  0.24940000  0.98090000  0.33840000  1.0 0.2180053894
H  H10  1  0.74940000  0.51910000  0.66160000  1.0 0.2180053894
H  H11  1  0.75060000  0.48090000  0.16160000  1.0 0.2180053894
H  H12  1  0.25060000  0.01910000  0.83840000  1.0 0.2180053894
C  C1  1  0.21100000  0.12480000  0.99160000  1.0 0.5668216687
C  C2  1  0.28900000  0.87520000  0.49160000  1.0 0.5668216687
C  C3  1  0.71100000  0.37520000  0.00840000  1.0 0.5668216687
C  C4  1  0.99160000  0.21100000  0.12480000  1.0 0.5668216687
C  C5  1  0.78900000  0.62480000  0.50840000  1.0 0.5668216687
C  C6  1  0.50840000  0.78900000  0.62480000  1.0 0.5668216687
C  C7  1  0.49160000  0.28900000  0.87520000  1.0 0.5668216687
C  C8  1  0.00840000  0.71100000  0.37520000  1.0 0.5668216687
C  C9  1  0.12480000  0.99160000  0.21100000  1.0 0.5668216687
C  C10  1  0.62480000  0.50840000  0.78900000  1.0 0.5668216687
C  C11  1  0.87520000  0.49160000  0.28900000  1.0 0.5668216687
C  C12  1  0.37520000  0.00840000  0.71100000  1.0 0.5668216687
C  C13  1  0.28980000  0.13120000  0.92190000  1.0 0.0144936024
C  C14  1  0.21020000  0.86880000  0.42190000  1.0 0.0144936024
C  C15  1  0.78980000  0.36880000  0.07810000  1.0 0.0154480379
C  C16  1  0.92190000  0.28980000  0.13120000  1.0 0.0154480379
C  C17  1  0.71020000  0.63120000  0.57810000  1.0 0.0144936024
C  C18  1  0.57810000  0.71020000  0.63120000  1.0 0.0144936024
C  C19  1  0.42190000  0.21020000  0.86880000  1.0 0.0144936024
C  C20  1  0.07810000  0.78980000  0.36880000  1.0 0.0144936024
C  C21  1  0.13120000  0.92190000  0.28980000  1.0 0.0144936024
C  C22  1  0.63120000  0.57810000  0.71020000  1.0 0.0144936024
C  C23  1  0.86880000  0.42190000  0.21020000  1.0 0.0154480379
C  C24  1  0.36880000  0.07810000  0.78980000  1.0 0.0144936024
C  C25  1  0.34860000  0.20440000  0.93490000  1.0 -0.120327998
C  C26  1  0.15140000  0.79560000  0.43490000  1.0 -0.120327998
C  C27  1  0.84860000  0.29560000  0.06510000  1.0 -0.120327998
C  C28  1  0.93490000  0.34860000  0.20440000  1.0 -0.120327998
C  C29  1  0.65140000  0.70440000  0.56510000  1.0 -0.120327998
C  C30  1  0.56510000  0.65140000  0.70440000  1.0 -0.120327998
C  C31  1  0.43490000  0.15140000  0.79560000  1.0 -0.120327998
C  C32  1  0.06510000  0.84860000  0.29560000  1.0 -0.120327998
C  C33  1  0.20440000  0.93490000  0.34860000  1.0 -0.120327998
C  C34  1  0.70440000  0.56510000  0.65140000  1.0 -0.120327998
C  C35  1  0.79560000  0.43490000  0.15140000  1.0 -0.120327998
C  C36  1  0.29560000  0.06510000  0.84860000  1.0 -0.120327998
N  N1  1  0.94390000  0.93150000  0.95860000  1.0 0.2474734489
N  N2  1  0.55610000  0.06850000  0.45860000  1.0 0.2474734489
N  N3  1  0.44390000  0.56850000  0.04140000  1.0 0.2474734489
N  N4  1  0.95860000  0.94390000  0.93150000  1.0 0.2474734489
N  N5  1  0.05610000  0.43150000  0.54140000  1.0 0.2474734489
N  N6  1  0.54140000  0.05610000  0.43150000  1.0 0.2474734489
N  N7  1  0.45860000  0.55610000  0.06850000  1.0 0.2474734489
N  N8  1  0.04140000  0.44390000  0.56850000  1.0 0.2474734489
N  N9  1  0.93150000  0.95860000  0.94390000  1.0 0.2474734489
N  N10  1  0.43150000  0.54140000  0.05610000  1.0 0.2474734489
N  N11  1  0.06850000  0.45860000  0.55610000  1.0 0.2474734489
N  N12  1  0.56850000  0.04140000  0.44390000  1.0 0.2474734489
O  O1  1  0.20650000  0.18080000  0.05050000  1.0 -0.563453248
O  O2  1  0.29350000  0.81920000  0.55050000  1.0 -0.563453248
O  O3  1  0.70650000  0.31920000  0.94950000  1.0 -0.563453248
O  O4  1  0.05050000  0.20650000  0.18080000  1.0 -0.563453248
O  O5  1  0.79350000  0.68080000  0.44950000  1.0 -0.563453248
O  O6  1  0.44950000  0.79350000  0.68080000  1.0 -0.563453248
O  O7  1  0.55050000  0.29350000  0.81920000  1.0 -0.563453248
O  O8  1  0.94950000  0.70650000  0.31920000  1.0 -0.563453248
O  O9  1  0.18080000  0.05050000  0.20650000  1.0 -0.563453248
O  O10  1  0.68080000  0.44950000  0.79350000  1.0 -0.563453248
O  O11  1  0.81920000  0.55050000  0.29350000  1.0 -0.563453248
O  O12  1  0.31920000  0.94950000  0.70650000  1.0 -0.563453248
O  O13  1  0.15870000  0.05720000  0.97520000  1.0 -0.5507640301
O  O14  1  0.34130000  0.94280000  0.47520000  1.0 -0.5507640301
O  O15  1  0.65870000  0.44280000  0.02480000  1.0 -0.5507640301
O  O16  1  0.97520000  0.15870000  0.05720000  1.0 -0.5507640301
O  O17  1  0.84130000  0.55720000  0.52480000  1.0 -0.5507640301
O  O18  1  0.52480000  0.84130000  0.55720000  1.0 -0.5507640301
O  O19  1  0.47520000  0.34130000  0.94280000  1.0 -0.5507640301
O  O20  1  0.02480000  0.65870000  0.44280000  1.0 -0.5507640301
O  O21  1  0.05720000  0.97520000  0.15870000  1.0 -0.5507640301
O  O22  1  0.55720000  0.52480000  0.84130000  1.0 -0.5507640301
O  O23  1  0.94280000  0.47520000  0.34130000  1.0 -0.5507640301
O  O24  1  0.44280000  0.02480000  0.65870000  1.0 -0.5507640301
O  O25  1  0.92670000  0.97220000  0.01160000  1.0 -0.120327998
O  O26  1  0.57330000  0.02780000  0.51160000  1.0 -0.1276250622
O  O27  1  0.42670000  0.52780000  0.98840000  1.0 -0.1276250622
O  O28  1  0.01160000  0.92670000  0.97220000  1.0 -0.120327998
O  O29  1  0.07330000  0.47220000  0.48840000  1.0 -0.1276250622
O  O30  1  0.48840000  0.07330000  0.47220000  1.0 -0.1276250622
O  O31  1  0.51160000  0.57330000  0.02780000  1.0 -0.1276250622
O  O32  1  0.98840000  0.42670000  0.52780000  1.0 -0.1276250622
O  O33  1  0.97220000  0.01160000  0.92670000  1.0 -0.120327998
O  O34  1  0.47220000  0.48840000  0.07330000  1.0 -0.1276250622
O  O35  1  0.02780000  0.51160000  0.57330000  1.0 -0.1276250622
O  O36  1  0.52780000  0.98840000  0.42670000  1.0 -0.1276250622
O  O37  1  0.89530000  0.89530000  0.89530000  1.0 -0.6513829638
O  O38  1  0.60470000  0.10470000  0.39530000  1.0 -0.6513829638
O  O39  1  0.39530000  0.60470000  0.10470000  1.0 -0.6513829638
O  O40  1  0.10470000  0.39530000  0.60470000  1.0 -0.6513829638
