# DDEC6 charges by PACMAN v1.1 (https://github.com/mtap-research/PACMAN-charge/)
data_ROBWAH_FSR_pacman
_symmetry_space_group_name_H-M   'P 1'
_cell_length_a   7.55460000
_cell_length_b   16.51800000
_cell_length_c   23.45800000
_cell_angle_alpha   90.00000000
_cell_angle_beta   90.00000000
_cell_angle_gamma   90.00000000
_symmetry_Int_Tables_number   1
_chemical_formula_structural   Ag3H40C52S4(N7O3)2
_chemical_formula_sum   'Ag6 H80 C104 S8 N28 O12'
_cell_volume   2927.25069672
_cell_formula_units_Z   2
loop_
 _symmetry_equiv_pos_site_id
 _symmetry_equiv_pos_as_xyz
  1  'x, y, z'
loop_
 _atom_site_type_symbol
 _atom_site_label
 _atom_site_symmetry_multiplicity
 _atom_site_fract_x
 _atom_site_fract_y
 _atom_site_fract_z
 _atom_site_occupancy
 _atom_site_charge
Ag  Ag1  1  0.00000000  0.06659000  0.50000000  1.0 0.2778826258
Ag  Ag2  1  0.50000000  0.56659000  0.00000000  1.0 0.2778826258
Ag  Ag3  1  0.11973000  0.43488000  0.14263000  1.0 0.2778826258
Ag  Ag4  1  0.88027000  0.43488000  0.85737000  1.0 0.2749536171
Ag  Ag5  1  0.38027000  0.93488000  0.64263000  1.0 0.2778826258
Ag  Ag6  1  0.61973000  0.93488000  0.35737000  1.0 0.2778826258
H  H1  1  0.83270000  0.76820000  0.34860000  1.0 0.1079442647
H  H2  1  0.16730000  0.76820000  0.65140000  1.0 0.1079442647
H  H3  1  0.66730000  0.26820000  0.84860000  1.0 0.1079442647
H  H4  1  0.33270000  0.26820000  0.15140000  1.0 0.1079442647
H  H5  1  0.90640000  0.67180000  0.28360000  1.0 0.1409234308
H  H6  1  0.09360000  0.67180000  0.71640000  1.0 0.1409234308
H  H7  1  0.59360000  0.17180000  0.78360000  1.0 0.1409234308
H  H8  1  0.40640000  0.17180000  0.21640000  1.0 0.1409234308
H  H9  1  0.79910000  0.75470000  0.10250000  1.0 0.1202168864
H  H10  1  0.20090000  0.75470000  0.89750000  1.0 0.1202168864
H  H11  1  0.70090000  0.25470000  0.60250000  1.0 0.1202168864
H  H12  1  0.29910000  0.25470000  0.39750000  1.0 0.1202168864
H  H13  1  0.85560000  0.66510000  0.03110000  1.0 0.1202168864
H  H14  1  0.14440000  0.66510000  0.96890000  1.0 0.1202168864
H  H15  1  0.64440000  0.16510000  0.53110000  1.0 0.1202168864
H  H16  1  0.35560000  0.16510000  0.46890000  1.0 0.1202168864
H  H17  1  0.98980000  0.54710000  0.04950000  1.0 0.0987208947
H  H18  1  0.01020000  0.54710000  0.95050000  1.0 0.0987208947
H  H19  1  0.51020000  0.04710000  0.54950000  1.0 0.0987208947
H  H20  1  0.48980000  0.04710000  0.45050000  1.0 0.0987208947
H  H21  1  0.99680000  0.59570000  0.21160000  1.0 0.0987208947
H  H22  1  0.00320000  0.59570000  0.78840000  1.0 0.0987208947
H  H23  1  0.50320000  0.09570000  0.71160000  1.0 0.0987208947
H  H24  1  0.49680000  0.09570000  0.28840000  1.0 0.0987208947
H  H25  1  0.60700000  0.92040000  0.13010000  1.0 0.1316859543
H  H26  1  0.39300000  0.92040000  0.86990000  1.0 0.1316859543
H  H27  1  0.89300000  0.42040000  0.63010000  1.0 0.1316859543
H  H28  1  0.10700000  0.42040000  0.36990000  1.0 0.1316859543
H  H29  1  0.80900000  0.94140000  0.13750000  1.0 0.1409234308
H  H30  1  0.19100000  0.94140000  0.86250000  1.0 0.1409234308
H  H31  1  0.69100000  0.44140000  0.63750000  1.0 0.1316859543
H  H32  1  0.30900000  0.44140000  0.36250000  1.0 0.1409234308
H  H33  1  0.86500000  0.09830000  0.15670000  1.0 0.1202168864
H  H34  1  0.13500000  0.09830000  0.84330000  1.0 0.1202168864
H  H35  1  0.63500000  0.59830000  0.65670000  1.0 0.1202168864
H  H36  1  0.36500000  0.59830000  0.34330000  1.0 0.1202168864
H  H37  1  0.57960000  0.25000000  0.06510000  1.0 0.1202168864
H  H38  1  0.42040000  0.25000000  0.93490000  1.0 0.1202168864
H  H39  1  0.92040000  0.75000000  0.56510000  1.0 0.1202168864
H  H40  1  0.07960000  0.75000000  0.43490000  1.0 0.1202168864
H  H41  1  0.35620000  0.15180000  0.05440000  1.0 0.1202168864
H  H42  1  0.64380000  0.15180000  0.94560000  1.0 0.1202168864
H  H43  1  0.14380000  0.65180000  0.55440000  1.0 0.1202168864
H  H44  1  0.85620000  0.65180000  0.44560000  1.0 0.1202168864
H  H45  1  0.40570000  0.02410000  0.08900000  1.0 0.1202168864
H  H46  1  0.59430000  0.02410000  0.91100000  1.0 0.1202168864
H  H47  1  0.09430000  0.52410000  0.58900000  1.0 0.1202168864
H  H48  1  0.90570000  0.52410000  0.41100000  1.0 0.1202168864
H  H49  1  0.95990000  0.22630000  0.14920000  1.0 0.1316859543
H  H50  1  0.04010000  0.22630000  0.85080000  1.0 0.1316859543
H  H51  1  0.54010000  0.72630000  0.64920000  1.0 0.1316859543
H  H52  1  0.45990000  0.72630000  0.35080000  1.0 0.1316859543
H  H53  1  0.92750000  0.26030000  0.08780000  1.0 0.1409234308
H  H54  1  0.07250000  0.26030000  0.91220000  1.0 0.1409234308
H  H55  1  0.57250000  0.76030000  0.58780000  1.0 0.1409234308
H  H56  1  0.42750000  0.76030000  0.41220000  1.0 0.1409234308
H  H57  1  0.67450000  0.41550000  0.33560000  1.0 0.0987208947
H  H58  1  0.32550000  0.41550000  0.66440000  1.0 0.0987208947
H  H59  1  0.82550000  0.91550000  0.83560000  1.0 0.0987208947
H  H60  1  0.17450000  0.91550000  0.16440000  1.0 0.0987208947
H  H61  1  0.77660000  0.30550000  0.37910000  1.0 0.1316859543
H  H62  1  0.22340000  0.30550000  0.62090000  1.0 0.1316859543
H  H63  1  0.72340000  0.80550000  0.87910000  1.0 0.1316859543
H  H64  1  0.27660000  0.80550000  0.12090000  1.0 0.1316859543
H  H65  1  0.96070000  0.11680000  0.25440000  1.0 0.1079442647
H  H66  1  0.03930000  0.11680000  0.74560000  1.0 0.1079442647
H  H67  1  0.53930000  0.61680000  0.75440000  1.0 0.1079442647
H  H68  1  0.46070000  0.61680000  0.24560000  1.0 0.1079442647
H  H69  1  0.04090000  0.99290000  0.29330000  1.0 0.1202168864
H  H70  1  0.95910000  0.99290000  0.70670000  1.0 0.1202168864
H  H71  1  0.45910000  0.49290000  0.79330000  1.0 0.1202168864
H  H72  1  0.54090000  0.49290000  0.20670000  1.0 0.1202168864
H  H73  1  0.07800000  0.97940000  0.38790000  1.0 0.0987208947
H  H74  1  0.92200000  0.97940000  0.61210000  1.0 0.0987208947
H  H75  1  0.42200000  0.47940000  0.88790000  1.0 0.0987208947
H  H76  1  0.57800000  0.47940000  0.11210000  1.0 0.0987208947
H  H77  1  0.89460000  0.19360000  0.41180000  1.0 0.0987208947
H  H78  1  0.10540000  0.19360000  0.58820000  1.0 0.0987208947
H  H79  1  0.60540000  0.69360000  0.91180000  1.0 0.0987208947
H  H80  1  0.39460000  0.69360000  0.08820000  1.0 0.0987208947
C  C1  1  0.74780000  0.86420000  0.23990000  1.0 0.2880385577
C  C2  1  0.25220000  0.86420000  0.76010000  1.0 0.2880385577
C  C3  1  0.75220000  0.36420000  0.73990000  1.0 0.2880385577
C  C4  1  0.24780000  0.36420000  0.26010000  1.0 0.2880385577
C  C5  1  0.81720000  0.77960000  0.31010000  1.0 0.1079442647
C  C6  1  0.18280000  0.77960000  0.68990000  1.0 0.1079442647
C  C7  1  0.68280000  0.27960000  0.81010000  1.0 0.1079442647
C  C8  1  0.31720000  0.27960000  0.18990000  1.0 0.1079442647
C  C9  1  0.86540000  0.72220000  0.27180000  1.0 -0.2368827254
C  C10  1  0.13460000  0.72220000  0.72820000  1.0 -0.2368827254
C  C11  1  0.63460000  0.22220000  0.77180000  1.0 -0.2368827254
C  C12  1  0.36540000  0.22220000  0.22820000  1.0 -0.2368827254
C  C13  1  0.85160000  0.74100000  0.21550000  1.0 0.2295618638
C  C14  1  0.14840000  0.74100000  0.78450000  1.0 0.2295618638
C  C15  1  0.64840000  0.24100000  0.71550000  1.0 0.2295618638
C  C16  1  0.35160000  0.24100000  0.28450000  1.0 0.2295618638
C  C17  1  0.89650000  0.68410000  0.16740000  1.0 0.0072413609
C  C18  1  0.10350000  0.68410000  0.83260000  1.0 0.0072413609
C  C19  1  0.60350000  0.18410000  0.66740000  1.0 0.0072413609
C  C20  1  0.39650000  0.18410000  0.33260000  1.0 0.0072413609
C  C21  1  0.85170000  0.70510000  0.11060000  1.0 -0.0933756173
C  C22  1  0.14830000  0.70510000  0.88940000  1.0 -0.0933756173
C  C23  1  0.64830000  0.20510000  0.61060000  1.0 -0.0933756173
C  C24  1  0.35170000  0.20510000  0.38940000  1.0 -0.0933756173
C  C25  1  0.88600000  0.65220000  0.06840000  1.0 -0.1542206869
C  C26  1  0.11400000  0.65220000  0.93160000  1.0 -0.1542206869
C  C27  1  0.61400000  0.15220000  0.56840000  1.0 -0.1542206869
C  C28  1  0.38600000  0.15220000  0.43160000  1.0 -0.1542206869
C  C29  1  0.96370000  0.58170000  0.07960000  1.0 0.0332655547
C  C30  1  0.03630000  0.58170000  0.92040000  1.0 0.0332655547
C  C31  1  0.53630000  0.08170000  0.57960000  1.0 0.0332655547
C  C32  1  0.46370000  0.08170000  0.42040000  1.0 0.0332655547
C  C33  1  0.96920000  0.61130000  0.17460000  1.0 -0.0100058824
C  C34  1  0.03080000  0.61130000  0.82540000  1.0 -0.0100058824
C  C35  1  0.53080000  0.11130000  0.67460000  1.0 -0.0100058824
C  C36  1  0.46920000  0.11130000  0.32540000  1.0 -0.0100058824
C  C37  1  0.68970000  0.95810000  0.14730000  1.0 -0.286729084
C  C38  1  0.31030000  0.95810000  0.85270000  1.0 -0.286729084
C  C39  1  0.81030000  0.45810000  0.64730000  1.0 -0.286729084
C  C40  1  0.18970000  0.45810000  0.35270000  1.0 -0.286729084
C  C41  1  0.65400000  0.04570000  0.12540000  1.0 0.1316859543
C  C42  1  0.34600000  0.04570000  0.87460000  1.0 0.1316859543
C  C43  1  0.84600000  0.54570000  0.62540000  1.0 0.1316859543
C  C44  1  0.15400000  0.54570000  0.37460000  1.0 0.1316859543
C  C45  1  0.76320000  0.10720000  0.13520000  1.0 -0.2156433926
C  C46  1  0.23680000  0.10720000  0.86480000  1.0 -0.2156433926
C  C47  1  0.73680000  0.60720000  0.63520000  1.0 -0.2156433926
C  C48  1  0.26320000  0.60720000  0.36480000  1.0 -0.2156433926
C  C49  1  0.72900000  0.18480000  0.11420000  1.0 0.1316859543
C  C50  1  0.27100000  0.18480000  0.88580000  1.0 0.1316859543
C  C51  1  0.77100000  0.68480000  0.61420000  1.0 0.1316859543
C  C52  1  0.22900000  0.68480000  0.38580000  1.0 0.1316859543
C  C53  1  0.59160000  0.19960000  0.08240000  1.0 -0.1542206869
C  C54  1  0.40840000  0.19960000  0.91760000  1.0 -0.1542206869
C  C55  1  0.90840000  0.69960000  0.58240000  1.0 -0.1542206869
C  C56  1  0.09160000  0.69960000  0.41760000  1.0 -0.1542206869
C  C57  1  0.46030000  0.13980000  0.07380000  1.0 -0.0810209081
C  C58  1  0.53970000  0.13980000  0.92620000  1.0 -0.0810209081
C  C59  1  0.03970000  0.63980000  0.57380000  1.0 -0.0810209081
C  C60  1  0.96030000  0.63980000  0.42620000  1.0 -0.0810209081
C  C61  1  0.49000000  0.06440000  0.09450000  1.0 -0.1717079849
C  C62  1  0.51000000  0.06440000  0.90550000  1.0 -0.1717079849
C  C63  1  0.01000000  0.56440000  0.59450000  1.0 -0.175028281
C  C64  1  0.99000000  0.56440000  0.40550000  1.0 -0.175028281
C  C65  1  0.87070000  0.24860000  0.12400000  1.0 -0.271158138
C  C66  1  0.12930000  0.24860000  0.87600000  1.0 -0.271158138
C  C67  1  0.62930000  0.74860000  0.62400000  1.0 -0.271158138
C  C68  1  0.37070000  0.74860000  0.37600000  1.0 -0.271158138
C  C69  1  0.78440000  0.32330000  0.22860000  1.0 0.2778826258
C  C70  1  0.21560000  0.32330000  0.77140000  1.0 0.2778826258
C  C71  1  0.71560000  0.82330000  0.72860000  1.0 0.2778826258
C  C72  1  0.28440000  0.82330000  0.27140000  1.0 0.2778826258
C  C73  1  0.71600000  0.37330000  0.31300000  1.0 0.0883970134
C  C74  1  0.28400000  0.37330000  0.68700000  1.0 0.0883970134
C  C75  1  0.78400000  0.87330000  0.81300000  1.0 0.0883970134
C  C76  1  0.21600000  0.87330000  0.18700000  1.0 0.0883970134
C  C77  1  0.77630000  0.30880000  0.33950000  1.0 -0.271158138
C  C78  1  0.22370000  0.30880000  0.66050000  1.0 -0.271158138
C  C79  1  0.72370000  0.80880000  0.83950000  1.0 -0.271158138
C  C80  1  0.27630000  0.80880000  0.16050000  1.0 -0.271158138
C  C81  1  0.84100000  0.24450000  0.30530000  1.0 0.2478481888
C  C82  1  0.15900000  0.24450000  0.69470000  1.0 0.2478481888
C  C83  1  0.65900000  0.74450000  0.80530000  1.0 0.2478481888
C  C84  1  0.34100000  0.74450000  0.19470000  1.0 0.2478481888
C  C85  1  0.91210000  0.16810000  0.32900000  1.0 -0.0100058824
C  C86  1  0.08790000  0.16810000  0.67100000  1.0 -0.0100058824
C  C87  1  0.58790000  0.66810000  0.82900000  1.0 -0.0100058824
C  C88  1  0.41210000  0.66810000  0.17100000  1.0 -0.0100058824
C  C89  1  0.96190000  0.10920000  0.29360000  1.0 -0.0810209081
C  C90  1  0.03810000  0.10920000  0.70640000  1.0 -0.0810209081
C  C91  1  0.53810000  0.60920000  0.79360000  1.0 -0.0810209081
C  C92  1  0.46190000  0.60920000  0.20640000  1.0 -0.0810209081
C  C93  1  0.01560000  0.03640000  0.31720000  1.0 -0.1566954568
C  C94  1  0.98440000  0.03640000  0.68280000  1.0 -0.1566954568
C  C95  1  0.48440000  0.53640000  0.81720000  1.0 -0.1566954568
C  C96  1  0.51560000  0.53640000  0.18280000  1.0 -0.1566954568
C  C97  1  0.03160000  0.02760000  0.37380000  1.0 0.0388552717
C  C98  1  0.96840000  0.02760000  0.62620000  1.0 0.0388552717
C  C99  1  0.46840000  0.52760000  0.87380000  1.0 0.0388552717
C  C100  1  0.53160000  0.52760000  0.12620000  1.0 0.0388552717
C  C101  1  0.92760000  0.15220000  0.38710000  1.0 -0.0100058824
C  C102  1  0.07240000  0.15220000  0.61290000  1.0 -0.0100058824
C  C103  1  0.57240000  0.65220000  0.88710000  1.0 -0.0100058824
C  C104  1  0.42760000  0.65220000  0.11290000  1.0 -0.0100058824
S  S1  1  0.66230000  0.95934000  0.22232000  1.0 -0.0007475939
S  S2  1  0.33770000  0.95934000  0.77768000  1.0 -0.0007475939
S  S3  1  0.83770000  0.45934000  0.72232000  1.0 0.0008834343
S  S4  1  0.16230000  0.45934000  0.27768000  1.0 0.0008834343
S  S5  1  0.79110000  0.34206000  0.15399000  1.0 -0.0007475939
S  S6  1  0.20890000  0.34206000  0.84601000  1.0 -0.0007475939
S  S7  1  0.70890000  0.84206000  0.65399000  1.0 -0.0007475939
S  S8  1  0.29110000  0.84206000  0.34601000  1.0 -0.0007475939
N  N1  1  0.74980000  0.85060000  0.29630000  1.0 -0.271158138
N  N2  1  0.25020000  0.85060000  0.70370000  1.0 -0.271158138
N  N3  1  0.75020000  0.35060000  0.79630000  1.0 -0.271158138
N  N4  1  0.24980000  0.35060000  0.20370000  1.0 -0.271158138
N  N5  1  0.78620000  0.81300000  0.19890000  1.0 -0.3517647178
N  N6  1  0.21380000  0.81300000  0.80110000  1.0 -0.3517647178
N  N7  1  0.71380000  0.31300000  0.69890000  1.0 -0.3517647178
N  N8  1  0.28620000  0.31300000  0.30110000  1.0 -0.3517647178
N  N9  1  0.00540000  0.55880000  0.13250000  1.0 -0.1717079849
N  N10  1  0.99460000  0.55880000  0.86750000  1.0 -0.1717079849
N  N11  1  0.49460000  0.05880000  0.63250000  1.0 -0.1717079849
N  N12  1  0.50540000  0.05880000  0.36750000  1.0 -0.1717079849
N  N13  1  0.70890000  0.38390000  0.25740000  1.0 -0.3517647178
N  N14  1  0.29110000  0.38390000  0.74260000  1.0 -0.3517647178
N  N15  1  0.79110000  0.88390000  0.75740000  1.0 -0.3517647178
N  N16  1  0.20890000  0.88390000  0.24260000  1.0 -0.3517647178
N  N17  1  0.85070000  0.25290000  0.24950000  1.0 -0.3603897557
N  N18  1  0.14930000  0.25290000  0.75050000  1.0 -0.3603897557
N  N19  1  0.64930000  0.75290000  0.74950000  1.0 -0.3603897557
N  N20  1  0.35070000  0.75290000  0.25050000  1.0 -0.3603897557
N  N21  1  0.98430000  0.08460000  0.41060000  1.0 -0.1717079849
N  N22  1  0.01570000  0.08460000  0.58940000  1.0 -0.1717079849
N  N23  1  0.51570000  0.58460000  0.91060000  1.0 -0.1717079849
N  N24  1  0.48430000  0.58460000  0.08940000  1.0 -0.1717079849
N  N25  1  0.23800000  0.38880000  0.02050000  1.0 0.6412723943
N  N26  1  0.76200000  0.38880000  0.97950000  1.0 0.6412723943
N  N27  1  0.26200000  0.88880000  0.52050000  1.0 0.6412723943
N  N28  1  0.73800000  0.88880000  0.47950000  1.0 0.6412723943
O  O1  1  0.29290000  0.38050000  0.97150000  1.0 -0.3830354453
O  O2  1  0.70710000  0.38050000  0.02850000  1.0 -0.3830354453
O  O3  1  0.20710000  0.88050000  0.47150000  1.0 -0.3830354453
O  O4  1  0.79290000  0.88050000  0.52850000  1.0 -0.3830354453
O  O5  1  0.23880000  0.45440000  0.04170000  1.0 -0.369290372
O  O6  1  0.76120000  0.45440000  0.95830000  1.0 -0.369290372
O  O7  1  0.26120000  0.95440000  0.54170000  1.0 -0.369290372
O  O8  1  0.73880000  0.95440000  0.45830000  1.0 -0.369290372
O  O9  1  0.20850000  0.33020000  0.04980000  1.0 -0.369290372
O  O10  1  0.79150000  0.33020000  0.95020000  1.0 -0.369290372
O  O11  1  0.29150000  0.83020000  0.54980000  1.0 -0.369290372
O  O12  1  0.70850000  0.83020000  0.45020000  1.0 -0.369290372
