# DDEC6 charges by PACMAN v1.1 (https://github.com/mtap-research/PACMAN-charge/)
data_ROBYOY_FSR_pacman
_symmetry_space_group_name_H-M   'P 1'
_cell_length_a   13.01260000
_cell_length_b   13.11460000
_cell_length_c   13.90710000
_cell_angle_alpha   84.95600000
_cell_angle_beta   69.27300000
_cell_angle_gamma   84.60800000
_symmetry_Int_Tables_number   1
_chemical_formula_structural   ZnH15C22NO4
_chemical_formula_sum   'Zn4 H60 C88 N4 O16'
_cell_volume   2206.07604997
_cell_formula_units_Z   4
loop_
 _symmetry_equiv_pos_site_id
 _symmetry_equiv_pos_as_xyz
  1  'x, y, z'
loop_
 _atom_site_type_symbol
 _atom_site_label
 _atom_site_symmetry_multiplicity
 _atom_site_fract_x
 _atom_site_fract_y
 _atom_site_fract_z
 _atom_site_occupancy
 _atom_site_charge
Zn  Zn1  1  0.79702000  0.67794000  0.83578000  1.0 0.7865672621
Zn  Zn2  1  0.86633000  0.67257000  0.60983000  1.0 0.7783263835
Zn  Zn3  1  0.20298000  0.32206000  0.16422000  1.0 0.7865672621
Zn  Zn4  1  0.13367000  0.32743000  0.39017000  1.0 0.7783263835
H  H1  1  0.87180000  0.34300000  0.59950000  1.0 0.1297471437
H  H2  1  0.88530000  0.99890000  0.53940000  1.0 0.1120582211
H  H3  1  0.89300000  0.17510000  0.52100000  1.0 0.1297471437
H  H4  1  0.11870000  0.70020000  0.82930000  1.0 0.121716516
H  H5  1  0.42870000  0.71880000  0.91550000  1.0 0.1120582211
H  H6  1  0.25050000  0.72030000  0.91890000  1.0 0.0965426478
H  H7  1  0.77750000  0.00890000  0.84990000  1.0 0.121716516
H  H8  1  0.54530000  0.66140000  0.61330000  1.0 0.121716516
H  H9  1  0.91770000  0.53610000  0.27010000  1.0 0.0880572424
H  H10  1  0.41370000  0.64340000  0.52270000  1.0 0.121716516
H  H11  1  0.23540000  0.64450000  0.52630000  1.0 0.121716516
H  H12  1  0.93620000  0.53740000  0.42990000  1.0 0.0806862387
H  H13  1  0.75310000  0.35280000  0.91220000  1.0 0.0806862387
H  H14  1  0.72910000  0.17890000  0.92940000  1.0 0.0695384982
H  H15  1  0.88250000  0.82490000  0.43120000  1.0 0.0806862387
H  H16  1  0.86950000  0.83080000  0.26840000  1.0 0.0806862387
H  H17  1  0.92030000  0.53970000  0.12270000  1.0 0.0806862387
H  H18  1  0.88810000  0.54240000  0.96950000  1.0 0.052776292
H  H19  1  0.73610000  0.81810000  0.01180000  1.0 0.0880572424
H  H20  1  0.76260000  0.82380000  0.16740000  1.0 0.0880572424
H  H21  1  0.75600000  0.81530000  0.31580000  1.0 0.0806862387
H  H22  1  0.77570000  0.80940000  0.47630000  1.0 0.0806862387
H  H23  1  0.86810000  0.52560000  0.46020000  1.0 0.0806862387
H  H24  1  0.84580000  0.52300000  0.30160000  1.0 0.0806862387
H  H25  1  0.80820000  0.17220000  0.92300000  1.0 0.0695384982
H  H26  1  0.82580000  0.34880000  0.90040000  1.0 0.0695384982
H  H27  1  0.79280000  0.52880000  0.01310000  1.0 0.052776292
H  H28  1  0.81010000  0.52590000  0.17250000  1.0 0.0695384982
H  H29  1  0.80880000  0.82690000  0.97990000  1.0 0.0880572424
H  H30  1  0.83550000  0.83160000  0.13520000  1.0 0.0880572424
H  H31  1  0.12820000  0.65700000  0.40050000  1.0 0.1297471437
H  H32  1  0.11470000  0.00110000  0.46060000  1.0 0.1120582211
H  H33  1  0.10700000  0.82490000  0.47900000  1.0 0.1297471437
H  H34  1  0.88130000  0.29980000  0.17070000  1.0 0.121716516
H  H35  1  0.57130000  0.28120000  0.08450000  1.0 0.1120582211
H  H36  1  0.74950000  0.27970000  0.08110000  1.0 0.0965426478
H  H37  1  0.22250000  0.99110000  0.15010000  1.0 0.121716516
H  H38  1  0.45470000  0.33860000  0.38670000  1.0 0.121716516
H  H39  1  0.08230000  0.46390000  0.72990000  1.0 0.0880572424
H  H40  1  0.58630000  0.35660000  0.47730000  1.0 0.121716516
H  H41  1  0.76460000  0.35550000  0.47370000  1.0 0.121716516
H  H42  1  0.06380000  0.46260000  0.57010000  1.0 0.0806862387
H  H43  1  0.24690000  0.64720000  0.08780000  1.0 0.0806862387
H  H44  1  0.27090000  0.82110000  0.07060000  1.0 0.0695384982
H  H45  1  0.11750000  0.17510000  0.56880000  1.0 0.0806862387
H  H46  1  0.13050000  0.16920000  0.73160000  1.0 0.0806862387
H  H47  1  0.07970000  0.46030000  0.87730000  1.0 0.0806862387
H  H48  1  0.11190000  0.45760000  0.03050000  1.0 0.052776292
H  H49  1  0.26390000  0.18190000  0.98820000  1.0 0.0880572424
H  H50  1  0.23740000  0.17620000  0.83260000  1.0 0.0880572424
H  H51  1  0.24400000  0.18470000  0.68420000  1.0 0.0806862387
H  H52  1  0.22430000  0.19060000  0.52370000  1.0 0.0806862387
H  H53  1  0.13190000  0.47440000  0.53980000  1.0 0.0806862387
H  H54  1  0.15420000  0.47700000  0.69840000  1.0 0.0806862387
H  H55  1  0.19180000  0.82780000  0.07700000  1.0 0.0695384982
H  H56  1  0.17420000  0.65120000  0.09960000  1.0 0.0695384982
H  H57  1  0.20720000  0.47120000  0.98690000  1.0 0.052776292
H  H58  1  0.18990000  0.47410000  0.82750000  1.0 0.0695384982
H  H59  1  0.19120000  0.17310000  0.02010000  1.0 0.0880572424
H  H60  1  0.16450000  0.16840000  0.86480000  1.0 0.0880572424
C  C1  1  0.83110000  0.47890000  0.74020000  1.0 0.5242465052
C  C2  1  0.84480000  0.20090000  0.67490000  1.0 0.052776292
C  C3  1  0.82880000  0.87260000  0.70860000  1.0 0.5863988462
C  C4  1  0.85050000  0.30850000  0.66580000  1.0 -0.2986787495
C  C5  1  0.62150000  0.68560000  0.76120000  1.0 0.5863988462
C  C6  1  0.86590000  0.03740000  0.59870000  1.0 -0.1151805979
C  C7  1  0.87120000  0.14190000  0.58800000  1.0 -0.1322328535
C  C8  1  0.17900000  0.68920000  0.76730000  1.0 -0.2228441623
C  C9  1  0.28740000  0.69080000  0.76710000  1.0 0.0880572424
C  C10  1  0.50500000  0.68880000  0.76280000  1.0 0.003226781
C  C11  1  0.83140000  0.98670000  0.69830000  1.0 -0.0188708805
C  C12  1  0.82590000  0.36380000  0.75120000  1.0 0.0105573448
C  C13  1  0.83260000  0.67850000  0.16940000  1.0 -0.0279588264
C  C14  1  0.41530000  0.70700000  0.85470000  1.0 -0.1122009766
C  C15  1  0.30990000  0.70790000  0.85650000  1.0 -0.1702989054
C  C16  1  0.15910000  0.67230000  0.68040000  1.0 -0.0188708805
C  C17  1  0.80250000  0.04290000  0.78340000  1.0 -0.2300310519
C  C18  1  0.84730000  0.67830000  0.27070000  1.0 -0.0188708805
C  C19  1  0.48500000  0.67290000  0.67510000  1.0 -0.1702989054
C  C20  1  0.37690000  0.67340000  0.67480000  1.0 0.0806862387
C  C21  1  0.89260000  0.59540000  0.30880000  1.0 -0.0595273755
C  C22  1  0.35430000  0.65550000  0.58510000  1.0 -0.1472796735
C  C23  1  0.24900000  0.65560000  0.58720000  1.0 -0.1322328535
C  C24  1  0.90280000  0.59640000  0.40510000  1.0 0.0281162732
C  C25  1  0.80920000  0.15040000  0.77450000  1.0 0.0695384982
C  C26  1  0.77710000  0.31360000  0.85290000  1.0 -0.039083455
C  C27  1  0.76570000  0.21070000  0.86350000  1.0 -0.0188708805
C  C28  1  0.04240000  0.66970000  0.68420000  1.0 0.5501407894
C  C29  1  0.87280000  0.76330000  0.40510000  1.0 0.0368992507
C  C30  1  0.86410000  0.76770000  0.30840000  1.0 -0.0793772575
C  C31  1  0.87800000  0.59550000  0.10360000  1.0 -0.0894295511
C  C32  1  0.85930000  0.59830000  0.01260000  1.0 0.0105573448
C  C33  1  0.77000000  0.75960000  0.03690000  1.0 0.0281162732
C  C34  1  0.78490000  0.76330000  0.13030000  1.0 -0.0510684357
C  C35  1  0.79700000  0.75960000  0.33670000  1.0 -0.0510684357
C  C36  1  0.80910000  0.75560000  0.43160000  1.0 0.0281162732
C  C37  1  0.86320000  0.58880000  0.42250000  1.0 0.0281162732
C  C38  1  0.85120000  0.58620000  0.32730000  1.0 -0.039083455
C  C39  1  0.81250000  0.20730000  0.85910000  1.0 -0.0510684357
C  C40  1  0.82200000  0.31190000  0.84610000  1.0 -0.0595273755
C  C41  1  0.80140000  0.59130000  0.03830000  1.0 0.0368992507
C  C42  1  0.81400000  0.58890000  0.13230000  1.0 -0.0595273755
C  C43  1  0.81200000  0.76410000  0.01880000  1.0 0.0105573448
C  C44  1  0.82790000  0.76780000  0.11170000  1.0 -0.0595273755
C  C45  1  0.16890000  0.52110000  0.25980000  1.0 0.5242465052
C  C46  1  0.15520000  0.79910000  0.32510000  1.0 0.052776292
C  C47  1  0.17120000  0.12740000  0.29140000  1.0 0.5863988462
C  C48  1  0.14950000  0.69150000  0.33420000  1.0 -0.2986787495
C  C49  1  0.37850000  0.31440000  0.23880000  1.0 0.5863988462
C  C50  1  0.13410000  0.96260000  0.40130000  1.0 -0.1151805979
C  C51  1  0.12880000  0.85810000  0.41200000  1.0 -0.1322328535
C  C52  1  0.82100000  0.31080000  0.23270000  1.0 -0.2228441623
C  C53  1  0.71260000  0.30920000  0.23290000  1.0 0.0880572424
C  C54  1  0.49500000  0.31120000  0.23720000  1.0 0.003226781
C  C55  1  0.16860000  0.01330000  0.30170000  1.0 -0.0188708805
C  C56  1  0.17410000  0.63620000  0.24880000  1.0 0.0105573448
C  C57  1  0.16740000  0.32150000  0.83060000  1.0 -0.0279588264
C  C58  1  0.58470000  0.29300000  0.14530000  1.0 -0.1122009766
C  C59  1  0.69010000  0.29210000  0.14350000  1.0 -0.1702989054
C  C60  1  0.84090000  0.32770000  0.31960000  1.0 -0.0188708805
C  C61  1  0.19750000  0.95710000  0.21660000  1.0 -0.2300310519
C  C62  1  0.15270000  0.32170000  0.72930000  1.0 -0.0188708805
C  C63  1  0.51500000  0.32710000  0.32490000  1.0 -0.1702989054
C  C64  1  0.62310000  0.32660000  0.32520000  1.0 0.0806862387
C  C65  1  0.10740000  0.40460000  0.69120000  1.0 -0.0595273755
C  C66  1  0.64570000  0.34450000  0.41490000  1.0 -0.1472796735
C  C67  1  0.75100000  0.34440000  0.41280000  1.0 -0.1322328535
C  C68  1  0.09720000  0.40360000  0.59490000  1.0 0.0281162732
C  C69  1  0.19080000  0.84960000  0.22550000  1.0 0.0695384982
C  C70  1  0.22290000  0.68640000  0.14710000  1.0 -0.039083455
C  C71  1  0.23430000  0.78930000  0.13650000  1.0 -0.0188708805
C  C72  1  0.95760000  0.33030000  0.31580000  1.0 0.5501407894
C  C73  1  0.12720000  0.23670000  0.59490000  1.0 0.0368992507
C  C74  1  0.13590000  0.23230000  0.69160000  1.0 -0.0793772575
C  C75  1  0.12200000  0.40450000  0.89640000  1.0 -0.0894295511
C  C76  1  0.14070000  0.40170000  0.98740000  1.0 0.0105573448
C  C77  1  0.23000000  0.24040000  0.96310000  1.0 0.0281162732
C  C78  1  0.21510000  0.23670000  0.86970000  1.0 -0.0510684357
C  C79  1  0.20300000  0.24040000  0.66330000  1.0 -0.0510684357
C  C80  1  0.19090000  0.24440000  0.56840000  1.0 0.0281162732
C  C81  1  0.13680000  0.41120000  0.57750000  1.0 0.0281162732
C  C82  1  0.14880000  0.41380000  0.67270000  1.0 -0.039083455
C  C83  1  0.18750000  0.79270000  0.14090000  1.0 -0.0510684357
C  C84  1  0.17800000  0.68810000  0.15390000  1.0 -0.0595273755
C  C85  1  0.19860000  0.40870000  0.96170000  1.0 0.0368992507
C  C86  1  0.18600000  0.41110000  0.86770000  1.0 -0.0595273755
C  C87  1  0.18800000  0.23590000  0.98120000  1.0 0.0105573448
C  C88  1  0.17210000  0.23220000  0.88830000  1.0 -0.0595273755
N  N1  1  0.80090000  0.67783000  0.98106000  1.0 -0.1570334819
N  N2  1  0.86820000  0.67553000  0.46330000  1.0 -0.1702989054
N  N3  1  0.19910000  0.32217000  0.01894000  1.0 -0.1570334819
N  N4  1  0.13180000  0.32447000  0.53670000  1.0 -0.1702989054
O  O1  1  0.86039000  0.52046000  0.65102000  1.0 -0.5126115766
O  O2  1  0.86046000  0.82576000  0.62724000  1.0 -0.5377518025
O  O3  1  0.02739000  0.66319000  0.59985000  1.0 -0.5377518025
O  O4  1  0.79630000  0.83055000  0.79871000  1.0 -0.5377518025
O  O5  1  0.63591000  0.68490000  0.84577000  1.0 -0.5271599578
O  O6  1  0.80650000  0.52438000  0.82244000  1.0 -0.5271599578
O  O7  1  0.69630000  0.68276000  0.67486000  1.0 -0.5555153576
O  O8  1  0.96827000  0.67380000  0.77006000  1.0 -0.5271599578
O  O9  1  0.13961000  0.47954000  0.34898000  1.0 -0.5126115766
O  O10  1  0.13954000  0.17424000  0.37276000  1.0 -0.5377518025
O  O11  1  0.97261000  0.33681000  0.40015000  1.0 -0.5377518025
O  O12  1  0.20370000  0.16945000  0.20129000  1.0 -0.5377518025
O  O13  1  0.36409000  0.31510000  0.15423000  1.0 -0.5271599578
O  O14  1  0.19350000  0.47562000  0.17756000  1.0 -0.5271599578
O  O15  1  0.30370000  0.31724000  0.32514000  1.0 -0.5555153576
O  O16  1  0.03173000  0.32620000  0.22994000  1.0 -0.5271599578
