# DDEC6 charges by PACMAN v1.1 (https://github.com/mtap-research/PACMAN-charge/)
data_ROCZAM_FSR_pacman
_symmetry_space_group_name_H-M   'P 1'
_cell_length_a   9.61500000
_cell_length_b   21.12200000
_cell_length_c   13.15200000
_cell_angle_alpha   90.00000000
_cell_angle_beta   91.12600000
_cell_angle_gamma   90.00000000
_symmetry_Int_Tables_number   1
_chemical_formula_structural   Cd3H34C34(N7O5)2
_chemical_formula_sum   'Cd6 H68 C68 N28 O20'
_cell_volume   2670.49799154
_cell_formula_units_Z   2
loop_
 _symmetry_equiv_pos_site_id
 _symmetry_equiv_pos_as_xyz
  1  'x, y, z'
loop_
 _atom_site_type_symbol
 _atom_site_label
 _atom_site_symmetry_multiplicity
 _atom_site_fract_x
 _atom_site_fract_y
 _atom_site_fract_z
 _atom_site_occupancy
 _atom_site_charge
Cd  Cd1  1  0.00000000  0.00000000  0.00000000  1.0 0.9848642927
Cd  Cd2  1  0.00000000  0.50000000  0.50000000  1.0 0.9848642927
Cd  Cd3  1  0.10259000  0.91031000  0.77244000  1.0 0.8448864799
Cd  Cd4  1  0.89741000  0.41031000  0.72756000  1.0 0.8448864799
Cd  Cd5  1  0.89741000  0.08969000  0.22756000  1.0 0.8448864799
Cd  Cd6  1  0.10259000  0.58969000  0.27244000  1.0 0.8448864799
H  H1  1  0.00230000  0.73240000  0.27490000  1.0 0.1029397056
H  H2  1  0.99770000  0.23240000  0.22510000  1.0 0.1029397056
H  H3  1  0.99770000  0.26760000  0.72510000  1.0 0.1029397056
H  H4  1  0.00230000  0.76760000  0.77490000  1.0 0.1029397056
H  H5  1  0.00260000  0.82630000  0.18600000  1.0 0.1276968848
H  H6  1  0.99740000  0.32630000  0.31400000  1.0 0.1276968848
H  H7  1  0.99740000  0.17370000  0.81400000  1.0 0.1276968848
H  H8  1  0.00260000  0.67370000  0.68600000  1.0 0.1276968848
H  H9  1  0.17910000  0.73660000  0.95720000  1.0 0.1276968848
H  H10  1  0.82090000  0.23660000  0.54280000  1.0 0.1276968848
H  H11  1  0.82090000  0.26340000  0.04280000  1.0 0.1276968848
H  H12  1  0.17910000  0.76340000  0.45720000  1.0 0.1276968848
H  H13  1  0.18890000  0.64640000  0.05540000  1.0 0.0809775461
H  H14  1  0.81110000  0.14640000  0.44460000  1.0 0.0809775461
H  H15  1  0.81110000  0.35360000  0.94460000  1.0 0.0809775461
H  H16  1  0.18890000  0.85360000  0.55540000  1.0 0.0809775461
H  H17  1  0.34630000  0.92610000  0.93310000  1.0 0.1029397056
H  H18  1  0.65370000  0.42610000  0.56690000  1.0 0.1029397056
H  H19  1  0.65370000  0.07390000  0.06690000  1.0 0.1029397056
H  H20  1  0.34630000  0.57390000  0.43310000  1.0 0.1029397056
H  H21  1  0.57850000  0.94050000  0.96000000  1.0 0.1276968848
H  H22  1  0.42150000  0.44050000  0.54000000  1.0 0.1276968848
H  H23  1  0.42150000  0.05950000  0.04000000  1.0 0.1276968848
H  H24  1  0.57850000  0.55950000  0.46000000  1.0 0.1276968848
H  H25  1  0.63920000  0.89090000  0.67170000  1.0 0.1164985645
H  H26  1  0.36080000  0.39090000  0.82830000  1.0 0.1164985645
H  H27  1  0.36080000  0.10910000  0.32830000  1.0 0.1164985645
H  H28  1  0.63920000  0.60910000  0.17170000  1.0 0.1164985645
H  H29  1  0.40460000  0.88240000  0.65000000  1.0 0.0809775461
H  H30  1  0.59540000  0.38240000  0.85000000  1.0 0.0809775461
H  H31  1  0.59540000  0.11760000  0.35000000  1.0 0.0809775461
H  H32  1  0.40460000  0.61760000  0.15000000  1.0 0.0809775461
H  H33  1  0.92070000  0.09260000  0.63670000  1.0 0.1127255856
H  H34  1  0.07930000  0.59260000  0.86330000  1.0 0.1164985645
H  H35  1  0.07930000  0.90740000  0.36330000  1.0 0.1127255856
H  H36  1  0.92070000  0.40740000  0.13670000  1.0 0.1127255856
H  H37  1  0.92230000  0.02280000  0.59600000  1.0 0.0919251526
H  H38  1  0.07770000  0.52280000  0.90400000  1.0 0.0919251526
H  H39  1  0.07770000  0.97720000  0.40400000  1.0 0.0919251526
H  H40  1  0.92230000  0.47720000  0.09600000  1.0 0.0919251526
H  H41  1  0.98430000  0.03830000  0.70430000  1.0 0.1164985645
H  H42  1  0.01570000  0.53830000  0.79570000  1.0 0.1164985645
H  H43  1  0.01570000  0.96170000  0.29570000  1.0 0.1164985645
H  H44  1  0.98430000  0.46170000  0.20430000  1.0 0.1164985645
H  H45  1  0.11220000  0.15840000  0.54110000  1.0 0.1029397056
H  H46  1  0.88780000  0.65840000  0.95890000  1.0 0.1029397056
H  H47  1  0.88780000  0.84160000  0.45890000  1.0 0.1029397056
H  H48  1  0.11220000  0.34160000  0.04110000  1.0 0.1029397056
H  H49  1  0.26010000  0.13140000  0.56870000  1.0 0.1127255856
H  H50  1  0.73990000  0.63140000  0.93130000  1.0 0.1127255856
H  H51  1  0.73990000  0.86860000  0.43130000  1.0 0.1127255856
H  H52  1  0.26010000  0.36860000  0.06870000  1.0 0.1127255856
H  H53  1  0.18480000  0.11110000  0.46700000  1.0 0.1127255856
H  H54  1  0.81520000  0.61110000  0.03300000  1.0 0.1127255856
H  H55  1  0.81520000  0.88890000  0.53300000  1.0 0.1127255856
H  H56  1  0.18480000  0.38890000  0.96700000  1.0 0.1127255856
H  H57  1  0.37330000  0.98300000  0.53280000  1.0 0.0919251526
H  H58  1  0.62670000  0.48300000  0.96720000  1.0 0.0919251526
H  H59  1  0.62670000  0.01700000  0.46720000  1.0 0.0919251526
H  H60  1  0.37330000  0.51700000  0.03280000  1.0 0.0919251526
H  H61  1  0.31210000  0.03590000  0.46130000  1.0 0.1029397056
H  H62  1  0.68790000  0.53590000  0.03870000  1.0 0.1127255856
H  H63  1  0.68790000  0.96410000  0.53870000  1.0 0.1127255856
H  H64  1  0.31210000  0.46410000  0.96130000  1.0 0.1029397056
H  H65  1  0.38170000  0.05420000  0.56610000  1.0 0.1127255856
H  H66  1  0.61830000  0.55420000  0.93390000  1.0 0.1127255856
H  H67  1  0.61830000  0.94580000  0.43390000  1.0 0.1127255856
H  H68  1  0.38170000  0.44580000  0.06610000  1.0 0.1127255856
C  C1  1  0.04140000  0.73340000  0.21080000  1.0 0.0696441215
C  C2  1  0.95860000  0.23340000  0.28920000  1.0 0.0696441215
C  C3  1  0.95860000  0.26660000  0.78920000  1.0 0.0696441215
C  C4  1  0.04140000  0.76660000  0.71080000  1.0 0.0696441215
C  C5  1  0.03940000  0.79000000  0.15710000  1.0 -0.1698867399
C  C6  1  0.96060000  0.29000000  0.34290000  1.0 -0.1698867399
C  C7  1  0.96060000  0.21000000  0.84290000  1.0 -0.1698867399
C  C8  1  0.03940000  0.71000000  0.65710000  1.0 -0.1698867399
C  C9  1  0.09210000  0.79170000  0.06150000  1.0 0.0238211062
C  C10  1  0.90790000  0.29170000  0.43850000  1.0 0.0238211062
C  C11  1  0.90790000  0.20830000  0.93850000  1.0 0.0238211062
C  C12  1  0.09210000  0.70830000  0.56150000  1.0 0.0238211062
C  C13  1  0.14520000  0.73730000  0.02290000  1.0 -0.1781350616
C  C14  1  0.85480000  0.23730000  0.47710000  1.0 -0.1781350616
C  C15  1  0.85480000  0.26270000  0.97710000  1.0 -0.1781350616
C  C16  1  0.14520000  0.76270000  0.52290000  1.0 -0.1781350616
C  C17  1  0.14870000  0.68270000  0.08190000  1.0 0.0401925094
C  C18  1  0.85130000  0.18270000  0.41810000  1.0 0.0401925094
C  C19  1  0.85130000  0.31730000  0.91810000  1.0 0.0401925094
C  C20  1  0.14870000  0.81730000  0.58190000  1.0 0.0401925094
C  C21  1  0.09150000  0.85220000  0.00100000  1.0 0.5661439579
C  C22  1  0.90850000  0.35220000  0.49900000  1.0 0.5661439579
C  C23  1  0.90850000  0.14780000  0.99900000  1.0 0.5661439579
C  C24  1  0.09150000  0.64780000  0.50100000  1.0 0.5661439579
C  C25  1  0.40620000  0.92020000  0.87920000  1.0 0.0696441215
C  C26  1  0.59380000  0.42020000  0.62080000  1.0 0.0696441215
C  C27  1  0.59380000  0.07980000  0.12080000  1.0 0.0696441215
C  C28  1  0.40620000  0.57980000  0.37920000  1.0 0.0696441215
C  C29  1  0.54550000  0.92780000  0.89630000  1.0 -0.1558352541
C  C30  1  0.45450000  0.42780000  0.60370000  1.0 -0.1558352541
C  C31  1  0.45450000  0.07220000  0.10370000  1.0 -0.1558352541
C  C32  1  0.54550000  0.57220000  0.39630000  1.0 -0.1558352541
C  C33  1  0.63790000  0.91660000  0.81900000  1.0 0.0401925094
C  C34  1  0.36210000  0.41660000  0.68100000  1.0 0.0401925094
C  C35  1  0.36210000  0.08340000  0.18100000  1.0 0.0401925094
C  C36  1  0.63790000  0.58340000  0.31900000  1.0 0.0401925094
C  C37  1  0.58130000  0.89910000  0.72600000  1.0 -0.1888562831
C  C38  1  0.41870000  0.39910000  0.77400000  1.0 -0.1888562831
C  C39  1  0.41870000  0.10090000  0.27400000  1.0 -0.1888562831
C  C40  1  0.58130000  0.60090000  0.22600000  1.0 -0.1888562831
C  C41  1  0.44060000  0.89390000  0.71350000  1.0 0.0511403624
C  C42  1  0.55940000  0.39390000  0.78650000  1.0 0.0511403624
C  C43  1  0.55940000  0.10610000  0.28650000  1.0 0.0511403624
C  C44  1  0.44060000  0.60610000  0.21350000  1.0 0.0511403624
C  C45  1  0.79250000  0.92670000  0.83440000  1.0 0.5601762515
C  C46  1  0.20750000  0.42670000  0.66560000  1.0 0.5601762515
C  C47  1  0.20750000  0.07330000  0.16560000  1.0 0.5601762515
C  C48  1  0.79250000  0.57330000  0.33440000  1.0 0.5601762515
C  C49  1  0.97230000  0.05360000  0.63600000  1.0 -0.310858218
C  C50  1  0.02770000  0.55360000  0.86400000  1.0 -0.310858218
C  C51  1  0.02770000  0.94640000  0.36400000  1.0 -0.310858218
C  C52  1  0.97230000  0.44640000  0.13600000  1.0 -0.310858218
C  C53  1  0.17170000  0.12200000  0.53700000  1.0 -0.2320649046
C  C54  1  0.82830000  0.62200000  0.96300000  1.0 -0.2320649046
C  C55  1  0.82830000  0.87800000  0.46300000  1.0 -0.2320649046
C  C56  1  0.17170000  0.37800000  0.03700000  1.0 -0.2320649046
C  C57  1  0.32620000  0.02300000  0.53080000  1.0 -0.310858218
C  C58  1  0.67380000  0.52300000  0.96920000  1.0 -0.310858218
C  C59  1  0.67380000  0.97700000  0.46920000  1.0 -0.310858218
C  C60  1  0.32620000  0.47700000  0.03080000  1.0 -0.310858218
C  C61  1  0.10860000  0.01900000  0.60360000  1.0 0.2315543089
C  C62  1  0.89140000  0.51900000  0.89640000  1.0 0.2315543089
C  C63  1  0.89140000  0.98100000  0.39640000  1.0 0.2315543089
C  C64  1  0.10860000  0.48100000  0.10360000  1.0 0.2315543089
C  C65  1  0.17700000  0.01700000  0.58500000  1.0 0.2149806004
C  C66  1  0.82300000  0.51700000  0.91500000  1.0 0.2153406721
C  C67  1  0.82300000  0.98300000  0.41500000  1.0 0.2153406721
C  C68  1  0.17700000  0.48300000  0.08500000  1.0 0.2149806004
N  N1  1  0.09700000  0.68030000  0.17420000  1.0 -0.2405696939
N  N2  1  0.90300000  0.18030000  0.32580000  1.0 -0.2405696939
N  N3  1  0.90300000  0.31970000  0.82580000  1.0 -0.2405696939
N  N4  1  0.09700000  0.81970000  0.67420000  1.0 -0.2405696939
N  N5  1  0.35230000  0.90480000  0.78880000  1.0 -0.2457009088
N  N6  1  0.64770000  0.40480000  0.71120000  1.0 -0.2457009088
N  N7  1  0.64770000  0.09520000  0.21120000  1.0 -0.2457009088
N  N8  1  0.35230000  0.59520000  0.28880000  1.0 -0.2457009088
N  N9  1  0.12460000  0.00370000  0.85690000  1.0 -0.5855429191
N  N10  1  0.87540000  0.50370000  0.64310000  1.0 -0.5855429191
N  N11  1  0.87540000  0.99630000  0.14310000  1.0 -0.5855429191
N  N12  1  0.12460000  0.49630000  0.35690000  1.0 -0.5855429191
N  N13  1  0.19820000  0.04590000  0.83630000  1.0 0.4204134327
N  N14  1  0.80180000  0.54590000  0.66370000  1.0 0.4204134327
N  N15  1  0.80180000  0.95410000  0.16370000  1.0 0.4204134327
N  N16  1  0.19820000  0.45410000  0.33630000  1.0 0.4204134327
N  N17  1  0.26370000  0.08810000  0.81400000  1.0 -0.38953753
N  N18  1  0.73630000  0.58810000  0.68600000  1.0 -0.38953753
N  N19  1  0.73630000  0.91190000  0.18600000  1.0 -0.38953753
N  N20  1  0.26370000  0.41190000  0.31400000  1.0 -0.38953753
N  N21  1  0.20040000  0.05520000  0.55650000  1.0 0.0696441215
N  N22  1  0.79960000  0.55520000  0.94350000  1.0 0.0696441215
N  N23  1  0.79960000  0.94480000  0.44350000  1.0 0.0696441215
N  N24  1  0.20040000  0.44480000  0.05650000  1.0 0.0696441215
N  N25  1  0.10200000  0.06420000  0.59400000  1.0 0.0401925094
N  N26  1  0.89800000  0.56420000  0.90600000  1.0 0.0401925094
N  N27  1  0.89800000  0.93580000  0.40600000  1.0 0.0401925094
N  N28  1  0.10200000  0.43580000  0.09400000  1.0 0.0401925094
O  O1  1  0.08800000  0.90310000  0.04970000  1.0 -0.5543201062
O  O2  1  0.91200000  0.40310000  0.45030000  1.0 -0.5543201062
O  O3  1  0.91200000  0.09690000  0.95030000  1.0 -0.5543201062
O  O4  1  0.08800000  0.59690000  0.54970000  1.0 -0.5543201062
O  O5  1  0.10270000  0.84550000  0.90730000  1.0 -0.5543201062
O  O6  1  0.89730000  0.34550000  0.59270000  1.0 -0.5543201062
O  O7  1  0.89730000  0.15450000  0.09270000  1.0 -0.5543201062
O  O8  1  0.10270000  0.65450000  0.40730000  1.0 -0.5543201062
O  O9  1  0.82670000  0.94880000  0.91710000  1.0 -0.5325095076
O  O10  1  0.17330000  0.44880000  0.58290000  1.0 -0.5325095076
O  O11  1  0.17330000  0.05120000  0.08290000  1.0 -0.5325095076
O  O12  1  0.82670000  0.55120000  0.41710000  1.0 -0.5325095076
O  O13  1  0.86780000  0.91160000  0.76380000  1.0 -0.5437647868
O  O14  1  0.13220000  0.41160000  0.73620000  1.0 -0.5437647868
O  O15  1  0.13220000  0.08840000  0.23620000  1.0 -0.5437647868
O  O16  1  0.86780000  0.58840000  0.26380000  1.0 -0.5437647868
O  O17  1  0.13290000  0.96390000  0.61990000  1.0 -0.3728688676
O  O18  1  0.86710000  0.46390000  0.88010000  1.0 -0.3728688676
O  O19  1  0.86710000  0.03610000  0.38010000  1.0 -0.3728688676
O  O20  1  0.13290000  0.53610000  0.11990000  1.0 -0.3728688676
