# DDEC6 charges by PACMAN v1.1 (https://github.com/mtap-research/PACMAN-charge/)
data_ROCZEQ_FSR_pacman
_symmetry_space_group_name_H-M   'P 1'
_cell_length_a   9.62800000
_cell_length_b   21.33700000
_cell_length_c   13.20800000
_cell_angle_alpha   90.00000000
_cell_angle_beta   91.95300000
_cell_angle_gamma   90.00000000
_symmetry_Int_Tables_number   1
_chemical_formula_structural   Cd3H16C36(N6O5)2
_chemical_formula_sum   'Cd6 H32 C72 N24 O20'
_cell_volume   2711.77812034
_cell_formula_units_Z   2
loop_
 _symmetry_equiv_pos_site_id
 _symmetry_equiv_pos_as_xyz
  1  'x, y, z'
loop_
 _atom_site_type_symbol
 _atom_site_label
 _atom_site_symmetry_multiplicity
 _atom_site_fract_x
 _atom_site_fract_y
 _atom_site_fract_z
 _atom_site_occupancy
 _atom_site_charge
Cd  Cd1  1  0.50000000  0.00000000  0.50000000  1.0 1.0088310532
Cd  Cd2  1  0.50000000  0.50000000  0.00000000  1.0 1.0088310532
Cd  Cd3  1  0.59446000  0.09159000  0.27423000  1.0 0.8924447439
Cd  Cd4  1  0.40554000  0.59159000  0.22577000  1.0 0.8924447439
Cd  Cd5  1  0.40554000  0.90841000  0.72577000  1.0 0.8924447439
Cd  Cd6  1  0.59446000  0.40841000  0.77423000  1.0 0.8924447439
H  H1  1  0.48440000  0.26840000  0.77240000  1.0 0.1098075452
H  H2  1  0.51560000  0.76840000  0.72760000  1.0 0.1098075452
H  H3  1  0.51560000  0.73160000  0.22760000  1.0 0.1098075452
H  H4  1  0.48440000  0.23160000  0.27240000  1.0 0.1098075452
H  H5  1  0.47530000  0.17680000  0.68100000  1.0 0.1428177871
H  H6  1  0.52470000  0.67680000  0.81900000  1.0 0.1428177871
H  H7  1  0.52470000  0.82320000  0.31900000  1.0 0.1428177871
H  H8  1  0.47530000  0.32320000  0.18100000  1.0 0.1428177871
H  H9  1  0.68220000  0.26200000  0.46490000  1.0 0.1428177871
H  H10  1  0.31780000  0.76200000  0.03510000  1.0 0.1428177871
H  H11  1  0.31780000  0.73800000  0.53510000  1.0 0.1428177871
H  H12  1  0.68220000  0.23800000  0.96490000  1.0 0.1428177871
H  H13  1  0.68860000  0.35080000  0.56160000  1.0 0.1098075452
H  H14  1  0.31140000  0.85080000  0.93840000  1.0 0.1098075452
H  H15  1  0.31140000  0.64920000  0.43840000  1.0 0.1098075452
H  H16  1  0.68860000  0.14920000  0.06160000  1.0 0.1098075452
H  H17  1  0.84280000  0.07830000  0.43520000  1.0 0.1098075452
H  H18  1  0.15720000  0.57830000  0.06480000  1.0 0.1098075452
H  H19  1  0.15720000  0.92170000  0.56480000  1.0 0.1098075452
H  H20  1  0.84280000  0.42170000  0.93520000  1.0 0.1098075452
H  H21  1  0.07610000  0.06350000  0.46280000  1.0 0.1428177871
H  H22  1  0.92390000  0.56350000  0.03720000  1.0 0.1428177871
H  H23  1  0.92390000  0.93650000  0.53720000  1.0 0.1428177871
H  H24  1  0.07610000  0.43650000  0.96280000  1.0 0.1428177871
H  H25  1  0.12840000  0.10370000  0.17250000  1.0 0.1474819176
H  H26  1  0.87160000  0.60370000  0.32750000  1.0 0.1474819176
H  H27  1  0.87160000  0.89630000  0.82750000  1.0 0.1474819176
H  H28  1  0.12840000  0.39630000  0.67250000  1.0 0.1474819176
H  H29  1  0.89290000  0.11260000  0.15120000  1.0 0.0996342393
H  H30  1  0.10710000  0.61260000  0.34880000  1.0 0.0996342393
H  H31  1  0.10710000  0.88740000  0.84880000  1.0 0.0996342393
H  H32  1  0.89290000  0.38740000  0.65120000  1.0 0.0996342393
C  C1  1  0.52490000  0.26705000  0.70950000  1.0 0.09012495
C  C2  1  0.47510000  0.76705000  0.79050000  1.0 0.09012495
C  C3  1  0.47510000  0.73295000  0.29050000  1.0 0.09012495
C  C4  1  0.52490000  0.23295000  0.20950000  1.0 0.09012495
C  C5  1  0.51960000  0.21177000  0.65510000  1.0 -0.1493367804
C  C6  1  0.48040000  0.71177000  0.84490000  1.0 -0.1493367804
C  C7  1  0.48040000  0.78823000  0.34490000  1.0 -0.1493367804
C  C8  1  0.51960000  0.28823000  0.15510000  1.0 -0.1493367804
C  C9  1  0.58030000  0.20877000  0.56230000  1.0 0.0318261228
C  C10  1  0.41970000  0.70877000  0.93770000  1.0 0.0318261228
C  C11  1  0.41970000  0.79123000  0.43770000  1.0 0.0318261228
C  C12  1  0.58030000  0.29123000  0.06230000  1.0 0.0318261228
C  C13  1  0.64180000  0.26197000  0.52790000  1.0 -0.1493367804
C  C14  1  0.35820000  0.76197000  0.97210000  1.0 -0.155986131
C  C15  1  0.35820000  0.73803000  0.47210000  1.0 -0.1493367804
C  C16  1  0.64180000  0.23803000  0.02790000  1.0 -0.1493367804
C  C17  1  0.64430000  0.31538000  0.58580000  1.0 0.0718237145
C  C18  1  0.35570000  0.81538000  0.91420000  1.0 0.0718237145
C  C19  1  0.35570000  0.68462000  0.41420000  1.0 0.0718237145
C  C20  1  0.64430000  0.18462000  0.08580000  1.0 0.0718237145
C  C21  1  0.58000000  0.14902000  0.50080000  1.0 0.5845153026
C  C22  1  0.42000000  0.64902000  0.99920000  1.0 0.5845153026
C  C23  1  0.42000000  0.85098000  0.49920000  1.0 0.5845153026
C  C24  1  0.58000000  0.35098000  0.00080000  1.0 0.5845153026
C  C25  1  0.90120000  0.08221000  0.38100000  1.0 0.0718237145
C  C26  1  0.09880000  0.58221000  0.11900000  1.0 0.0718237145
C  C27  1  0.09880000  0.91779000  0.61900000  1.0 0.0718237145
C  C28  1  0.90120000  0.41779000  0.88100000  1.0 0.0718237145
C  C29  1  0.04150000  0.07405000  0.39850000  1.0 -0.1493367804
C  C30  1  0.95850000  0.57405000  0.10150000  1.0 -0.1493367804
C  C31  1  0.95850000  0.92595000  0.60150000  1.0 -0.1493367804
C  C32  1  0.04150000  0.42595000  0.89850000  1.0 -0.1493367804
C  C33  1  0.13000000  0.08153000  0.32010000  1.0 0.0318261228
C  C34  1  0.87000000  0.58153000  0.17990000  1.0 0.0318261228
C  C35  1  0.87000000  0.91847000  0.67990000  1.0 0.0318261228
C  C36  1  0.13000000  0.41847000  0.82010000  1.0 0.0318261228
C  C37  1  0.07190000  0.09710000  0.22720000  1.0 -0.1401523098
C  C38  1  0.92810000  0.59710000  0.27280000  1.0 -0.1401523098
C  C39  1  0.92810000  0.90290000  0.77280000  1.0 -0.1401523098
C  C40  1  0.07190000  0.40290000  0.72720000  1.0 -0.1401523098
C  C41  1  0.93020000  0.10300000  0.21510000  1.0 0.09012495
C  C42  1  0.06980000  0.60300000  0.28490000  1.0 0.0838372514
C  C43  1  0.06980000  0.89700000  0.78490000  1.0 0.0838372514
C  C44  1  0.93020000  0.39700000  0.71510000  1.0 0.09012495
C  C45  1  0.28390000  0.07090000  0.33600000  1.0 0.5921827249
C  C46  1  0.71610000  0.57090000  0.16400000  1.0 0.5921827249
C  C47  1  0.71610000  0.92910000  0.66400000  1.0 0.5921827249
C  C48  1  0.28390000  0.42910000  0.83600000  1.0 0.5921827249
C  C49  1  0.63990000  0.98530000  0.09910000  1.0 0.3765297822
C  C50  1  0.36010000  0.48530000  0.40090000  1.0 0.3765297822
C  C51  1  0.36010000  0.01470000  0.90090000  1.0 0.3765297822
C  C52  1  0.63990000  0.51470000  0.59910000  1.0 0.3765297822
C  C53  1  0.72580000  0.89330000  0.02050000  1.0 -0.0834832373
C  C54  1  0.27420000  0.39330000  0.47950000  1.0 -0.0834832373
C  C55  1  0.27420000  0.10670000  0.97950000  1.0 -0.0834832373
C  C56  1  0.72580000  0.60670000  0.52050000  1.0 -0.08600922
C  C57  1  0.62100000  0.87560000  0.09260000  1.0 -0.0315072423
C  C58  1  0.37900000  0.37560000  0.40740000  1.0 -0.0315072423
C  C59  1  0.37900000  0.12440000  0.90740000  1.0 -0.0315072423
C  C60  1  0.62100000  0.62440000  0.59260000  1.0 -0.0315072423
C  C61  1  0.75310000  0.96090000  0.04600000  1.0 -0.0496125322
C  C62  1  0.24690000  0.46090000  0.45400000  1.0 -0.0496125322
C  C63  1  0.24690000  0.03910000  0.95400000  1.0 -0.0496125322
C  C64  1  0.75310000  0.53910000  0.54600000  1.0 -0.0496125322
C  C65  1  0.43810000  0.94070000  0.15910000  1.0 0.0996342393
C  C66  1  0.56190000  0.44070000  0.34090000  1.0 0.0996342393
C  C67  1  0.56190000  0.05930000  0.84090000  1.0 0.09012495
C  C68  1  0.43810000  0.55930000  0.65910000  1.0 0.09012495
C  C69  1  0.82480000  0.99010000  0.99230000  1.0 -0.0589571416
C  C70  1  0.17520000  0.49010000  0.50770000  1.0 -0.0589571416
C  C71  1  0.17520000  0.00990000  0.00770000  1.0 -0.0589571416
C  C72  1  0.82480000  0.50990000  0.49230000  1.0 -0.0589571416
N  N1  1  0.58560000  0.31826000  0.67550000  1.0 -0.2094966293
N  N2  1  0.41440000  0.81826000  0.82450000  1.0 -0.2094966293
N  N3  1  0.41440000  0.68174000  0.32450000  1.0 -0.2094966293
N  N4  1  0.58560000  0.18174000  0.17550000  1.0 -0.2094966293
N  N5  1  0.84470000  0.09547000  0.29000000  1.0 -0.2333862901
N  N6  1  0.15530000  0.59547000  0.21000000  1.0 -0.2333862901
N  N7  1  0.15530000  0.90453000  0.71000000  1.0 -0.2333862901
N  N8  1  0.84470000  0.40453000  0.79000000  1.0 -0.2333862901
N  N9  1  0.62260000  0.99975000  0.35810000  1.0 -0.5604880758
N  N10  1  0.37740000  0.49975000  0.14190000  1.0 -0.5604880758
N  N11  1  0.37740000  0.00025000  0.64190000  1.0 -0.5604880758
N  N12  1  0.62260000  0.50025000  0.85810000  1.0 -0.5604880758
N  N13  1  0.70110000  0.95899000  0.34130000  1.0 0.4508885883
N  N14  1  0.29890000  0.45899000  0.15870000  1.0 0.4508885883
N  N15  1  0.29890000  0.04101000  0.65870000  1.0 0.4508885883
N  N16  1  0.70110000  0.54101000  0.84130000  1.0 0.4508885883
N  N17  1  0.77660000  0.91940000  0.32460000  1.0 -0.3433097012
N  N18  1  0.22340000  0.41940000  0.17540000  1.0 -0.3433097012
N  N19  1  0.22340000  0.08060000  0.67540000  1.0 -0.3433097012
N  N20  1  0.77660000  0.58060000  0.82460000  1.0 -0.3433097012
N  N21  1  0.55490000  0.93640000  0.11820000  1.0 -0.1111752995
N  N22  1  0.44510000  0.43640000  0.38180000  1.0 -0.1111752995
N  N23  1  0.44510000  0.06360000  0.88180000  1.0 -0.1111752995
N  N24  1  0.55490000  0.56360000  0.61820000  1.0 -0.1111752995
O  O1  1  0.56970000  0.09926000  0.54850000  1.0 -0.5397743889
O  O2  1  0.43030000  0.59926000  0.95150000  1.0 -0.5397743889
O  O3  1  0.43030000  0.90074000  0.45150000  1.0 -0.5397743889
O  O4  1  0.56970000  0.40074000  0.04850000  1.0 -0.5397743889
O  O5  1  0.59420000  0.15589000  0.40856000  1.0 -0.5475488909
O  O6  1  0.40580000  0.65589000  0.09144000  1.0 -0.5475488909
O  O7  1  0.40580000  0.84411000  0.59144000  1.0 -0.5475488909
O  O8  1  0.59420000  0.34411000  0.90856000  1.0 -0.5475488909
O  O9  1  0.31990000  0.04638000  0.41700000  1.0 -0.5397743889
O  O10  1  0.68010000  0.54638000  0.08300000  1.0 -0.5397743889
O  O11  1  0.68010000  0.95362000  0.58300000  1.0 -0.5397743889
O  O12  1  0.31990000  0.45362000  0.91700000  1.0 -0.5397743889
O  O13  1  0.35980000  0.08763000  0.26610000  1.0 -0.5286032267
O  O14  1  0.64020000  0.58763000  0.23390000  1.0 -0.5286032267
O  O15  1  0.64020000  0.91237000  0.73390000  1.0 -0.5286032267
O  O16  1  0.35980000  0.41237000  0.76610000  1.0 -0.5286032267
O  O17  1  0.62340000  0.04050000  0.12026000  1.0 -0.4576806136
O  O18  1  0.37660000  0.54050000  0.37974000  1.0 -0.4576806136
O  O19  1  0.37660000  0.95950000  0.87974000  1.0 -0.4576806136
O  O20  1  0.62340000  0.45950000  0.62026000  1.0 -0.4576806136
