# DDEC6 charges by PACMAN v1.1 (https://github.com/mtap-research/PACMAN-charge/)
data_ROLKUB_ASR_pacman
_symmetry_space_group_name_H-M   'P 1'
_cell_length_a   16.85000000
_cell_length_b   14.74600000
_cell_length_c   30.47900000
_cell_angle_alpha   90.00000000
_cell_angle_beta   101.34300000
_cell_angle_gamma   90.00000000
_symmetry_Int_Tables_number   1
_chemical_formula_structural   Gd4H48C84N12O25
_chemical_formula_sum   'Gd8 H96 C168 N24 O50'
_cell_volume   7425.19689386
_cell_formula_units_Z   2
loop_
 _symmetry_equiv_pos_site_id
 _symmetry_equiv_pos_as_xyz
  1  'x, y, z'
loop_
 _atom_site_type_symbol
 _atom_site_label
 _atom_site_symmetry_multiplicity
 _atom_site_fract_x
 _atom_site_fract_y
 _atom_site_fract_z
 _atom_site_occupancy
 _atom_site_charge
Gd  Gd1  1  0.50981000  0.92811000  0.25804000  1.0 2.1022948449
Gd  Gd2  1  0.45095000  0.51626000  0.75958000  1.0 2.0066770738
Gd  Gd3  1  0.67488000  0.38278000  0.76175000  1.0 2.0243314927
Gd  Gd4  1  0.78749000  0.92606000  0.25930000  1.0 2.0926709598
Gd  Gd5  1  0.00981000  0.07189000  0.25804000  1.0 2.1022948449
Gd  Gd6  1  0.95095000  0.48374000  0.75958000  1.0 2.0029350942
Gd  Gd7  1  0.17488000  0.61722000  0.76175000  1.0 2.0243314927
Gd  Gd8  1  0.28749000  0.07394000  0.25930000  1.0 2.0926709598
H  H1  1  0.51620000  0.05340000  0.14090000  1.0 0.1286812526
H  H2  1  0.53010000  0.10420000  0.07080000  1.0 0.1213857217
H  H3  1  0.38890000  0.31860000  0.08290000  1.0 0.1286812526
H  H4  1  0.37500000  0.26790000  0.15310000  1.0 0.1213857217
H  H5  1  0.35540000  0.36670000  0.61930000  1.0 0.1213857217
H  H6  1  0.35380000  0.31480000  0.54730000  1.0 0.1286812526
H  H7  1  0.59030000  0.25380000  0.58180000  1.0 0.1213857217
H  H8  1  0.59190000  0.30560000  0.65380000  1.0 0.1286812526
H  H9  1  0.61140000  0.08050000  0.39750000  1.0 0.1286812526
H  H10  1  0.62080000  0.14740000  0.46720000  1.0 0.1286812526
H  H11  1  0.41070000  0.27750000  0.42310000  1.0 0.1213857217
H  H12  1  0.40130000  0.21050000  0.35340000  1.0 0.1286812526
H  H13  1  0.46080000  0.57400000  0.91710000  1.0 0.1286812526
H  H14  1  0.44520000  0.61540000  0.98830000  1.0 0.1382595723
H  H15  1  0.23920000  0.74610000  0.93560000  1.0 0.1213857217
H  H16  1  0.25490000  0.70460000  0.86430000  1.0 0.1286812526
H  H17  1  0.18790000  0.92920000  0.11890000  1.0 0.1286812526
H  H18  1  0.17690000  0.86130000  0.04930000  1.0 0.1382595723
H  H19  1  0.39550000  0.74660000  0.08940000  1.0 0.1286812526
H  H20  1  0.40650000  0.81450000  0.15900000  1.0 0.1286812526
H  H21  1  0.44250000  0.40920000  0.89200000  1.0 0.1213857217
H  H22  1  0.42890000  0.35230000  0.96110000  1.0 0.1114801517
H  H23  1  0.59460000  0.16070000  0.95230000  1.0 0.1286812526
H  H24  1  0.60810000  0.21760000  0.88320000  1.0 0.1213857217
H  H25  1  0.51190000  0.87510000  0.10930000  1.0 0.1213857217
H  H26  1  0.51320000  0.83290000  0.03610000  1.0 0.1213857217
H  H27  1  0.74320000  0.74820000  0.07370000  1.0 0.1213857217
H  H28  1  0.74190000  0.79040000  0.14690000  1.0 0.1286812526
H  H29  1  0.79460000  0.59080000  0.88820000  1.0 0.1286812526
H  H30  1  0.79720000  0.66050000  0.95670000  1.0 0.1286812526
H  H31  1  0.55580000  0.69240000  0.92540000  1.0 0.1114801517
H  H32  1  0.55330000  0.62270000  0.85690000  1.0 0.1382595723
H  H33  1  0.78180000  0.04680000  0.37700000  1.0 0.1382595723
H  H34  1  0.75610000  0.10090000  0.44430000  1.0 0.1213857217
H  H35  1  0.90860000  0.30870000  0.43980000  1.0 0.1213857217
H  H36  1  0.93420000  0.25460000  0.37240000  1.0 0.1286812526
H  H37  1  0.85690000  0.42300000  0.55250000  1.0 0.1286812526
H  H38  1  0.84350000  0.45700000  0.62500000  1.0 0.1213857217
H  H39  1  0.74800000  0.21040000  0.63610000  1.0 0.1213857217
H  H40  1  0.76130000  0.17640000  0.56360000  1.0 0.1213857217
H  H41  1  0.79870000  0.84770000  0.41130000  1.0 0.1114801517
H  H42  1  0.79200000  0.78810000  0.48090000  1.0 0.1114801517
H  H43  1  0.55620000  0.73210000  0.43770000  1.0 0.1213857217
H  H44  1  0.56290000  0.79170000  0.36800000  1.0 0.1213857217
H  H45  1  0.74770000  0.59620000  0.66060000  1.0 0.1382595723
H  H46  1  0.50560000  0.61700000  0.64180000  1.0 0.1286812526
H  H47  1  0.50380000  0.69310000  0.57500000  1.0 0.1213857217
H  H48  1  0.74590000  0.67230000  0.59380000  1.0 0.1114801517
H  H49  1  0.01620000  0.94660000  0.14090000  1.0 0.1286812526
H  H50  1  0.03010000  0.89580000  0.07080000  1.0 0.1213857217
H  H51  1  0.88890000  0.68140000  0.08290000  1.0 0.1286812526
H  H52  1  0.87500000  0.73210000  0.15310000  1.0 0.1213857217
H  H53  1  0.85540000  0.63330000  0.61930000  1.0 0.1213857217
H  H54  1  0.85380000  0.68520000  0.54730000  1.0 0.1286812526
H  H55  1  0.09030000  0.74620000  0.58180000  1.0 0.1213857217
H  H56  1  0.09190000  0.69440000  0.65380000  1.0 0.1286812526
H  H57  1  0.11140000  0.91950000  0.39750000  1.0 0.1286812526
H  H58  1  0.12080000  0.85260000  0.46720000  1.0 0.1286812526
H  H59  1  0.91070000  0.72250000  0.42310000  1.0 0.1213857217
H  H60  1  0.90130000  0.78950000  0.35340000  1.0 0.1286812526
H  H61  1  0.96080000  0.42600000  0.91710000  1.0 0.1286812526
H  H62  1  0.94520000  0.38460000  0.98830000  1.0 0.1382595723
H  H63  1  0.73920000  0.25390000  0.93560000  1.0 0.1213857217
H  H64  1  0.75490000  0.29540000  0.86430000  1.0 0.1286812526
H  H65  1  0.68790000  0.07080000  0.11890000  1.0 0.1286812526
H  H66  1  0.67690000  0.13870000  0.04930000  1.0 0.1382595723
H  H67  1  0.89550000  0.25340000  0.08940000  1.0 0.1286812526
H  H68  1  0.90650000  0.18550000  0.15900000  1.0 0.1286812526
H  H69  1  0.94250000  0.59080000  0.89200000  1.0 0.1213857217
H  H70  1  0.92890000  0.64770000  0.96110000  1.0 0.1114801517
H  H71  1  0.09460000  0.83930000  0.95230000  1.0 0.1286812526
H  H72  1  0.10810000  0.78240000  0.88320000  1.0 0.1213857217
H  H73  1  0.01190000  0.12490000  0.10930000  1.0 0.1213857217
H  H74  1  0.01320000  0.16710000  0.03610000  1.0 0.1213857217
H  H75  1  0.24320000  0.25180000  0.07370000  1.0 0.1213857217
H  H76  1  0.24190000  0.20960000  0.14690000  1.0 0.1286812526
H  H77  1  0.29460000  0.40920000  0.88820000  1.0 0.1286812526
H  H78  1  0.29720000  0.33950000  0.95670000  1.0 0.1286812526
H  H79  1  0.05580000  0.30760000  0.92540000  1.0 0.1114801517
H  H80  1  0.05330000  0.37730000  0.85690000  1.0 0.1382595723
H  H81  1  0.28180000  0.95320000  0.37700000  1.0 0.1382595723
H  H82  1  0.25610000  0.89910000  0.44430000  1.0 0.1213857217
H  H83  1  0.40860000  0.69130000  0.43980000  1.0 0.1213857217
H  H84  1  0.43420000  0.74540000  0.37240000  1.0 0.1286812526
H  H85  1  0.35690000  0.57700000  0.55250000  1.0 0.1286812526
H  H86  1  0.34350000  0.54300000  0.62500000  1.0 0.1213857217
H  H87  1  0.24800000  0.78960000  0.63610000  1.0 0.1213857217
H  H88  1  0.26130000  0.82360000  0.56360000  1.0 0.1213857217
H  H89  1  0.29870000  0.15230000  0.41130000  1.0 0.1114801517
H  H90  1  0.29200000  0.21190000  0.48090000  1.0 0.1114801517
H  H91  1  0.05620000  0.26790000  0.43770000  1.0 0.1213857217
H  H92  1  0.06290000  0.20830000  0.36800000  1.0 0.1213857217
H  H93  1  0.24770000  0.40380000  0.66060000  1.0 0.1382595723
H  H94  1  0.00560000  0.38300000  0.64180000  1.0 0.1286812526
H  H95  1  0.00380000  0.30690000  0.57500000  1.0 0.1213857217
H  H96  1  0.24590000  0.32770000  0.59380000  1.0 0.1114801517
C  C1  1  0.49070000  0.10660000  0.12930000  1.0 -0.0776299417
C  C2  1  0.49900000  0.13700000  0.08730000  1.0 -0.1494555135
C  C3  1  0.46100000  0.21600000  0.06990000  1.0 0.1709467595
C  C4  1  0.41400000  0.26500000  0.09460000  1.0 -0.1681390686
C  C5  1  0.40610000  0.23510000  0.13660000  1.0 -0.0776299417
C  C6  1  0.44430000  0.15570000  0.15400000  1.0 -0.049238389
C  C7  1  0.43840000  0.12000000  0.19780000  1.0 0.6385726159
C  C8  1  0.48300000  0.36900000  0.69090000  1.0 0.5972048318
C  C9  1  0.47380000  0.34130000  0.64370000  1.0 -0.049238389
C  C10  1  0.40250000  0.34410000  0.61180000  1.0 -0.0735065365
C  C11  1  0.40150000  0.31300000  0.56860000  1.0 -0.1596924176
C  C12  1  0.47190000  0.27900000  0.55740000  1.0 0.1475627249
C  C13  1  0.54320000  0.27600000  0.58930000  1.0 -0.1306206708
C  C14  1  0.54420000  0.30700000  0.63250000  1.0 -0.0912934641
C  C15  1  0.49080000  0.07670000  0.32990000  1.0 0.5972048318
C  C16  1  0.50500000  0.13900000  0.36850000  1.0 -0.0273466414
C  C17  1  0.57120000  0.11990000  0.40260000  1.0 -0.0776299417
C  C18  1  0.57680000  0.16000000  0.44440000  1.0 -0.1596924176
C  C19  1  0.51700000  0.21900000  0.45210000  1.0 0.1812626646
C  C20  1  0.45090000  0.23800000  0.41800000  1.0 -0.1494555135
C  C21  1  0.44530000  0.19800000  0.37620000  1.0 -0.0912934641
C  C22  1  0.35370000  0.62160000  0.83380000  1.0 0.650434576
C  C23  1  0.35940000  0.63520000  0.88360000  1.0 -0.01044314
C  C24  1  0.41640000  0.60850000  0.92080000  1.0 -0.0912934641
C  C25  1  0.40710000  0.63300000  0.96350000  1.0 -0.1681390686
C  C26  1  0.34070000  0.68500000  0.96900000  1.0 0.1601352667
C  C27  1  0.28370000  0.71160000  0.93190000  1.0 -0.1596924176
C  C28  1  0.29300000  0.68670000  0.88920000  1.0 -0.1019164518
C  C29  1  0.31300000  0.92560000  0.18630000  1.0 0.5972048318
C  C30  1  0.29830000  0.87860000  0.14590000  1.0 -0.1019164518
C  C31  1  0.22950000  0.89260000  0.11300000  1.0 -0.0395521546
C  C32  1  0.22290000  0.85190000  0.07130000  1.0 -0.1681390686
C  C33  1  0.28510000  0.79720000  0.06250000  1.0 0.1601352667
C  C34  1  0.35390000  0.78320000  0.09540000  1.0 -0.1596924176
C  C35  1  0.36050000  0.82390000  0.13710000  1.0 -0.0634706967
C  C36  1  0.53110000  0.35340000  0.82970000  1.0 0.6130190318
C  C37  1  0.52660000  0.31900000  0.88070000  1.0 0.0070376878
C  C38  1  0.47300000  0.35940000  0.90410000  1.0 -0.1019164518
C  C39  1  0.46490000  0.32530000  0.94550000  1.0 -0.1494555135
C  C40  1  0.51040000  0.25090000  0.96360000  1.0 0.1709467595
C  C41  1  0.56410000  0.21050000  0.94020000  1.0 -0.1596924176
C  C42  1  0.57220000  0.24460000  0.89880000  1.0 -0.0912934641
C  C43  1  0.62370000  0.85770000  0.18370000  1.0 0.650434576
C  C44  1  0.62680000  0.83690000  0.13530000  1.0 -0.0194596629
C  C45  1  0.55830000  0.84970000  0.10220000  1.0 -0.0912934641
C  C46  1  0.55900000  0.82440000  0.05830000  1.0 -0.1681390686
C  C47  1  0.62830000  0.78630000  0.04760000  1.0 0.1812626646
C  C48  1  0.69680000  0.77360000  0.08080000  1.0 -0.1494555135
C  C49  1  0.69610000  0.79890000  0.12470000  1.0 -0.0776299417
C  C50  1  0.65170000  0.53300000  0.82450000  1.0 0.650434576
C  C51  1  0.67370000  0.59980000  0.86570000  1.0 0.0070376878
C  C52  1  0.74680000  0.61100000  0.89560000  1.0 -0.1019164518
C  C53  1  0.74830000  0.65300000  0.93670000  1.0 -0.1494555135
C  C54  1  0.67670000  0.68340000  0.94780000  1.0 0.1812626646
C  C55  1  0.60370000  0.67210000  0.91790000  1.0 -0.1306206708
C  C56  1  0.60210000  0.63030000  0.87690000  1.0 -0.1183135869
C  C57  1  0.86430000  0.10200000  0.32430000  1.0 0.6385726159
C  C58  1  0.86050000  0.14530000  0.36810000  1.0 -0.0194596629
C  C59  1  0.80720000  0.09930000  0.38960000  1.0 -0.0912934641
C  C60  1  0.79180000  0.13170000  0.42990000  1.0 -0.1494555135
C  C61  1  0.82980000  0.21000000  0.44870000  1.0 0.1382595723
C  C62  1  0.88310000  0.25620000  0.42720000  1.0 -0.1440819079
C  C63  1  0.89850000  0.22380000  0.38690000  1.0 -0.0912934641
C  C64  1  0.81000000  0.29600000  0.55090000  1.0 0.1709467595
C  C65  1  0.83500000  0.38000000  0.56930000  1.0 -0.1494555135
C  C66  1  0.82700000  0.40100000  0.61270000  1.0 -0.0912934641
C  C67  1  0.79400000  0.33700000  0.63770000  1.0 -0.0776299417
C  C68  1  0.77000000  0.25300000  0.61930000  1.0 -0.0776299417
C  C69  1  0.77800000  0.23300000  0.57590000  1.0 -0.1681390686
C  C70  1  0.67760000  0.84640000  0.33970000  1.0 0.5524380034
C  C71  1  0.68100000  0.82600000  0.38280000  1.0 -0.1019164518
C  C72  1  0.75010000  0.82500000  0.41660000  1.0 -0.049238389
C  C73  1  0.74600000  0.78900000  0.45830000  1.0 -0.2001856739
C  C74  1  0.67300000  0.75400000  0.46620000  1.0 0.2070745056
C  C75  1  0.60500000  0.75500000  0.43240000  1.0 -0.1681390686
C  C76  1  0.60880000  0.79100000  0.39070000  1.0 -0.049238389
C  C77  1  0.64800000  0.52900000  0.69170000  1.0 0.4944855994
C  C78  1  0.69900000  0.61600000  0.64300000  1.0 -0.1183135869
C  C79  1  0.62700000  0.59900000  0.65780000  1.0 -0.01044314
C  C80  1  0.55400000  0.62800000  0.63200000  1.0 -0.1019164518
C  C81  1  0.55300000  0.67400000  0.59210000  1.0 -0.1596924176
C  C82  1  0.62500000  0.69000000  0.57770000  1.0 0.2070745056
C  C83  1  0.69800000  0.66100000  0.60300000  1.0 -0.1494555135
C  C84  1  0.79720000  0.37000000  0.68260000  1.0 0.5972048318
C  C85  1  0.99070000  0.89340000  0.12930000  1.0 -0.0776299417
C  C86  1  0.99900000  0.86300000  0.08730000  1.0 -0.1494555135
C  C87  1  0.96100000  0.78400000  0.06990000  1.0 0.1709467595
C  C88  1  0.91400000  0.73500000  0.09460000  1.0 -0.1681390686
C  C89  1  0.90610000  0.76490000  0.13660000  1.0 -0.0776299417
C  C90  1  0.94430000  0.84430000  0.15400000  1.0 -0.049238389
C  C91  1  0.93840000  0.88000000  0.19780000  1.0 0.6385726159
C  C92  1  0.98300000  0.63100000  0.69090000  1.0 0.5972048318
C  C93  1  0.97380000  0.65870000  0.64370000  1.0 -0.049238389
C  C94  1  0.90250000  0.65590000  0.61180000  1.0 -0.0735065365
C  C95  1  0.90150000  0.68700000  0.56860000  1.0 -0.1596924176
C  C96  1  0.97190000  0.72100000  0.55740000  1.0 0.1475627249
C  C97  1  0.04320000  0.72400000  0.58930000  1.0 -0.1306206708
C  C98  1  0.04420000  0.69300000  0.63250000  1.0 -0.0912934641
C  C99  1  0.99080000  0.92330000  0.32990000  1.0 0.5972048318
C  C100  1  0.00500000  0.86100000  0.36850000  1.0 -0.0273466414
C  C101  1  0.07120000  0.88010000  0.40260000  1.0 -0.0776299417
C  C102  1  0.07680000  0.84000000  0.44440000  1.0 -0.1596924176
C  C103  1  0.01700000  0.78100000  0.45210000  1.0 0.1812626646
C  C104  1  0.95090000  0.76200000  0.41800000  1.0 -0.1494555135
C  C105  1  0.94530000  0.80200000  0.37620000  1.0 -0.0912934641
C  C106  1  0.85370000  0.37840000  0.83380000  1.0 0.650434576
C  C107  1  0.85940000  0.36480000  0.88360000  1.0 -0.01044314
C  C108  1  0.91640000  0.39150000  0.92080000  1.0 -0.0912934641
C  C109  1  0.90710000  0.36700000  0.96350000  1.0 -0.1681390686
C  C110  1  0.84070000  0.31500000  0.96900000  1.0 0.1601352667
C  C111  1  0.78370000  0.28840000  0.93190000  1.0 -0.1596924176
C  C112  1  0.79300000  0.31330000  0.88920000  1.0 -0.1019164518
C  C113  1  0.81300000  0.07440000  0.18630000  1.0 0.5972048318
C  C114  1  0.79830000  0.12140000  0.14590000  1.0 -0.1019164518
C  C115  1  0.72950000  0.10740000  0.11300000  1.0 -0.0395521546
C  C116  1  0.72290000  0.14810000  0.07130000  1.0 -0.1681390686
C  C117  1  0.78510000  0.20280000  0.06250000  1.0 0.1601352667
C  C118  1  0.85390000  0.21680000  0.09540000  1.0 -0.1596924176
C  C119  1  0.86050000  0.17610000  0.13710000  1.0 -0.0634706967
C  C120  1  0.03110000  0.64660000  0.82970000  1.0 0.6130190318
C  C121  1  0.02660000  0.68100000  0.88070000  1.0 0.0070376878
C  C122  1  0.97300000  0.64060000  0.90410000  1.0 -0.1019164518
C  C123  1  0.96490000  0.67470000  0.94550000  1.0 -0.1494555135
C  C124  1  0.01040000  0.74910000  0.96360000  1.0 0.1709467595
C  C125  1  0.06410000  0.78950000  0.94020000  1.0 -0.1596924176
C  C126  1  0.07220000  0.75540000  0.89880000  1.0 -0.0912934641
C  C127  1  0.12370000  0.14230000  0.18370000  1.0 0.650434576
C  C128  1  0.12680000  0.16310000  0.13530000  1.0 -0.0194596629
C  C129  1  0.05830000  0.15030000  0.10220000  1.0 -0.0912934641
C  C130  1  0.05900000  0.17560000  0.05830000  1.0 -0.1681390686
C  C131  1  0.12830000  0.21370000  0.04760000  1.0 0.1812626646
C  C132  1  0.19680000  0.22640000  0.08080000  1.0 -0.1494555135
C  C133  1  0.19610000  0.20110000  0.12470000  1.0 -0.0776299417
C  C134  1  0.15170000  0.46700000  0.82450000  1.0 0.650434576
C  C135  1  0.17370000  0.40020000  0.86570000  1.0 0.0070376878
C  C136  1  0.24680000  0.38900000  0.89560000  1.0 -0.1019164518
C  C137  1  0.24830000  0.34700000  0.93670000  1.0 -0.1494555135
C  C138  1  0.17670000  0.31660000  0.94780000  1.0 0.1812626646
C  C139  1  0.10370000  0.32790000  0.91790000  1.0 -0.1306206708
C  C140  1  0.10210000  0.36970000  0.87690000  1.0 -0.1183135869
C  C141  1  0.36430000  0.89800000  0.32430000  1.0 0.6385726159
C  C142  1  0.36050000  0.85470000  0.36810000  1.0 -0.0194596629
C  C143  1  0.30720000  0.90070000  0.38960000  1.0 -0.0912934641
C  C144  1  0.29180000  0.86830000  0.42990000  1.0 -0.1494555135
C  C145  1  0.32980000  0.79000000  0.44870000  1.0 0.1382595723
C  C146  1  0.38310000  0.74380000  0.42720000  1.0 -0.1440819079
C  C147  1  0.39850000  0.77620000  0.38690000  1.0 -0.0912934641
C  C148  1  0.31000000  0.70400000  0.55090000  1.0 0.1709467595
C  C149  1  0.33500000  0.62000000  0.56930000  1.0 -0.1494555135
C  C150  1  0.32700000  0.59900000  0.61270000  1.0 -0.0912934641
C  C151  1  0.29400000  0.66300000  0.63770000  1.0 -0.0776299417
C  C152  1  0.27000000  0.74700000  0.61930000  1.0 -0.0776299417
C  C153  1  0.27800000  0.76700000  0.57590000  1.0 -0.1757385159
C  C154  1  0.17760000  0.15360000  0.33970000  1.0 0.5524380034
C  C155  1  0.18100000  0.17400000  0.38280000  1.0 -0.1019164518
C  C156  1  0.25010000  0.17500000  0.41660000  1.0 -0.049238389
C  C157  1  0.24600000  0.21100000  0.45830000  1.0 -0.2001856739
C  C158  1  0.17300000  0.24600000  0.46620000  1.0 0.2070745056
C  C159  1  0.10500000  0.24500000  0.43240000  1.0 -0.1681390686
C  C160  1  0.10880000  0.20900000  0.39070000  1.0 -0.049238389
C  C161  1  0.14800000  0.47100000  0.69170000  1.0 0.4944855994
C  C162  1  0.19900000  0.38400000  0.64300000  1.0 -0.1183135869
C  C163  1  0.12700000  0.40100000  0.65780000  1.0 -0.01044314
C  C164  1  0.05400000  0.37200000  0.63200000  1.0 -0.1019164518
C  C165  1  0.05300000  0.32600000  0.59210000  1.0 -0.1596924176
C  C166  1  0.12500000  0.31000000  0.57770000  1.0 0.2070745056
C  C167  1  0.19800000  0.33900000  0.60300000  1.0 -0.1494555135
C  C168  1  0.29720000  0.63000000  0.68260000  1.0 0.5972048318
N  N1  1  0.46000000  0.29500000  0.50300000  1.0 -0.0912934641
N  N2  1  0.52900000  0.26600000  0.49810000  1.0 -0.1306206708
N  N3  1  0.33940000  0.72900000  0.01170000  1.0 -0.0634706967
N  N4  1  0.28700000  0.78400000  0.01070000  1.0 -0.1019164518
N  N5  1  0.61620000  0.74920000  0.00100000  1.0 -0.2358062367
N  N6  1  0.69300000  0.73420000  0.99170000  1.0 -0.2001856739
N  N7  1  0.82300000  0.29200000  0.47400000  1.0 -0.0776299417
N  N8  1  0.81400000  0.25300000  0.50760000  1.0 -0.1596924176
N  N9  1  0.68800000  0.72700000  0.50930000  1.0 -0.2594718063
N  N10  1  0.61970000  0.71300000  0.52750000  1.0 -0.2325054506
N  N11  1  0.50900000  0.21800000  0.00850000  1.0 -0.2001856739
N  N12  1  0.46900000  0.27300000  0.03210000  1.0 -0.212298269
N  N13  1  0.96000000  0.70500000  0.50300000  1.0 -0.0912934641
N  N14  1  0.02900000  0.73400000  0.49810000  1.0 -0.1306206708
N  N15  1  0.83940000  0.27100000  0.01170000  1.0 -0.0634706967
N  N16  1  0.78700000  0.21600000  0.01070000  1.0 -0.1019164518
N  N17  1  0.11620000  0.25080000  0.00100000  1.0 -0.2358062367
N  N18  1  0.19300000  0.26580000  0.99170000  1.0 -0.2001856739
N  N19  1  0.32300000  0.70800000  0.47400000  1.0 -0.0776299417
N  N20  1  0.31400000  0.74700000  0.50760000  1.0 -0.1596924176
N  N21  1  0.18800000  0.27300000  0.50930000  1.0 -0.2594718063
N  N22  1  0.11970000  0.28700000  0.52750000  1.0 -0.2325054506
N  N23  1  0.00900000  0.78200000  0.00850000  1.0 -0.2001856739
N  N24  1  0.96900000  0.72700000  0.03210000  1.0 -0.212298269
O  O1  1  0.58000000  0.50400000  0.69300000  1.0 -0.0194596629
O  O2  1  0.49110000  0.06550000  0.21520000  1.0 -0.6188136215
O  O3  1  0.37180000  0.13100000  0.20800000  1.0 -0.6083565826
O  O4  1  0.93640000  0.12780000  0.31180000  1.0 -0.7788877064
O  O5  1  0.71000000  0.50300000  0.72150000  1.0 -0.6275376851
O  O6  1  0.80690000  0.06400000  0.29990000  1.0 -0.5858110065
O  O7  1  0.61460000  0.85750000  0.30920000  1.0 -0.6621978655
O  O8  1  0.74160000  0.89900000  0.33100000  1.0 -0.7508110577
O  O9  1  0.37650000  0.93130000  0.21470000  1.0 -0.6440200085
O  O10  1  0.25240000  0.97060000  0.19550000  1.0 -0.6188136215
O  O11  1  0.55780000  0.88350000  0.19300000  1.0 -0.6680540735
O  O12  1  0.69250000  0.84590000  0.21050000  1.0 -0.7149949843
O  O13  1  0.57550000  0.53700000  0.80530000  1.0 -0.7311150605
O  O14  1  0.70290000  0.50200000  0.80670000  1.0 -0.5704867417
O  O15  1  0.29650000  0.65180000  0.80770000  1.0 -0.6005595202
O  O16  1  0.40920000  0.56240000  0.83060000  1.0 -0.6680540735
O  O17  1  0.60710000  0.33480000  0.82270000  1.0 -0.7623669232
O  O18  1  0.47570000  0.38820000  0.81050000  1.0 -0.4679943199
O  O19  1  0.42910000  0.40050000  0.70320000  1.0 -0.4491731102
O  O20  1  0.54980000  0.37010000  0.71880000  1.0 -0.6680540735
O  O21  1  0.54960000  0.03000000  0.32360000  1.0 -0.5483857269
O  O22  1  0.83200000  0.43100000  0.70370000  1.0 -0.5578365797
O  O23  1  0.43120000  0.07220000  0.29440000  1.0 -0.7311150605
O  O24  1  0.73960000  0.33100000  0.70650000  1.0 -0.7623669232
O  O25  1  0.53440000  0.56780000  0.70970000  1.0 -0.5429873938
O  O26  1  0.08000000  0.49600000  0.69300000  1.0 -0.0194596629
O  O27  1  0.99110000  0.93450000  0.21520000  1.0 -0.6188136215
O  O28  1  0.87180000  0.86900000  0.20800000  1.0 -0.6083565826
O  O29  1  0.43640000  0.87220000  0.31180000  1.0 -0.7788877064
O  O30  1  0.21000000  0.49700000  0.72150000  1.0 -0.6275376851
O  O31  1  0.30690000  0.93600000  0.29990000  1.0 -0.5858110065
O  O32  1  0.11460000  0.14250000  0.30920000  1.0 -0.6621978655
O  O33  1  0.24160000  0.10100000  0.33100000  1.0 -0.7508110577
O  O34  1  0.87650000  0.06870000  0.21470000  1.0 -0.6440200085
O  O35  1  0.75240000  0.02940000  0.19550000  1.0 -0.6188136215
O  O36  1  0.05780000  0.11650000  0.19300000  1.0 -0.6680540735
O  O37  1  0.19250000  0.15410000  0.21050000  1.0 -0.720141905
O  O38  1  0.07550000  0.46300000  0.80530000  1.0 -0.7311150605
O  O39  1  0.20290000  0.49800000  0.80670000  1.0 -0.5704867417
O  O40  1  0.79650000  0.34820000  0.80770000  1.0 -0.6005595202
O  O41  1  0.90920000  0.43760000  0.83060000  1.0 -0.6621978655
O  O42  1  0.10710000  0.66520000  0.82270000  1.0 -0.7623669232
O  O43  1  0.97570000  0.61180000  0.81050000  1.0 -0.4679943199
O  O44  1  0.92910000  0.59950000  0.70320000  1.0 -0.4449969107
O  O45  1  0.04980000  0.62990000  0.71880000  1.0 -0.6680540735
O  O46  1  0.04960000  0.97000000  0.32360000  1.0 -0.5483857269
O  O47  1  0.33200000  0.56900000  0.70370000  1.0 -0.5578365797
O  O48  1  0.93120000  0.92780000  0.29440000  1.0 -0.720141905
O  O49  1  0.23960000  0.66900000  0.70650000  1.0 -0.7623669232
O  O50  1  0.03440000  0.43220000  0.70970000  1.0 -0.5429873938
