# DDEC6 charges by PACMAN v1.1 (https://github.com/mtap-research/PACMAN-charge/)
data_ROLLUC_ASR_pacman
_symmetry_space_group_name_H-M   'P 1'
_cell_length_a   10.20320000
_cell_length_b   16.95560000
_cell_length_c   18.75180000
_cell_angle_alpha   90.00000000
_cell_angle_beta   95.02400000
_cell_angle_gamma   90.00000000
_symmetry_Int_Tables_number   1
_chemical_formula_structural   Mn2H14C29O8
_chemical_formula_sum   'Mn4 H28 C58 O16'
_cell_volume   3231.62378940
_cell_formula_units_Z   2
loop_
 _symmetry_equiv_pos_site_id
 _symmetry_equiv_pos_as_xyz
  1  'x, y, z'
loop_
 _atom_site_type_symbol
 _atom_site_label
 _atom_site_symmetry_multiplicity
 _atom_site_fract_x
 _atom_site_fract_y
 _atom_site_fract_z
 _atom_site_occupancy
 _atom_site_charge
Mn  Mn1  1  0.23439000  0.73380000  0.51032000  1.0 1.071300809
Mn  Mn2  1  0.48877000  0.79203000  0.64550000  1.0 1.01042587
Mn  Mn3  1  0.76561000  0.23380000  0.48968000  1.0 1.071300809
Mn  Mn4  1  0.51123000  0.29203000  0.35450000  1.0 1.01042587
H  H1  1  0.95390000  0.78930000  0.64160000  1.0 0.1274435862
H  H2  1  0.21100000  0.82440000  0.81350000  1.0 0.1195467464
H  H3  1  0.88670000  0.78770000  0.94610000  1.0 0.1195467464
H  H4  1  0.94730000  0.78360000  0.07040000  1.0 0.1195467464
H  H5  1  0.38740000  0.90100000  0.04690000  1.0 0.1195467464
H  H6  1  0.30740000  0.98110000  0.04730000  1.0 0.1195467464
H  H7  1  0.21530000  0.90230000  0.91610000  1.0 0.1195467464
H  H8  1  0.55170000  0.01090000  0.50320000  1.0 0.1360510631
H  H9  1  0.34130000  0.84650000  0.39380000  1.0 0.1076755605
H  H10  1  0.81960000  0.82690000  0.83500000  1.0 0.1195467464
H  H11  1  0.43810000  0.04410000  0.29600000  1.0 0.1195467464
H  H12  1  0.42190000  0.96580000  0.19710000  1.0 0.1195467464
H  H13  1  0.15660000  0.85930000  0.31030000  1.0 0.1076755605
H  H14  1  0.04710000  0.81130000  0.20550000  1.0 0.1195467464
H  H15  1  0.04610000  0.28930000  0.35840000  1.0 0.1274435862
H  H16  1  0.78900000  0.32440000  0.18650000  1.0 0.1195467464
H  H17  1  0.11330000  0.28770000  0.05390000  1.0 0.1195467464
H  H18  1  0.05270000  0.28360000  0.92960000  1.0 0.1195467464
H  H19  1  0.61260000  0.40100000  0.95310000  1.0 0.1274435862
H  H20  1  0.69260000  0.48110000  0.95270000  1.0 0.1274435862
H  H21  1  0.78470000  0.40230000  0.08390000  1.0 0.1195467464
H  H22  1  0.44830000  0.51090000  0.49680000  1.0 0.1360510631
H  H23  1  0.65870000  0.34650000  0.60620000  1.0 0.1076755605
H  H24  1  0.18040000  0.32690000  0.16500000  1.0 0.1195467464
H  H25  1  0.56190000  0.54410000  0.70400000  1.0 0.1195467464
H  H26  1  0.57810000  0.46580000  0.80290000  1.0 0.1195467464
H  H27  1  0.84340000  0.35930000  0.68970000  1.0 0.1076755605
H  H28  1  0.95290000  0.31130000  0.79450000  1.0 0.1195467464
C  C1  1  0.20950000  0.79800000  0.67410000  1.0 0.599957858
C  C2  1  0.09970000  0.80770000  0.72210000  1.0 -0.0159578137
C  C3  1  0.97060000  0.80050000  0.69010000  1.0 -0.1007482515
C  C4  1  0.12440000  0.82030000  0.79380000  1.0 -0.1436074034
C  C5  1  0.02050000  0.82740000  0.83920000  1.0 0.0697973982
C  C6  1  0.05040000  0.83730000  0.91740000  1.0 0.0578008797
C  C7  1  0.96700000  0.80870000  0.96420000  1.0 -0.150319991
C  C8  1  0.99840000  0.81000000  0.03940000  1.0 -0.150319991
C  C9  1  0.10710000  0.85190000  0.06400000  1.0 -0.0032858775
C  C10  1  0.16160000  0.86500000  0.13850000  1.0 0.0072246624
C  C11  1  0.27540000  0.90930000  0.13470000  1.0 0.0697973982
C  C12  1  0.30520000  0.92510000  0.05770000  1.0 -0.2633173571
C  C13  1  0.18970000  0.88580000  0.01900000  1.0 0.0697973982
C  C14  1  0.16020000  0.87870000  0.94680000  1.0 -0.2119839594
C  C15  1  0.45050000  0.87130000  0.52410000  1.0 0.5773969336
C  C16  1  0.45110000  0.92090000  0.45740000  1.0 -0.0159578137
C  C17  1  0.50980000  0.99360000  0.46000000  1.0 -0.0732788251
C  C18  1  0.38410000  0.89490000  0.39420000  1.0 -0.1574125991
C  C19  1  0.37880000  0.93960000  0.33040000  1.0 0.0697973982
C  C20  1  0.30860000  0.91330000  0.26330000  1.0 0.0544197156
C  C21  1  0.86660000  0.81100000  0.73460000  1.0 0.0027205301
C  C22  1  0.88990000  0.82240000  0.80690000  1.0 -0.150319991
C  C23  1  0.72710000  0.80560000  0.70190000  1.0 0.5393573685
C  C24  1  0.50930000  0.04240000  0.40070000  1.0 -0.0791790218
C  C25  1  0.44110000  0.01250000  0.33660000  1.0 -0.1208213785
C  C26  1  0.56840000  0.11860000  0.40220000  1.0 0.5904670401
C  C27  1  0.34750000  0.93450000  0.19920000  1.0 -0.1998332397
C  C28  1  0.18860000  0.86980000  0.26640000  1.0 -0.150319991
C  C29  1  0.12050000  0.84350000  0.20350000  1.0 -0.1574125991
C  C30  1  0.79050000  0.29800000  0.32590000  1.0 0.599957858
C  C31  1  0.90030000  0.30770000  0.27790000  1.0 -0.0148394595
C  C32  1  0.02940000  0.30050000  0.30990000  1.0 -0.1007482515
C  C33  1  0.87560000  0.32030000  0.20620000  1.0 -0.1436074034
C  C34  1  0.97950000  0.32740000  0.16080000  1.0 0.0697973982
C  C35  1  0.94960000  0.33730000  0.08260000  1.0 0.0578008797
C  C36  1  0.03300000  0.30870000  0.03580000  1.0 -0.150319991
C  C37  1  0.00160000  0.31000000  0.96060000  1.0 -0.150319991
C  C38  1  0.89290000  0.35190000  0.93600000  1.0 -0.0032858775
C  C39  1  0.83840000  0.36500000  0.86150000  1.0 0.0072246624
C  C40  1  0.72460000  0.40930000  0.86530000  1.0 0.0697973982
C  C41  1  0.69480000  0.42510000  0.94230000  1.0 -0.2633173571
C  C42  1  0.81030000  0.38580000  0.98100000  1.0 0.0697973982
C  C43  1  0.83980000  0.37870000  0.05320000  1.0 -0.2119839594
C  C44  1  0.54950000  0.37130000  0.47590000  1.0 0.5773969336
C  C45  1  0.54890000  0.42090000  0.54260000  1.0 -0.0159578137
C  C46  1  0.49020000  0.49360000  0.54000000  1.0 -0.0732788251
C  C47  1  0.61590000  0.39490000  0.60580000  1.0 -0.1574125991
C  C48  1  0.62120000  0.43960000  0.66960000  1.0 0.0697973982
C  C49  1  0.69140000  0.41330000  0.73670000  1.0 0.0578008797
C  C50  1  0.13340000  0.31100000  0.26540000  1.0 0.0027205301
C  C51  1  0.11010000  0.32240000  0.19310000  1.0 -0.150319991
C  C52  1  0.27290000  0.30560000  0.29810000  1.0 0.5393573685
C  C53  1  0.49070000  0.54240000  0.59930000  1.0 -0.0791790218
C  C54  1  0.55890000  0.51250000  0.66340000  1.0 -0.1208213785
C  C55  1  0.43160000  0.61860000  0.59780000  1.0 0.5904670401
C  C56  1  0.65250000  0.43450000  0.80080000  1.0 -0.1998332397
C  C57  1  0.81140000  0.36980000  0.73360000  1.0 -0.150319991
C  C58  1  0.87950000  0.34350000  0.79650000  1.0 -0.1574125991
O  O1  1  0.32570000  0.81240000  0.70260000  1.0 -0.5276450471
O  O2  1  0.18380000  0.77580000  0.61150000  1.0 -0.5796077804
O  O3  1  0.42010000  0.80160000  0.52060000  1.0 -0.5573583499
O  O4  1  0.48950000  0.90330000  0.58390000  1.0 -0.5026077286
O  O5  1  0.63330000  0.81720000  0.73730000  1.0 -0.5026077286
O  O6  1  0.65500000  0.13400000  0.45310000  1.0 -0.5741005794
O  O7  1  0.52880000  0.16990000  0.35610000  1.0 -0.5382153944
O  O8  1  0.71030000  0.78560000  0.63420000  1.0 -0.5485023812
O  O9  1  0.67430000  0.31240000  0.29740000  1.0 -0.5276450471
O  O10  1  0.81620000  0.27580000  0.38850000  1.0 -0.5796077804
O  O11  1  0.57990000  0.30160000  0.47940000  1.0 -0.5573583499
O  O12  1  0.51050000  0.40330000  0.41610000  1.0 -0.5026077286
O  O13  1  0.36670000  0.31720000  0.26270000  1.0 -0.5026077286
O  O14  1  0.34500000  0.63400000  0.54690000  1.0 -0.5741005794
O  O15  1  0.47120000  0.66990000  0.64390000  1.0 -0.5382153944
O  O16  1  0.28970000  0.28560000  0.36580000  1.0 -0.5485023812
