# DDEC6 charges by PACMAN v1.1 (https://github.com/mtap-research/PACMAN-charge/)
data_ROLLAI_ASR_pacman
_symmetry_space_group_name_H-M   'P 1'
_cell_length_a   15.67000000
_cell_length_b   16.32800000
_cell_length_c   17.24500000
_cell_angle_alpha   101.92200000
_cell_angle_beta   91.96600000
_cell_angle_gamma   114.78100000
_symmetry_Int_Tables_number   1
_chemical_formula_structural   LaH12C21(NO2)3
_chemical_formula_sum   'La4 H48 C84 N12 O24'
_cell_volume   3883.12411491
_cell_formula_units_Z   4
loop_
 _symmetry_equiv_pos_site_id
 _symmetry_equiv_pos_as_xyz
  1  'x, y, z'
loop_
 _atom_site_type_symbol
 _atom_site_label
 _atom_site_symmetry_multiplicity
 _atom_site_fract_x
 _atom_site_fract_y
 _atom_site_fract_z
 _atom_site_occupancy
 _atom_site_charge
La  La1  1  0.95601000  0.50787000  0.65065000  1.0 1.8560731907
La  La2  1  0.97319000  0.44747000  0.86630000  1.0 1.9036012192
La  La3  1  0.04399000  0.49213000  0.34935000  1.0 1.8560731907
La  La4  1  0.02681000  0.55253000  0.13370000  1.0 1.9036012192
H  H1  1  0.97570000  0.68070000  0.93830000  1.0 0.1288660497
H  H2  1  0.22600000  0.56550000  0.85170000  1.0 0.121316544
H  H3  1  0.76690000  0.48710000  0.86750000  1.0 0.1288660497
H  H4  1  0.37440000  0.58340000  0.89940000  1.0 0.121316544
H  H5  1  0.74950000  0.62230000  0.08270000  1.0 0.1288660497
H  H6  1  0.63120000  0.20710000  0.76750000  1.0 0.1288660497
H  H7  1  0.63090000  0.49010000  0.81620000  1.0 0.121316544
H  H8  1  0.61040000  0.62240000  0.03080000  1.0 0.121316544
H  H9  1  0.00810000  0.82130000  0.03250000  1.0 0.1288660497
H  H10  1  0.77990000  0.25620000  0.58490000  1.0 0.1288660497
H  H11  1  0.05200000  0.26860000  0.39120000  1.0 0.1288660497
H  H12  1  0.74980000  0.19810000  0.89140000  1.0 0.1288660497
H  H13  1  0.25020000  0.43650000  0.63450000  1.0 0.1288660497
H  H14  1  0.93170000  0.91680000  0.85920000  1.0 0.1136819322
H  H15  1  0.78390000  0.26740000  0.12840000  1.0 0.1288660497
H  H16  1  0.65760000  0.13300000  0.49890000  1.0 0.121316544
H  H17  1  0.89680000  0.77780000  0.76800000  1.0 0.1288660497
H  H18  1  0.51030000  0.08370000  0.68230000  1.0 0.1288660497
H  H19  1  0.39110000  0.44070000  0.68590000  1.0 0.121316544
H  H20  1  0.94550000  0.25280000  0.59760000  1.0 0.1288660497
H  H21  1  0.94330000  0.10830000  0.58600000  1.0 0.121316544
H  H22  1  0.05780000  0.12790000  0.38230000  1.0 0.1288660497
H  H23  1  0.64820000  0.13650000  0.12790000  1.0 0.1288660497
H  H24  1  0.61160000  0.07750000  0.89070000  1.0 0.1288660497
H  H25  1  0.02430000  0.31930000  0.06170000  1.0 0.1288660497
H  H26  1  0.77400000  0.43450000  0.14830000  1.0 0.121316544
H  H27  1  0.23310000  0.51290000  0.13250000  1.0 0.1288660497
H  H28  1  0.62560000  0.41660000  0.10060000  1.0 0.121316544
H  H29  1  0.25050000  0.37770000  0.91730000  1.0 0.1288660497
H  H30  1  0.36880000  0.79290000  0.23250000  1.0 0.1288660497
H  H31  1  0.36910000  0.50990000  0.18380000  1.0 0.121316544
H  H32  1  0.38960000  0.37760000  0.96920000  1.0 0.121316544
H  H33  1  0.99190000  0.17870000  0.96750000  1.0 0.1288660497
H  H34  1  0.22010000  0.74380000  0.41510000  1.0 0.1288660497
H  H35  1  0.94800000  0.73140000  0.60880000  1.0 0.1288660497
H  H36  1  0.25020000  0.80190000  0.10860000  1.0 0.1288660497
H  H37  1  0.74980000  0.56350000  0.36550000  1.0 0.1288660497
H  H38  1  0.06830000  0.08320000  0.14080000  1.0 0.1136819322
H  H39  1  0.21610000  0.73260000  0.87160000  1.0 0.1288660497
H  H40  1  0.34240000  0.86700000  0.50110000  1.0 0.121316544
H  H41  1  0.10320000  0.22220000  0.23200000  1.0 0.1288660497
H  H42  1  0.48970000  0.91630000  0.31770000  1.0 0.1288660497
H  H43  1  0.60890000  0.55930000  0.31410000  1.0 0.121316544
H  H44  1  0.05450000  0.74720000  0.40240000  1.0 0.1288660497
H  H45  1  0.05670000  0.89170000  0.41400000  1.0 0.121316544
H  H46  1  0.94220000  0.87210000  0.61770000  1.0 0.1288660497
H  H47  1  0.35180000  0.86350000  0.87210000  1.0 0.1288660497
H  H48  1  0.38840000  0.92250000  0.10930000  1.0 0.1288660497
C  C1  1  0.13090000  0.49090000  0.70710000  1.0 0.5813061197
C  C2  1  0.86960000  0.33220000  0.01100000  1.0 0.5982111593
C  C3  1  0.85940000  0.54930000  0.01390000  1.0 0.5982111593
C  C4  1  0.79690000  0.32740000  0.74020000  1.0 0.5813061197
C  C5  1  0.91900000  0.62890000  0.78330000  1.0 0.5742542942
C  C6  1  0.77030000  0.55210000  0.98230000  1.0 -0.0322131248
C  C7  1  0.22450000  0.49970000  0.73900000  1.0 -0.0322131248
C  C8  1  0.71610000  0.24590000  0.68330000  1.0 -0.0322131248
C  C9  1  0.96770000  0.72820000  0.92220000  1.0 -0.0891192049
C  C10  1  0.26020000  0.54260000  0.81800000  1.0 -0.0812552075
C  C11  1  0.73520000  0.51380000  0.90090000  1.0 -0.0891192049
C  C12  1  0.34780000  0.55140000  0.84680000  1.0 -0.1506541057
C  C13  1  0.97940000  0.35730000  0.49490000  1.0 0.6324553688
C  C14  1  0.93740000  0.71730000  0.84570000  1.0 -0.0182542458
C  C15  1  0.72500000  0.59390000  0.02920000  1.0 -0.0891192049
C  C16  1  0.39660000  0.51230000  0.79730000  1.0 0.1508120944
C  C17  1  0.63610000  0.19240000  0.71330000  1.0 -0.0891192049
C  C18  1  0.60620000  0.55490000  0.91910000  1.0 0.155695365
C  C19  1  0.65390000  0.51560000  0.87030000  1.0 -0.1506541057
C  C20  1  0.64160000  0.59470000  0.99780000  1.0 -0.1574611257
C  C21  1  0.98760000  0.81300000  0.97900000  1.0 -0.1506541057
C  C22  1  0.72460000  0.22170000  0.60410000  1.0 -0.0952154573
C  C23  1  0.03030000  0.23600000  0.43030000  1.0 -0.0952154573
C  C24  1  0.72850000  0.18840000  0.93990000  1.0 -0.0812552075
C  C25  1  0.27410000  0.46350000  0.68840000  1.0 -0.0891192049
C  C26  1  0.57230000  0.09270000  0.58180000  1.0 0.155695365
C  C27  1  0.94130000  0.86980000  0.87500000  1.0 -0.1506541057
C  C28  1  0.97600000  0.88200000  0.95300000  1.0 0.1508120944
C  C29  1  0.74930000  0.22810000  0.07970000  1.0 -0.0891192049
C  C30  1  0.65250000  0.14710000  0.55310000  1.0 -0.1506541057
C  C31  1  0.92110000  0.78740000  0.82080000  1.0 -0.0891192049
C  C32  1  0.56520000  0.11830000  0.66260000  1.0 -0.1506541057
C  C33  1  0.35930000  0.46780000  0.71860000  1.0 -0.1400986166
C  C34  1  0.96550000  0.22600000  0.55340000  1.0 -0.0952154573
C  C35  1  0.99220000  0.26970000  0.49200000  1.0 -0.0392273596
C  C36  1  0.96900000  0.14250000  0.54880000  1.0 -0.1506541057
C  C37  1  0.03660000  0.15370000  0.42630000  1.0 -0.1506541057
C  C38  1  0.01100000  0.10930000  0.48790000  1.0 0.16777425
C  C39  1  0.78200000  0.25020000  0.00960000  1.0 -0.0612290155
C  C40  1  0.66820000  0.15090000  0.08020000  1.0 -0.1574611257
C  C41  1  0.64760000  0.11520000  0.93930000  1.0 -0.1300602636
C  C42  1  0.61690000  0.09490000  0.00680000  1.0 0.121316544
C  C43  1  0.86910000  0.50910000  0.29290000  1.0 0.5813061197
C  C44  1  0.13040000  0.66780000  0.98900000  1.0 0.5982111593
C  C45  1  0.14060000  0.45070000  0.98610000  1.0 0.5982111593
C  C46  1  0.20310000  0.67260000  0.25980000  1.0 0.5813061197
C  C47  1  0.08100000  0.37110000  0.21670000  1.0 0.5742542942
C  C48  1  0.22970000  0.44790000  0.01770000  1.0 -0.0322131248
C  C49  1  0.77550000  0.50030000  0.26100000  1.0 -0.0322131248
C  C50  1  0.28390000  0.75410000  0.31670000  1.0 -0.0322131248
C  C51  1  0.03230000  0.27180000  0.07780000  1.0 -0.0891192049
C  C52  1  0.73980000  0.45740000  0.18200000  1.0 -0.0812552075
C  C53  1  0.26480000  0.48620000  0.09910000  1.0 -0.0891192049
C  C54  1  0.65220000  0.44860000  0.15320000  1.0 -0.1506541057
C  C55  1  0.02060000  0.64270000  0.50510000  1.0 0.6324553688
C  C56  1  0.06260000  0.28270000  0.15430000  1.0 -0.0182542458
C  C57  1  0.27500000  0.40610000  0.97080000  1.0 -0.0891192049
C  C58  1  0.60340000  0.48770000  0.20270000  1.0 0.1508120944
C  C59  1  0.36390000  0.80760000  0.28670000  1.0 -0.0891192049
C  C60  1  0.39380000  0.44510000  0.08090000  1.0 0.155695365
C  C61  1  0.34610000  0.48440000  0.12970000  1.0 -0.1506541057
C  C62  1  0.35840000  0.40530000  0.00220000  1.0 -0.1574611257
C  C63  1  0.01240000  0.18700000  0.02100000  1.0 -0.1506541057
C  C64  1  0.27540000  0.77830000  0.39590000  1.0 -0.0952154573
C  C65  1  0.96970000  0.76400000  0.56970000  1.0 -0.0952154573
C  C66  1  0.27150000  0.81160000  0.06010000  1.0 -0.0812552075
C  C67  1  0.72590000  0.53650000  0.31160000  1.0 -0.0891192049
C  C68  1  0.42770000  0.90730000  0.41820000  1.0 0.155695365
C  C69  1  0.05870000  0.13020000  0.12500000  1.0 -0.1506541057
C  C70  1  0.02400000  0.11800000  0.04700000  1.0 0.1508120944
C  C71  1  0.25070000  0.77190000  0.92030000  1.0 -0.0891192049
C  C72  1  0.34750000  0.85290000  0.44690000  1.0 -0.1506541057
C  C73  1  0.07890000  0.21260000  0.17920000  1.0 -0.0891192049
C  C74  1  0.43480000  0.88170000  0.33740000  1.0 -0.1506541057
C  C75  1  0.64070000  0.53220000  0.28140000  1.0 -0.1506541057
C  C76  1  0.03450000  0.77400000  0.44660000  1.0 -0.0952154573
C  C77  1  0.00780000  0.73030000  0.50800000  1.0 -0.0392273596
C  C78  1  0.03100000  0.85750000  0.45120000  1.0 -0.1506541057
C  C79  1  0.96340000  0.84630000  0.57370000  1.0 -0.1574611257
C  C80  1  0.98900000  0.89070000  0.51210000  1.0 0.16777425
C  C81  1  0.21800000  0.74980000  0.99040000  1.0 -0.0612290155
C  C82  1  0.33180000  0.84910000  0.91980000  1.0 -0.1574611257
C  C83  1  0.35240000  0.88480000  0.06070000  1.0 -0.1300602636
C  C84  1  0.38310000  0.90510000  0.99320000  1.0 0.121316544
N  N1  1  0.51820000  0.55660000  0.89320000  1.0 -0.1400986166
N  N2  1  0.49320000  0.01030000  0.53510000  1.0 -0.1300602636
N  N3  1  0.00230000  0.96820000  0.01300000  1.0 -0.1193492997
N  N4  1  0.48550000  0.51280000  0.82170000  1.0 -0.1193492997
N  N5  1  0.01500000  0.01940000  0.47120000  1.0 -0.1506541057
N  N6  1  0.52500000  0.01790000  0.02790000  1.0 -0.0812552075
N  N7  1  0.48180000  0.44340000  0.10680000  1.0 -0.1400986166
N  N8  1  0.50680000  0.98970000  0.46490000  1.0 -0.1300602636
N  N9  1  0.99770000  0.03180000  0.98700000  1.0 -0.1193492997
N  N10  1  0.51450000  0.48720000  0.17830000  1.0 -0.1193492997
N  N11  1  0.98500000  0.98060000  0.52880000  1.0 -0.1506541057
N  N12  1  0.47500000  0.98210000  0.97210000  1.0 -0.0812552075
O  O1  1  0.90850000  0.33560000  0.94930000  1.0 -0.6003523271
O  O2  1  0.79100000  0.34270000  0.81300000  1.0 -0.5714845757
O  O3  1  0.87050000  0.37770000  0.71190000  1.0 -0.6914575498
O  O4  1  0.90170000  0.51420000  0.96720000  1.0 -0.6442066829
O  O5  1  0.89750000  0.39470000  0.07540000  1.0 -0.610085855
O  O6  1  0.88550000  0.58020000  0.08730000  1.0 -0.5779291193
O  O7  1  0.02580000  0.40870000  0.45190000  1.0 -0.6300796966
O  O8  1  0.11400000  0.49090000  0.63480000  1.0 -0.5779291193
O  O9  1  0.07050000  0.49170000  0.75590000  1.0 -0.6825916569
O  O10  1  0.93690000  0.56780000  0.80430000  1.0 -0.6442066829
O  O11  1  0.89160000  0.62320000  0.71370000  1.0 -0.5714845757
O  O12  1  0.92540000  0.37400000  0.54130000  1.0 -0.6233677964
O  O13  1  0.09150000  0.66440000  0.05070000  1.0 -0.6003523271
O  O14  1  0.20900000  0.65730000  0.18700000  1.0 -0.5714845757
O  O15  1  0.12950000  0.62230000  0.28810000  1.0 -0.6914575498
O  O16  1  0.09830000  0.48580000  0.03280000  1.0 -0.6442066829
O  O17  1  0.10250000  0.60530000  0.92460000  1.0 -0.610085855
O  O18  1  0.11450000  0.41980000  0.91270000  1.0 -0.5779291193
O  O19  1  0.97420000  0.59130000  0.54810000  1.0 -0.6300796966
O  O20  1  0.88600000  0.50910000  0.36520000  1.0 -0.5779291193
O  O21  1  0.92950000  0.50830000  0.24410000  1.0 -0.6825916569
O  O22  1  0.06310000  0.43220000  0.19570000  1.0 -0.6442066829
O  O23  1  0.10840000  0.37680000  0.28630000  1.0 -0.5714845757
O  O24  1  0.07460000  0.62600000  0.45870000  1.0 -0.6233677964
