# DDEC6 charges by PACMAN v1.1 (https://github.com/mtap-research/PACMAN-charge/)
data_ROLNAK_ASR_pacman
_symmetry_space_group_name_H-M   'P 1'
_cell_length_a   25.30880000
_cell_length_b   4.82710000
_cell_length_c   37.12640000
_cell_angle_alpha   90.00000000
_cell_angle_beta   129.73100000
_cell_angle_gamma   90.00000000
_symmetry_Int_Tables_number   1
_chemical_formula_structural   Ba3H42(C8O5)8
_chemical_formula_sum   'Ba6 H84 C128 O80'
_cell_volume   3488.16830719
_cell_formula_units_Z   2
loop_
 _symmetry_equiv_pos_site_id
 _symmetry_equiv_pos_as_xyz
  1  'x, y, z'
loop_
 _atom_site_type_symbol
 _atom_site_label
 _atom_site_symmetry_multiplicity
 _atom_site_fract_x
 _atom_site_fract_y
 _atom_site_fract_z
 _atom_site_occupancy
 _atom_site_charge
Ba  Ba1  1  0.27775000  0.29020000  0.99290000  1.0 1.3745665572
Ba  Ba2  1  0.72225000  0.29020000  0.50710000  1.0 1.3778481902
Ba  Ba3  1  0.72225000  0.70980000  0.00710000  1.0 1.3778481902
Ba  Ba4  1  0.27775000  0.70980000  0.49290000  1.0 1.3778481902
Ba  Ba5  1  0.00000000  0.50000000  0.50000000  1.0 1.4571397326
Ba  Ba6  1  0.00000000  0.50000000  0.00000000  1.0 1.4571397326
H  H1  1  0.39680000  0.97060000  0.01050000  1.0 0.1734141431
H  H2  1  0.40880000  0.24050000  0.00450000  1.0 0.2221132282
H  H3  1  0.12480000  0.73790000  0.37130000  1.0 0.3616674359
H  H4  1  0.72570000  0.90660000  0.22370000  1.0 0.3616674359
H  H5  1  0.85790000  0.46190000  0.36920000  1.0 0.3701834476
H  H6  1  0.63160000  0.24360000  0.38460000  1.0 0.3616674359
H  H7  1  0.62340000  0.05390000  0.14070000  1.0 0.3616674359
H  H8  1  0.05120000  0.25850000  0.43110000  1.0 0.1240987092
H  H9  1  0.99470000  0.31580000  0.30150000  1.0 0.137458971
H  H10  1  0.89420000  0.79070000  0.32500000  1.0 0.137458971
H  H11  1  0.83060000  0.37020000  0.25600000  1.0 0.137458971
H  H12  1  0.72590000  0.52890000  0.11780000  1.0 0.1096179656
H  H13  1  0.86840000  0.91820000  0.18220000  1.0 0.137458971
H  H14  1  0.79050000  0.83100000  0.41760000  1.0 0.1332201756
H  H15  1  0.59390000  0.65270000  0.30290000  1.0 0.137458971
H  H16  1  0.70270000  0.22420000  0.29410000  1.0 0.1332201756
H  H17  1  0.64480000  0.61180000  0.24200000  1.0 0.1332201756
H  H18  1  0.49330000  0.45050000  0.10360000  1.0 0.1041103027
H  H19  1  0.46800000  0.05620000  0.16730000  1.0 0.137458971
H  H20  1  0.39880000  0.08060000  0.99050000  1.0 0.2250108144
H  H21  1  0.39920000  0.36520000  0.98540000  1.0 0.2027223132
H  H22  1  0.60320000  0.97060000  0.48950000  1.0 0.1734141431
H  H23  1  0.59120000  0.24050000  0.49550000  1.0 0.2221132282
H  H24  1  0.87520000  0.73790000  0.12870000  1.0 0.3616674359
H  H25  1  0.27430000  0.90660000  0.27630000  1.0 0.3616674359
H  H26  1  0.14210000  0.46190000  0.13080000  1.0 0.3701834476
H  H27  1  0.36840000  0.24360000  0.11540000  1.0 0.3616674359
H  H28  1  0.37660000  0.05390000  0.35930000  1.0 0.3616674359
H  H29  1  0.94880000  0.25850000  0.06890000  1.0 0.1240987092
H  H30  1  0.00530000  0.31580000  0.19850000  1.0 0.137458971
H  H31  1  0.10580000  0.79070000  0.17500000  1.0 0.137458971
H  H32  1  0.16940000  0.37020000  0.24400000  1.0 0.137458971
H  H33  1  0.27410000  0.52890000  0.38220000  1.0 0.1096179656
H  H34  1  0.13160000  0.91820000  0.31780000  1.0 0.137458971
H  H35  1  0.20950000  0.83100000  0.08240000  1.0 0.1332201756
H  H36  1  0.40610000  0.65270000  0.19710000  1.0 0.137458971
H  H37  1  0.29730000  0.22420000  0.20590000  1.0 0.1332201756
H  H38  1  0.35520000  0.61180000  0.25800000  1.0 0.1332201756
H  H39  1  0.50670000  0.45050000  0.39640000  1.0 0.1041103027
H  H40  1  0.53200000  0.05620000  0.33270000  1.0 0.137458971
H  H41  1  0.60120000  0.08060000  0.50950000  1.0 0.2221132282
H  H42  1  0.60080000  0.36520000  0.51460000  1.0 0.2027223132
H  H43  1  0.60320000  0.02940000  0.98950000  1.0 0.1734141431
H  H44  1  0.59120000  0.75950000  0.99550000  1.0 0.2221132282
H  H45  1  0.87520000  0.26210000  0.62870000  1.0 0.3616674359
H  H46  1  0.27430000  0.09340000  0.77630000  1.0 0.3616674359
H  H47  1  0.14210000  0.53810000  0.63080000  1.0 0.3701834476
H  H48  1  0.36840000  0.75640000  0.61540000  1.0 0.3616674359
H  H49  1  0.37660000  0.94610000  0.85930000  1.0 0.3616674359
H  H50  1  0.94880000  0.74150000  0.56890000  1.0 0.1240987092
H  H51  1  0.00530000  0.68420000  0.69850000  1.0 0.137458971
H  H52  1  0.10580000  0.20930000  0.67500000  1.0 0.137458971
H  H53  1  0.16940000  0.62980000  0.74400000  1.0 0.137458971
H  H54  1  0.27410000  0.47110000  0.88220000  1.0 0.1096179656
H  H55  1  0.13160000  0.08180000  0.81780000  1.0 0.137458971
H  H56  1  0.20950000  0.16900000  0.58240000  1.0 0.1332201756
H  H57  1  0.40610000  0.34730000  0.69710000  1.0 0.137458971
H  H58  1  0.29730000  0.77580000  0.70590000  1.0 0.1332201756
H  H59  1  0.35520000  0.38820000  0.75800000  1.0 0.1332201756
H  H60  1  0.50670000  0.54950000  0.89640000  1.0 0.1041103027
H  H61  1  0.53200000  0.94380000  0.83270000  1.0 0.137458971
H  H62  1  0.60120000  0.91940000  0.00950000  1.0 0.2221132282
H  H63  1  0.60080000  0.63480000  0.01460000  1.0 0.2027223132
H  H64  1  0.39680000  0.02940000  0.51050000  1.0 0.1734141431
H  H65  1  0.40880000  0.75950000  0.50450000  1.0 0.2221132282
H  H66  1  0.12480000  0.26210000  0.87130000  1.0 0.3616674359
H  H67  1  0.72570000  0.09340000  0.72370000  1.0 0.3616674359
H  H68  1  0.85790000  0.53810000  0.86920000  1.0 0.3701834476
H  H69  1  0.63160000  0.75640000  0.88460000  1.0 0.3616674359
H  H70  1  0.62340000  0.94610000  0.64070000  1.0 0.3616674359
H  H71  1  0.05120000  0.74150000  0.93110000  1.0 0.1240987092
H  H72  1  0.99470000  0.68420000  0.80150000  1.0 0.137458971
H  H73  1  0.89420000  0.20930000  0.82500000  1.0 0.137458971
H  H74  1  0.83060000  0.62980000  0.75600000  1.0 0.137458971
H  H75  1  0.72590000  0.47110000  0.61780000  1.0 0.1096179656
H  H76  1  0.86840000  0.08180000  0.68220000  1.0 0.137458971
H  H77  1  0.79050000  0.16900000  0.91760000  1.0 0.1332201756
H  H78  1  0.59390000  0.34730000  0.80290000  1.0 0.137458971
H  H79  1  0.70270000  0.77580000  0.79410000  1.0 0.1332201756
H  H80  1  0.64480000  0.38820000  0.74200000  1.0 0.1332201756
H  H81  1  0.49330000  0.54950000  0.60360000  1.0 0.1041103027
H  H82  1  0.46800000  0.94380000  0.66730000  1.0 0.137458971
H  H83  1  0.39880000  0.91940000  0.49050000  1.0 0.2221132282
H  H84  1  0.39920000  0.63480000  0.48540000  1.0 0.2027223132
C  C1  1  0.96368000  0.89480000  0.41753000  1.0 0.5919045828
C  C2  1  0.97107000  0.00990000  0.38309000  1.0 -0.013364756
C  C3  1  0.02234000  0.20250000  0.39924000  1.0 -0.1233556147
C  C4  1  0.03212000  0.31520000  0.36947000  1.0 -0.0173149487
C  C5  1  0.98937000  0.23660000  0.32246000  1.0 -0.2209177975
C  C6  1  0.93893000  0.04040000  0.30698000  1.0 0.2436292491
C  C7  1  0.92901000  0.92520000  0.33639000  1.0 -0.2044860438
C  C8  1  0.08992000  0.51120000  0.38885000  1.0 0.57041911
C  C9  1  0.85615000  0.11820000  0.22479000  1.0 0.2625511906
C  C10  1  0.82120000  0.32930000  0.22732000  1.0 -0.2209177975
C  C11  1  0.77214000  0.47910000  0.18685000  1.0 -0.0173149487
C  C12  1  0.75933000  0.42410000  0.14509000  1.0 -0.1410306521
C  C13  1  0.79545000  0.21610000  0.14342000  1.0 -0.013364756
C  C14  1  0.84375000  0.06200000  0.18327000  1.0 -0.2115188795
C  C15  1  0.73013000  0.69830000  0.18615000  1.0 0.555970722
C  C16  1  0.77939000  0.15620000  0.09741000  1.0 0.5815841279
C  C17  1  0.81965000  0.22220000  0.38302000  1.0 0.5521191022
C  C18  1  0.75607000  0.05180000  0.35937000  1.0 -0.0173149487
C  C19  1  0.75219000  0.85940000  0.38550000  1.0 -0.1233556147
C  C20  1  0.69214000  0.70880000  0.36446000  1.0 -0.0173149487
C  C21  1  0.63515000  0.75500000  0.31747000  1.0 -0.2209177975
C  C22  1  0.63977000  0.95170000  0.29255000  1.0 0.2436292491
C  C23  1  0.69975000  0.09660000  0.31224000  1.0 -0.2115188795
C  C24  1  0.68743000  0.50480000  0.39243000  1.0 0.57041911
C  C25  1  0.55996000  0.85480000  0.21056000  1.0 0.2625511906
C  C26  1  0.60044000  0.64980000  0.21325000  1.0 -0.2209177975
C  C27  1  0.57520000  0.50010000  0.17312000  1.0 -0.0173149487
C  C28  1  0.51017000  0.55490000  0.13077000  1.0 -0.1596653701
C  C29  1  0.47018000  0.76280000  0.12848000  1.0 -0.0173149487
C  C30  1  0.49515000  0.91400000  0.16865000  1.0 -0.2115188795
C  C31  1  0.61949000  0.28060000  0.17667000  1.0 0.5521191022
C  C32  1  0.40052000  0.82390000  0.08243000  1.0 0.57041911
C  C33  1  0.03632000  0.89480000  0.08247000  1.0 0.5919045828
C  C34  1  0.02893000  0.00990000  0.11691000  1.0 -0.013364756
C  C35  1  0.97766000  0.20250000  0.10076000  1.0 -0.1233556147
C  C36  1  0.96788000  0.31520000  0.13053000  1.0 -0.0173149487
C  C37  1  0.01063000  0.23660000  0.17754000  1.0 -0.2209177975
C  C38  1  0.06107000  0.04040000  0.19302000  1.0 0.2436292491
C  C39  1  0.07099000  0.92520000  0.16361000  1.0 -0.2044860438
C  C40  1  0.91008000  0.51120000  0.11115000  1.0 0.57041911
C  C41  1  0.14385000  0.11820000  0.27521000  1.0 0.2625511906
C  C42  1  0.17880000  0.32930000  0.27268000  1.0 -0.2209177975
C  C43  1  0.22786000  0.47910000  0.31315000  1.0 -0.0173149487
C  C44  1  0.24067000  0.42410000  0.35491000  1.0 -0.1410306521
C  C45  1  0.20455000  0.21610000  0.35658000  1.0 -0.013364756
C  C46  1  0.15625000  0.06200000  0.31673000  1.0 -0.2115188795
C  C47  1  0.26987000  0.69830000  0.31385000  1.0 0.555970722
C  C48  1  0.22061000  0.15620000  0.40259000  1.0 0.5815841279
C  C49  1  0.18035000  0.22220000  0.11698000  1.0 0.555970722
C  C50  1  0.24393000  0.05180000  0.14063000  1.0 -0.013364756
C  C51  1  0.24781000  0.85940000  0.11450000  1.0 -0.1233556147
C  C52  1  0.30786000  0.70880000  0.13554000  1.0 -0.0173149487
C  C53  1  0.36485000  0.75500000  0.18253000  1.0 -0.2115188795
C  C54  1  0.36023000  0.95170000  0.20745000  1.0 0.2436292491
C  C55  1  0.30025000  0.09660000  0.18776000  1.0 -0.2115188795
C  C56  1  0.31257000  0.50480000  0.10757000  1.0 0.57041911
C  C57  1  0.44004000  0.85480000  0.28944000  1.0 0.2625511906
C  C58  1  0.39956000  0.64980000  0.28675000  1.0 -0.2209177975
C  C59  1  0.42480000  0.50010000  0.32688000  1.0 -0.013364756
C  C60  1  0.48983000  0.55490000  0.36923000  1.0 -0.1596653701
C  C61  1  0.52982000  0.76280000  0.37152000  1.0 -0.0173149487
C  C62  1  0.50485000  0.91400000  0.33135000  1.0 -0.2115188795
C  C63  1  0.38051000  0.28060000  0.32333000  1.0 0.5521191022
C  C64  1  0.59948000  0.82390000  0.41757000  1.0 0.57041911
C  C65  1  0.03632000  0.10520000  0.58247000  1.0 0.5919045828
C  C66  1  0.02893000  0.99010000  0.61691000  1.0 -0.013364756
C  C67  1  0.97766000  0.79750000  0.60076000  1.0 -0.1233556147
C  C68  1  0.96788000  0.68480000  0.63053000  1.0 -0.0173149487
C  C69  1  0.01063000  0.76340000  0.67754000  1.0 -0.2209177975
C  C70  1  0.06107000  0.95960000  0.69302000  1.0 0.2436292491
C  C71  1  0.07099000  0.07480000  0.66361000  1.0 -0.2044860438
C  C72  1  0.91008000  0.48880000  0.61115000  1.0 0.57041911
C  C73  1  0.14385000  0.88180000  0.77521000  1.0 0.2625511906
C  C74  1  0.17880000  0.67070000  0.77268000  1.0 -0.2209177975
C  C75  1  0.22786000  0.52090000  0.81315000  1.0 -0.0173149487
C  C76  1  0.24067000  0.57590000  0.85491000  1.0 -0.1410306521
C  C77  1  0.20455000  0.78390000  0.85658000  1.0 -0.0173149487
C  C78  1  0.15625000  0.93800000  0.81673000  1.0 -0.2115188795
C  C79  1  0.26987000  0.30170000  0.81385000  1.0 0.555970722
C  C80  1  0.22061000  0.84380000  0.90259000  1.0 0.5815841279
C  C81  1  0.18035000  0.77780000  0.61698000  1.0 0.555970722
C  C82  1  0.24393000  0.94820000  0.64063000  1.0 -0.0173149487
C  C83  1  0.24781000  0.14060000  0.61450000  1.0 -0.1233556147
C  C84  1  0.30786000  0.29120000  0.63554000  1.0 -0.0173149487
C  C85  1  0.36485000  0.24500000  0.68253000  1.0 -0.2115188795
C  C86  1  0.36023000  0.04830000  0.70745000  1.0 0.2436292491
C  C87  1  0.30025000  0.90340000  0.68776000  1.0 -0.2115188795
C  C88  1  0.31257000  0.49520000  0.60757000  1.0 0.57041911
C  C89  1  0.44004000  0.14520000  0.78944000  1.0 0.2625511906
C  C90  1  0.39956000  0.35020000  0.78675000  1.0 -0.2209177975
C  C91  1  0.42480000  0.49990000  0.82688000  1.0 -0.0173149487
C  C92  1  0.48983000  0.44510000  0.86923000  1.0 -0.1596653701
C  C93  1  0.52982000  0.23720000  0.87152000  1.0 -0.0173149487
C  C94  1  0.50485000  0.08600000  0.83135000  1.0 -0.2115188795
C  C95  1  0.38051000  0.71940000  0.82333000  1.0 0.5521191022
C  C96  1  0.59948000  0.17610000  0.91757000  1.0 0.57041911
C  C97  1  0.96368000  0.10520000  0.91753000  1.0 0.5919045828
C  C98  1  0.97107000  0.99010000  0.88309000  1.0 -0.013364756
C  C99  1  0.02234000  0.79750000  0.89924000  1.0 -0.1233556147
C  C100  1  0.03212000  0.68480000  0.86947000  1.0 -0.0173149487
C  C101  1  0.98937000  0.76340000  0.82246000  1.0 -0.2209177975
C  C102  1  0.93893000  0.95960000  0.80698000  1.0 0.2436292491
C  C103  1  0.92901000  0.07480000  0.83639000  1.0 -0.2044860438
C  C104  1  0.08992000  0.48880000  0.88885000  1.0 0.57041911
C  C105  1  0.85615000  0.88180000  0.72479000  1.0 0.2625511906
C  C106  1  0.82120000  0.67070000  0.72732000  1.0 -0.2209177975
C  C107  1  0.77214000  0.52090000  0.68685000  1.0 -0.0173149487
C  C108  1  0.75933000  0.57590000  0.64509000  1.0 -0.1410306521
C  C109  1  0.79545000  0.78390000  0.64342000  1.0 -0.013364756
C  C110  1  0.84375000  0.93800000  0.68327000  1.0 -0.2115188795
C  C111  1  0.73013000  0.30170000  0.68615000  1.0 0.555970722
C  C112  1  0.77939000  0.84380000  0.59741000  1.0 0.5815841279
C  C113  1  0.81965000  0.77780000  0.88302000  1.0 0.555970722
C  C114  1  0.75607000  0.94820000  0.85937000  1.0 -0.0173149487
C  C115  1  0.75219000  0.14060000  0.88550000  1.0 -0.1233556147
C  C116  1  0.69214000  0.29120000  0.86446000  1.0 -0.0173149487
C  C117  1  0.63515000  0.24500000  0.81747000  1.0 -0.2209177975
C  C118  1  0.63977000  0.04830000  0.79255000  1.0 0.2436292491
C  C119  1  0.69975000  0.90340000  0.81224000  1.0 -0.2115188795
C  C120  1  0.68743000  0.49520000  0.89243000  1.0 0.57041911
C  C121  1  0.55996000  0.14520000  0.71056000  1.0 0.2625511906
C  C122  1  0.60044000  0.35020000  0.71325000  1.0 -0.2209177975
C  C123  1  0.57520000  0.49990000  0.67312000  1.0 -0.0173149487
C  C124  1  0.51017000  0.44510000  0.63077000  1.0 -0.1596653701
C  C125  1  0.47018000  0.23720000  0.62848000  1.0 -0.0173149487
C  C126  1  0.49515000  0.08600000  0.66865000  1.0 -0.2115188795
C  C127  1  0.61949000  0.71940000  0.67667000  1.0 0.5521191022
C  C128  1  0.40052000  0.17610000  0.58243000  1.0 0.57041911
O  O1  1  0.92855000  0.67720000  0.40665000  1.0 -0.6136871406
O  O2  1  0.99509000  0.01300000  0.45626000  1.0 -0.6294906044
O  O3  1  0.37870000  0.11420000  0.99340000  1.0 -0.1707861085
O  O4  1  0.13336000  0.55380000  0.43124000  1.0 -0.5492498704
O  O5  1  0.09133000  0.62830000  0.35781000  1.0 -0.4677332283
O  O6  1  0.90058000  0.93920000  0.26142000  1.0 -0.2115188795
O  O7  1  0.75109000  0.77820000  0.22724000  1.0 -0.4427970626
O  O8  1  0.67922000  0.79390000  0.14908000  1.0 -0.5284519969
O  O9  1  0.73855000  0.30800000  0.06333000  1.0 -0.6195636817
O  O10  1  0.80740000  0.94690000  0.09503000  1.0 -0.6195636817
O  O11  1  0.86203000  0.24020000  0.42544000  1.0 -0.5284519969
O  O12  1  0.82416000  0.35370000  0.35403000  1.0 -0.4677332283
O  O13  1  0.73074000  0.48740000  0.43508000  1.0 -0.5284519969
O  O14  1  0.63223000  0.35080000  0.36703000  1.0 -0.4677332283
O  O15  1  0.58086000  0.02410000  0.24764000  1.0 -0.2115188795
O  O16  1  0.67429000  0.21190000  0.21429000  1.0 -0.5043619254
O  O17  1  0.59497000  0.16870000  0.13646000  1.0 -0.49063885
O  O18  1  0.37859000  0.67130000  0.04825000  1.0 -0.6294906044
O  O19  1  0.36674000  0.02890000  0.07955000  1.0 -0.6136871406
O  O20  1  0.37380000  0.22190000  0.97560000  1.0 -0.1707861085
O  O21  1  0.07145000  0.67720000  0.09335000  1.0 -0.6136871406
O  O22  1  0.00491000  0.01300000  0.04374000  1.0 -0.6294906044
O  O23  1  0.62130000  0.11420000  0.50660000  1.0 -0.1707861085
O  O24  1  0.86664000  0.55380000  0.06876000  1.0 -0.5492498704
O  O25  1  0.90867000  0.62830000  0.14219000  1.0 -0.4677332283
O  O26  1  0.09942000  0.93920000  0.23858000  1.0 -0.2115188795
O  O27  1  0.24891000  0.77820000  0.27276000  1.0 -0.4427970626
O  O28  1  0.32078000  0.79390000  0.35092000  1.0 -0.5284519969
O  O29  1  0.26145000  0.30800000  0.43667000  1.0 -0.6195636817
O  O30  1  0.19260000  0.94690000  0.40497000  1.0 -0.6195636817
O  O31  1  0.13797000  0.24020000  0.07456000  1.0 -0.5284519969
O  O32  1  0.17584000  0.35370000  0.14597000  1.0 -0.4677332283
O  O33  1  0.26926000  0.48740000  0.06492000  1.0 -0.5284519969
O  O34  1  0.36777000  0.35080000  0.13297000  1.0 -0.4754340031
O  O35  1  0.41914000  0.02410000  0.25236000  1.0 -0.2115188795
O  O36  1  0.32571000  0.21190000  0.28571000  1.0 -0.5043619254
O  O37  1  0.40503000  0.16870000  0.36354000  1.0 -0.49063885
O  O38  1  0.62141000  0.67130000  0.45175000  1.0 -0.6294906044
O  O39  1  0.63326000  0.02890000  0.42045000  1.0 -0.6136871406
O  O40  1  0.62620000  0.22190000  0.52440000  1.0 -0.1707861085
O  O41  1  0.07145000  0.32280000  0.59335000  1.0 -0.6136871406
O  O42  1  0.00491000  0.98700000  0.54374000  1.0 -0.6294906044
O  O43  1  0.62130000  0.88580000  0.00660000  1.0 -0.1707861085
O  O44  1  0.86664000  0.44620000  0.56876000  1.0 -0.5492498704
O  O45  1  0.90867000  0.37170000  0.64219000  1.0 -0.4677332283
O  O46  1  0.09942000  0.06080000  0.73858000  1.0 -0.2115188795
O  O47  1  0.24891000  0.22180000  0.77276000  1.0 -0.4427970626
O  O48  1  0.32078000  0.20610000  0.85092000  1.0 -0.5284519969
O  O49  1  0.26145000  0.69200000  0.93667000  1.0 -0.6195636817
O  O50  1  0.19260000  0.05310000  0.90497000  1.0 -0.6195636817
O  O51  1  0.13797000  0.75980000  0.57456000  1.0 -0.5284519969
O  O52  1  0.17584000  0.64630000  0.64597000  1.0 -0.4645357111
O  O53  1  0.26926000  0.51260000  0.56492000  1.0 -0.5284519969
O  O54  1  0.36777000  0.64920000  0.63297000  1.0 -0.4754340031
O  O55  1  0.41914000  0.97590000  0.75236000  1.0 -0.2115188795
O  O56  1  0.32571000  0.78810000  0.78571000  1.0 -0.5053951421
O  O57  1  0.40503000  0.83130000  0.86354000  1.0 -0.49063885
O  O58  1  0.62141000  0.32870000  0.95175000  1.0 -0.6294906044
O  O59  1  0.63326000  0.97110000  0.92045000  1.0 -0.6136871406
O  O60  1  0.62620000  0.77810000  0.02440000  1.0 -0.1707861085
O  O61  1  0.92855000  0.32280000  0.90665000  1.0 -0.6136871406
O  O62  1  0.99509000  0.98700000  0.95626000  1.0 -0.6294906044
O  O63  1  0.37870000  0.88580000  0.49340000  1.0 -0.1707861085
O  O64  1  0.13336000  0.44620000  0.93124000  1.0 -0.5492498704
O  O65  1  0.09133000  0.37170000  0.85781000  1.0 -0.4677332283
O  O66  1  0.90058000  0.06080000  0.76142000  1.0 -0.2115188795
O  O67  1  0.75109000  0.22180000  0.72724000  1.0 -0.4427970626
O  O68  1  0.67922000  0.20610000  0.64908000  1.0 -0.5284519969
O  O69  1  0.73855000  0.69200000  0.56333000  1.0 -0.6195636817
O  O70  1  0.80740000  0.05310000  0.59503000  1.0 -0.6195636817
O  O71  1  0.86203000  0.75980000  0.92544000  1.0 -0.5284519969
O  O72  1  0.82416000  0.64630000  0.85403000  1.0 -0.4677332283
O  O73  1  0.73074000  0.51260000  0.93508000  1.0 -0.5284519969
O  O74  1  0.63223000  0.64920000  0.86703000  1.0 -0.4754340031
O  O75  1  0.58086000  0.97590000  0.74764000  1.0 -0.2115188795
O  O76  1  0.67429000  0.78810000  0.71429000  1.0 -0.5043619254
O  O77  1  0.59497000  0.83130000  0.63646000  1.0 -0.49063885
O  O78  1  0.37859000  0.32870000  0.54825000  1.0 -0.6294906044
O  O79  1  0.36674000  0.97110000  0.57955000  1.0 -0.6136871406
O  O80  1  0.37380000  0.77810000  0.47560000  1.0 -0.1707861085
