# DDEC6 charges by PACMAN v1.1 (https://github.com/mtap-research/PACMAN-charge/)
data_ROMMAJ_ASR_pacman
_symmetry_space_group_name_H-M   'P 1'
_cell_length_a   16.74030000
_cell_length_b   16.74030000
_cell_length_c   16.74030000
_cell_angle_alpha   67.88190000
_cell_angle_beta   67.88190000
_cell_angle_gamma   67.88190000
_symmetry_Int_Tables_number   1
_chemical_formula_structural   CuH5C15O8
_chemical_formula_sum   'Cu6 H30 C90 O48'
_cell_volume   3872.66136945
_cell_formula_units_Z   6
loop_
 _symmetry_equiv_pos_site_id
 _symmetry_equiv_pos_as_xyz
  1  'x, y, z'
loop_
 _atom_site_type_symbol
 _atom_site_label
 _atom_site_symmetry_multiplicity
 _atom_site_fract_x
 _atom_site_fract_y
 _atom_site_fract_z
 _atom_site_occupancy
 _atom_site_charge
Cu  Cu1  1  0.42499000  0.99491000  0.99491000  1.0 0.8660162715
Cu  Cu2  1  0.99491000  0.99491000  0.42499000  1.0 0.8660162715
Cu  Cu3  1  0.99491000  0.42499000  0.99491000  1.0 0.8660162715
Cu  Cu4  1  0.57501000  0.00509000  0.00509000  1.0 0.8660162715
Cu  Cu5  1  0.00509000  0.57501000  0.00509000  1.0 0.8660162715
Cu  Cu6  1  0.00509000  0.00509000  0.57501000  1.0 0.8660162715
H  H1  1  0.27040000  0.97250000  0.27040000  1.0 0.148714719
H  H2  1  0.97250000  0.27040000  0.27040000  1.0 0.148714719
H  H3  1  0.27040000  0.27040000  0.97250000  1.0 0.148714719
H  H4  1  0.72960000  0.72960000  0.02750000  1.0 0.148714719
H  H5  1  0.02750000  0.72960000  0.72960000  1.0 0.148714719
H  H6  1  0.72960000  0.02750000  0.72960000  1.0 0.148714719
H  H7  1  0.50180000  0.97850000  0.28590000  1.0 0.1289632945
H  H8  1  0.97850000  0.28590000  0.50180000  1.0 0.1289632945
H  H9  1  0.28590000  0.50180000  0.97850000  1.0 0.1289632945
H  H10  1  0.49820000  0.71410000  0.02150000  1.0 0.1289632945
H  H11  1  0.02150000  0.49820000  0.71410000  1.0 0.1289632945
H  H12  1  0.71410000  0.02150000  0.49820000  1.0 0.1289632945
H  H13  1  0.49820000  0.02150000  0.71410000  1.0 0.1289632945
H  H14  1  0.02150000  0.71410000  0.49820000  1.0 0.1289632945
H  H15  1  0.71410000  0.49820000  0.02150000  1.0 0.1289632945
H  H16  1  0.50180000  0.28590000  0.97850000  1.0 0.1289632945
H  H17  1  0.97850000  0.50180000  0.28590000  1.0 0.1289632945
H  H18  1  0.28590000  0.97850000  0.50180000  1.0 0.1289632945
H  H19  1  0.51270000  0.07440000  0.35250000  1.0 0.1243936895
H  H20  1  0.07440000  0.35250000  0.51270000  1.0 0.1243936895
H  H21  1  0.35250000  0.51270000  0.07440000  1.0 0.1243936895
H  H22  1  0.48730000  0.64750000  0.92560000  1.0 0.1243936895
H  H23  1  0.92560000  0.48730000  0.64750000  1.0 0.1243936895
H  H24  1  0.64750000  0.92560000  0.48730000  1.0 0.1243936895
H  H25  1  0.48730000  0.92560000  0.64750000  1.0 0.1243936895
H  H26  1  0.92560000  0.64750000  0.48730000  1.0 0.1243936895
H  H27  1  0.64750000  0.48730000  0.92560000  1.0 0.1243936895
H  H28  1  0.51270000  0.35250000  0.07440000  1.0 0.1243936895
H  H29  1  0.07440000  0.51270000  0.35250000  1.0 0.1243936895
H  H30  1  0.35250000  0.07440000  0.51270000  1.0 0.1243936895
C  C1  1  0.43430000  0.97920000  0.16610000  1.0 0.5905752806
C  C2  1  0.97920000  0.16610000  0.43430000  1.0 0.5905752806
C  C3  1  0.16610000  0.43430000  0.97920000  1.0 0.5905752806
C  C4  1  0.56570000  0.83390000  0.02080000  1.0 0.5905752806
C  C5  1  0.02080000  0.56570000  0.83390000  1.0 0.5905752806
C  C6  1  0.83390000  0.02080000  0.56570000  1.0 0.5905752806
C  C7  1  0.56570000  0.02080000  0.83390000  1.0 0.5905752806
C  C8  1  0.02080000  0.83390000  0.56570000  1.0 0.5905752806
C  C9  1  0.83390000  0.56570000  0.02080000  1.0 0.5905752806
C  C10  1  0.43430000  0.16610000  0.97920000  1.0 0.5905752806
C  C11  1  0.97920000  0.43430000  0.16610000  1.0 0.5905752806
C  C12  1  0.16610000  0.97920000  0.43430000  1.0 0.5905752806
C  C13  1  0.30364000  0.97334000  0.30364000  1.0 -0.0921131444
C  C14  1  0.97334000  0.30364000  0.30364000  1.0 -0.0921131444
C  C15  1  0.30364000  0.30364000  0.97334000  1.0 -0.0921131444
C  C16  1  0.69636000  0.69636000  0.02666000  1.0 -0.0921131444
C  C17  1  0.02666000  0.69636000  0.69636000  1.0 -0.0921131444
C  C18  1  0.69636000  0.02666000  0.69636000  1.0 -0.0921131444
C  C19  1  0.39271000  0.97401000  0.26361000  1.0 0.0013033049
C  C20  1  0.97401000  0.26361000  0.39271000  1.0 0.0013033049
C  C21  1  0.26361000  0.39271000  0.97401000  1.0 0.0013033049
C  C22  1  0.60729000  0.73639000  0.02599000  1.0 0.0013033049
C  C23  1  0.02599000  0.60729000  0.73639000  1.0 0.0013033049
C  C24  1  0.73639000  0.02599000  0.60729000  1.0 0.0013033049
C  C25  1  0.60729000  0.02599000  0.73639000  1.0 0.0013033049
C  C26  1  0.02599000  0.73639000  0.60729000  1.0 0.0013033049
C  C27  1  0.73639000  0.60729000  0.02599000  1.0 0.0013033049
C  C28  1  0.39271000  0.26361000  0.97401000  1.0 0.0013033049
C  C29  1  0.97401000  0.39271000  0.26361000  1.0 0.0013033049
C  C30  1  0.26361000  0.97401000  0.39271000  1.0 0.0013033049
C  C31  1  0.44254000  0.97684000  0.31304000  1.0 -0.1356471613
C  C32  1  0.97684000  0.31304000  0.44254000  1.0 -0.1356471613
C  C33  1  0.31304000  0.44254000  0.97684000  1.0 -0.1356471613
C  C34  1  0.55746000  0.68696000  0.02316000  1.0 -0.1356471613
C  C35  1  0.02316000  0.55746000  0.68696000  1.0 -0.1356471613
C  C36  1  0.68696000  0.02316000  0.55746000  1.0 -0.1356471613
C  C37  1  0.55746000  0.02316000  0.68696000  1.0 -0.1356471613
C  C38  1  0.02316000  0.68696000  0.55746000  1.0 -0.1356471613
C  C39  1  0.68696000  0.55746000  0.02316000  1.0 -0.1356471613
C  C40  1  0.44254000  0.31304000  0.97684000  1.0 -0.1356471613
C  C41  1  0.97684000  0.44254000  0.31304000  1.0 -0.1334199132
C  C42  1  0.31304000  0.97684000  0.44254000  1.0 -0.1356471613
C  C43  1  0.40368000  0.97708000  0.40368000  1.0 0.072809622
C  C44  1  0.97708000  0.40368000  0.40368000  1.0 0.072809622
C  C45  1  0.40368000  0.40368000  0.97708000  1.0 0.072809622
C  C46  1  0.59632000  0.59632000  0.02292000  1.0 0.072809622
C  C47  1  0.02292000  0.59632000  0.59632000  1.0 0.072809622
C  C48  1  0.59632000  0.02292000  0.59632000  1.0 0.072809622
C  C49  1  0.45448000  0.98378000  0.45448000  1.0 0.0639533913
C  C50  1  0.98378000  0.45448000  0.45448000  1.0 0.0639533913
C  C51  1  0.45448000  0.45448000  0.98378000  1.0 0.0639533913
C  C52  1  0.54552000  0.54552000  0.01622000  1.0 0.0639533913
C  C53  1  0.01622000  0.54552000  0.54552000  1.0 0.0639533913
C  C54  1  0.54552000  0.01622000  0.54552000  1.0 0.0639533913
C  C55  1  0.45340000  0.93300000  0.54090000  1.0 -0.0204101341
C  C56  1  0.93300000  0.54090000  0.45340000  1.0 -0.0204101341
C  C57  1  0.54090000  0.45340000  0.93300000  1.0 -0.0204101341
C  C58  1  0.54660000  0.45910000  0.06700000  1.0 -0.0204101341
C  C59  1  0.06700000  0.54660000  0.45910000  1.0 -0.0204101341
C  C60  1  0.45910000  0.06700000  0.54660000  1.0 -0.0204101341
C  C61  1  0.54660000  0.06700000  0.45910000  1.0 -0.0204101341
C  C62  1  0.06700000  0.45910000  0.54660000  1.0 -0.0204101341
C  C63  1  0.45910000  0.54660000  0.06700000  1.0 -0.0204101341
C  C64  1  0.45340000  0.54090000  0.93300000  1.0 -0.0204101341
C  C65  1  0.93300000  0.45340000  0.54090000  1.0 -0.0204101341
C  C66  1  0.54090000  0.93300000  0.45340000  1.0 -0.0204101341
C  C67  1  0.50570000  0.04580000  0.41330000  1.0 -0.102342673
C  C68  1  0.04580000  0.41330000  0.50570000  1.0 -0.102342673
C  C69  1  0.41330000  0.50570000  0.04580000  1.0 -0.102342673
C  C70  1  0.49430000  0.58670000  0.95420000  1.0 -0.102342673
C  C71  1  0.95420000  0.49430000  0.58670000  1.0 -0.102342673
C  C72  1  0.58670000  0.95420000  0.49430000  1.0 -0.102342673
C  C73  1  0.49430000  0.95420000  0.58670000  1.0 -0.102342673
C  C74  1  0.95420000  0.58670000  0.49430000  1.0 -0.102342673
C  C75  1  0.58670000  0.49430000  0.95420000  1.0 -0.102342673
C  C76  1  0.50570000  0.41330000  0.04580000  1.0 -0.102342673
C  C77  1  0.04580000  0.50570000  0.41330000  1.0 -0.102342673
C  C78  1  0.41330000  0.04580000  0.50570000  1.0 -0.102342673
C  C79  1  0.40410000  0.85940000  0.59390000  1.0 0.4722441736
C  C80  1  0.85940000  0.59390000  0.40410000  1.0 0.4722441736
C  C81  1  0.59390000  0.40410000  0.85940000  1.0 0.4722441736
C  C82  1  0.59590000  0.40610000  0.14060000  1.0 0.4722441736
C  C83  1  0.14060000  0.59590000  0.40610000  1.0 0.4722441736
C  C84  1  0.40610000  0.14060000  0.59590000  1.0 0.4722441736
C  C85  1  0.59590000  0.14060000  0.40610000  1.0 0.4722441736
C  C86  1  0.14060000  0.40610000  0.59590000  1.0 0.4722441736
C  C87  1  0.40610000  0.59590000  0.14060000  1.0 0.4722441736
C  C88  1  0.40410000  0.59390000  0.85940000  1.0 0.4722441736
C  C89  1  0.85940000  0.40410000  0.59390000  1.0 0.4722441736
C  C90  1  0.59390000  0.85940000  0.40410000  1.0 0.4722441736
O  O1  1  0.51222000  0.98584000  0.13356000  1.0 -0.5108017943
O  O2  1  0.98584000  0.13356000  0.51222000  1.0 -0.5108017943
O  O3  1  0.13356000  0.51222000  0.98584000  1.0 -0.5108017943
O  O4  1  0.48778000  0.86644000  0.01416000  1.0 -0.5108017943
O  O5  1  0.01416000  0.48778000  0.86644000  1.0 -0.5108017943
O  O6  1  0.86644000  0.01416000  0.48778000  1.0 -0.5108017943
O  O7  1  0.48778000  0.01416000  0.86644000  1.0 -0.5108017943
O  O8  1  0.01416000  0.86644000  0.48778000  1.0 -0.5108017943
O  O9  1  0.86644000  0.48778000  0.01416000  1.0 -0.5108017943
O  O10  1  0.51222000  0.13356000  0.98584000  1.0 -0.5108017943
O  O11  1  0.98584000  0.51222000  0.13356000  1.0 -0.5108017943
O  O12  1  0.13356000  0.98584000  0.51222000  1.0 -0.5108017943
O  O13  1  0.38609000  0.97835000  0.12459000  1.0 -0.5108017943
O  O14  1  0.97835000  0.12459000  0.38609000  1.0 -0.5108017943
O  O15  1  0.12459000  0.38609000  0.97835000  1.0 -0.5108017943
O  O16  1  0.61391000  0.87541000  0.02165000  1.0 -0.5108017943
O  O17  1  0.02165000  0.61391000  0.87541000  1.0 -0.5108017943
O  O18  1  0.87541000  0.02165000  0.61391000  1.0 -0.5108017943
O  O19  1  0.61391000  0.02165000  0.87541000  1.0 -0.5108017943
O  O20  1  0.02165000  0.87541000  0.61391000  1.0 -0.5108017943
O  O21  1  0.87541000  0.61391000  0.02165000  1.0 -0.5108017943
O  O22  1  0.38609000  0.12459000  0.97835000  1.0 -0.5108017943
O  O23  1  0.97835000  0.38609000  0.12459000  1.0 -0.5108017943
O  O24  1  0.12459000  0.97835000  0.38609000  1.0 -0.5108017943
O  O25  1  0.42170000  0.79930000  0.56710000  1.0 -0.2993313696
O  O26  1  0.79930000  0.56710000  0.42170000  1.0 -0.2993313696
O  O27  1  0.56710000  0.42170000  0.79930000  1.0 -0.2993313696
O  O28  1  0.57830000  0.43290000  0.20070000  1.0 -0.2993313696
O  O29  1  0.20070000  0.57830000  0.43290000  1.0 -0.2993313696
O  O30  1  0.43290000  0.20070000  0.57830000  1.0 -0.2993313696
O  O31  1  0.57830000  0.20070000  0.43290000  1.0 -0.2993313696
O  O32  1  0.20070000  0.43290000  0.57830000  1.0 -0.2916396232
O  O33  1  0.43290000  0.57830000  0.20070000  1.0 -0.2993313696
O  O34  1  0.42170000  0.56710000  0.79930000  1.0 -0.2993313696
O  O35  1  0.79930000  0.42170000  0.56710000  1.0 -0.2993313696
O  O36  1  0.56710000  0.79930000  0.42170000  1.0 -0.2993313696
O  O37  1  0.37190000  0.84640000  0.66730000  1.0 -0.268661829
O  O38  1  0.84640000  0.66730000  0.37190000  1.0 -0.268661829
O  O39  1  0.66730000  0.37190000  0.84640000  1.0 -0.268661829
O  O40  1  0.62810000  0.33270000  0.15360000  1.0 -0.268661829
O  O41  1  0.15360000  0.62810000  0.33270000  1.0 -0.268661829
O  O42  1  0.33270000  0.15360000  0.62810000  1.0 -0.268661829
O  O43  1  0.62810000  0.15360000  0.33270000  1.0 -0.268661829
O  O44  1  0.15360000  0.33270000  0.62810000  1.0 -0.268661829
O  O45  1  0.33270000  0.62810000  0.15360000  1.0 -0.268661829
O  O46  1  0.37190000  0.66730000  0.84640000  1.0 -0.268661829
O  O47  1  0.84640000  0.37190000  0.66730000  1.0 -0.268661829
O  O48  1  0.66730000  0.84640000  0.37190000  1.0 -0.268661829
