# DDEC6 charges by PACMAN v1.1 (https://github.com/mtap-research/PACMAN-charge/)
data_RONCIG_ASR_pacman
_symmetry_space_group_name_H-M   'P 1'
_cell_length_a   15.12600000
_cell_length_b   15.12600000
_cell_length_c   14.69000000
_cell_angle_alpha   90.00000000
_cell_angle_beta   90.00000000
_cell_angle_gamma   120.00000000
_symmetry_Int_Tables_number   1
_chemical_formula_structural   Gd5Cu3(C4O5)6
_chemical_formula_sum   'Gd10 Cu6 C48 O60'
_cell_volume   2910.72127078
_cell_formula_units_Z   2
loop_
 _symmetry_equiv_pos_site_id
 _symmetry_equiv_pos_as_xyz
  1  'x, y, z'
loop_
 _atom_site_type_symbol
 _atom_site_label
 _atom_site_symmetry_multiplicity
 _atom_site_fract_x
 _atom_site_fract_y
 _atom_site_fract_z
 _atom_site_occupancy
 _atom_site_charge
Gd  Gd1  1  0.66700000  0.33300000  0.25000000  1.0 1.9414985712
Gd  Gd2  1  0.33400000  0.66700000  0.25000000  1.0 1.9308518406
Gd  Gd3  1  0.33300000  0.66700000  0.25000000  1.0 1.9308518406
Gd  Gd4  1  0.66600000  0.33300000  0.25000000  1.0 1.9414985712
Gd  Gd5  1  0.33300000  0.66600000  0.25000000  1.0 1.9308518406
Gd  Gd6  1  0.33300000  0.66700000  0.75000000  1.0 1.9308518406
Gd  Gd7  1  0.66600000  0.33300000  0.75000000  1.0 1.9414985712
Gd  Gd8  1  0.33300000  0.66600000  0.75000000  1.0 1.9308518406
Gd  Gd9  1  0.66700000  0.33300000  0.75000000  1.0 1.9414985712
Gd  Gd10  1  0.33400000  0.66700000  0.75000000  1.0 1.9308518406
Cu  Cu1  1  0.50000000  0.00000000  0.50000000  1.0 0.9268249806
Cu  Cu2  1  0.50000000  0.50000000  0.50000000  1.0 0.9240637954
Cu  Cu3  1  0.00000000  0.50000000  0.00000000  1.0 0.9240637954
Cu  Cu4  1  0.00000000  0.50000000  0.50000000  1.0 0.9240637954
Cu  Cu5  1  0.50000000  0.00000000  0.00000000  1.0 0.9268249806
Cu  Cu6  1  0.50000000  0.50000000  0.00000000  1.0 0.9240637954
C  C1  1  0.73160000  0.14630000  0.29950000  1.0 -0.0343876591
C  C2  1  0.58530000  0.73160000  0.29950000  1.0 -0.0793867249
C  C3  1  0.85370000  0.26840000  0.20050000  1.0 -0.0343876591
C  C4  1  0.85370000  0.58530000  0.29950000  1.0 -0.0343876591
C  C5  1  0.58530000  0.85370000  0.20050000  1.0 -0.0793867249
C  C6  1  0.26840000  0.85370000  0.29950000  1.0 -0.0793867249
C  C7  1  0.73160000  0.58530000  0.20050000  1.0 -0.0343876591
C  C8  1  0.41470000  0.26840000  0.29950000  1.0 -0.0343876591
C  C9  1  0.14630000  0.73160000  0.20050000  1.0 -0.0793867249
C  C10  1  0.14630000  0.41470000  0.29950000  1.0 -0.0793867249
C  C11  1  0.41470000  0.14630000  0.20050000  1.0 -0.0343876591
C  C12  1  0.26840000  0.41470000  0.20050000  1.0 -0.0793867249
C  C13  1  0.26840000  0.85370000  0.70050000  1.0 -0.0793867249
C  C14  1  0.41470000  0.26840000  0.70050000  1.0 -0.0343876591
C  C15  1  0.14630000  0.73160000  0.79950000  1.0 -0.0793867249
C  C16  1  0.14630000  0.41470000  0.70050000  1.0 -0.0793867249
C  C17  1  0.41470000  0.14630000  0.79950000  1.0 -0.0343876591
C  C18  1  0.73160000  0.14630000  0.70050000  1.0 -0.0343876591
C  C19  1  0.26840000  0.41470000  0.79950000  1.0 -0.0793867249
C  C20  1  0.58530000  0.73160000  0.70050000  1.0 -0.0793867249
C  C21  1  0.85370000  0.26840000  0.79950000  1.0 -0.0343876591
C  C22  1  0.85370000  0.58530000  0.70050000  1.0 -0.0343876591
C  C23  1  0.58530000  0.85370000  0.79950000  1.0 -0.0793867249
C  C24  1  0.73160000  0.58530000  0.79950000  1.0 -0.0354804358
C  C25  1  0.64340000  0.12970000  0.36040000  1.0 0.5808994408
C  C26  1  0.51370000  0.64340000  0.36040000  1.0 0.5682867006
C  C27  1  0.87030000  0.35660000  0.13960000  1.0 0.5808994408
C  C28  1  0.87030000  0.51370000  0.36040000  1.0 0.5808994408
C  C29  1  0.51370000  0.87030000  0.13960000  1.0 0.5682867006
C  C30  1  0.35660000  0.87030000  0.36040000  1.0 0.5682867006
C  C31  1  0.64340000  0.51370000  0.13960000  1.0 0.5808994408
C  C32  1  0.48630000  0.35660000  0.36040000  1.0 0.5808994408
C  C33  1  0.12970000  0.64340000  0.13960000  1.0 0.5682867006
C  C34  1  0.12970000  0.48630000  0.36040000  1.0 0.5682867006
C  C35  1  0.48630000  0.12970000  0.13960000  1.0 0.5808994408
C  C36  1  0.35660000  0.48630000  0.13960000  1.0 0.5682867006
C  C37  1  0.35660000  0.87030000  0.63960000  1.0 0.5682867006
C  C38  1  0.48630000  0.35660000  0.63960000  1.0 0.5808994408
C  C39  1  0.12970000  0.64340000  0.86040000  1.0 0.5682867006
C  C40  1  0.12970000  0.48630000  0.63960000  1.0 0.5682867006
C  C41  1  0.48630000  0.12970000  0.86040000  1.0 0.5808994408
C  C42  1  0.64340000  0.12970000  0.63960000  1.0 0.5808994408
C  C43  1  0.35660000  0.48630000  0.86040000  1.0 0.5682867006
C  C44  1  0.51370000  0.64340000  0.63960000  1.0 0.5682867006
C  C45  1  0.87030000  0.35660000  0.86040000  1.0 0.5808994408
C  C46  1  0.87030000  0.51370000  0.63960000  1.0 0.5808994408
C  C47  1  0.51370000  0.87030000  0.86040000  1.0 0.5682867006
C  C48  1  0.64340000  0.51370000  0.86040000  1.0 0.5808994408
O  O1  1  0.76295000  0.23705000  0.25000000  1.0 -0.4518555069
O  O2  1  0.52590000  0.76295000  0.25000000  1.0 -0.6692967181
O  O3  1  0.76295000  0.52590000  0.25000000  1.0 -0.4518555069
O  O4  1  0.23705000  0.76295000  0.25000000  1.0 -0.6692967181
O  O5  1  0.47410000  0.23705000  0.25000000  1.0 -0.4518555069
O  O6  1  0.23705000  0.47410000  0.25000000  1.0 -0.6692967181
O  O7  1  0.23705000  0.76295000  0.75000000  1.0 -0.6692967181
O  O8  1  0.47410000  0.23705000  0.75000000  1.0 -0.4518555069
O  O9  1  0.23705000  0.47410000  0.75000000  1.0 -0.6692967181
O  O10  1  0.76295000  0.23705000  0.75000000  1.0 -0.4518555069
O  O11  1  0.52590000  0.76295000  0.75000000  1.0 -0.6692967181
O  O12  1  0.76295000  0.52590000  0.75000000  1.0 -0.4518555069
O  O13  1  0.61460000  0.19300000  0.35840000  1.0 -0.7406363949
O  O14  1  0.42160000  0.61460000  0.35840000  1.0 -0.8625616396
O  O15  1  0.80700000  0.38540000  0.14160000  1.0 -0.7406363949
O  O16  1  0.80700000  0.42160000  0.35840000  1.0 -0.7406363949
O  O17  1  0.42160000  0.80700000  0.14160000  1.0 -0.8625616396
O  O18  1  0.38540000  0.80700000  0.35840000  1.0 -0.8625616396
O  O19  1  0.61460000  0.42160000  0.14160000  1.0 -0.7406363949
O  O20  1  0.57840000  0.38540000  0.35840000  1.0 -0.7406363949
O  O21  1  0.19300000  0.61460000  0.14160000  1.0 -0.8625616396
O  O22  1  0.19300000  0.57840000  0.35840000  1.0 -0.8625616396
O  O23  1  0.57840000  0.19300000  0.14160000  1.0 -0.7406363949
O  O24  1  0.38540000  0.57840000  0.14160000  1.0 -0.8625616396
O  O25  1  0.38540000  0.80700000  0.64160000  1.0 -0.8625616396
O  O26  1  0.57840000  0.38540000  0.64160000  1.0 -0.7406363949
O  O27  1  0.19300000  0.61460000  0.85840000  1.0 -0.8625616396
O  O28  1  0.19300000  0.57840000  0.64160000  1.0 -0.8625616396
O  O29  1  0.57840000  0.19300000  0.85840000  1.0 -0.7406363949
O  O30  1  0.61460000  0.19300000  0.64160000  1.0 -0.7406363949
O  O31  1  0.38540000  0.57840000  0.85840000  1.0 -0.8625616396
O  O32  1  0.42160000  0.61460000  0.64160000  1.0 -0.8625616396
O  O33  1  0.80700000  0.38540000  0.85840000  1.0 -0.7406363949
O  O34  1  0.80700000  0.42160000  0.64160000  1.0 -0.7406363949
O  O35  1  0.42160000  0.80700000  0.85840000  1.0 -0.8625616396
O  O36  1  0.61460000  0.42160000  0.85840000  1.0 -0.7406363949
O  O37  1  0.60640000  0.04930000  0.40670000  1.0 -0.4861724858
O  O38  1  0.55710000  0.60640000  0.40670000  1.0 -0.460657834
O  O39  1  0.95070000  0.39360000  0.09330000  1.0 -0.4849750762
O  O40  1  0.95070000  0.55710000  0.40670000  1.0 -0.4861724858
O  O41  1  0.55710000  0.95070000  0.09330000  1.0 -0.460657834
O  O42  1  0.39360000  0.95070000  0.40670000  1.0 -0.460657834
O  O43  1  0.60640000  0.55710000  0.09330000  1.0 -0.4861724858
O  O44  1  0.44290000  0.39360000  0.40670000  1.0 -0.4861724858
O  O45  1  0.04930000  0.60640000  0.09330000  1.0 -0.460657834
O  O46  1  0.04930000  0.44290000  0.40670000  1.0 -0.460657834
O  O47  1  0.44290000  0.04930000  0.09330000  1.0 -0.4861724858
O  O48  1  0.39360000  0.44290000  0.09330000  1.0 -0.460657834
O  O49  1  0.39360000  0.95070000  0.59330000  1.0 -0.460657834
O  O50  1  0.44290000  0.39360000  0.59330000  1.0 -0.4861724858
O  O51  1  0.04930000  0.60640000  0.90670000  1.0 -0.460657834
O  O52  1  0.04930000  0.44290000  0.59330000  1.0 -0.460657834
O  O53  1  0.44290000  0.04930000  0.90670000  1.0 -0.4861724858
O  O54  1  0.60640000  0.04930000  0.59330000  1.0 -0.4861724858
O  O55  1  0.39360000  0.44290000  0.90670000  1.0 -0.460657834
O  O56  1  0.55710000  0.60640000  0.59330000  1.0 -0.460657834
O  O57  1  0.95070000  0.39360000  0.90670000  1.0 -0.4849750762
O  O58  1  0.95070000  0.55710000  0.59330000  1.0 -0.4861724858
O  O59  1  0.55710000  0.95070000  0.90670000  1.0 -0.460657834
O  O60  1  0.60640000  0.55710000  0.90670000  1.0 -0.4861724858
