# DDEC6 charges by PACMAN v1.1 (https://github.com/mtap-research/PACMAN-charge/)
data_RONSOC_ASR_pacman
_symmetry_space_group_name_H-M   'P 1'
_cell_length_a   18.11130000
_cell_length_b   18.11130000
_cell_length_c   18.11130000
_cell_angle_alpha   129.67400000
_cell_angle_beta   129.67400000
_cell_angle_gamma   73.92890000
_symmetry_Int_Tables_number   1
_chemical_formula_structural   Fe4P5O23
_chemical_formula_sum   'Fe16 P20 O92'
_cell_volume   3432.70498724
_cell_formula_units_Z   4
loop_
 _symmetry_equiv_pos_site_id
 _symmetry_equiv_pos_as_xyz
  1  'x, y, z'
loop_
 _atom_site_type_symbol
 _atom_site_label
 _atom_site_symmetry_multiplicity
 _atom_site_fract_x
 _atom_site_fract_y
 _atom_site_fract_z
 _atom_site_occupancy
 _atom_site_charge
Fe  Fe1  1  0.74426000  0.07784000  0.47102000  1.0 1.4998126414
Fe  Fe2  1  0.82784000  0.85682000  0.83358000  1.0 1.4998126414
Fe  Fe3  1  0.60682000  0.27324000  0.52898000  1.0 1.4998126414
Fe  Fe4  1  0.02324000  0.99426000  0.16642000  1.0 1.4998126414
Fe  Fe5  1  0.00574000  0.17216000  0.02898000  1.0 1.4998126414
Fe  Fe6  1  0.92216000  0.39318000  0.66642000  1.0 1.4998126414
Fe  Fe7  1  0.14318000  0.97676000  0.97102000  1.0 1.4998126414
Fe  Fe8  1  0.72676000  0.25574000  0.33358000  1.0 1.4998126414
Fe  Fe9  1  0.97127000  0.16395000  0.79144000  1.0 1.4259524283
Fe  Fe10  1  0.91395000  0.62251000  0.69268000  1.0 1.4259524283
Fe  Fe11  1  0.37251000  0.17983000  0.20856000  1.0 1.4259524283
Fe  Fe12  1  0.92983000  0.22127000  0.30732000  1.0 1.4259524283
Fe  Fe13  1  0.77873000  0.08605000  0.70856000  1.0 1.4259524283
Fe  Fe14  1  0.83605000  0.62749000  0.80732000  1.0 1.4259524283
Fe  Fe15  1  0.37749000  0.07017000  0.29144000  1.0 1.4259524283
Fe  Fe16  1  0.82017000  0.02873000  0.19268000  1.0 1.4259524283
P  P1  1  0.85348000  0.94563000  0.55237000  1.0 1.5186807748
P  P2  1  0.69563000  0.64326000  0.59215000  1.0 1.5186807748
P  P3  1  0.39326000  0.30111000  0.44763000  1.0 1.5186807748
P  P4  1  0.05111000  0.10348000  0.40785000  1.0 1.5186807748
P  P5  1  0.89652000  0.30437000  0.94763000  1.0 1.5186807748
P  P6  1  0.05437000  0.60674000  0.90785000  1.0 1.5186807748
P  P7  1  0.35674000  0.94889000  0.05237000  1.0 1.5186807748
P  P8  1  0.69889000  0.14652000  0.09215000  1.0 1.5186807748
P  P9  1  0.66237000  0.02971000  0.22106000  1.0 1.5562468534
P  P10  1  0.77971000  0.05865000  0.86734000  1.0 1.5562468534
P  P11  1  0.80865000  0.44131000  0.77894000  1.0 1.5562468534
P  P12  1  0.19131000  0.91237000  0.13266000  1.0 1.5562468534
P  P13  1  0.08763000  0.22029000  0.27894000  1.0 1.5562468534
P  P14  1  0.97029000  0.19135000  0.63266000  1.0 1.5562468534
P  P15  1  0.94135000  0.80869000  0.72106000  1.0 1.5494053897
P  P16  1  0.55869000  0.33763000  0.36734000  1.0 1.5562468534
P  P17  1  0.58619000  0.08619000  0.50000000  1.0 1.5375758744
P  P18  1  0.83619000  0.83619000  0.00000000  1.0 1.5375758744
P  P19  1  0.16381000  0.16381000  0.00000000  1.0 1.5494053897
P  P20  1  0.91381000  0.41381000  0.50000000  1.0 1.5375758744
O  O1  1  0.95098000  0.02458000  0.66170000  1.0 -0.6480648283
O  O2  1  0.77458000  0.61288000  0.57360000  1.0 -0.6480648283
O  O3  1  0.36288000  0.28928000  0.33830000  1.0 -0.6480648283
O  O4  1  0.03928000  0.20098000  0.42640000  1.0 -0.6480648283
O  O5  1  0.79902000  0.22542000  0.83830000  1.0 -0.6480648283
O  O6  1  0.97542000  0.63712000  0.92640000  1.0 -0.6480648283
O  O7  1  0.38712000  0.96072000  0.16170000  1.0 -0.6480648283
O  O8  1  0.71072000  0.04902000  0.07360000  1.0 -0.6480648283
O  O9  1  0.79655000  0.96141000  0.59620000  1.0 -0.6207183734
O  O10  1  0.71141000  0.61521000  0.66486000  1.0 -0.6207183734
O  O11  1  0.36521000  0.20035000  0.40380000  1.0 -0.6207183734
O  O12  1  0.95035000  0.04655000  0.33514000  1.0 -0.6207183734
O  O13  1  0.95345000  0.28859000  0.90380000  1.0 -0.6207183734
O  O14  1  0.03859000  0.63479000  0.83514000  1.0 -0.6207183734
O  O15  1  0.38479000  0.04965000  0.09620000  1.0 -0.6207183734
O  O16  1  0.79965000  0.20345000  0.16486000  1.0 -0.6207183734
O  O17  1  0.79239000  0.95577000  0.45034000  1.0 -0.699904545
O  O18  1  0.70577000  0.75543000  0.66338000  1.0 -0.699904545
O  O19  1  0.50543000  0.34205000  0.54966000  1.0 -0.699904545
O  O20  1  0.09205000  0.04239000  0.33662000  1.0 -0.699904545
O  O21  1  0.95761000  0.29423000  0.04966000  1.0 -0.699904545
O  O22  1  0.04423000  0.49457000  0.83662000  1.0 -0.699904545
O  O23  1  0.24457000  0.90795000  0.95034000  1.0 -0.699904545
O  O24  1  0.65795000  0.20761000  0.16338000  1.0 -0.699904545
O  O25  1  0.87635000  0.84326000  0.50447000  1.0 -0.4723252121
O  O26  1  0.59326000  0.58879000  0.46691000  1.0 -0.4723252121
O  O27  1  0.33879000  0.37188000  0.49553000  1.0 -0.4723252121
O  O28  1  0.12188000  0.12635000  0.53309000  1.0 -0.4723252121
O  O29  1  0.87365000  0.40674000  0.99553000  1.0 -0.4723252121
O  O30  1  0.15674000  0.66121000  0.03309000  1.0 -0.4723252121
O  O31  1  0.41121000  0.87812000  0.00447000  1.0 -0.4723252121
O  O32  1  0.62812000  0.12365000  0.96691000  1.0 -0.4723252121
O  O33  1  0.66659000  0.01216000  0.29511000  1.0 -0.6207183734
O  O34  1  0.76216000  0.96705000  0.84557000  1.0 -0.6207183734
O  O35  1  0.71705000  0.37148000  0.70489000  1.0 -0.6207183734
O  O36  1  0.12148000  0.91659000  0.15443000  1.0 -0.6207183734
O  O37  1  0.08341000  0.23784000  0.20489000  1.0 -0.6207183734
O  O38  1  0.98784000  0.28295000  0.65443000  1.0 -0.6207183734
O  O39  1  0.03295000  0.87852000  0.79511000  1.0 -0.6207183734
O  O40  1  0.62852000  0.33341000  0.34557000  1.0 -0.6207183734
O  O41  1  0.74996000  0.99996000  0.22156000  1.0 -0.6207183734
O  O42  1  0.74996000  0.02840000  0.75000000  1.0 -0.6207183734
O  O43  1  0.77840000  0.52840000  0.77844000  1.0 -0.6207183734
O  O44  1  0.27840000  0.99996000  0.25000000  1.0 -0.6207183734
O  O45  1  0.00004000  0.25004000  0.27844000  1.0 -0.6207183734
O  O46  1  0.00004000  0.22160000  0.75000000  1.0 -0.6207183734
O  O47  1  0.97160000  0.72160000  0.72156000  1.0 -0.6207183734
O  O48  1  0.47160000  0.25004000  0.25000000  1.0 -0.6207183734
O  O49  1  0.56763000  0.95940000  0.08445000  1.0 -0.4863081161
O  O50  1  0.70940000  0.12495000  0.89177000  1.0 -0.4863081161
O  O51  1  0.87495000  0.48318000  0.91555000  1.0 -0.4849420849
O  O52  1  0.23318000  0.81763000  0.10823000  1.0 -0.4849420849
O  O53  1  0.18237000  0.29060000  0.41555000  1.0 -0.4863081161
O  O54  1  0.04060000  0.12505000  0.60823000  1.0 -0.4863081161
O  O55  1  0.87505000  0.76682000  0.58445000  1.0 -0.4849420849
O  O56  1  0.51682000  0.43237000  0.39177000  1.0 -0.4863081161
O  O57  1  0.65714000  0.13458000  0.26538000  1.0 -0.6283244156
O  O58  1  0.88458000  0.11920000  0.97744000  1.0 -0.6283244156
O  O59  1  0.86920000  0.39176000  0.73462000  1.0 -0.6283244156
O  O60  1  0.14176000  0.90714000  0.02256000  1.0 -0.6207183734
O  O61  1  0.09286000  0.11542000  0.23462000  1.0 -0.6283244156
O  O62  1  0.86542000  0.13080000  0.52256000  1.0 -0.6283244156
O  O63  1  0.88080000  0.85824000  0.76538000  1.0 -0.6283244156
O  O64  1  0.60824000  0.34286000  0.47744000  1.0 -0.6283244156
O  O65  1  0.63550000  0.06600000  0.59096000  1.0 -0.6480648283
O  O66  1  0.81600000  0.72504000  0.93050000  1.0 -0.6480648283
O  O67  1  0.47504000  0.04454000  0.40904000  1.0 -0.6480648283
O  O68  1  0.79454000  0.88550000  0.06950000  1.0 -0.6480648283
O  O69  1  0.11450000  0.18400000  0.90904000  1.0 -0.6445722643
O  O70  1  0.93400000  0.52496000  0.56950000  1.0 -0.6480648283
O  O71  1  0.27496000  0.20546000  0.09096000  1.0 -0.6445722643
O  O72  1  0.95546000  0.36450000  0.43050000  1.0 -0.6480648283
O  O73  1  0.62475000  0.03357000  0.42706000  1.0 -0.6283244156
O  O74  1  0.78357000  0.85651000  0.90882000  1.0 -0.6283244156
O  O75  1  0.60651000  0.19769000  0.57294000  1.0 -0.6283244156
O  O76  1  0.94769000  0.87475000  0.09118000  1.0 -0.6283244156
O  O77  1  0.12525000  0.21643000  0.07294000  1.0 -0.6283244156
O  O78  1  0.96643000  0.39349000  0.59118000  1.0 -0.6283244156
O  O79  1  0.14349000  0.05231000  0.92706000  1.0 -0.6283244156
O  O80  1  0.80231000  0.37525000  0.40882000  1.0 -0.6283244156
O  O81  1  0.81475000  0.14144000  0.65741000  1.0 -0.520156211
O  O82  1  0.89144000  0.73403000  0.82669000  1.0 -0.520156211
O  O83  1  0.48403000  0.15734000  0.34259000  1.0 -0.520156211
O  O84  1  0.90734000  0.06475000  0.17331000  1.0 -0.520156211
O  O85  1  0.93525000  0.10856000  0.84259000  1.0 -0.520156211
O  O86  1  0.85856000  0.51597000  0.67331000  1.0 -0.520156211
O  O87  1  0.26597000  0.09266000  0.15741000  1.0 -0.520156211
O  O88  1  0.84266000  0.18525000  0.32669000  1.0 -0.520156211
O  O89  1  0.70045000  0.20045000  0.50000000  1.0 -0.3576252151
O  O90  1  0.95045000  0.95045000  0.00000000  1.0 -0.3576252151
O  O91  1  0.04955000  0.04955000  0.00000000  1.0 -0.3576252151
O  O92  1  0.79955000  0.29955000  0.50000000  1.0 -0.3576252151
