# DDEC6 charges by PACMAN v1.1 (https://github.com/mtap-research/PACMAN-charge/)
data_RONWIA_FSR_pacman
_symmetry_space_group_name_H-M   'P 1'
_cell_length_a   12.38290000
_cell_length_b   8.59700000
_cell_length_c   14.37060000
_cell_angle_alpha   90.00000000
_cell_angle_beta   124.09200000
_cell_angle_gamma   90.00000000
_symmetry_Int_Tables_number   1
_chemical_formula_structural   Cu2C6N
_chemical_formula_sum   'Cu8 C24 N4'
_cell_volume   1266.91426112
_cell_formula_units_Z   4
loop_
 _symmetry_equiv_pos_site_id
 _symmetry_equiv_pos_as_xyz
  1  'x, y, z'
loop_
 _atom_site_type_symbol
 _atom_site_label
 _atom_site_symmetry_multiplicity
 _atom_site_fract_x
 _atom_site_fract_y
 _atom_site_fract_z
 _atom_site_occupancy
 _atom_site_charge
Cu  Cu1  1  0.88835000  0.20491000  0.74035000  1.0 0.2773141852
Cu  Cu2  1  0.11165000  0.20491000  0.75965000  1.0 0.2773141852
Cu  Cu3  1  0.11165000  0.79509000  0.25965000  1.0 0.2773141852
Cu  Cu4  1  0.88835000  0.79509000  0.24035000  1.0 0.2773141852
Cu  Cu5  1  0.74419000  0.29567000  0.33792000  1.0 0.6415887838
Cu  Cu6  1  0.25581000  0.29567000  0.16208000  1.0 0.6415887838
Cu  Cu7  1  0.25581000  0.70433000  0.66208000  1.0 0.6233940786
Cu  Cu8  1  0.74419000  0.70433000  0.83792000  1.0 0.6233940786
C  C1  1  0.88280000  0.23230000  0.60040000  1.0 0.117140579
C  C2  1  0.11720000  0.23230000  0.89960000  1.0 0.117140579
C  C3  1  0.11720000  0.76770000  0.39960000  1.0 0.117140579
C  C4  1  0.88280000  0.76770000  0.10040000  1.0 0.117140579
C  C5  1  0.83640000  0.00200000  0.76450000  1.0 -0.0482457029
C  C6  1  0.16360000  0.00200000  0.73550000  1.0 -0.0482457029
C  C7  1  0.16360000  0.99800000  0.23550000  1.0 -0.0482457029
C  C8  1  0.83640000  0.99800000  0.26450000  1.0 -0.0482457029
C  C9  1  0.80610000  0.11430000  0.28340000  1.0 -0.2105215723
C  C10  1  0.19390000  0.11430000  0.21660000  1.0 -0.2009500886
C  C11  1  0.19390000  0.88570000  0.71660000  1.0 -0.2009500886
C  C12  1  0.80610000  0.88570000  0.78340000  1.0 -0.2009500886
C  C13  1  0.81150000  0.49140000  0.31160000  1.0 -0.2300187433
C  C14  1  0.18850000  0.49140000  0.18840000  1.0 -0.2300187433
C  C15  1  0.18850000  0.50860000  0.68840000  1.0 -0.2300187433
C  C16  1  0.81150000  0.50860000  0.81160000  1.0 -0.2248935932
C  C17  1  0.83880000  0.39640000  0.78590000  1.0 -0.028158552
C  C18  1  0.16120000  0.39640000  0.71410000  1.0 -0.028158552
C  C19  1  0.16120000  0.60360000  0.21410000  1.0 -0.0227482999
C  C20  1  0.83880000  0.60360000  0.28590000  1.0 -0.0227482999
C  C21  1  0.55550000  0.29160000  0.27020000  1.0 -0.2105215723
C  C22  1  0.44450000  0.29160000  0.22980000  1.0 -0.2105215723
C  C23  1  0.44450000  0.70840000  0.72980000  1.0 -0.2009500886
C  C24  1  0.55550000  0.70840000  0.77020000  1.0 -0.2009500886
N  N1  1  0.84240000  0.25230000  0.50710000  1.0 -0.312873804
N  N2  1  0.15760000  0.25230000  0.99290000  1.0 -0.312873804
N  N3  1  0.15760000  0.74770000  0.49290000  1.0 -0.3179878378
N  N4  1  0.84240000  0.74770000  0.00710000  1.0 -0.3179878378
