# DDEC6 charges by PACMAN v1.1 (https://github.com/mtap-research/PACMAN-charge/)
data_RONZOJ_FSR_pacman
_symmetry_space_group_name_H-M   'P 1'
_cell_length_a   11.15070000
_cell_length_b   11.15070000
_cell_length_c   11.15070000
_cell_angle_alpha   110.06300000
_cell_angle_beta   110.06300000
_cell_angle_gamma   108.29500000
_symmetry_Int_Tables_number   1
_chemical_formula_structural   CdAg2(C7N3)2
_chemical_formula_sum   'Cd2 Ag4 C28 N12'
_cell_volume   1066.94559962
_cell_formula_units_Z   2
loop_
 _symmetry_equiv_pos_site_id
 _symmetry_equiv_pos_as_xyz
  1  'x, y, z'
loop_
 _atom_site_type_symbol
 _atom_site_label
 _atom_site_symmetry_multiplicity
 _atom_site_fract_x
 _atom_site_fract_y
 _atom_site_fract_z
 _atom_site_occupancy
 _atom_site_charge
Cd  Cd1  1  0.75000000  0.25000000  0.50000000  1.0 0.9178084147
Cd  Cd2  1  0.00000000  0.00000000  0.00000000  1.0 0.9178084147
Ag  Ag1  1  0.74145000  0.25855000  0.00000000  1.0 0.1211216355
Ag  Ag2  1  0.00855000  0.50855000  0.01710000  1.0 0.1254816812
Ag  Ag3  1  0.25855000  0.74145000  0.00000000  1.0 0.1211216355
Ag  Ag4  1  0.49145000  0.99145000  0.98290000  1.0 0.1211216355
C  C1  1  0.70710000  0.22900000  0.79290000  1.0 0.066005924
C  C2  1  0.97900000  0.68610000  0.02190000  1.0 0.066005924
C  C3  1  0.04290000  0.33580000  0.02190000  1.0 0.066005924
C  C4  1  0.43610000  0.91420000  0.20710000  1.0 0.066005924
C  C5  1  0.08580000  0.56390000  0.79290000  1.0 0.066005924
C  C6  1  0.66420000  0.95710000  0.97810000  1.0 0.066005924
C  C7  1  0.31390000  0.02100000  0.97810000  1.0 0.066005924
C  C8  1  0.77100000  0.29290000  0.20710000  1.0 0.066005924
C  C9  1  0.65300000  0.48160000  0.62960000  1.0 0.147027896
C  C10  1  0.23160000  0.10200000  0.32860000  1.0 0.1436303567
C  C11  1  0.09700000  0.22660000  0.32860000  1.0 0.1436303567
C  C12  1  0.85200000  0.02340000  0.37040000  1.0 0.1436303567
C  C13  1  0.97660000  0.14800000  0.62960000  1.0 0.1436303567
C  C14  1  0.77340000  0.90300000  0.67140000  1.0 0.1436303567
C  C15  1  0.89800000  0.76840000  0.67140000  1.0 0.1436303567
C  C16  1  0.51840000  0.34700000  0.37040000  1.0 0.1436303567
C  C17  1  0.57690000  0.55940000  0.63290000  1.0 -0.0760722829
C  C18  1  0.30940000  0.17650000  0.48250000  1.0 -0.0760722829
C  C19  1  0.17310000  0.30600000  0.48250000  1.0 -0.0760722829
C  C20  1  0.92650000  0.94400000  0.36710000  1.0 -0.0760722829
C  C21  1  0.05600000  0.07350000  0.63290000  1.0 -0.0760722829
C  C22  1  0.69400000  0.82690000  0.51750000  1.0 -0.0760722829
C  C23  1  0.82350000  0.69060000  0.51750000  1.0 -0.0760722829
C  C24  1  0.44060000  0.42310000  0.36710000  1.0 -0.0760722829
C  C25  1  0.47040000  0.52960000  0.50000000  1.0 0.1211216355
C  C26  1  0.27960000  0.27960000  0.55920000  1.0 0.1211216355
C  C27  1  0.02960000  0.97040000  0.50000000  1.0 0.1211216355
C  C28  1  0.72040000  0.72040000  0.44080000  1.0 0.1211216355
N  N1  1  0.70550000  0.22230000  0.68700000  1.0 -0.3687734555
N  N2  1  0.97230000  0.78530000  0.01680000  1.0 -0.3687734555
N  N3  1  0.04450000  0.23150000  0.01680000  1.0 -0.3687734555
N  N4  1  0.53530000  0.01850000  0.31300000  1.0 -0.3687734555
N  N5  1  0.98150000  0.46470000  0.68700000  1.0 -0.3687734555
N  N6  1  0.76850000  0.95550000  0.98320000  1.0 -0.3687734555
N  N7  1  0.21470000  0.02770000  0.98320000  1.0 -0.3687734555
N  N8  1  0.77770000  0.29450000  0.31300000  1.0 -0.3687734555
N  N9  1  0.62330000  0.37670000  0.50000000  1.0 -0.2326679591
N  N10  1  0.12670000  0.12670000  0.25340000  1.0 -0.2326679591
N  N11  1  0.87670000  0.12330000  0.50000000  1.0 -0.2326679591
N  N12  1  0.87330000  0.87330000  0.74660000  1.0 -0.2326679591
