# DDEC6 charges by PACMAN v1.1 (https://github.com/mtap-research/PACMAN-charge/)
data_RONZUP_ASR_pacman
_symmetry_space_group_name_H-M   'P 1'
_cell_length_a   11.08880000
_cell_length_b   11.08880000
_cell_length_c   11.08880000
_cell_angle_alpha   111.77300000
_cell_angle_beta   109.11200000
_cell_angle_gamma   107.55700000
_symmetry_Int_Tables_number   1
_chemical_formula_structural   CdAg2(C7N3)2
_chemical_formula_sum   'Cd2 Ag4 C28 N12'
_cell_volume   1048.15754570
_cell_formula_units_Z   2
loop_
 _symmetry_equiv_pos_site_id
 _symmetry_equiv_pos_as_xyz
  1  'x, y, z'
loop_
 _atom_site_type_symbol
 _atom_site_label
 _atom_site_symmetry_multiplicity
 _atom_site_fract_x
 _atom_site_fract_y
 _atom_site_fract_z
 _atom_site_occupancy
 _atom_site_charge
Cd  Cd1  1  0.12228000  0.87228000  0.25000000  1.0 0.9134163012
Cd  Cd2  1  0.37772000  0.62772000  0.75000000  1.0 0.9134163012
Ag  Ag1  1  0.11452000  0.35843000  0.21975000  1.0 0.1190330846
Ag  Ag2  1  0.63868000  0.89477000  0.28025000  1.0 0.1190330846
Ag  Ag3  1  0.86132000  0.14157000  0.25609000  1.0 0.1190330846
Ag  Ag4  1  0.38548000  0.60523000  0.24391000  1.0 0.1190330846
C  C1  1  0.14030000  0.17980000  0.21870000  1.0 0.0578988761
C  C2  1  0.46110000  0.92160000  0.28130000  1.0 0.0578988761
C  C3  1  0.03890000  0.32020000  0.46050000  1.0 0.0578988761
C  C4  1  0.35970000  0.57840000  0.03950000  1.0 0.0578988761
C  C5  1  0.07800000  0.53160000  0.22080000  1.0 0.0578988761
C  C6  1  0.81080000  0.85720000  0.27920000  1.0 0.0578988761
C  C7  1  0.68920000  0.96840000  0.04640000  1.0 0.0578988761
C  C8  1  0.42200000  0.64280000  0.45360000  1.0 0.0578988761
C  C9  1  0.34580000  0.98260000  0.58740000  1.0 0.1702574317
C  C10  1  0.89520000  0.75840000  0.91260000  1.0 0.1702574317
C  C11  1  0.60480000  0.51740000  0.86320000  1.0 0.1702574317
C  C12  1  0.15420000  0.74160000  0.63680000  1.0 0.1702574317
C  C13  1  0.42460000  0.06780000  0.74280000  1.0 -0.1045119862
C  C14  1  0.82500000  0.68180000  0.75720000  1.0 -0.1045119862
C  C15  1  0.67500000  0.43220000  0.85680000  1.0 -0.1045119862
C  C16  1  0.07540000  0.81820000  0.64320000  1.0 -0.1045119862
C  C17  1  0.39300000  0.17800000  0.81700000  1.0 0.138012511
C  C18  1  0.86100000  0.57600000  0.68300000  1.0 0.138012511
C  C19  1  0.63900000  0.32200000  0.71500000  1.0 0.138012511
C  C20  1  0.10700000  0.92400000  0.78500000  1.0 0.138012511
C  C21  1  0.28400000  0.19720000  0.73120000  1.0 -0.0856892417
C  C22  1  0.96600000  0.55280000  0.76880000  1.0 -0.0856892417
C  C23  1  0.53400000  0.30280000  0.58680000  1.0 -0.0856892417
C  C24  1  0.21600000  0.94720000  0.91320000  1.0 -0.0856892417
C  C25  1  0.21640000  0.11110000  0.57930000  1.0 0.1702574317
C  C26  1  0.03180000  0.63710000  0.92070000  1.0 0.1702574317
C  C27  1  0.46820000  0.38890000  0.60530000  1.0 0.1702574317
C  C28  1  0.28360000  0.86290000  0.89470000  1.0 0.1702574317
N  N1  1  0.14780000  0.08312000  0.23132000  1.0 -0.3658205147
N  N2  1  0.35180000  0.91648000  0.26868000  1.0 -0.3658205147
N  N3  1  0.14820000  0.41688000  0.56468000  1.0 -0.3658205147
N  N4  1  0.35220000  0.58352000  0.93532000  1.0 -0.3658205147
N  N5  1  0.07740000  0.63660000  0.23280000  1.0 -0.3542289585
N  N6  1  0.90380000  0.84460000  0.26720000  1.0 -0.3542289585
N  N7  1  0.59620000  0.86340000  0.94080000  1.0 -0.3542289585
N  N8  1  0.42260000  0.65540000  0.55920000  1.0 -0.3555446814
N  N9  1  0.24460000  0.00380000  0.50720000  1.0 -0.2594867299
N  N10  1  0.99660000  0.73740000  0.99280000  1.0 -0.2594867299
N  N11  1  0.50340000  0.49620000  0.74080000  1.0 -0.2594867299
N  N12  1  0.25540000  0.76260000  0.75920000  1.0 -0.2594867299
