# DDEC6 charges by PACMAN v1.1 (https://github.com/mtap-research/PACMAN-charge/)
data_ROQDIM06_FSR_pacman
_symmetry_space_group_name_H-M   'P 1'
_cell_length_a   9.21629000
_cell_length_b   9.21629000
_cell_length_c   9.21629000
_cell_angle_alpha   60.00000000
_cell_angle_beta   60.00000000
_cell_angle_gamma   60.00000000
_symmetry_Int_Tables_number   1
_chemical_formula_structural   NaFeN96
_chemical_formula_sum   'Na1 Fe1 N96'
_cell_volume   553.54559311
_cell_formula_units_Z   1
loop_
 _symmetry_equiv_pos_site_id
 _symmetry_equiv_pos_as_xyz
  1  'x, y, z'
loop_
 _atom_site_type_symbol
 _atom_site_label
 _atom_site_symmetry_multiplicity
 _atom_site_fract_x
 _atom_site_fract_y
 _atom_site_fract_z
 _atom_site_occupancy
 _atom_site_charge
Na  Na1  1  0.00000000  0.00000000  0.00000000  1.0 0.4529578801
Fe  Fe1  1  0.50000000  0.50000000  0.50000000  1.0 0.0285579602
N  N1  1  0.61880000  0.26360000  0.67000000  1.0 -0.041353489
N  N2  1  0.26360000  0.61880000  0.44760000  1.0 -0.041353489
N  N3  1  0.67000000  0.44760000  0.61880000  1.0 -0.041353489
N  N4  1  0.44760000  0.67000000  0.26360000  1.0 -0.041353489
N  N5  1  0.67000000  0.61880000  0.26360000  1.0 -0.041353489
N  N6  1  0.44760000  0.26360000  0.61880000  1.0 -0.041353489
N  N7  1  0.61880000  0.67000000  0.44760000  1.0 -0.041353489
N  N8  1  0.26360000  0.44760000  0.67000000  1.0 -0.041353489
N  N9  1  0.26360000  0.67000000  0.61880000  1.0 -0.041353489
N  N10  1  0.61880000  0.44760000  0.26360000  1.0 -0.041353489
N  N11  1  0.44760000  0.61880000  0.67000000  1.0 -0.041353489
N  N12  1  0.67000000  0.26360000  0.44760000  1.0 -0.041353489
N  N13  1  0.38120000  0.73640000  0.55240000  1.0 -0.041353489
N  N14  1  0.73640000  0.38120000  0.33000000  1.0 -0.041353489
N  N15  1  0.33000000  0.55240000  0.73640000  1.0 -0.041353489
N  N16  1  0.55240000  0.33000000  0.38120000  1.0 -0.041353489
N  N17  1  0.33000000  0.38120000  0.55240000  1.0 -0.041353489
N  N18  1  0.55240000  0.73640000  0.33000000  1.0 -0.041353489
N  N19  1  0.38120000  0.33000000  0.73640000  1.0 -0.041353489
N  N20  1  0.73640000  0.55240000  0.38120000  1.0 -0.041353489
N  N21  1  0.73640000  0.33000000  0.55240000  1.0 -0.041353489
N  N22  1  0.38120000  0.55240000  0.33000000  1.0 -0.041353489
N  N23  1  0.55240000  0.38120000  0.73640000  1.0 -0.041353489
N  N24  1  0.33000000  0.73640000  0.38120000  1.0 -0.041353489
N  N25  1  0.38120000  0.73640000  0.33000000  1.0 -0.041353489
N  N26  1  0.73640000  0.38120000  0.55240000  1.0 -0.041353489
N  N27  1  0.33000000  0.55240000  0.38120000  1.0 -0.041353489
N  N28  1  0.55240000  0.33000000  0.73640000  1.0 -0.041353489
N  N29  1  0.33000000  0.38120000  0.73640000  1.0 -0.041353489
N  N30  1  0.55240000  0.73640000  0.38120000  1.0 -0.041353489
N  N31  1  0.38120000  0.33000000  0.55240000  1.0 -0.041353489
N  N32  1  0.73640000  0.55240000  0.33000000  1.0 -0.041353489
N  N33  1  0.73640000  0.33000000  0.38120000  1.0 -0.041353489
N  N34  1  0.38120000  0.55240000  0.73640000  1.0 -0.041353489
N  N35  1  0.55240000  0.38120000  0.33000000  1.0 -0.041353489
N  N36  1  0.33000000  0.73640000  0.55240000  1.0 -0.041353489
N  N37  1  0.61880000  0.26360000  0.44760000  1.0 -0.041353489
N  N38  1  0.26360000  0.61880000  0.67000000  1.0 -0.041353489
N  N39  1  0.67000000  0.44760000  0.26360000  1.0 -0.041353489
N  N40  1  0.44760000  0.67000000  0.61880000  1.0 -0.041353489
N  N41  1  0.67000000  0.61880000  0.44760000  1.0 -0.041353489
N  N42  1  0.44760000  0.26360000  0.67000000  1.0 -0.041353489
N  N43  1  0.61880000  0.67000000  0.26360000  1.0 -0.041353489
N  N44  1  0.26360000  0.44760000  0.61880000  1.0 -0.041353489
N  N45  1  0.26360000  0.67000000  0.44760000  1.0 -0.041353489
N  N46  1  0.61880000  0.44760000  0.67000000  1.0 -0.041353489
N  N47  1  0.44760000  0.61880000  0.26360000  1.0 -0.041353489
N  N48  1  0.67000000  0.26360000  0.61880000  1.0 -0.041353489
N  N49  1  0.72620000  0.23440000  0.72620000  1.0 0.2224037159
N  N50  1  0.23440000  0.72620000  0.31320000  1.0 0.2224037159
N  N51  1  0.72620000  0.31320000  0.72620000  1.0 0.2224037159
N  N52  1  0.31320000  0.72620000  0.23440000  1.0 0.2224037159
N  N53  1  0.72620000  0.72620000  0.23440000  1.0 0.2224037159
N  N54  1  0.31320000  0.23440000  0.72620000  1.0 0.2224037159
N  N55  1  0.72620000  0.72620000  0.31320000  1.0 0.2224037159
N  N56  1  0.23440000  0.31320000  0.72620000  1.0 0.2224037159
N  N57  1  0.23440000  0.72620000  0.72620000  1.0 0.2224037159
N  N58  1  0.72620000  0.31320000  0.23440000  1.0 0.2224037159
N  N59  1  0.31320000  0.72620000  0.72620000  1.0 0.2224037159
N  N60  1  0.72620000  0.23440000  0.31320000  1.0 0.2224037159
N  N61  1  0.27380000  0.76560000  0.68680000  1.0 0.2224037159
N  N62  1  0.76560000  0.27380000  0.27380000  1.0 0.225166973
N  N63  1  0.27380000  0.68680000  0.76560000  1.0 0.2224037159
N  N64  1  0.68680000  0.27380000  0.27380000  1.0 0.2224037159
N  N65  1  0.27380000  0.27380000  0.68680000  1.0 0.2224037159
N  N66  1  0.68680000  0.76560000  0.27380000  1.0 0.2224037159
N  N67  1  0.27380000  0.27380000  0.76560000  1.0 0.2224037159
N  N68  1  0.76560000  0.68680000  0.27380000  1.0 0.2224037159
N  N69  1  0.76560000  0.27380000  0.68680000  1.0 0.2224037159
N  N70  1  0.27380000  0.68680000  0.27380000  1.0 0.2224037159
N  N71  1  0.68680000  0.27380000  0.76560000  1.0 0.2224037159
N  N72  1  0.27380000  0.76560000  0.27380000  1.0 0.2224037159
N  N73  1  0.82500000  0.21100000  0.78900000  1.0 -0.1598750338
N  N74  1  0.21100000  0.82500000  0.17500000  1.0 -0.1598750338
N  N75  1  0.78900000  0.17500000  0.82500000  1.0 -0.1598750338
N  N76  1  0.17500000  0.78900000  0.21100000  1.0 -0.1598750338
N  N77  1  0.78900000  0.82500000  0.21100000  1.0 -0.1598750338
N  N78  1  0.17500000  0.21100000  0.82500000  1.0 -0.1598750338
N  N79  1  0.82500000  0.78900000  0.17500000  1.0 -0.1598750338
N  N80  1  0.21100000  0.17500000  0.78900000  1.0 -0.1598750338
N  N81  1  0.21100000  0.78900000  0.82500000  1.0 -0.1598750338
N  N82  1  0.82500000  0.17500000  0.21100000  1.0 -0.1598750338
N  N83  1  0.17500000  0.82500000  0.78900000  1.0 -0.1598750338
N  N84  1  0.78900000  0.21100000  0.17500000  1.0 -0.1598750338
N  N85  1  0.17500000  0.78900000  0.82500000  1.0 -0.1598750338
N  N86  1  0.78900000  0.17500000  0.21100000  1.0 -0.1598750338
N  N87  1  0.21100000  0.82500000  0.78900000  1.0 -0.1598750338
N  N88  1  0.82500000  0.21100000  0.17500000  1.0 -0.1598750338
N  N89  1  0.21100000  0.17500000  0.82500000  1.0 -0.1598750338
N  N90  1  0.82500000  0.78900000  0.21100000  1.0 -0.1598750338
N  N91  1  0.17500000  0.21100000  0.78900000  1.0 -0.1598750338
N  N92  1  0.78900000  0.82500000  0.17500000  1.0 -0.1598750338
N  N93  1  0.78900000  0.21100000  0.82500000  1.0 -0.1598750338
N  N94  1  0.17500000  0.82500000  0.21100000  1.0 -0.1598750338
N  N95  1  0.82500000  0.17500000  0.78900000  1.0 -0.1598750338
N  N96  1  0.21100000  0.78900000  0.17500000  1.0 -0.1598750338
