# DDEC6 charges by PACMAN v1.1 (https://github.com/mtap-research/PACMAN-charge/)
data_ROQFUA08_ASR_pacman
_symmetry_space_group_name_H-M   'P 1'
_cell_length_a   9.44744000
_cell_length_b   9.44744000
_cell_length_c   9.44744000
_cell_angle_alpha   60.00000000
_cell_angle_beta   60.00000000
_cell_angle_gamma   60.00000000
_symmetry_Int_Tables_number   1
_chemical_formula_structural   KFeN96
_chemical_formula_sum   'K1 Fe1 N96'
_cell_volume   596.24867843
_cell_formula_units_Z   1
loop_
 _symmetry_equiv_pos_site_id
 _symmetry_equiv_pos_as_xyz
  1  'x, y, z'
loop_
 _atom_site_type_symbol
 _atom_site_label
 _atom_site_symmetry_multiplicity
 _atom_site_fract_x
 _atom_site_fract_y
 _atom_site_fract_z
 _atom_site_occupancy
 _atom_site_charge
K  K1  1  0.00000000  0.00000000  0.00000000  1.0 0.442504583
Fe  Fe1  1  0.50000000  0.50000000  0.50000000  1.0 0.0111290571
N  N1  1  0.66510000  0.26570000  0.61230000  1.0 -0.0500711069
N  N2  1  0.26570000  0.66510000  0.45690000  1.0 -0.0500711069
N  N3  1  0.61230000  0.45690000  0.66510000  1.0 -0.0500711069
N  N4  1  0.45690000  0.61230000  0.26570000  1.0 -0.0500711069
N  N5  1  0.61230000  0.66510000  0.26570000  1.0 -0.0500711069
N  N6  1  0.45690000  0.26570000  0.66510000  1.0 -0.0500711069
N  N7  1  0.66510000  0.61230000  0.45690000  1.0 -0.0500711069
N  N8  1  0.26570000  0.45690000  0.61230000  1.0 -0.0500711069
N  N9  1  0.26570000  0.61230000  0.66510000  1.0 -0.0500711069
N  N10  1  0.66510000  0.45690000  0.26570000  1.0 -0.0500711069
N  N11  1  0.45690000  0.66510000  0.61230000  1.0 -0.0500711069
N  N12  1  0.61230000  0.26570000  0.45690000  1.0 -0.0500711069
N  N13  1  0.33490000  0.73430000  0.54310000  1.0 -0.0500711069
N  N14  1  0.73430000  0.33490000  0.38770000  1.0 -0.0500711069
N  N15  1  0.38770000  0.54310000  0.73430000  1.0 -0.0500711069
N  N16  1  0.54310000  0.38770000  0.33490000  1.0 -0.0500711069
N  N17  1  0.38770000  0.33490000  0.54310000  1.0 -0.0500711069
N  N18  1  0.54310000  0.73430000  0.38770000  1.0 -0.0500711069
N  N19  1  0.33490000  0.38770000  0.73430000  1.0 -0.0500711069
N  N20  1  0.73430000  0.54310000  0.33490000  1.0 -0.0500711069
N  N21  1  0.73430000  0.38770000  0.54310000  1.0 -0.0500711069
N  N22  1  0.33490000  0.54310000  0.38770000  1.0 -0.0500711069
N  N23  1  0.54310000  0.33490000  0.73430000  1.0 -0.0500711069
N  N24  1  0.38770000  0.73430000  0.33490000  1.0 -0.0500711069
N  N25  1  0.33490000  0.73430000  0.38770000  1.0 -0.0500711069
N  N26  1  0.73430000  0.33490000  0.54310000  1.0 -0.0500711069
N  N27  1  0.38770000  0.54310000  0.33490000  1.0 -0.0500711069
N  N28  1  0.54310000  0.38770000  0.73430000  1.0 -0.0500711069
N  N29  1  0.38770000  0.33490000  0.73430000  1.0 -0.0500711069
N  N30  1  0.54310000  0.73430000  0.33490000  1.0 -0.0500711069
N  N31  1  0.33490000  0.38770000  0.54310000  1.0 -0.0500711069
N  N32  1  0.73430000  0.54310000  0.38770000  1.0 -0.0500711069
N  N33  1  0.73430000  0.38770000  0.33490000  1.0 -0.0500711069
N  N34  1  0.33490000  0.54310000  0.73430000  1.0 -0.0500711069
N  N35  1  0.54310000  0.33490000  0.38770000  1.0 -0.0500711069
N  N36  1  0.38770000  0.73430000  0.54310000  1.0 -0.0500711069
N  N37  1  0.66510000  0.26570000  0.45690000  1.0 -0.0500711069
N  N38  1  0.26570000  0.66510000  0.61230000  1.0 -0.0500711069
N  N39  1  0.61230000  0.45690000  0.26570000  1.0 -0.0500711069
N  N40  1  0.45690000  0.61230000  0.66510000  1.0 -0.0500711069
N  N41  1  0.61230000  0.66510000  0.45690000  1.0 -0.0500711069
N  N42  1  0.45690000  0.26570000  0.61230000  1.0 -0.0500711069
N  N43  1  0.66510000  0.61230000  0.26570000  1.0 -0.0500711069
N  N44  1  0.26570000  0.45690000  0.66510000  1.0 -0.0500711069
N  N45  1  0.26570000  0.61230000  0.45690000  1.0 -0.0500711069
N  N46  1  0.66510000  0.45690000  0.61230000  1.0 -0.0500711069
N  N47  1  0.45690000  0.66510000  0.26570000  1.0 -0.0500711069
N  N48  1  0.61230000  0.26570000  0.66510000  1.0 -0.0500711069
N  N49  1  0.71620000  0.24240000  0.71620000  1.0 0.2040563714
N  N50  1  0.24240000  0.71620000  0.32520000  1.0 0.2040563714
N  N51  1  0.71620000  0.32520000  0.71620000  1.0 0.2040563714
N  N52  1  0.32520000  0.71620000  0.24240000  1.0 0.2040563714
N  N53  1  0.71620000  0.71620000  0.24240000  1.0 0.2040563714
N  N54  1  0.32520000  0.24240000  0.71620000  1.0 0.2040563714
N  N55  1  0.71620000  0.71620000  0.32520000  1.0 0.2040563714
N  N56  1  0.24240000  0.32520000  0.71620000  1.0 0.2040563714
N  N57  1  0.24240000  0.71620000  0.71620000  1.0 0.2040563714
N  N58  1  0.71620000  0.32520000  0.24240000  1.0 0.2040563714
N  N59  1  0.32520000  0.71620000  0.71620000  1.0 0.2040563714
N  N60  1  0.71620000  0.24240000  0.32520000  1.0 0.2040563714
N  N61  1  0.28380000  0.75760000  0.67480000  1.0 0.2040563714
N  N62  1  0.75760000  0.28380000  0.28380000  1.0 0.2074382436
N  N63  1  0.28380000  0.67480000  0.75760000  1.0 0.2040563714
N  N64  1  0.67480000  0.28380000  0.28380000  1.0 0.2074382436
N  N65  1  0.28380000  0.28380000  0.67480000  1.0 0.2040563714
N  N66  1  0.67480000  0.75760000  0.28380000  1.0 0.2074382436
N  N67  1  0.28380000  0.28380000  0.75760000  1.0 0.2040563714
N  N68  1  0.75760000  0.67480000  0.28380000  1.0 0.2040563714
N  N69  1  0.75760000  0.28380000  0.67480000  1.0 0.2040563714
N  N70  1  0.28380000  0.67480000  0.28380000  1.0 0.2040563714
N  N71  1  0.67480000  0.28380000  0.75760000  1.0 0.2040563714
N  N72  1  0.28380000  0.75760000  0.28380000  1.0 0.2074382436
N  N73  1  0.77350000  0.22650000  0.81150000  1.0 -0.1233792046
N  N74  1  0.22650000  0.77350000  0.18850000  1.0 -0.1233792046
N  N75  1  0.81150000  0.18850000  0.77350000  1.0 -0.1233792046
N  N76  1  0.18850000  0.81150000  0.22650000  1.0 -0.1233792046
N  N77  1  0.81150000  0.77350000  0.22650000  1.0 -0.1233792046
N  N78  1  0.18850000  0.22650000  0.77350000  1.0 -0.1233792046
N  N79  1  0.77350000  0.81150000  0.18850000  1.0 -0.1233792046
N  N80  1  0.22650000  0.18850000  0.81150000  1.0 -0.1233792046
N  N81  1  0.22650000  0.81150000  0.77350000  1.0 -0.1233792046
N  N82  1  0.77350000  0.18850000  0.22650000  1.0 -0.1233792046
N  N83  1  0.18850000  0.77350000  0.81150000  1.0 -0.1233792046
N  N84  1  0.81150000  0.22650000  0.18850000  1.0 -0.1233792046
N  N85  1  0.22650000  0.77350000  0.81150000  1.0 -0.1233792046
N  N86  1  0.77350000  0.22650000  0.18850000  1.0 -0.1233792046
N  N87  1  0.18850000  0.81150000  0.77350000  1.0 -0.1233792046
N  N88  1  0.81150000  0.18850000  0.22650000  1.0 -0.1233792046
N  N89  1  0.18850000  0.22650000  0.81150000  1.0 -0.1233792046
N  N90  1  0.81150000  0.77350000  0.18850000  1.0 -0.1233792046
N  N91  1  0.22650000  0.18850000  0.77350000  1.0 -0.1233792046
N  N92  1  0.77350000  0.81150000  0.22650000  1.0 -0.1233792046
N  N93  1  0.77350000  0.18850000  0.81150000  1.0 -0.1233792046
N  N94  1  0.22650000  0.81150000  0.18850000  1.0 -0.1233792046
N  N95  1  0.81150000  0.22650000  0.77350000  1.0 -0.1233792046
N  N96  1  0.18850000  0.77350000  0.22650000  1.0 -0.1233792046
