# DDEC6 charges by PACMAN v1.1 (https://github.com/mtap-research/PACMAN-charge/)
data_ROQFUA07_FSR_pacman
_symmetry_space_group_name_H-M   'P 1'
_cell_length_a   9.44065000
_cell_length_b   9.44065000
_cell_length_c   9.44065000
_cell_angle_alpha   60.00000000
_cell_angle_beta   60.00000000
_cell_angle_gamma   60.00000000
_symmetry_Int_Tables_number   1
_chemical_formula_structural   KFeN96
_chemical_formula_sum   'K1 Fe1 N96'
_cell_volume   594.96400676
_cell_formula_units_Z   1
loop_
 _symmetry_equiv_pos_site_id
 _symmetry_equiv_pos_as_xyz
  1  'x, y, z'
loop_
 _atom_site_type_symbol
 _atom_site_label
 _atom_site_symmetry_multiplicity
 _atom_site_fract_x
 _atom_site_fract_y
 _atom_site_fract_z
 _atom_site_occupancy
 _atom_site_charge
K  K1  1  0.00000000  0.00000000  0.00000000  1.0 0.4431693995
Fe  Fe1  1  0.50000000  0.50000000  0.50000000  1.0 0.0080318352
N  N1  1  0.71620000  0.24180000  0.71620000  1.0 0.2007904227
N  N2  1  0.24180000  0.71620000  0.32580000  1.0 0.2007904227
N  N3  1  0.71620000  0.32580000  0.71620000  1.0 0.2007904227
N  N4  1  0.32580000  0.71620000  0.24180000  1.0 0.2007904227
N  N5  1  0.71620000  0.71620000  0.24180000  1.0 0.2007904227
N  N6  1  0.32580000  0.24180000  0.71620000  1.0 0.2007904227
N  N7  1  0.71620000  0.71620000  0.32580000  1.0 0.2007904227
N  N8  1  0.24180000  0.32580000  0.71620000  1.0 0.2007904227
N  N9  1  0.24180000  0.71620000  0.71620000  1.0 0.2007904227
N  N10  1  0.71620000  0.32580000  0.24180000  1.0 0.2007904227
N  N11  1  0.32580000  0.71620000  0.71620000  1.0 0.2007904227
N  N12  1  0.71620000  0.24180000  0.32580000  1.0 0.2007904227
N  N13  1  0.28380000  0.75820000  0.67420000  1.0 0.2007904227
N  N14  1  0.75820000  0.28380000  0.28380000  1.0 0.2007904227
N  N15  1  0.28380000  0.67420000  0.75820000  1.0 0.2007904227
N  N16  1  0.67420000  0.28380000  0.28380000  1.0 0.2007904227
N  N17  1  0.28380000  0.28380000  0.67420000  1.0 0.2007904227
N  N18  1  0.67420000  0.75820000  0.28380000  1.0 0.2007904227
N  N19  1  0.28380000  0.28380000  0.75820000  1.0 0.2007904227
N  N20  1  0.75820000  0.67420000  0.28380000  1.0 0.2007904227
N  N21  1  0.75820000  0.28380000  0.67420000  1.0 0.2007904227
N  N22  1  0.28380000  0.67420000  0.28380000  1.0 0.2007904227
N  N23  1  0.67420000  0.28380000  0.75820000  1.0 0.2007904227
N  N24  1  0.28380000  0.75820000  0.28380000  1.0 0.2007904227
N  N25  1  0.77360000  0.22640000  0.81160000  1.0 -0.1152658806
N  N26  1  0.22640000  0.77360000  0.18840000  1.0 -0.1152658806
N  N27  1  0.81160000  0.18840000  0.77360000  1.0 -0.1143738782
N  N28  1  0.18840000  0.81160000  0.22640000  1.0 -0.1152658806
N  N29  1  0.81160000  0.77360000  0.22640000  1.0 -0.1152658806
N  N30  1  0.18840000  0.22640000  0.77360000  1.0 -0.1152658806
N  N31  1  0.77360000  0.81160000  0.18840000  1.0 -0.1143738782
N  N32  1  0.22640000  0.18840000  0.81160000  1.0 -0.1152658806
N  N33  1  0.22640000  0.81160000  0.77360000  1.0 -0.1152658806
N  N34  1  0.77360000  0.18840000  0.22640000  1.0 -0.1143738782
N  N35  1  0.18840000  0.77360000  0.81160000  1.0 -0.1152658806
N  N36  1  0.81160000  0.22640000  0.18840000  1.0 -0.1143738782
N  N37  1  0.22640000  0.77360000  0.81160000  1.0 -0.1152658806
N  N38  1  0.77360000  0.22640000  0.18840000  1.0 -0.1143738782
N  N39  1  0.18840000  0.81160000  0.77360000  1.0 -0.1152658806
N  N40  1  0.81160000  0.18840000  0.22640000  1.0 -0.1143738782
N  N41  1  0.18840000  0.22640000  0.81160000  1.0 -0.1152658806
N  N42  1  0.81160000  0.77360000  0.18840000  1.0 -0.1143738782
N  N43  1  0.22640000  0.18840000  0.77360000  1.0 -0.1152658806
N  N44  1  0.77360000  0.81160000  0.22640000  1.0 -0.1152658806
N  N45  1  0.77360000  0.18840000  0.81160000  1.0 -0.1152658806
N  N46  1  0.22640000  0.81160000  0.18840000  1.0 -0.1152658806
N  N47  1  0.81160000  0.22640000  0.77360000  1.0 -0.1152658806
N  N48  1  0.18840000  0.77360000  0.22640000  1.0 -0.1152658806
N  N49  1  0.66520000  0.26500000  0.61220000  1.0 -0.0522923805
N  N50  1  0.26500000  0.66520000  0.45760000  1.0 -0.0522923805
N  N51  1  0.61220000  0.45760000  0.66520000  1.0 -0.0522923805
N  N52  1  0.45760000  0.61220000  0.26500000  1.0 -0.0522923805
N  N53  1  0.61220000  0.66520000  0.26500000  1.0 -0.0522923805
N  N54  1  0.45760000  0.26500000  0.66520000  1.0 -0.0522923805
N  N55  1  0.66520000  0.61220000  0.45760000  1.0 -0.0522923805
N  N56  1  0.26500000  0.45760000  0.61220000  1.0 -0.0522923805
N  N57  1  0.26500000  0.61220000  0.66520000  1.0 -0.0522923805
N  N58  1  0.66520000  0.45760000  0.26500000  1.0 -0.0522923805
N  N59  1  0.45760000  0.66520000  0.61220000  1.0 -0.0522923805
N  N60  1  0.61220000  0.26500000  0.45760000  1.0 -0.0522923805
N  N61  1  0.33480000  0.73500000  0.54240000  1.0 -0.0522923805
N  N62  1  0.73500000  0.33480000  0.38780000  1.0 -0.0522923805
N  N63  1  0.38780000  0.54240000  0.73500000  1.0 -0.0522923805
N  N64  1  0.54240000  0.38780000  0.33480000  1.0 -0.0522923805
N  N65  1  0.38780000  0.33480000  0.54240000  1.0 -0.0522923805
N  N66  1  0.54240000  0.73500000  0.38780000  1.0 -0.0522923805
N  N67  1  0.33480000  0.38780000  0.73500000  1.0 -0.0522923805
N  N68  1  0.73500000  0.54240000  0.33480000  1.0 -0.0522923805
N  N69  1  0.73500000  0.38780000  0.54240000  1.0 -0.0522923805
N  N70  1  0.33480000  0.54240000  0.38780000  1.0 -0.0522923805
N  N71  1  0.54240000  0.33480000  0.73500000  1.0 -0.0522923805
N  N72  1  0.38780000  0.73500000  0.33480000  1.0 -0.0522923805
N  N73  1  0.33480000  0.73500000  0.38780000  1.0 -0.0522923805
N  N74  1  0.73500000  0.33480000  0.54240000  1.0 -0.0522923805
N  N75  1  0.38780000  0.54240000  0.33480000  1.0 -0.0522923805
N  N76  1  0.54240000  0.38780000  0.73500000  1.0 -0.0522923805
N  N77  1  0.38780000  0.33480000  0.73500000  1.0 -0.0522923805
N  N78  1  0.54240000  0.73500000  0.33480000  1.0 -0.0522923805
N  N79  1  0.33480000  0.38780000  0.54240000  1.0 -0.0522923805
N  N80  1  0.73500000  0.54240000  0.38780000  1.0 -0.0522923805
N  N81  1  0.73500000  0.38780000  0.33480000  1.0 -0.0522923805
N  N82  1  0.33480000  0.54240000  0.73500000  1.0 -0.0522923805
N  N83  1  0.54240000  0.33480000  0.38780000  1.0 -0.0522923805
N  N84  1  0.38780000  0.73500000  0.54240000  1.0 -0.0522923805
N  N85  1  0.66520000  0.26500000  0.45760000  1.0 -0.0522923805
N  N86  1  0.26500000  0.66520000  0.61220000  1.0 -0.0522923805
N  N87  1  0.61220000  0.45760000  0.26500000  1.0 -0.0522923805
N  N88  1  0.45760000  0.61220000  0.66520000  1.0 -0.0522923805
N  N89  1  0.61220000  0.66520000  0.45760000  1.0 -0.0522923805
N  N90  1  0.45760000  0.26500000  0.61220000  1.0 -0.0522923805
N  N91  1  0.66520000  0.61220000  0.26500000  1.0 -0.0522923805
N  N92  1  0.26500000  0.45760000  0.66520000  1.0 -0.0522923805
N  N93  1  0.26500000  0.61220000  0.45760000  1.0 -0.0522923805
N  N94  1  0.66520000  0.45760000  0.61220000  1.0 -0.0522923805
N  N95  1  0.45760000  0.66520000  0.26500000  1.0 -0.0522923805
N  N96  1  0.61220000  0.26500000  0.66520000  1.0 -0.0522923805
