# DDEC6 charges by PACMAN v1.1 (https://github.com/mtap-research/PACMAN-charge/)
data_ROQMER04_FSR_pacman
_symmetry_space_group_name_H-M   'P 1'
_cell_length_a   9.15852000
_cell_length_b   9.15852000
_cell_length_c   9.15852000
_cell_angle_alpha   60.00000000
_cell_angle_beta   60.00000000
_cell_angle_gamma   60.00000000
_symmetry_Int_Tables_number   1
_chemical_formula_structural   NaCrN96
_chemical_formula_sum   'Na1 Cr1 N96'
_cell_volume   543.20142004
_cell_formula_units_Z   1
loop_
 _symmetry_equiv_pos_site_id
 _symmetry_equiv_pos_as_xyz
  1  'x, y, z'
loop_
 _atom_site_type_symbol
 _atom_site_label
 _atom_site_symmetry_multiplicity
 _atom_site_fract_x
 _atom_site_fract_y
 _atom_site_fract_z
 _atom_site_occupancy
 _atom_site_charge
Na  Na1  1  0.00000000  0.00000000  0.00000000  1.0 0.4435556366
Cr  Cr1  1  0.50000000  0.50000000  0.50000000  1.0 0.1528915896
N  N1  1  0.72420000  0.23740000  0.72420000  1.0 0.1966122467
N  N2  1  0.23740000  0.72420000  0.31420000  1.0 0.1966122467
N  N3  1  0.72420000  0.31420000  0.72420000  1.0 0.1966122467
N  N4  1  0.31420000  0.72420000  0.23740000  1.0 0.1966122467
N  N5  1  0.72420000  0.72420000  0.23740000  1.0 0.1966122467
N  N6  1  0.31420000  0.23740000  0.72420000  1.0 0.1966122467
N  N7  1  0.72420000  0.72420000  0.31420000  1.0 0.1966122467
N  N8  1  0.23740000  0.31420000  0.72420000  1.0 0.1966122467
N  N9  1  0.23740000  0.72420000  0.72420000  1.0 0.1966122467
N  N10  1  0.72420000  0.31420000  0.23740000  1.0 0.1966122467
N  N11  1  0.31420000  0.72420000  0.72420000  1.0 0.1966122467
N  N12  1  0.72420000  0.23740000  0.31420000  1.0 0.1966122467
N  N13  1  0.27580000  0.76260000  0.68580000  1.0 0.194590403
N  N14  1  0.76260000  0.27580000  0.27580000  1.0 0.1966122467
N  N15  1  0.27580000  0.68580000  0.76260000  1.0 0.194590403
N  N16  1  0.68580000  0.27580000  0.27580000  1.0 0.1966122467
N  N17  1  0.27580000  0.27580000  0.68580000  1.0 0.1966122467
N  N18  1  0.68580000  0.76260000  0.27580000  1.0 0.1966122467
N  N19  1  0.27580000  0.27580000  0.76260000  1.0 0.1966122467
N  N20  1  0.76260000  0.68580000  0.27580000  1.0 0.1966122467
N  N21  1  0.76260000  0.27580000  0.68580000  1.0 0.1966122467
N  N22  1  0.27580000  0.68580000  0.27580000  1.0 0.1966122467
N  N23  1  0.68580000  0.27580000  0.76260000  1.0 0.1966122467
N  N24  1  0.27580000  0.76260000  0.27580000  1.0 0.1966122467
N  N25  1  0.82500000  0.21300000  0.78700000  1.0 -0.1327262128
N  N26  1  0.21300000  0.82500000  0.17500000  1.0 -0.1327262128
N  N27  1  0.78700000  0.17500000  0.82500000  1.0 -0.1327262128
N  N28  1  0.17500000  0.78700000  0.21300000  1.0 -0.1327262128
N  N29  1  0.78700000  0.82500000  0.21300000  1.0 -0.1327262128
N  N30  1  0.17500000  0.21300000  0.82500000  1.0 -0.1327262128
N  N31  1  0.82500000  0.78700000  0.17500000  1.0 -0.1327262128
N  N32  1  0.21300000  0.17500000  0.78700000  1.0 -0.1327262128
N  N33  1  0.21300000  0.78700000  0.82500000  1.0 -0.1327262128
N  N34  1  0.82500000  0.17500000  0.21300000  1.0 -0.1327262128
N  N35  1  0.17500000  0.82500000  0.78700000  1.0 -0.1327262128
N  N36  1  0.78700000  0.21300000  0.17500000  1.0 -0.1327262128
N  N37  1  0.17500000  0.78700000  0.82500000  1.0 -0.1327262128
N  N38  1  0.78700000  0.17500000  0.21300000  1.0 -0.1327262128
N  N39  1  0.21300000  0.82500000  0.78700000  1.0 -0.1327262128
N  N40  1  0.82500000  0.21300000  0.17500000  1.0 -0.1327262128
N  N41  1  0.21300000  0.17500000  0.82500000  1.0 -0.1327262128
N  N42  1  0.82500000  0.78700000  0.21300000  1.0 -0.1327262128
N  N43  1  0.17500000  0.21300000  0.78700000  1.0 -0.1327262128
N  N44  1  0.78700000  0.82500000  0.17500000  1.0 -0.1327262128
N  N45  1  0.78700000  0.21300000  0.82500000  1.0 -0.1327262128
N  N46  1  0.17500000  0.82500000  0.21300000  1.0 -0.1327262128
N  N47  1  0.82500000  0.17500000  0.78700000  1.0 -0.1327262128
N  N48  1  0.21300000  0.78700000  0.17500000  1.0 -0.1327262128
N  N49  1  0.61690000  0.26650000  0.66690000  1.0 -0.0442847574
N  N50  1  0.26650000  0.61690000  0.44970000  1.0 -0.0442847574
N  N51  1  0.66690000  0.44970000  0.61690000  1.0 -0.0442847574
N  N52  1  0.44970000  0.66690000  0.26650000  1.0 -0.0442847574
N  N53  1  0.66690000  0.61690000  0.26650000  1.0 -0.0442847574
N  N54  1  0.44970000  0.26650000  0.61690000  1.0 -0.0442847574
N  N55  1  0.61690000  0.66690000  0.44970000  1.0 -0.0442847574
N  N56  1  0.26650000  0.44970000  0.66690000  1.0 -0.0442847574
N  N57  1  0.26650000  0.66690000  0.61690000  1.0 -0.0442847574
N  N58  1  0.61690000  0.44970000  0.26650000  1.0 -0.0442847574
N  N59  1  0.44970000  0.61690000  0.66690000  1.0 -0.0442847574
N  N60  1  0.66690000  0.26650000  0.44970000  1.0 -0.0442847574
N  N61  1  0.38310000  0.73350000  0.55030000  1.0 -0.0442847574
N  N62  1  0.73350000  0.38310000  0.33310000  1.0 -0.0442847574
N  N63  1  0.33310000  0.55030000  0.73350000  1.0 -0.0442847574
N  N64  1  0.55030000  0.33310000  0.38310000  1.0 -0.0442847574
N  N65  1  0.33310000  0.38310000  0.55030000  1.0 -0.0442847574
N  N66  1  0.55030000  0.73350000  0.33310000  1.0 -0.0442847574
N  N67  1  0.38310000  0.33310000  0.73350000  1.0 -0.0442847574
N  N68  1  0.73350000  0.55030000  0.38310000  1.0 -0.0442847574
N  N69  1  0.73350000  0.33310000  0.55030000  1.0 -0.0442847574
N  N70  1  0.38310000  0.55030000  0.33310000  1.0 -0.0442847574
N  N71  1  0.55030000  0.38310000  0.73350000  1.0 -0.0442847574
N  N72  1  0.33310000  0.73350000  0.38310000  1.0 -0.0442847574
N  N73  1  0.38310000  0.73350000  0.33310000  1.0 -0.0442847574
N  N74  1  0.73350000  0.38310000  0.55030000  1.0 -0.0442847574
N  N75  1  0.33310000  0.55030000  0.38310000  1.0 -0.0442847574
N  N76  1  0.55030000  0.33310000  0.73350000  1.0 -0.0442847574
N  N77  1  0.33310000  0.38310000  0.73350000  1.0 -0.0442847574
N  N78  1  0.55030000  0.73350000  0.38310000  1.0 -0.0442847574
N  N79  1  0.38310000  0.33310000  0.55030000  1.0 -0.0442847574
N  N80  1  0.73350000  0.55030000  0.33310000  1.0 -0.0442847574
N  N81  1  0.73350000  0.33310000  0.38310000  1.0 -0.0442847574
N  N82  1  0.38310000  0.55030000  0.73350000  1.0 -0.0442847574
N  N83  1  0.55030000  0.38310000  0.33310000  1.0 -0.0442847574
N  N84  1  0.33310000  0.73350000  0.55030000  1.0 -0.0442847574
N  N85  1  0.61690000  0.26650000  0.44970000  1.0 -0.0442847574
N  N86  1  0.26650000  0.61690000  0.66690000  1.0 -0.0442847574
N  N87  1  0.66690000  0.44970000  0.26650000  1.0 -0.0442847574
N  N88  1  0.44970000  0.66690000  0.61690000  1.0 -0.0442847574
N  N89  1  0.66690000  0.61690000  0.44970000  1.0 -0.0442847574
N  N90  1  0.44970000  0.26650000  0.66690000  1.0 -0.0442847574
N  N91  1  0.61690000  0.66690000  0.26650000  1.0 -0.0442847574
N  N92  1  0.26650000  0.44970000  0.61690000  1.0 -0.0442847574
N  N93  1  0.26650000  0.66690000  0.44970000  1.0 -0.0442847574
N  N94  1  0.61690000  0.44970000  0.66690000  1.0 -0.0442847574
N  N95  1  0.44970000  0.61690000  0.26650000  1.0 -0.0442847574
N  N96  1  0.66690000  0.26650000  0.61690000  1.0 -0.0442847574
