# DDEC6 charges by PACMAN v1.1 (https://github.com/mtap-research/PACMAN-charge/)
data_RORLIV_ASR_pacman
_symmetry_space_group_name_H-M   'P 1'
_cell_length_a   8.86940000
_cell_length_b   17.82700000
_cell_length_c   10.84730000
_cell_angle_alpha   90.00000000
_cell_angle_beta   124.09100000
_cell_angle_gamma   90.00000000
_symmetry_Int_Tables_number   1
_chemical_formula_structural   CdC4N6Cl
_chemical_formula_sum   'Cd4 C16 N24 Cl4'
_cell_volume   1420.37270848
_cell_formula_units_Z   4
loop_
 _symmetry_equiv_pos_site_id
 _symmetry_equiv_pos_as_xyz
  1  'x, y, z'
loop_
 _atom_site_type_symbol
 _atom_site_label
 _atom_site_symmetry_multiplicity
 _atom_site_fract_x
 _atom_site_fract_y
 _atom_site_fract_z
 _atom_site_occupancy
 _atom_site_charge
Cd  Cd1  1  0.57328000  0.57294000  0.15046000  1.0 1.0228389154
Cd  Cd2  1  0.42672000  0.07294000  0.34954000  1.0 1.0228389154
Cd  Cd3  1  0.42672000  0.42706000  0.84954000  1.0 1.0228389154
Cd  Cd4  1  0.57328000  0.92706000  0.65046000  1.0 1.0228389154
C  C1  1  0.37520000  0.71707000  0.89620000  1.0 0.4517887944
C  C2  1  0.62480000  0.21707000  0.60380000  1.0 0.4517887944
C  C3  1  0.62480000  0.28293000  0.10380000  1.0 0.4517887944
C  C4  1  0.37520000  0.78293000  0.39620000  1.0 0.4517887944
C  C5  1  0.38340000  0.82407000  0.78970000  1.0 0.4569120417
C  C6  1  0.61660000  0.32407000  0.71030000  1.0 0.4517887944
C  C7  1  0.61660000  0.17593000  0.21030000  1.0 0.4517887944
C  C8  1  0.38340000  0.67593000  0.28970000  1.0 0.4517887944
C  C9  1  0.78840000  0.43761000  0.42120000  1.0 0.4517887944
C  C10  1  0.21160000  0.93761000  0.07880000  1.0 0.4517887944
C  C11  1  0.21160000  0.56239000  0.57880000  1.0 0.4517887944
C  C12  1  0.78840000  0.06239000  0.92120000  1.0 0.4517887944
C  C13  1  0.01710000  0.36966000  0.61220000  1.0 0.4569120417
C  C14  1  0.98290000  0.86966000  0.88780000  1.0 0.4569120417
C  C15  1  0.98290000  0.63034000  0.38780000  1.0 0.4569120417
C  C16  1  0.01710000  0.13034000  0.11220000  1.0 0.4569120417
N  N1  1  0.43340000  0.66832000  0.97710000  1.0 -0.4205342112
N  N2  1  0.56660000  0.16832000  0.52290000  1.0 -0.4205342112
N  N3  1  0.56660000  0.33168000  0.02290000  1.0 -0.4205342112
N  N4  1  0.43340000  0.83168000  0.47710000  1.0 -0.4205342112
N  N5  1  0.29290000  0.77058000  0.79930000  1.0 -0.3400359084
N  N6  1  0.70710000  0.27058000  0.70070000  1.0 -0.3458832651
N  N7  1  0.70710000  0.22942000  0.20070000  1.0 -0.3458832651
N  N8  1  0.29290000  0.72942000  0.29930000  1.0 -0.3458832651
N  N9  1  0.44980000  0.87420000  0.77200000  1.0 -0.407617343
N  N10  1  0.55020000  0.37420000  0.72800000  1.0 -0.407617343
N  N11  1  0.55020000  0.12580000  0.22800000  1.0 -0.407617343
N  N12  1  0.44980000  0.62580000  0.27200000  1.0 -0.407617343
N  N13  1  0.71660000  0.48435000  0.33920000  1.0 -0.4205342112
N  N14  1  0.28340000  0.98435000  0.16080000  1.0 -0.4205342112
N  N15  1  0.28340000  0.51565000  0.66080000  1.0 -0.4205342112
N  N16  1  0.71660000  0.01565000  0.83920000  1.0 -0.4252358427
N  N17  1  0.84740000  0.38170000  0.51220000  1.0 -0.3400359084
N  N18  1  0.15260000  0.88170000  0.98780000  1.0 -0.3400359084
N  N19  1  0.15260000  0.61830000  0.48780000  1.0 -0.3400359084
N  N20  1  0.84740000  0.11830000  0.01220000  1.0 -0.3400359084
N  N21  1  0.16150000  0.35308000  0.70330000  1.0 -0.407617343
N  N22  1  0.83850000  0.85308000  0.79670000  1.0 -0.407617343
N  N23  1  0.83850000  0.64692000  0.29670000  1.0 -0.407617343
N  N24  1  0.16150000  0.14692000  0.20330000  1.0 -0.407617343
Cl  Cl1  1  0.71022000  0.51416000  0.01230000  1.0 -0.4938257684
Cl  Cl2  1  0.28978000  0.01416000  0.48770000  1.0 -0.4938257684
Cl  Cl3  1  0.28978000  0.48584000  0.98770000  1.0 -0.4938257684
Cl  Cl4  1  0.71022000  0.98584000  0.51230000  1.0 -0.4963719
