# DDEC6 charges by PACMAN v1.1 (https://github.com/mtap-research/PACMAN-charge/)
data_RORTID_ASR_pacman
_symmetry_space_group_name_H-M   'P 1'
_cell_length_a   17.61200000
_cell_length_b   18.05200000
_cell_length_c   18.65200000
_cell_angle_alpha   90.00000000
_cell_angle_beta   92.38000000
_cell_angle_gamma   90.00000000
_symmetry_Int_Tables_number   1
_chemical_formula_structural   Zn3H30C34(NO7)2
_chemical_formula_sum   'Zn12 H120 C136 N8 O56'
_cell_volume   5924.94902819
_cell_formula_units_Z   4
loop_
 _symmetry_equiv_pos_site_id
 _symmetry_equiv_pos_as_xyz
  1  'x, y, z'
loop_
 _atom_site_type_symbol
 _atom_site_label
 _atom_site_symmetry_multiplicity
 _atom_site_fract_x
 _atom_site_fract_y
 _atom_site_fract_z
 _atom_site_occupancy
 _atom_site_charge
Zn  Zn1  1  0.60327000  0.51715000  0.71020000  1.0 0.8109087969
Zn  Zn2  1  0.39673000  0.01715000  0.78980000  1.0 0.8109087969
Zn  Zn3  1  0.39673000  0.48285000  0.28980000  1.0 0.8109087969
Zn  Zn4  1  0.60327000  0.98285000  0.21020000  1.0 0.8109087969
Zn  Zn5  1  0.67114000  0.38156000  0.63590000  1.0 0.9752450611
Zn  Zn6  1  0.32886000  0.88156000  0.86410000  1.0 0.9752450611
Zn  Zn7  1  0.32886000  0.61844000  0.36410000  1.0 0.9752450611
Zn  Zn8  1  0.67114000  0.11844000  0.13590000  1.0 0.9752450611
Zn  Zn9  1  0.58565000  0.23022000  0.56493000  1.0 0.8365371253
Zn  Zn10  1  0.41435000  0.73022000  0.93507000  1.0 0.8365371253
Zn  Zn11  1  0.41435000  0.76978000  0.43507000  1.0 0.8365371253
Zn  Zn12  1  0.58565000  0.26978000  0.06493000  1.0 0.8365371253
H  H1  1  0.61320000  0.34840000  0.84510000  1.0 0.1496261459
H  H2  1  0.38680000  0.84840000  0.65490000  1.0 0.1496261459
H  H3  1  0.38680000  0.65160000  0.15490000  1.0 0.1496261459
H  H4  1  0.61320000  0.15160000  0.34510000  1.0 0.1496261459
H  H5  1  0.36810000  0.44770000  0.67040000  1.0 0.1101252266
H  H6  1  0.63190000  0.94770000  0.82960000  1.0 0.1101252266
H  H7  1  0.63190000  0.55230000  0.32960000  1.0 0.1101252266
H  H8  1  0.36810000  0.05230000  0.17040000  1.0 0.1101252266
H  H9  1  0.39290000  0.28270000  0.84990000  1.0 0.1273058509
H  H10  1  0.60710000  0.78270000  0.65010000  1.0 0.1273058509
H  H11  1  0.60710000  0.71730000  0.15010000  1.0 0.1273058509
H  H12  1  0.39290000  0.21730000  0.34990000  1.0 0.1273058509
H  H13  1  0.51600000  0.38370000  0.47760000  1.0 0.1496261459
H  H14  1  0.48400000  0.88370000  0.02240000  1.0 0.1496261459
H  H15  1  0.48400000  0.61630000  0.52240000  1.0 0.1496261459
H  H16  1  0.51600000  0.11630000  0.97760000  1.0 0.1496261459
H  H17  1  0.33730000  0.49480000  0.55650000  1.0 0.1209713558
H  H18  1  0.66270000  0.99480000  0.94350000  1.0 0.1209713558
H  H19  1  0.66270000  0.50520000  0.44350000  1.0 0.1209713558
H  H20  1  0.33730000  0.00520000  0.05650000  1.0 0.1209713558
H  H21  1  0.37300000  0.32390000  0.73220000  1.0 0.1101252266
H  H22  1  0.62700000  0.82390000  0.76780000  1.0 0.1101252266
H  H23  1  0.62700000  0.67610000  0.26780000  1.0 0.1101252266
H  H24  1  0.37300000  0.17610000  0.23220000  1.0 0.1101252266
H  H25  1  0.19490000  0.13750000  0.74890000  1.0 0.1209713558
H  H26  1  0.80510000  0.63750000  0.75110000  1.0 0.1209713558
H  H27  1  0.80510000  0.86250000  0.25110000  1.0 0.1209713558
H  H28  1  0.19490000  0.36250000  0.24890000  1.0 0.1209713558
H  H29  1  0.07540000  0.18650000  0.71700000  1.0 0.1415196583
H  H30  1  0.92460000  0.68650000  0.78300000  1.0 0.1415196583
H  H31  1  0.92460000  0.81350000  0.28300000  1.0 0.1415196583
H  H32  1  0.07540000  0.31350000  0.21700000  1.0 0.1415196583
H  H33  1  0.82470000  0.25820000  0.75240000  1.0 0.1273058509
H  H34  1  0.17530000  0.75820000  0.74760000  1.0 0.1273058509
H  H35  1  0.17530000  0.74180000  0.24760000  1.0 0.1273058509
H  H36  1  0.82470000  0.24180000  0.25240000  1.0 0.1273058509
H  H37  1  0.79860000  0.11040000  0.59000000  1.0 0.1273058509
H  H38  1  0.20140000  0.61040000  0.91000000  1.0 0.1273058509
H  H39  1  0.20140000  0.88960000  0.41000000  1.0 0.1273058509
H  H40  1  0.79860000  0.38960000  0.09000000  1.0 0.1273058509
H  H41  1  0.91450000  0.05580000  0.62460000  1.0 0.1415196583
H  H42  1  0.08550000  0.55580000  0.87540000  1.0 0.1415196583
H  H43  1  0.08550000  0.94420000  0.37540000  1.0 0.1415196583
H  H44  1  0.91450000  0.44420000  0.12460000  1.0 0.1415196583
H  H45  1  0.09910000  0.93770000  0.78270000  1.0 0.1415196583
H  H46  1  0.90090000  0.43770000  0.71730000  1.0 0.1415196583
H  H47  1  0.90090000  0.06230000  0.21730000  1.0 0.1415196583
H  H48  1  0.09910000  0.56230000  0.28270000  1.0 0.1415196583
H  H49  1  0.50280000  0.64780000  0.70580000  1.0 0.1273058509
H  H50  1  0.49720000  0.14780000  0.79420000  1.0 0.1273058509
H  H51  1  0.49720000  0.35220000  0.29420000  1.0 0.1273058509
H  H52  1  0.50280000  0.85220000  0.20580000  1.0 0.1273058509
H  H53  1  0.44580000  0.58110000  0.72170000  1.0 0.1209713558
H  H54  1  0.55420000  0.08110000  0.77830000  1.0 0.1209713558
H  H55  1  0.55420000  0.41890000  0.27830000  1.0 0.1209713558
H  H56  1  0.44580000  0.91890000  0.22170000  1.0 0.1209713558
H  H57  1  0.38590000  0.65190000  0.79620000  1.0 0.1209713558
H  H58  1  0.61410000  0.15190000  0.70380000  1.0 0.1209713558
H  H59  1  0.61410000  0.34810000  0.20380000  1.0 0.1209713558
H  H60  1  0.38590000  0.84810000  0.29620000  1.0 0.1209713558
H  H61  1  0.44250000  0.71870000  0.77990000  1.0 0.1209713558
H  H62  1  0.55750000  0.21870000  0.72010000  1.0 0.1209713558
H  H63  1  0.55750000  0.28130000  0.22010000  1.0 0.1209713558
H  H64  1  0.44250000  0.78130000  0.27990000  1.0 0.1209713558
H  H65  1  0.49290000  0.57600000  0.94190000  1.0 0.1209713558
H  H66  1  0.50710000  0.07600000  0.55810000  1.0 0.1209713558
H  H67  1  0.50710000  0.42400000  0.05810000  1.0 0.1209713558
H  H68  1  0.49290000  0.92400000  0.44190000  1.0 0.1209713558
H  H69  1  0.41580000  0.56640000  0.89410000  1.0 0.1273058509
H  H70  1  0.58420000  0.06640000  0.60590000  1.0 0.1273058509
H  H71  1  0.58420000  0.43360000  0.10590000  1.0 0.1273058509
H  H72  1  0.41580000  0.93360000  0.39410000  1.0 0.1273058509
H  H73  1  0.56030000  0.73390000  0.85440000  1.0 0.1101252266
H  H74  1  0.43970000  0.23390000  0.64560000  1.0 0.1101252266
H  H75  1  0.43970000  0.26610000  0.14560000  1.0 0.1101252266
H  H76  1  0.56030000  0.76610000  0.35440000  1.0 0.1101252266
H  H77  1  0.57960000  0.67630000  0.91790000  1.0 0.1273058509
H  H78  1  0.42040000  0.17630000  0.58210000  1.0 0.1273058509
H  H79  1  0.42040000  0.32370000  0.08210000  1.0 0.1273058509
H  H80  1  0.57960000  0.82370000  0.41790000  1.0 0.1273058509
H  H81  1  0.63990000  0.60610000  0.84290000  1.0 0.1273058509
H  H82  1  0.36010000  0.10610000  0.65710000  1.0 0.1273058509
H  H83  1  0.36010000  0.39390000  0.15710000  1.0 0.1273058509
H  H84  1  0.63990000  0.89390000  0.34290000  1.0 0.1273058509
H  H85  1  0.61950000  0.66310000  0.77910000  1.0 0.1209713558
H  H86  1  0.38050000  0.16310000  0.72090000  1.0 0.1209713558
H  H87  1  0.38050000  0.33690000  0.22090000  1.0 0.1209713558
H  H88  1  0.61950000  0.83690000  0.27910000  1.0 0.1209713558
H  H89  1  0.47530000  0.49520000  0.81900000  1.0 0.1101252266
H  H90  1  0.52470000  0.99520000  0.68100000  1.0 0.1101252266
H  H91  1  0.52470000  0.50480000  0.18100000  1.0 0.1101252266
H  H92  1  0.47530000  0.00480000  0.31900000  1.0 0.1101252266
H  H93  1  0.55230000  0.50420000  0.86710000  1.0 0.1209713558
H  H94  1  0.44770000  0.00420000  0.63290000  1.0 0.1209713558
H  H95  1  0.44770000  0.49580000  0.13290000  1.0 0.1209713558
H  H96  1  0.55230000  0.99580000  0.36710000  1.0 0.1209713558
H  H97  1  0.92950000  0.24540000  0.82600000  1.0 0.2396634962
H  H98  1  0.07050000  0.74540000  0.67400000  1.0 0.2396634962
H  H99  1  0.07050000  0.75460000  0.17400000  1.0 0.2396634962
H  H100  1  0.92950000  0.25460000  0.32600000  1.0 0.2396634962
H  H101  1  0.91880000  0.99540000  0.74760000  1.0 0.2715626831
H  H102  1  0.08120000  0.49540000  0.75240000  1.0 0.2649771
H  H103  1  0.08120000  0.00460000  0.25240000  1.0 0.2649771
H  H104  1  0.91880000  0.50460000  0.24760000  1.0 0.2715626831
H  H105  1  0.10250000  0.23860000  0.73890000  1.0 0.2313240324
H  H106  1  0.89750000  0.73860000  0.76110000  1.0 0.2313240324
H  H107  1  0.89750000  0.76140000  0.26110000  1.0 0.2396634962
H  H108  1  0.10250000  0.26140000  0.23890000  1.0 0.2313240324
H  H109  1  0.91480000  0.03770000  0.57050000  1.0 0.2313240324
H  H110  1  0.08520000  0.53770000  0.92950000  1.0 0.2313240324
H  H111  1  0.08520000  0.96230000  0.42950000  1.0 0.2313240324
H  H112  1  0.91480000  0.46230000  0.07050000  1.0 0.2313240324
H  H113  1  0.97950000  0.98720000  0.75060000  1.0 0.1415196583
H  H114  1  0.02050000  0.48720000  0.74940000  1.0 0.1273058509
H  H115  1  0.02050000  0.01280000  0.24940000  1.0 0.1415196583
H  H116  1  0.97950000  0.51280000  0.25060000  1.0 0.1415196583
H  H117  1  0.93870000  0.20090000  0.79030000  1.0 0.1101252266
H  H118  1  0.06130000  0.70090000  0.70970000  1.0 0.1101252266
H  H119  1  0.06130000  0.79910000  0.20970000  1.0 0.1101252266
H  H120  1  0.93870000  0.29910000  0.29030000  1.0 0.1101252266
C  C1  1  0.40417000  0.47243000  0.43301000  1.0 0.5798232953
C  C2  1  0.59583000  0.97243000  0.06699000  1.0 0.5798232953
C  C3  1  0.59583000  0.52757000  0.56699000  1.0 0.5798232953
C  C4  1  0.40417000  0.02757000  0.93301000  1.0 0.5798232953
C  C5  1  0.56402000  0.34504000  0.82241000  1.0 -0.2569798504
C  C6  1  0.43598000  0.84504000  0.67759000  1.0 -0.2569798504
C  C7  1  0.43598000  0.65496000  0.17759000  1.0 -0.2569798504
C  C8  1  0.56402000  0.15496000  0.32241000  1.0 -0.2569798504
C  C9  1  0.39916000  0.43587000  0.63162000  1.0 -0.148641567
C  C10  1  0.60084000  0.93587000  0.86838000  1.0 -0.148641567
C  C11  1  0.60084000  0.56413000  0.36838000  1.0 -0.148641567
C  C12  1  0.39916000  0.06413000  0.13162000  1.0 -0.148641567
C  C13  1  0.42392000  0.44313000  0.50635000  1.0 -0.0008923796
C  C14  1  0.57608000  0.94313000  0.99365000  1.0 -0.0008923796
C  C15  1  0.57608000  0.55687000  0.49365000  1.0 -0.0008923796
C  C16  1  0.42392000  0.05687000  0.00635000  1.0 -0.0008923796
C  C17  1  0.43326000  0.30477000  0.82527000  1.0 -0.148641567
C  C18  1  0.56674000  0.80477000  0.67473000  1.0 -0.148641567
C  C19  1  0.56674000  0.69523000  0.17473000  1.0 -0.148641567
C  C20  1  0.43326000  0.19523000  0.32527000  1.0 -0.148641567
C  C21  1  0.48709000  0.39767000  0.51729000  1.0 -0.2291170333
C  C22  1  0.51291000  0.89767000  0.98271000  1.0 -0.2291170333
C  C23  1  0.51291000  0.60233000  0.48271000  1.0 -0.2291170333
C  C24  1  0.48709000  0.10233000  0.01729000  1.0 -0.2291170333
C  C25  1  0.23512000  0.00245000  0.78796000  1.0 0.6047424699
C  C26  1  0.76488000  0.50245000  0.71204000  1.0 0.6047424699
C  C27  1  0.76488000  0.99755000  0.21204000  1.0 0.6047424699
C  C28  1  0.23512000  0.49755000  0.28796000  1.0 0.6047424699
C  C29  1  0.37991000  0.46302000  0.56384000  1.0 -0.1278546837
C  C30  1  0.62009000  0.96302000  0.93616000  1.0 -0.1278546837
C  C31  1  0.62009000  0.53698000  0.43616000  1.0 -0.1278546837
C  C32  1  0.37991000  0.03698000  0.06384000  1.0 -0.1278546837
C  C33  1  0.55174000  0.37277000  0.75259000  1.0 0.2715626831
C  C34  1  0.44826000  0.87277000  0.74741000  1.0 0.2715626831
C  C35  1  0.44826000  0.62723000  0.24741000  1.0 0.2715626831
C  C36  1  0.55174000  0.12723000  0.25259000  1.0 0.2715626831
C  C37  1  0.50521000  0.31264000  0.85891000  1.0 -0.0105213351
C  C38  1  0.49479000  0.81264000  0.64109000  1.0 -0.0105213351
C  C39  1  0.49479000  0.68736000  0.14109000  1.0 -0.0105213351
C  C40  1  0.50521000  0.18736000  0.35891000  1.0 -0.0105213351
C  C41  1  0.15816000  0.03307000  0.76803000  1.0 -0.0105213351
C  C42  1  0.84184000  0.53307000  0.73197000  1.0 -0.0105213351
C  C43  1  0.84184000  0.96693000  0.23197000  1.0 -0.0105213351
C  C44  1  0.15816000  0.46693000  0.26803000  1.0 -0.0105213351
C  C45  1  0.80119000  0.18965000  0.66780000  1.0 -0.0105213351
C  C46  1  0.19881000  0.68965000  0.83220000  1.0 -0.0105213351
C  C47  1  0.19881000  0.81035000  0.33220000  1.0 -0.0105213351
C  C48  1  0.80119000  0.31035000  0.16780000  1.0 -0.0105213351
C  C49  1  0.48001000  0.36348000  0.71765000  1.0 -0.0488089819
C  C50  1  0.51999000  0.86348000  0.78235000  1.0 -0.0488089819
C  C51  1  0.51999000  0.63652000  0.28235000  1.0 -0.0488089819
C  C52  1  0.48001000  0.13652000  0.21765000  1.0 -0.0488089819
C  C53  1  0.42167000  0.32972000  0.75533000  1.0 -0.1596850429
C  C54  1  0.57833000  0.82972000  0.74467000  1.0 -0.1596850429
C  C55  1  0.57833000  0.67028000  0.24467000  1.0 -0.1596850429
C  C56  1  0.42167000  0.17028000  0.25533000  1.0 -0.1596850429
C  C57  1  0.46346000  0.39131000  0.64411000  1.0 -0.0427864215
C  C58  1  0.53654000  0.89131000  0.85589000  1.0 -0.0427864215
C  C59  1  0.53654000  0.60869000  0.35589000  1.0 -0.0427864215
C  C60  1  0.46346000  0.10869000  0.14411000  1.0 -0.0427864215
C  C61  1  0.72831000  0.22737000  0.64470000  1.0 0.5798232953
C  C62  1  0.27169000  0.72737000  0.85530000  1.0 0.5798232953
C  C63  1  0.27169000  0.77263000  0.35530000  1.0 0.5798232953
C  C64  1  0.72831000  0.27263000  0.14470000  1.0 0.5798232953
C  C65  1  0.15121000  0.10675000  0.74910000  1.0 -0.1702781294
C  C66  1  0.84879000  0.60675000  0.75090000  1.0 -0.1702781294
C  C67  1  0.84879000  0.89325000  0.25090000  1.0 -0.1759172653
C  C68  1  0.15121000  0.39325000  0.24910000  1.0 -0.1759172653
C  C69  1  0.07991000  0.13580000  0.73020000  1.0 0.0784104091
C  C70  1  0.92009000  0.63580000  0.76980000  1.0 0.0784104091
C  C71  1  0.92009000  0.86420000  0.26980000  1.0 0.0784104091
C  C72  1  0.07991000  0.36420000  0.23020000  1.0 0.0784104091
C  C73  1  0.84287000  0.21673000  0.72684000  1.0 -0.199503598
C  C74  1  0.15713000  0.71673000  0.77316000  1.0 -0.199503598
C  C75  1  0.15713000  0.78327000  0.27316000  1.0 -0.199503598
C  C76  1  0.84287000  0.28327000  0.22684000  1.0 -0.199503598
C  C77  1  0.01530000  0.09181000  0.73040000  1.0 -0.0889195961
C  C78  1  0.98470000  0.59181000  0.76960000  1.0 -0.0818514072
C  C79  1  0.98470000  0.90819000  0.26960000  1.0 -0.0818514072
C  C80  1  0.01530000  0.40819000  0.23040000  1.0 -0.0889195961
C  C81  1  0.82754000  0.12934000  0.62998000  1.0 -0.192066205
C  C82  1  0.17246000  0.62934000  0.87002000  1.0 -0.192066205
C  C83  1  0.17246000  0.87066000  0.37002000  1.0 -0.192066205
C  C84  1  0.82754000  0.37066000  0.12998000  1.0 -0.192066205
C  C85  1  0.91119000  0.18340000  0.74890000  1.0 0.1101252266
C  C86  1  0.08881000  0.68340000  0.75110000  1.0 0.1101252266
C  C87  1  0.08881000  0.81660000  0.25110000  1.0 0.1101252266
C  C88  1  0.91119000  0.31660000  0.24890000  1.0 0.1101252266
C  C89  1  0.89641000  0.09685000  0.65077000  1.0 0.0784104091
C  C90  1  0.10359000  0.59685000  0.84923000  1.0 0.0784104091
C  C91  1  0.10359000  0.90315000  0.34923000  1.0 0.0784104091
C  C92  1  0.89641000  0.40315000  0.15077000  1.0 0.0784104091
C  C93  1  0.09446000  0.98831000  0.76909000  1.0 -0.1702781294
C  C94  1  0.90554000  0.48831000  0.73091000  1.0 -0.1702781294
C  C95  1  0.90554000  0.01169000  0.23091000  1.0 -0.1702781294
C  C96  1  0.09446000  0.51169000  0.26909000  1.0 -0.1702781294
C  C97  1  0.02318000  0.01801000  0.75000000  1.0 0.0875633031
C  C98  1  0.97682000  0.51801000  0.75000000  1.0 0.0875633031
C  C99  1  0.97682000  0.98199000  0.25000000  1.0 0.0875633031
C  C100  1  0.02318000  0.48199000  0.25000000  1.0 0.0875633031
C  C101  1  0.50851000  0.37225000  0.58584000  1.0 0.2753059293
C  C102  1  0.49149000  0.87225000  0.91416000  1.0 0.2753059293
C  C103  1  0.49149000  0.62775000  0.41416000  1.0 0.2753059293
C  C104  1  0.50851000  0.12775000  0.08584000  1.0 0.2753059293
C  C105  1  0.51741000  0.29080000  0.93576000  1.0 0.5408251907
C  C106  1  0.48259000  0.79080000  0.56424000  1.0 0.5408251907
C  C107  1  0.48259000  0.70920000  0.06424000  1.0 0.5408251907
C  C108  1  0.51741000  0.20920000  0.43576000  1.0 0.5408251907
C  C109  1  0.48186000  0.61709000  0.74426000  1.0 -0.1206458871
C  C110  1  0.51814000  0.11709000  0.75574000  1.0 -0.1206458871
C  C111  1  0.51814000  0.38291000  0.25574000  1.0 -0.1206458871
C  C112  1  0.48186000  0.88291000  0.24426000  1.0 -0.1206458871
C  C113  1  0.44002000  0.66666667  0.79621000  1.0 -0.1206458871
C  C114  1  0.55998000  0.16662000  0.70379000  1.0 -0.1206458871
C  C115  1  0.55998000  0.33338000  0.20379000  1.0 -0.1206458871
C  C116  1  0.44002000  0.83338000  0.29621000  1.0 -0.1206458871
C  C117  1  0.46970000  0.58167000  0.89293000  1.0 -0.1096192424
C  C118  1  0.53030000  0.08167000  0.60707000  1.0 -0.1096192424
C  C119  1  0.53030000  0.41833000  0.10707000  1.0 -0.1096192424
C  C120  1  0.46970000  0.91833000  0.39293000  1.0 -0.1096192424
C  C121  1  0.55582000  0.68142000  0.86912000  1.0 -0.1206458871
C  C122  1  0.44418000  0.18142000  0.63088000  1.0 -0.1206458871
C  C123  1  0.44418000  0.31858000  0.13088000  1.0 -0.1206458871
C  C124  1  0.55582000  0.81858000  0.36912000  1.0 -0.1206458871
C  C125  1  0.59767000  0.63202000  0.81680000  1.0 -0.1206458871
C  C126  1  0.40233000  0.13202000  0.68320000  1.0 -0.1206458871
C  C127  1  0.40233000  0.36798000  0.18320000  1.0 -0.1206458871
C  C128  1  0.59767000  0.86798000  0.31680000  1.0 -0.1206458871
C  C129  1  0.51139000  0.53171000  0.84062000  1.0 -0.1206458871
C  C130  1  0.48861000  0.03171000  0.65938000  1.0 -0.1206458871
C  C131  1  0.48861000  0.46829000  0.15938000  1.0 -0.1206458871
C  C132  1  0.51139000  0.96829000  0.34062000  1.0 -0.1206458871
C  C133  1  0.93934000  0.12362000  0.70949000  1.0 -0.0889195961
C  C134  1  0.06066000  0.62362000  0.79051000  1.0 -0.0889195961
C  C135  1  0.06066000  0.87638000  0.29051000  1.0 -0.0818514072
C  C136  1  0.93934000  0.37638000  0.20949000  1.0 -0.0818514072
N  N1  1  0.47425000  0.66062000  0.87043000  1.0 -0.1096192424
N  N2  1  0.52575000  0.16062000  0.62957000  1.0 -0.1096192424
N  N3  1  0.52575000  0.33938000  0.12957000  1.0 -0.1096192424
N  N4  1  0.47425000  0.83938000  0.37043000  1.0 -0.1096192424
N  N5  1  0.54468000  0.57657000  0.78300000  1.0 -0.0980124448
N  N6  1  0.45532000  0.07657000  0.71700000  1.0 -0.0980124448
N  N7  1  0.45532000  0.42343000  0.21700000  1.0 -0.0980124448
N  N8  1  0.54468000  0.92343000  0.28300000  1.0 -0.0980124448
O  O1  1  0.69089000  0.19971000  0.59131000  1.0 -0.5501742238
O  O2  1  0.30911000  0.69971000  0.90869000  1.0 -0.5501742238
O  O3  1  0.30911000  0.80029000  0.40869000  1.0 -0.5501742238
O  O4  1  0.69089000  0.30029000  0.09131000  1.0 -0.5501742238
O  O5  1  0.43834000  0.44407000  0.38077000  1.0 -0.5501742238
O  O6  1  0.56166000  0.94407000  0.11923000  1.0 -0.5501742238
O  O7  1  0.56166000  0.55593000  0.61923000  1.0 -0.5501742238
O  O8  1  0.43834000  0.05593000  0.88077000  1.0 -0.5501742238
O  O9  1  0.29072000  0.04544000  0.77706000  1.0 -0.5600159217
O  O10  1  0.70928000  0.54544000  0.72294000  1.0 -0.5600159217
O  O11  1  0.70928000  0.95456000  0.22294000  1.0 -0.5600159217
O  O12  1  0.29072000  0.45456000  0.27706000  1.0 -0.5600159217
O  O13  1  0.35477000  0.52248000  0.42640000  1.0 -0.5736863811
O  O14  1  0.64523000  0.02248000  0.07360000  1.0 -0.5736863811
O  O15  1  0.64523000  0.47752000  0.57360000  1.0 -0.5736863811
O  O16  1  0.35477000  0.97752000  0.92640000  1.0 -0.5736863811
O  O17  1  0.23919000  0.93855000  0.81367000  1.0 -0.5433739696
O  O18  1  0.76081000  0.43855000  0.68633000  1.0 -0.5433739696
O  O19  1  0.76081000  0.06145000  0.18633000  1.0 -0.5433739696
O  O20  1  0.23919000  0.56145000  0.31367000  1.0 -0.5433739696
O  O21  1  0.70816000  0.28273000  0.68046000  1.0 -0.5600159217
O  O22  1  0.29184000  0.78273000  0.81954000  1.0 -0.5600159217
O  O23  1  0.29184000  0.71727000  0.31954000  1.0 -0.5600159217
O  O24  1  0.70816000  0.21727000  0.18046000  1.0 -0.5600159217
O  O25  1  0.57214000  0.33069000  0.59637000  1.0 -0.6093907629
O  O26  1  0.42786000  0.83069000  0.90363000  1.0 -0.6093907629
O  O27  1  0.42786000  0.66931000  0.40363000  1.0 -0.6093907629
O  O28  1  0.57214000  0.16931000  0.09637000  1.0 -0.6093907629
O  O29  1  0.60774000  0.41127000  0.72280000  1.0 -0.5736863811
O  O30  1  0.39226000  0.91127000  0.77720000  1.0 -0.5736863811
O  O31  1  0.39226000  0.58873000  0.27720000  1.0 -0.5736863811
O  O32  1  0.60774000  0.08873000  0.22280000  1.0 -0.5736863811
O  O33  1  0.58547000  0.29467000  0.96312000  1.0 -0.5433739696
O  O34  1  0.41453000  0.79467000  0.53688000  1.0 -0.5433739696
O  O35  1  0.41453000  0.70533000  0.03688000  1.0 -0.5433739696
O  O36  1  0.58547000  0.20533000  0.46312000  1.0 -0.5433739696
O  O37  1  0.46384000  0.27119000  0.97224000  1.0 -0.5501742238
O  O38  1  0.53616000  0.77119000  0.52776000  1.0 -0.5501742238
O  O39  1  0.53616000  0.72881000  0.02776000  1.0 -0.5501742238
O  O40  1  0.46384000  0.22881000  0.47224000  1.0 -0.5501742238
O  O41  1  0.94920000  0.20610000  0.81130000  1.0 -0.3357009415
O  O42  1  0.05080000  0.70610000  0.68870000  1.0 -0.3357009415
O  O43  1  0.05080000  0.79390000  0.18870000  1.0 -0.3357009415
O  O44  1  0.94920000  0.29390000  0.31130000  1.0 -0.3357009415
O  O45  1  0.95870000  0.97130000  0.75760000  1.0 -0.3695977528
O  O46  1  0.04130000  0.47130000  0.74240000  1.0 -0.3695977528
O  O47  1  0.04130000  0.02870000  0.24240000  1.0 -0.3695977528
O  O48  1  0.95870000  0.52870000  0.25760000  1.0 -0.3695977528
O  O49  1  0.08090000  0.21250000  0.70680000  1.0 -0.3695977528
O  O50  1  0.91910000  0.71250000  0.79320000  1.0 -0.3695977528
O  O51  1  0.91910000  0.78750000  0.29320000  1.0 -0.3695977528
O  O52  1  0.08090000  0.28750000  0.20680000  1.0 -0.3695977528
O  O53  1  0.91670000  0.03050000  0.61500000  1.0 -0.3631339644
O  O54  1  0.08330000  0.53050000  0.88500000  1.0 -0.3631339644
O  O55  1  0.08330000  0.96950000  0.38500000  1.0 -0.3631339644
O  O56  1  0.91670000  0.46950000  0.11500000  1.0 -0.3631339644
