# DDEC6 charges by PACMAN v1.1 (https://github.com/mtap-research/PACMAN-charge/)
data_ROSKER_FSR_pacman
_symmetry_space_group_name_H-M   'P 1'
_cell_length_a   11.34160000
_cell_length_b   14.74040000
_cell_length_c   15.19790000
_cell_angle_alpha   90.00000000
_cell_angle_beta   90.00000000
_cell_angle_gamma   90.00000000
_symmetry_Int_Tables_number   1
_chemical_formula_structural   Mn2H4WC12(N5O3)2
_chemical_formula_sum   'Mn8 H16 W4 C48 N40 O24'
_cell_volume   2540.78067631
_cell_formula_units_Z   4
loop_
 _symmetry_equiv_pos_site_id
 _symmetry_equiv_pos_as_xyz
  1  'x, y, z'
loop_
 _atom_site_type_symbol
 _atom_site_label
 _atom_site_symmetry_multiplicity
 _atom_site_fract_x
 _atom_site_fract_y
 _atom_site_fract_z
 _atom_site_occupancy
 _atom_site_charge
Mn  Mn1  1  0.19392000  0.69358000  0.52249000  1.0 1.0606632709
Mn  Mn2  1  0.30608000  0.19358000  0.47751000  1.0 1.0606632709
Mn  Mn3  1  0.69392000  0.80642000  0.97751000  1.0 1.0654259999
Mn  Mn4  1  0.80608000  0.30642000  0.02249000  1.0 1.0606632709
Mn  Mn5  1  0.80608000  0.30642000  0.47751000  1.0 1.0606632709
Mn  Mn6  1  0.69392000  0.80642000  0.52249000  1.0 1.0606632709
Mn  Mn7  1  0.30608000  0.19358000  0.02249000  1.0 1.0606632709
Mn  Mn8  1  0.19392000  0.69358000  0.97751000  1.0 1.0654259999
H  H1  1  0.48090000  0.70420000  0.67440000  1.0 0.1717770923
H  H2  1  0.01910000  0.20420000  0.32560000  1.0 0.1717770923
H  H3  1  0.98090000  0.79580000  0.82560000  1.0 0.1717770923
H  H4  1  0.51910000  0.29580000  0.17440000  1.0 0.1717770923
H  H5  1  0.51910000  0.29580000  0.32560000  1.0 0.1717770923
H  H6  1  0.98090000  0.79580000  0.67440000  1.0 0.1717770923
H  H7  1  0.01910000  0.20420000  0.17440000  1.0 0.1717770923
H  H8  1  0.48090000  0.70420000  0.82560000  1.0 0.1717770923
H  H9  1  0.25140000  0.50270000  0.67400000  1.0 0.1717770923
H  H10  1  0.24860000  0.00270000  0.32600000  1.0 0.1717770923
H  H11  1  0.75140000  0.99730000  0.82600000  1.0 0.1717770923
H  H12  1  0.74860000  0.49730000  0.17400000  1.0 0.1717770923
H  H13  1  0.74860000  0.49730000  0.32600000  1.0 0.1717770923
H  H14  1  0.75140000  0.99730000  0.67400000  1.0 0.1717770923
H  H15  1  0.24860000  0.00270000  0.17400000  1.0 0.1717770923
H  H16  1  0.25140000  0.50270000  0.82600000  1.0 0.1717770923
W  W1  1  0.36728000  0.95300000  0.75000000  1.0 0.6170629342
W  W2  1  0.13272000  0.45300000  0.25000000  1.0 0.6170629342
W  W3  1  0.86728000  0.54700000  0.75000000  1.0 0.6170629342
W  W4  1  0.63272000  0.04700000  0.25000000  1.0 0.6170629342
C  C1  1  0.18340000  0.99410000  0.75000000  1.0 0.0074438733
C  C2  1  0.31660000  0.49410000  0.25000000  1.0 0.0074438733
C  C3  1  0.68340000  0.50590000  0.75000000  1.0 0.0074438733
C  C4  1  0.81660000  0.00590000  0.25000000  1.0 0.0074438733
C  C5  1  0.28530000  0.85443000  0.66404000  1.0 0.0404709395
C  C6  1  0.21470000  0.35443000  0.33596000  1.0 0.0404709395
C  C7  1  0.78530000  0.64557000  0.83596000  1.0 0.0404709395
C  C8  1  0.71470000  0.14557000  0.16404000  1.0 0.0404709395
C  C9  1  0.71470000  0.14557000  0.33596000  1.0 0.0404709395
C  C10  1  0.78530000  0.64557000  0.66404000  1.0 0.0404709395
C  C11  1  0.21470000  0.35443000  0.16404000  1.0 0.0404709395
C  C12  1  0.28530000  0.85443000  0.83596000  1.0 0.0404709395
C  C13  1  0.50810000  0.05220000  0.75000000  1.0 -0.0232187055
C  C14  1  0.99190000  0.55220000  0.25000000  1.0 -0.0232187055
C  C15  1  0.00810000  0.44780000  0.75000000  1.0 -0.0232187055
C  C16  1  0.49190000  0.94780000  0.25000000  1.0 -0.0232187055
C  C17  1  0.49900000  0.89594000  0.66360000  1.0 0.0493976241
C  C18  1  0.00100000  0.39594000  0.33640000  1.0 0.0493976241
C  C19  1  0.99900000  0.60406000  0.83640000  1.0 0.0493976241
C  C20  1  0.50100000  0.10406000  0.16360000  1.0 0.0493976241
C  C21  1  0.50100000  0.10406000  0.33640000  1.0 0.0493976241
C  C22  1  0.99900000  0.60406000  0.66360000  1.0 0.0493976241
C  C23  1  0.00100000  0.39594000  0.16360000  1.0 0.0493976241
C  C24  1  0.49900000  0.89594000  0.83640000  1.0 0.0493976241
C  C25  1  0.34360000  0.04080000  0.63804000  1.0 0.0852191974
C  C26  1  0.15640000  0.54080000  0.36196000  1.0 0.0826638271
C  C27  1  0.84360000  0.45920000  0.86196000  1.0 0.0826638271
C  C28  1  0.65640000  0.95920000  0.13804000  1.0 0.0852191974
C  C29  1  0.65640000  0.95920000  0.36196000  1.0 0.0826638271
C  C30  1  0.84360000  0.45920000  0.63804000  1.0 0.0852191974
C  C31  1  0.15640000  0.54080000  0.13804000  1.0 0.0852191974
C  C32  1  0.34360000  0.04080000  0.86196000  1.0 0.0826638271
C  C33  1  0.43130000  0.66517000  0.70502000  1.0 -0.0360454764
C  C34  1  0.06870000  0.16517000  0.29498000  1.0 -0.0360454764
C  C35  1  0.93130000  0.83483000  0.79498000  1.0 -0.0360454764
C  C36  1  0.56870000  0.33483000  0.20502000  1.0 -0.0360454764
C  C37  1  0.56870000  0.33483000  0.29498000  1.0 -0.0360454764
C  C38  1  0.93130000  0.83483000  0.70502000  1.0 -0.0360454764
C  C39  1  0.06870000  0.16517000  0.20502000  1.0 -0.0360454764
C  C40  1  0.43130000  0.66517000  0.79498000  1.0 -0.0360454764
C  C41  1  0.29520000  0.54571000  0.70470000  1.0 -0.0232187055
C  C42  1  0.20480000  0.04571000  0.29530000  1.0 -0.0232187055
C  C43  1  0.79520000  0.95429000  0.79530000  1.0 -0.025363376
C  C44  1  0.70480000  0.45429000  0.20470000  1.0 -0.0232187055
C  C45  1  0.70480000  0.45429000  0.29530000  1.0 -0.0232187055
C  C46  1  0.79520000  0.95429000  0.70470000  1.0 -0.0232187055
C  C47  1  0.20480000  0.04571000  0.20470000  1.0 -0.0232187055
C  C48  1  0.29520000  0.54571000  0.79530000  1.0 -0.025363376
N  N1  1  0.08650000  0.01720000  0.75000000  1.0 -0.3113310705
N  N2  1  0.41350000  0.51720000  0.25000000  1.0 -0.3113310705
N  N3  1  0.58650000  0.48280000  0.75000000  1.0 -0.3113310705
N  N4  1  0.91350000  0.98280000  0.25000000  1.0 -0.3113310705
N  N5  1  0.24440000  0.80034000  0.61824000  1.0 -0.3423123132
N  N6  1  0.25560000  0.30034000  0.38176000  1.0 -0.3423123132
N  N7  1  0.74440000  0.69966000  0.88176000  1.0 -0.3423123132
N  N8  1  0.75560000  0.19966000  0.11824000  1.0 -0.3423123132
N  N9  1  0.75560000  0.19966000  0.38176000  1.0 -0.3423123132
N  N10  1  0.74440000  0.69966000  0.61824000  1.0 -0.3423123132
N  N11  1  0.25560000  0.30034000  0.11824000  1.0 -0.3423123132
N  N12  1  0.24440000  0.80034000  0.88176000  1.0 -0.3423123132
N  N13  1  0.58250000  0.10500000  0.75000000  1.0 -0.2708237957
N  N14  1  0.91750000  0.60500000  0.25000000  1.0 -0.2708237957
N  N15  1  0.08250000  0.39500000  0.75000000  1.0 -0.2708237957
N  N16  1  0.41750000  0.89500000  0.25000000  1.0 -0.2708237957
N  N17  1  0.56930000  0.86688000  0.61669000  1.0 -0.3711294509
N  N18  1  0.93070000  0.36688000  0.38331000  1.0 -0.3711294509
N  N19  1  0.06930000  0.63312000  0.88331000  1.0 -0.3711294509
N  N20  1  0.43070000  0.13312000  0.11669000  1.0 -0.3711294509
N  N21  1  0.43070000  0.13312000  0.38331000  1.0 -0.3711294509
N  N22  1  0.06930000  0.63312000  0.61669000  1.0 -0.3711294509
N  N23  1  0.93070000  0.36688000  0.11669000  1.0 -0.3711294509
N  N24  1  0.56930000  0.86688000  0.88331000  1.0 -0.3711294509
N  N25  1  0.33390000  0.08818000  0.57799000  1.0 -0.3711294509
N  N26  1  0.16610000  0.58818000  0.42201000  1.0 -0.3711294509
N  N27  1  0.83390000  0.41182000  0.92201000  1.0 -0.3711294509
N  N28  1  0.66610000  0.91182000  0.07799000  1.0 -0.3711294509
N  N29  1  0.66610000  0.91182000  0.42201000  1.0 -0.3711294509
N  N30  1  0.83390000  0.41182000  0.57799000  1.0 -0.3711294509
N  N31  1  0.16610000  0.58818000  0.07799000  1.0 -0.3711294509
N  N32  1  0.33390000  0.08818000  0.92201000  1.0 -0.3711294509
N  N33  1  0.35884000  0.60812000  0.66052000  1.0 0.3151943464
N  N34  1  0.14116000  0.10812000  0.33948000  1.0 0.3146398742
N  N35  1  0.85884000  0.89188000  0.83948000  1.0 0.3151943464
N  N36  1  0.64116000  0.39188000  0.16052000  1.0 0.3151943464
N  N37  1  0.64116000  0.39188000  0.33948000  1.0 0.3146398742
N  N38  1  0.85884000  0.89188000  0.66052000  1.0 0.3151943464
N  N39  1  0.14116000  0.10812000  0.16052000  1.0 0.3146398742
N  N40  1  0.35884000  0.60812000  0.83948000  1.0 0.3151943464
O  O1  1  0.34880000  0.61481000  0.57490000  1.0 -0.3544095676
O  O2  1  0.15120000  0.11481000  0.42510000  1.0 -0.3544095676
O  O3  1  0.84880000  0.88519000  0.92510000  1.0 -0.3560055416
O  O4  1  0.65120000  0.38519000  0.07490000  1.0 -0.3544095676
O  O5  1  0.65120000  0.38519000  0.42510000  1.0 -0.3544095676
O  O6  1  0.84880000  0.88519000  0.57490000  1.0 -0.3544095676
O  O7  1  0.15120000  0.11481000  0.07490000  1.0 -0.3544095676
O  O8  1  0.34880000  0.61481000  0.92510000  1.0 -0.3560055416
O  O9  1  0.32260000  0.75058000  0.42840000  1.0 -0.1307796012
O  O10  1  0.17740000  0.25058000  0.57160000  1.0 -0.1307796012
O  O11  1  0.82260000  0.74942000  0.07160000  1.0 -0.1353893946
O  O12  1  0.67740000  0.24942000  0.92840000  1.0 -0.1307796012
O  O13  1  0.67740000  0.24942000  0.57160000  1.0 -0.1307796012
O  O14  1  0.82260000  0.74942000  0.42840000  1.0 -0.1307796012
O  O15  1  0.17740000  0.25058000  0.92840000  1.0 -0.1307796012
O  O16  1  0.32260000  0.75058000  0.07160000  1.0 -0.1353893946
O  O17  1  0.06310000  0.78736000  0.46929000  1.0 -0.2708237957
O  O18  1  0.43690000  0.28736000  0.53071000  1.0 -0.2708237957
O  O19  1  0.56310000  0.71264000  0.03071000  1.0 -0.2781649153
O  O20  1  0.93690000  0.21264000  0.96929000  1.0 -0.2708237957
O  O21  1  0.93690000  0.21264000  0.53071000  1.0 -0.2708237957
O  O22  1  0.56310000  0.71264000  0.46929000  1.0 -0.2708237957
O  O23  1  0.43690000  0.28736000  0.96929000  1.0 -0.2708237957
O  O24  1  0.06310000  0.78736000  0.03071000  1.0 -0.2781649153
