# DDEC6 charges by PACMAN v1.1 (https://github.com/mtap-research/PACMAN-charge/)
data_RUBTAK05_FSR_pacman
_symmetry_space_group_name_H-M   'P 1'
_cell_length_a   14.66720000
_cell_length_b   14.66720000
_cell_length_c   14.66720000
_cell_angle_alpha   60.00000000
_cell_angle_beta   60.00000000
_cell_angle_gamma   60.00000000
_symmetry_Int_Tables_number   1
_chemical_formula_structural   Zr3H16(C3O4)8
_chemical_formula_sum   'Zr6 H32 C48 O64'
_cell_volume   2231.13908479
_cell_formula_units_Z   2
loop_
 _symmetry_equiv_pos_site_id
 _symmetry_equiv_pos_as_xyz
  1  'x, y, z'
loop_
 _atom_site_type_symbol
 _atom_site_label
 _atom_site_symmetry_multiplicity
 _atom_site_fract_x
 _atom_site_fract_y
 _atom_site_fract_z
 _atom_site_occupancy
 _atom_site_charge
Zr  Zr1  1  0.88042000  0.11958000  0.11958000  1.0 1.7566964287
Zr  Zr2  1  0.11958000  0.88042000  0.88042000  1.0 1.7566964287
Zr  Zr3  1  0.11958000  0.88042000  0.11958000  1.0 1.7566964287
Zr  Zr4  1  0.88042000  0.11958000  0.88042000  1.0 1.7566964287
Zr  Zr5  1  0.11958000  0.11958000  0.88042000  1.0 1.7566964287
Zr  Zr6  1  0.88042000  0.88042000  0.11958000  1.0 1.7566964287
H  H1  1  0.86300000  0.13700000  0.42040000  1.0 0.1357898385
H  H2  1  0.13700000  0.86300000  0.57960000  1.0 0.1357898385
H  H3  1  0.42040000  0.57960000  0.86300000  1.0 0.1357898385
H  H4  1  0.57960000  0.42040000  0.13700000  1.0 0.1357898385
H  H5  1  0.42040000  0.86300000  0.13700000  1.0 0.1357898385
H  H6  1  0.57960000  0.13700000  0.86300000  1.0 0.1357898385
H  H7  1  0.86300000  0.42040000  0.57960000  1.0 0.1357898385
H  H8  1  0.13700000  0.57960000  0.42040000  1.0 0.1357898385
H  H9  1  0.13700000  0.42040000  0.86300000  1.0 0.1357898385
H  H10  1  0.86300000  0.57960000  0.13700000  1.0 0.1357898385
H  H11  1  0.57960000  0.86300000  0.42040000  1.0 0.1357898385
H  H12  1  0.42040000  0.13700000  0.57960000  1.0 0.1357898385
H  H13  1  0.13700000  0.86300000  0.42040000  1.0 0.1357898385
H  H14  1  0.86300000  0.13700000  0.57960000  1.0 0.1357898385
H  H15  1  0.57960000  0.42040000  0.86300000  1.0 0.1357898385
H  H16  1  0.42040000  0.57960000  0.13700000  1.0 0.1357898385
H  H17  1  0.57960000  0.13700000  0.42040000  1.0 0.1357898385
H  H18  1  0.42040000  0.86300000  0.57960000  1.0 0.1357898385
H  H19  1  0.13700000  0.57960000  0.86300000  1.0 0.1357898385
H  H20  1  0.86300000  0.42040000  0.13700000  1.0 0.1357898385
H  H21  1  0.86300000  0.57960000  0.42040000  1.0 0.1357898385
H  H22  1  0.13700000  0.42040000  0.57960000  1.0 0.1357898385
H  H23  1  0.42040000  0.13700000  0.86300000  1.0 0.1357898385
H  H24  1  0.57960000  0.86300000  0.13700000  1.0 0.1357898385
H  H25  1  0.09500000  0.09500000  0.09500000  1.0 0.2845154115
H  H26  1  0.09500000  0.09500000  0.71500000  1.0 0.2845154115
H  H27  1  0.09500000  0.71500000  0.09500000  1.0 0.2845154115
H  H28  1  0.71500000  0.09500000  0.09500000  1.0 0.2845154115
H  H29  1  0.90500000  0.90500000  0.28500000  1.0 0.2845154115
H  H30  1  0.90500000  0.90500000  0.90500000  1.0 0.2845154115
H  H31  1  0.90500000  0.28500000  0.90500000  1.0 0.2845154115
H  H32  1  0.28500000  0.90500000  0.90500000  1.0 0.2845154115
C  C1  1  0.00000000  0.00000000  0.30360000  1.0 0.1606334729
C  C2  1  0.00000000  0.00000000  0.69640000  1.0 0.1606334729
C  C3  1  0.30360000  0.69640000  0.00000000  1.0 0.1606334729
C  C4  1  0.69640000  0.30360000  0.00000000  1.0 0.1606334729
C  C5  1  0.30360000  0.00000000  0.00000000  1.0 0.1606334729
C  C6  1  0.69640000  0.00000000  0.00000000  1.0 0.1606334729
C  C7  1  0.00000000  0.30360000  0.69640000  1.0 0.1606334729
C  C8  1  0.00000000  0.69640000  0.30360000  1.0 0.1606334729
C  C9  1  0.00000000  0.30360000  0.00000000  1.0 0.1606334729
C  C10  1  0.00000000  0.69640000  0.00000000  1.0 0.1606334729
C  C11  1  0.69640000  0.00000000  0.30360000  1.0 0.1606334729
C  C12  1  0.30360000  0.00000000  0.69640000  1.0 0.1606334729
C  C13  1  0.00000000  0.00000000  0.40580000  1.0 -0.0026296538
C  C14  1  0.00000000  0.00000000  0.59420000  1.0 -0.0026296538
C  C15  1  0.40580000  0.59420000  0.00000000  1.0 -0.0026296538
C  C16  1  0.59420000  0.40580000  0.00000000  1.0 -0.0026296538
C  C17  1  0.40580000  0.00000000  0.00000000  1.0 -0.0026296538
C  C18  1  0.59420000  0.00000000  0.00000000  1.0 -0.0026296538
C  C19  1  0.00000000  0.40580000  0.59420000  1.0 -0.0026296538
C  C20  1  0.00000000  0.59420000  0.40580000  1.0 -0.0026296538
C  C21  1  0.00000000  0.40580000  0.00000000  1.0 -0.0026296538
C  C22  1  0.00000000  0.59420000  0.00000000  1.0 -0.0026296538
C  C23  1  0.59420000  0.00000000  0.40580000  1.0 -0.0026296538
C  C24  1  0.40580000  0.00000000  0.59420000  1.0 -0.0026296538
C  C25  1  0.91910000  0.08090000  0.45270000  1.0 -0.098460254
C  C26  1  0.08090000  0.91910000  0.54730000  1.0 -0.098460254
C  C27  1  0.45270000  0.54730000  0.91910000  1.0 -0.098460254
C  C28  1  0.54730000  0.45270000  0.08090000  1.0 -0.098460254
C  C29  1  0.45270000  0.91910000  0.08090000  1.0 -0.098460254
C  C30  1  0.54730000  0.08090000  0.91910000  1.0 -0.098460254
C  C31  1  0.91910000  0.45270000  0.54730000  1.0 -0.098460254
C  C32  1  0.08090000  0.54730000  0.45270000  1.0 -0.098460254
C  C33  1  0.08090000  0.45270000  0.91910000  1.0 -0.098460254
C  C34  1  0.91910000  0.54730000  0.08090000  1.0 -0.098460254
C  C35  1  0.54730000  0.91910000  0.45270000  1.0 -0.098460254
C  C36  1  0.45270000  0.08090000  0.54730000  1.0 -0.098460254
C  C37  1  0.08090000  0.91910000  0.45270000  1.0 -0.098460254
C  C38  1  0.91910000  0.08090000  0.54730000  1.0 -0.098460254
C  C39  1  0.54730000  0.45270000  0.91910000  1.0 -0.098460254
C  C40  1  0.45270000  0.54730000  0.08090000  1.0 -0.098460254
C  C41  1  0.54730000  0.08090000  0.45270000  1.0 -0.098460254
C  C42  1  0.45270000  0.91910000  0.54730000  1.0 -0.098460254
C  C43  1  0.08090000  0.54730000  0.91910000  1.0 -0.098460254
C  C44  1  0.91910000  0.45270000  0.08090000  1.0 -0.098460254
C  C45  1  0.91910000  0.54730000  0.45270000  1.0 -0.098460254
C  C46  1  0.08090000  0.45270000  0.54730000  1.0 -0.098460254
C  C47  1  0.45270000  0.08090000  0.91910000  1.0 -0.098460254
C  C48  1  0.54730000  0.91910000  0.08090000  1.0 -0.098460254
O  O1  1  0.92240000  0.07760000  0.26520000  1.0 -0.1603461359
O  O2  1  0.07760000  0.92240000  0.73480000  1.0 -0.1603461359
O  O3  1  0.26520000  0.73480000  0.92240000  1.0 -0.1603461359
O  O4  1  0.73480000  0.26520000  0.07760000  1.0 -0.1603461359
O  O5  1  0.26520000  0.92240000  0.07760000  1.0 -0.1603461359
O  O6  1  0.73480000  0.07760000  0.92240000  1.0 -0.1603461359
O  O7  1  0.92240000  0.26520000  0.73480000  1.0 -0.1603461359
O  O8  1  0.07760000  0.73480000  0.26520000  1.0 -0.1603461359
O  O9  1  0.07760000  0.26520000  0.92240000  1.0 -0.1603461359
O  O10  1  0.92240000  0.73480000  0.07760000  1.0 -0.1603461359
O  O11  1  0.73480000  0.92240000  0.26520000  1.0 -0.1603461359
O  O12  1  0.26520000  0.07760000  0.73480000  1.0 -0.1603461359
O  O13  1  0.07760000  0.92240000  0.26520000  1.0 -0.1603461359
O  O14  1  0.92240000  0.07760000  0.73480000  1.0 -0.1603461359
O  O15  1  0.73480000  0.26520000  0.92240000  1.0 -0.1603461359
O  O16  1  0.26520000  0.73480000  0.07760000  1.0 -0.1603461359
O  O17  1  0.73480000  0.07760000  0.26520000  1.0 -0.1603461359
O  O18  1  0.26520000  0.92240000  0.73480000  1.0 -0.1603461359
O  O19  1  0.07760000  0.73480000  0.92240000  1.0 -0.1603461359
O  O20  1  0.92240000  0.26520000  0.07760000  1.0 -0.1603461359
O  O21  1  0.92240000  0.73480000  0.26520000  1.0 -0.1603461359
O  O22  1  0.07760000  0.26520000  0.73480000  1.0 -0.1603461359
O  O23  1  0.26520000  0.07760000  0.92240000  1.0 -0.1603461359
O  O24  1  0.73480000  0.92240000  0.07760000  1.0 -0.1603461359
O  O25  1  0.06770000  0.06770000  0.06770000  1.0 -0.4017239274
O  O26  1  0.06770000  0.06770000  0.79690000  1.0 -0.4017239274
O  O27  1  0.06770000  0.79690000  0.06770000  1.0 -0.4017239274
O  O28  1  0.79690000  0.06770000  0.06770000  1.0 -0.4017239274
O  O29  1  0.93230000  0.93230000  0.20310000  1.0 -0.4017239274
O  O30  1  0.93230000  0.93230000  0.93230000  1.0 -0.4017239274
O  O31  1  0.93230000  0.20310000  0.93230000  1.0 -0.4017239274
O  O32  1  0.20310000  0.93230000  0.93230000  1.0 -0.4055415235
O  O33  1  0.87850000  0.12150000  0.26930000  1.0 -0.2220229176
O  O34  1  0.12150000  0.87850000  0.73070000  1.0 -0.2220229176
O  O35  1  0.26930000  0.73070000  0.87850000  1.0 -0.2220229176
O  O36  1  0.73070000  0.26930000  0.12150000  1.0 -0.2220229176
O  O37  1  0.26930000  0.87850000  0.12150000  1.0 -0.2220229176
O  O38  1  0.73070000  0.12150000  0.87850000  1.0 -0.2220229176
O  O39  1  0.87850000  0.26930000  0.73070000  1.0 -0.2220229176
O  O40  1  0.12150000  0.73070000  0.26930000  1.0 -0.2220229176
O  O41  1  0.12150000  0.26930000  0.87850000  1.0 -0.2220229176
O  O42  1  0.87850000  0.73070000  0.12150000  1.0 -0.2220229176
O  O43  1  0.73070000  0.87850000  0.26930000  1.0 -0.2220229176
O  O44  1  0.26930000  0.12150000  0.73070000  1.0 -0.2220229176
O  O45  1  0.12150000  0.87850000  0.26930000  1.0 -0.2220229176
O  O46  1  0.87850000  0.12150000  0.73070000  1.0 -0.2220229176
O  O47  1  0.73070000  0.26930000  0.87850000  1.0 -0.2220229176
O  O48  1  0.26930000  0.73070000  0.12150000  1.0 -0.2220229176
O  O49  1  0.73070000  0.12150000  0.26930000  1.0 -0.2220229176
O  O50  1  0.26930000  0.87850000  0.73070000  1.0 -0.2220229176
O  O51  1  0.12150000  0.73070000  0.87850000  1.0 -0.2220229176
O  O52  1  0.87850000  0.26930000  0.12150000  1.0 -0.2220229176
O  O53  1  0.87850000  0.73070000  0.26930000  1.0 -0.2220229176
O  O54  1  0.12150000  0.26930000  0.73070000  1.0 -0.2220229176
O  O55  1  0.26930000  0.12150000  0.87850000  1.0 -0.2220229176
O  O56  1  0.73070000  0.87850000  0.12150000  1.0 -0.2220229176
O  O57  1  0.05060000  0.05060000  0.05060000  1.0 -0.4017239274
O  O58  1  0.05060000  0.05060000  0.84820000  1.0 -0.4017239274
O  O59  1  0.05060000  0.84820000  0.05060000  1.0 -0.4017239274
O  O60  1  0.84820000  0.05060000  0.05060000  1.0 -0.4017239274
O  O61  1  0.94940000  0.94940000  0.15180000  1.0 -0.4017239274
O  O62  1  0.94940000  0.94940000  0.94940000  1.0 -0.4017239274
O  O63  1  0.94940000  0.15180000  0.94940000  1.0 -0.4017239274
O  O64  1  0.15180000  0.94940000  0.94940000  1.0 -0.4017239274
