# DDEC6 charges by PACMAN v1.1 (https://github.com/mtap-research/PACMAN-charge/)
data_RUBTAK03_FSR_pacman
_symmetry_space_group_name_H-M   'P 1'
_cell_length_a   14.67000000
_cell_length_b   14.67000000
_cell_length_c   14.67000000
_cell_angle_alpha   60.00000000
_cell_angle_beta   60.00000000
_cell_angle_gamma   60.00000000
_symmetry_Int_Tables_number   1
_chemical_formula_structural   Zr3H12(C3O4)8
_chemical_formula_sum   'Zr6 H24 C48 O64'
_cell_volume   2232.41711648
_cell_formula_units_Z   2
loop_
 _symmetry_equiv_pos_site_id
 _symmetry_equiv_pos_as_xyz
  1  'x, y, z'
loop_
 _atom_site_type_symbol
 _atom_site_label
 _atom_site_symmetry_multiplicity
 _atom_site_fract_x
 _atom_site_fract_y
 _atom_site_fract_z
 _atom_site_occupancy
 _atom_site_charge
Zr  Zr1  1  0.11975000  0.11975000  0.88025000  1.0 1.7485386076
Zr  Zr2  1  0.88025000  0.88025000  0.11975000  1.0 1.7485386076
Zr  Zr3  1  0.88025000  0.11975000  0.11975000  1.0 1.7485386076
Zr  Zr4  1  0.11975000  0.88025000  0.88025000  1.0 1.7485386076
Zr  Zr5  1  0.11975000  0.88025000  0.11975000  1.0 1.7485386076
Zr  Zr6  1  0.88025000  0.11975000  0.88025000  1.0 1.7485386076
H  H1  1  0.86220000  0.42000000  0.13780000  1.0 0.1501233161
H  H2  1  0.42000000  0.86220000  0.58000000  1.0 0.1501233161
H  H3  1  0.13780000  0.58000000  0.86220000  1.0 0.1501233161
H  H4  1  0.58000000  0.13780000  0.42000000  1.0 0.1501233161
H  H5  1  0.13780000  0.86220000  0.42000000  1.0 0.1501233161
H  H6  1  0.58000000  0.42000000  0.86220000  1.0 0.1501233161
H  H7  1  0.86220000  0.13780000  0.58000000  1.0 0.1501233161
H  H8  1  0.42000000  0.58000000  0.13780000  1.0 0.1501233161
H  H9  1  0.42000000  0.13780000  0.86220000  1.0 0.1501233161
H  H10  1  0.86220000  0.58000000  0.42000000  1.0 0.1501233161
H  H11  1  0.58000000  0.86220000  0.13780000  1.0 0.1501233161
H  H12  1  0.13780000  0.42000000  0.58000000  1.0 0.1501233161
H  H13  1  0.13780000  0.58000000  0.42000000  1.0 0.1501233161
H  H14  1  0.58000000  0.13780000  0.86220000  1.0 0.1501233161
H  H15  1  0.86220000  0.42000000  0.58000000  1.0 0.1501233161
H  H16  1  0.42000000  0.86220000  0.13780000  1.0 0.1501233161
H  H17  1  0.86220000  0.13780000  0.42000000  1.0 0.1501233161
H  H18  1  0.42000000  0.58000000  0.86220000  1.0 0.1501233161
H  H19  1  0.13780000  0.86220000  0.58000000  1.0 0.1501233161
H  H20  1  0.58000000  0.42000000  0.13780000  1.0 0.1501233161
H  H21  1  0.58000000  0.86220000  0.42000000  1.0 0.1501233161
H  H22  1  0.13780000  0.42000000  0.86220000  1.0 0.1501233161
H  H23  1  0.42000000  0.13780000  0.58000000  1.0 0.1501233161
H  H24  1  0.86220000  0.58000000  0.13780000  1.0 0.1501233161
C  C1  1  0.00000000  0.40558000  0.00000000  1.0 -0.0045535846
C  C2  1  0.40558000  0.00000000  0.59442000  1.0 -0.0045535846
C  C3  1  0.00000000  0.59442000  0.00000000  1.0 -0.0045535846
C  C4  1  0.59442000  0.00000000  0.40558000  1.0 -0.0045535846
C  C5  1  0.00000000  0.00000000  0.40558000  1.0 -0.0045535846
C  C6  1  0.59442000  0.40558000  0.00000000  1.0 -0.0045535846
C  C7  1  0.00000000  0.00000000  0.59442000  1.0 -0.0045535846
C  C8  1  0.40558000  0.59442000  0.00000000  1.0 -0.0045535846
C  C9  1  0.40558000  0.00000000  0.00000000  1.0 -0.0045535846
C  C10  1  0.00000000  0.59442000  0.40558000  1.0 -0.0045535846
C  C11  1  0.59442000  0.00000000  0.00000000  1.0 -0.0045535846
C  C12  1  0.00000000  0.40558000  0.59442000  1.0 -0.0045535846
C  C13  1  0.91822000  0.45246000  0.08178000  1.0 -0.0761351952
C  C14  1  0.45246000  0.91822000  0.54754000  1.0 -0.0761351952
C  C15  1  0.08178000  0.54754000  0.91822000  1.0 -0.0761351952
C  C16  1  0.54754000  0.08178000  0.45246000  1.0 -0.0761351952
C  C17  1  0.08178000  0.91822000  0.45246000  1.0 -0.0761351952
C  C18  1  0.54754000  0.45246000  0.91822000  1.0 -0.0761351952
C  C19  1  0.91822000  0.08178000  0.54754000  1.0 -0.0761351952
C  C20  1  0.45246000  0.54754000  0.08178000  1.0 -0.0761351952
C  C21  1  0.45246000  0.08178000  0.91822000  1.0 -0.0761351952
C  C22  1  0.91822000  0.54754000  0.45246000  1.0 -0.0761351952
C  C23  1  0.54754000  0.91822000  0.08178000  1.0 -0.0761351952
C  C24  1  0.08178000  0.45246000  0.54754000  1.0 -0.0761351952
C  C25  1  0.08178000  0.54754000  0.45246000  1.0 -0.0761351952
C  C26  1  0.54754000  0.08178000  0.91822000  1.0 -0.0761351952
C  C27  1  0.91822000  0.45246000  0.54754000  1.0 -0.0761351952
C  C28  1  0.45246000  0.91822000  0.08178000  1.0 -0.0761351952
C  C29  1  0.91822000  0.08178000  0.45246000  1.0 -0.0761351952
C  C30  1  0.45246000  0.54754000  0.91822000  1.0 -0.0761351952
C  C31  1  0.08178000  0.91822000  0.54754000  1.0 -0.0761351952
C  C32  1  0.54754000  0.45246000  0.08178000  1.0 -0.0761351952
C  C33  1  0.54754000  0.91822000  0.45246000  1.0 -0.0761351952
C  C34  1  0.08178000  0.45246000  0.91822000  1.0 -0.0761351952
C  C35  1  0.45246000  0.08178000  0.54754000  1.0 -0.0761351952
C  C36  1  0.91822000  0.54754000  0.08178000  1.0 -0.0761351952
C  C37  1  0.00000000  0.30358000  0.00000000  1.0 0.4983742032
C  C38  1  0.30358000  0.00000000  0.69642000  1.0 0.4983742032
C  C39  1  0.00000000  0.69642000  0.00000000  1.0 0.4983742032
C  C40  1  0.69642000  0.00000000  0.30358000  1.0 0.4983742032
C  C41  1  0.00000000  0.00000000  0.30358000  1.0 0.4983742032
C  C42  1  0.69642000  0.30358000  0.00000000  1.0 0.4983742032
C  C43  1  0.00000000  0.00000000  0.69642000  1.0 0.4983742032
C  C44  1  0.30358000  0.69642000  0.00000000  1.0 0.4983742032
C  C45  1  0.30358000  0.00000000  0.00000000  1.0 0.4983742032
C  C46  1  0.00000000  0.69642000  0.30358000  1.0 0.4983742032
C  C47  1  0.69642000  0.00000000  0.00000000  1.0 0.4983742032
C  C48  1  0.00000000  0.30358000  0.69642000  1.0 0.4983742032
O  O1  1  0.07623000  0.26423000  0.92377000  1.0 -0.2478110027
O  O2  1  0.26423000  0.07623000  0.73577000  1.0 -0.2478110027
O  O3  1  0.92377000  0.73577000  0.07623000  1.0 -0.2478110027
O  O4  1  0.73577000  0.92377000  0.26423000  1.0 -0.2478110027
O  O5  1  0.92377000  0.07623000  0.26423000  1.0 -0.2478110027
O  O6  1  0.73577000  0.26423000  0.07623000  1.0 -0.2478110027
O  O7  1  0.07623000  0.92377000  0.73577000  1.0 -0.2478110027
O  O8  1  0.26423000  0.73577000  0.92377000  1.0 -0.2478110027
O  O9  1  0.26423000  0.92377000  0.07623000  1.0 -0.2478110027
O  O10  1  0.07623000  0.73577000  0.26423000  1.0 -0.2478110027
O  O11  1  0.73577000  0.07623000  0.92377000  1.0 -0.2478110027
O  O12  1  0.92377000  0.26423000  0.73577000  1.0 -0.2478110027
O  O13  1  0.92377000  0.73577000  0.26423000  1.0 -0.2478110027
O  O14  1  0.73577000  0.92377000  0.07623000  1.0 -0.2478110027
O  O15  1  0.07623000  0.26423000  0.73577000  1.0 -0.2478110027
O  O16  1  0.26423000  0.07623000  0.92377000  1.0 -0.2478110027
O  O17  1  0.07623000  0.92377000  0.26423000  1.0 -0.2478110027
O  O18  1  0.26423000  0.73577000  0.07623000  1.0 -0.2478110027
O  O19  1  0.92377000  0.07623000  0.73577000  1.0 -0.2478110027
O  O20  1  0.73577000  0.26423000  0.92377000  1.0 -0.2478110027
O  O21  1  0.73577000  0.07623000  0.26423000  1.0 -0.2478110027
O  O22  1  0.92377000  0.26423000  0.07623000  1.0 -0.2478110027
O  O23  1  0.26423000  0.92377000  0.73577000  1.0 -0.2478110027
O  O24  1  0.07623000  0.73577000  0.92377000  1.0 -0.2478110027
O  O25  1  0.05050000  0.05050000  0.84850000  1.0 -0.3438875136
O  O26  1  0.05050000  0.05050000  0.05050000  1.0 -0.3438875136
O  O27  1  0.84850000  0.05050000  0.05050000  1.0 -0.3438875136
O  O28  1  0.05050000  0.84850000  0.05050000  1.0 -0.3438875136
O  O29  1  0.94950000  0.94950000  0.94950000  1.0 -0.3438875136
O  O30  1  0.94950000  0.94950000  0.15150000  1.0 -0.3438875136
O  O31  1  0.15150000  0.94950000  0.94950000  1.0 -0.3451145348
O  O32  1  0.94950000  0.15150000  0.94950000  1.0 -0.3438875136
O  O33  1  0.10570000  0.27070000  0.89430000  1.0 -0.2857211159
O  O34  1  0.27070000  0.10570000  0.72930000  1.0 -0.2857211159
O  O35  1  0.89430000  0.72930000  0.10570000  1.0 -0.2857211159
O  O36  1  0.72930000  0.89430000  0.27070000  1.0 -0.2857211159
O  O37  1  0.89430000  0.10570000  0.27070000  1.0 -0.2857211159
O  O38  1  0.72930000  0.27070000  0.10570000  1.0 -0.2857211159
O  O39  1  0.10570000  0.89430000  0.72930000  1.0 -0.2857211159
O  O40  1  0.27070000  0.72930000  0.89430000  1.0 -0.2857211159
O  O41  1  0.27070000  0.89430000  0.10570000  1.0 -0.2857211159
O  O42  1  0.10570000  0.72930000  0.27070000  1.0 -0.2857211159
O  O43  1  0.72930000  0.10570000  0.89430000  1.0 -0.2857211159
O  O44  1  0.89430000  0.27070000  0.72930000  1.0 -0.2857211159
O  O45  1  0.89430000  0.72930000  0.27070000  1.0 -0.2857211159
O  O46  1  0.72930000  0.89430000  0.10570000  1.0 -0.2857211159
O  O47  1  0.10570000  0.27070000  0.72930000  1.0 -0.2857211159
O  O48  1  0.27070000  0.10570000  0.89430000  1.0 -0.2857211159
O  O49  1  0.10570000  0.89430000  0.27070000  1.0 -0.2857211159
O  O50  1  0.27070000  0.72930000  0.10570000  1.0 -0.2838396487
O  O51  1  0.89430000  0.10570000  0.72930000  1.0 -0.2857211159
O  O52  1  0.72930000  0.27070000  0.89430000  1.0 -0.2857211159
O  O53  1  0.72930000  0.10570000  0.27070000  1.0 -0.2857211159
O  O54  1  0.89430000  0.27070000  0.10570000  1.0 -0.2857211159
O  O55  1  0.27070000  0.89430000  0.72930000  1.0 -0.2857211159
O  O56  1  0.10570000  0.72930000  0.89430000  1.0 -0.2857211159
O  O57  1  0.06740000  0.06740000  0.79780000  1.0 -0.3296971825
O  O58  1  0.06740000  0.06740000  0.06740000  1.0 -0.3296971825
O  O59  1  0.79780000  0.06740000  0.06740000  1.0 -0.3296971825
O  O60  1  0.06740000  0.79780000  0.06740000  1.0 -0.3296971825
O  O61  1  0.93260000  0.93260000  0.93260000  1.0 -0.3296971825
O  O62  1  0.93260000  0.93260000  0.20220000  1.0 -0.3296971825
O  O63  1  0.20220000  0.93260000  0.93260000  1.0 -0.3296971825
O  O64  1  0.93260000  0.20220000  0.93260000  1.0 -0.3296971825
