# DDEC6 charges by PACMAN v1.1 (https://github.com/mtap-research/PACMAN-charge/)
data_RUBTAK08_FSR_pacman
_symmetry_space_group_name_H-M   'P 1'
_cell_length_a   14.65590000
_cell_length_b   14.65590000
_cell_length_c   14.65590000
_cell_angle_alpha   60.00000000
_cell_angle_beta   60.00000000
_cell_angle_gamma   60.00000000
_symmetry_Int_Tables_number   1
_chemical_formula_structural   Zr3H16(C3O4)8
_chemical_formula_sum   'Zr6 H32 C48 O64'
_cell_volume   2225.98627047
_cell_formula_units_Z   2
loop_
 _symmetry_equiv_pos_site_id
 _symmetry_equiv_pos_as_xyz
  1  'x, y, z'
loop_
 _atom_site_type_symbol
 _atom_site_label
 _atom_site_symmetry_multiplicity
 _atom_site_fract_x
 _atom_site_fract_y
 _atom_site_fract_z
 _atom_site_occupancy
 _atom_site_charge
Zr  Zr1  1  0.88034000  0.11966000  0.11966000  1.0 1.7688088472
Zr  Zr2  1  0.11966000  0.88034000  0.88034000  1.0 1.7688088472
Zr  Zr3  1  0.11966000  0.88034000  0.11966000  1.0 1.7688088472
Zr  Zr4  1  0.88034000  0.11966000  0.88034000  1.0 1.7776946182
Zr  Zr5  1  0.11966000  0.11966000  0.88034000  1.0 1.7776946182
Zr  Zr6  1  0.88034000  0.88034000  0.11966000  1.0 1.7688088472
H  H1  1  0.86440000  0.13560000  0.42080000  1.0 0.1514201815
H  H2  1  0.13560000  0.86440000  0.57920000  1.0 0.1514201815
H  H3  1  0.42080000  0.57920000  0.86440000  1.0 0.1514201815
H  H4  1  0.57920000  0.42080000  0.13560000  1.0 0.1514201815
H  H5  1  0.42080000  0.86440000  0.13560000  1.0 0.1514201815
H  H6  1  0.57920000  0.13560000  0.86440000  1.0 0.1514201815
H  H7  1  0.86440000  0.42080000  0.57920000  1.0 0.1514201815
H  H8  1  0.13560000  0.57920000  0.42080000  1.0 0.1514201815
H  H9  1  0.13560000  0.42080000  0.86440000  1.0 0.1514201815
H  H10  1  0.86440000  0.57920000  0.13560000  1.0 0.1514201815
H  H11  1  0.57920000  0.86440000  0.42080000  1.0 0.1514201815
H  H12  1  0.42080000  0.13560000  0.57920000  1.0 0.1514201815
H  H13  1  0.13560000  0.86440000  0.42080000  1.0 0.1514201815
H  H14  1  0.86440000  0.13560000  0.57920000  1.0 0.1514201815
H  H15  1  0.57920000  0.42080000  0.86440000  1.0 0.1514201815
H  H16  1  0.42080000  0.57920000  0.13560000  1.0 0.1514201815
H  H17  1  0.57920000  0.13560000  0.42080000  1.0 0.1514201815
H  H18  1  0.42080000  0.86440000  0.57920000  1.0 0.1514201815
H  H19  1  0.13560000  0.57920000  0.86440000  1.0 0.1514201815
H  H20  1  0.86440000  0.42080000  0.13560000  1.0 0.1514201815
H  H21  1  0.86440000  0.57920000  0.42080000  1.0 0.1514201815
H  H22  1  0.13560000  0.42080000  0.57920000  1.0 0.1514201815
H  H23  1  0.42080000  0.13560000  0.86440000  1.0 0.1514201815
H  H24  1  0.57920000  0.86440000  0.13560000  1.0 0.1514201815
H  H25  1  0.09600000  0.09600000  0.09600000  1.0 0.3302424158
H  H26  1  0.09600000  0.09600000  0.71200000  1.0 0.3302424158
H  H27  1  0.09600000  0.71200000  0.09600000  1.0 0.3302424158
H  H28  1  0.71200000  0.09600000  0.09600000  1.0 0.3302424158
H  H29  1  0.90400000  0.90400000  0.28800000  1.0 0.3302424158
H  H30  1  0.90400000  0.90400000  0.90400000  1.0 0.3302424158
H  H31  1  0.90400000  0.28800000  0.90400000  1.0 0.3302424158
H  H32  1  0.28800000  0.90400000  0.90400000  1.0 0.3302424158
C  C1  1  0.00000000  0.00000000  0.30400000  1.0 0.0761441407
C  C2  1  0.00000000  0.00000000  0.69600000  1.0 0.0761441407
C  C3  1  0.30400000  0.69600000  0.00000000  1.0 0.0761441407
C  C4  1  0.69600000  0.30400000  0.00000000  1.0 0.0761441407
C  C5  1  0.30400000  0.00000000  0.00000000  1.0 0.0761441407
C  C6  1  0.69600000  0.00000000  0.00000000  1.0 0.0761441407
C  C7  1  0.00000000  0.30400000  0.69600000  1.0 0.0761441407
C  C8  1  0.00000000  0.69600000  0.30400000  1.0 0.0761441407
C  C9  1  0.00000000  0.30400000  0.00000000  1.0 0.0761441407
C  C10  1  0.00000000  0.69600000  0.00000000  1.0 0.0761441407
C  C11  1  0.69600000  0.00000000  0.30400000  1.0 0.0761441407
C  C12  1  0.30400000  0.00000000  0.69600000  1.0 0.0761441407
C  C13  1  0.00000000  0.00000000  0.40620000  1.0 0.0317393668
C  C14  1  0.00000000  0.00000000  0.59380000  1.0 0.0317393668
C  C15  1  0.40620000  0.59380000  0.00000000  1.0 0.0317393668
C  C16  1  0.59380000  0.40620000  0.00000000  1.0 0.0317393668
C  C17  1  0.40620000  0.00000000  0.00000000  1.0 0.0317393668
C  C18  1  0.59380000  0.00000000  0.00000000  1.0 0.0317393668
C  C19  1  0.00000000  0.40620000  0.59380000  1.0 0.0317393668
C  C20  1  0.00000000  0.59380000  0.40620000  1.0 0.0317393668
C  C21  1  0.00000000  0.40620000  0.00000000  1.0 0.0317393668
C  C22  1  0.00000000  0.59380000  0.00000000  1.0 0.0317393668
C  C23  1  0.59380000  0.00000000  0.40620000  1.0 0.0317393668
C  C24  1  0.40620000  0.00000000  0.59380000  1.0 0.0317393668
C  C25  1  0.92080000  0.07920000  0.45300000  1.0 -0.088964458
C  C26  1  0.07920000  0.92080000  0.54700000  1.0 -0.088964458
C  C27  1  0.45300000  0.54700000  0.92080000  1.0 -0.088964458
C  C28  1  0.54700000  0.45300000  0.07920000  1.0 -0.088964458
C  C29  1  0.45300000  0.92080000  0.07920000  1.0 -0.088964458
C  C30  1  0.54700000  0.07920000  0.92080000  1.0 -0.088964458
C  C31  1  0.92080000  0.45300000  0.54700000  1.0 -0.088964458
C  C32  1  0.07920000  0.54700000  0.45300000  1.0 -0.088964458
C  C33  1  0.07920000  0.45300000  0.92080000  1.0 -0.088964458
C  C34  1  0.92080000  0.54700000  0.07920000  1.0 -0.088964458
C  C35  1  0.54700000  0.92080000  0.45300000  1.0 -0.088964458
C  C36  1  0.45300000  0.07920000  0.54700000  1.0 -0.088964458
C  C37  1  0.07920000  0.92080000  0.45300000  1.0 -0.088964458
C  C38  1  0.92080000  0.07920000  0.54700000  1.0 -0.088964458
C  C39  1  0.54700000  0.45300000  0.92080000  1.0 -0.088964458
C  C40  1  0.45300000  0.54700000  0.07920000  1.0 -0.088964458
C  C41  1  0.54700000  0.07920000  0.45300000  1.0 -0.088964458
C  C42  1  0.45300000  0.92080000  0.54700000  1.0 -0.088964458
C  C43  1  0.07920000  0.54700000  0.92080000  1.0 -0.088964458
C  C44  1  0.92080000  0.45300000  0.07920000  1.0 -0.088964458
C  C45  1  0.92080000  0.54700000  0.45300000  1.0 -0.088964458
C  C46  1  0.07920000  0.45300000  0.54700000  1.0 -0.088964458
C  C47  1  0.45300000  0.07920000  0.92080000  1.0 -0.088964458
C  C48  1  0.54700000  0.92080000  0.07920000  1.0 -0.088964458
O  O1  1  0.91910000  0.08090000  0.26590000  1.0 -0.2030292463
O  O2  1  0.08090000  0.91910000  0.73410000  1.0 -0.2056885346
O  O3  1  0.26590000  0.73410000  0.91910000  1.0 -0.2030292463
O  O4  1  0.73410000  0.26590000  0.08090000  1.0 -0.2030292463
O  O5  1  0.26590000  0.91910000  0.08090000  1.0 -0.2030292463
O  O6  1  0.73410000  0.08090000  0.91910000  1.0 -0.2030292463
O  O7  1  0.91910000  0.26590000  0.73410000  1.0 -0.2030292463
O  O8  1  0.08090000  0.73410000  0.26590000  1.0 -0.2030292463
O  O9  1  0.08090000  0.26590000  0.91910000  1.0 -0.2056885346
O  O10  1  0.91910000  0.73410000  0.08090000  1.0 -0.2030292463
O  O11  1  0.73410000  0.91910000  0.26590000  1.0 -0.2056885346
O  O12  1  0.26590000  0.08090000  0.73410000  1.0 -0.2030292463
O  O13  1  0.08090000  0.91910000  0.26590000  1.0 -0.2056885346
O  O14  1  0.91910000  0.08090000  0.73410000  1.0 -0.2030292463
O  O15  1  0.73410000  0.26590000  0.91910000  1.0 -0.2056885346
O  O16  1  0.26590000  0.73410000  0.08090000  1.0 -0.2030292463
O  O17  1  0.73410000  0.08090000  0.26590000  1.0 -0.2030292463
O  O18  1  0.26590000  0.91910000  0.73410000  1.0 -0.2030292463
O  O19  1  0.08090000  0.73410000  0.91910000  1.0 -0.2030292463
O  O20  1  0.91910000  0.26590000  0.08090000  1.0 -0.2030292463
O  O21  1  0.91910000  0.73410000  0.26590000  1.0 -0.2030292463
O  O22  1  0.08090000  0.26590000  0.73410000  1.0 -0.2030292463
O  O23  1  0.26590000  0.08090000  0.91910000  1.0 -0.2030292463
O  O24  1  0.73410000  0.91910000  0.08090000  1.0 -0.2056885346
O  O25  1  0.06810000  0.06810000  0.06810000  1.0 -0.4006833528
O  O26  1  0.06810000  0.06810000  0.79570000  1.0 -0.4006833528
O  O27  1  0.06810000  0.79570000  0.06810000  1.0 -0.4006833528
O  O28  1  0.79570000  0.06810000  0.06810000  1.0 -0.4006833528
O  O29  1  0.93190000  0.93190000  0.20430000  1.0 -0.4006833528
O  O30  1  0.93190000  0.93190000  0.93190000  1.0 -0.4006833528
O  O31  1  0.93190000  0.20430000  0.93190000  1.0 -0.4006833528
O  O32  1  0.20430000  0.93190000  0.93190000  1.0 -0.4006833528
O  O33  1  0.86600000  0.13400000  0.26800000  1.0 -0.2030292463
O  O34  1  0.13400000  0.86600000  0.73200000  1.0 -0.2056885346
O  O35  1  0.26800000  0.73200000  0.86600000  1.0 -0.2056885346
O  O36  1  0.73200000  0.26800000  0.13400000  1.0 -0.2030292463
O  O37  1  0.26800000  0.86600000  0.13400000  1.0 -0.2030292463
O  O38  1  0.73200000  0.13400000  0.86600000  1.0 -0.2056885346
O  O39  1  0.86600000  0.26800000  0.73200000  1.0 -0.2056885346
O  O40  1  0.13400000  0.73200000  0.26800000  1.0 -0.2056885346
O  O41  1  0.13400000  0.26800000  0.86600000  1.0 -0.2056885346
O  O42  1  0.86600000  0.73200000  0.13400000  1.0 -0.2030292463
O  O43  1  0.73200000  0.86600000  0.26800000  1.0 -0.2030292463
O  O44  1  0.26800000  0.13400000  0.73200000  1.0 -0.2056885346
O  O45  1  0.13400000  0.86600000  0.26800000  1.0 -0.2030292463
O  O46  1  0.86600000  0.13400000  0.73200000  1.0 -0.2056885346
O  O47  1  0.73200000  0.26800000  0.86600000  1.0 -0.2030292463
O  O48  1  0.26800000  0.73200000  0.13400000  1.0 -0.2056885346
O  O49  1  0.73200000  0.13400000  0.26800000  1.0 -0.2030292463
O  O50  1  0.26800000  0.86600000  0.73200000  1.0 -0.2056885346
O  O51  1  0.13400000  0.73200000  0.86600000  1.0 -0.2056885346
O  O52  1  0.86600000  0.26800000  0.13400000  1.0 -0.2030292463
O  O53  1  0.86600000  0.73200000  0.26800000  1.0 -0.2056885346
O  O54  1  0.13400000  0.26800000  0.73200000  1.0 -0.2056885346
O  O55  1  0.26800000  0.13400000  0.86600000  1.0 -0.2030292463
O  O56  1  0.73200000  0.86600000  0.13400000  1.0 -0.2030292463
O  O57  1  0.05070000  0.05070000  0.05070000  1.0 -0.3824104314
O  O58  1  0.05070000  0.05070000  0.84790000  1.0 -0.3851218467
O  O59  1  0.05070000  0.84790000  0.05070000  1.0 -0.3824104314
O  O60  1  0.84790000  0.05070000  0.05070000  1.0 -0.3824104314
O  O61  1  0.94930000  0.94930000  0.15210000  1.0 -0.3824104314
O  O62  1  0.94930000  0.94930000  0.94930000  1.0 -0.3824104314
O  O63  1  0.94930000  0.15210000  0.94930000  1.0 -0.3824104314
O  O64  1  0.15210000  0.94930000  0.94930000  1.0 -0.3851218467
