# DDEC6 charges by PACMAN v1.1 (https://github.com/mtap-research/PACMAN-charge/)
data_RUBTAK07_FSR_pacman
_symmetry_space_group_name_H-M   'P 1'
_cell_length_a   14.66300000
_cell_length_b   14.66300000
_cell_length_c   14.66300000
_cell_angle_alpha   60.00000000
_cell_angle_beta   60.00000000
_cell_angle_gamma   60.00000000
_symmetry_Int_Tables_number   1
_chemical_formula_structural   Zr3H16(C3O4)8
_chemical_formula_sum   'Zr6 H32 C48 O64'
_cell_volume   2229.22295198
_cell_formula_units_Z   2
loop_
 _symmetry_equiv_pos_site_id
 _symmetry_equiv_pos_as_xyz
  1  'x, y, z'
loop_
 _atom_site_type_symbol
 _atom_site_label
 _atom_site_symmetry_multiplicity
 _atom_site_fract_x
 _atom_site_fract_y
 _atom_site_fract_z
 _atom_site_occupancy
 _atom_site_charge
Zr  Zr1  1  0.88045000  0.11955000  0.11955000  1.0 1.7708315158
Zr  Zr2  1  0.11955000  0.88045000  0.88045000  1.0 1.7708315158
Zr  Zr3  1  0.11955000  0.88045000  0.11955000  1.0 1.7708315158
Zr  Zr4  1  0.88045000  0.11955000  0.88045000  1.0 1.7708315158
Zr  Zr5  1  0.11955000  0.11955000  0.88045000  1.0 1.7708315158
Zr  Zr6  1  0.88045000  0.88045000  0.11955000  1.0 1.7708315158
H  H1  1  0.86300000  0.13700000  0.42000000  1.0 0.1387702113
H  H2  1  0.13700000  0.86300000  0.58000000  1.0 0.1387702113
H  H3  1  0.42000000  0.58000000  0.86300000  1.0 0.1387702113
H  H4  1  0.58000000  0.42000000  0.13700000  1.0 0.1387702113
H  H5  1  0.42000000  0.86300000  0.13700000  1.0 0.1387702113
H  H6  1  0.58000000  0.13700000  0.86300000  1.0 0.1387702113
H  H7  1  0.86300000  0.42000000  0.58000000  1.0 0.1387702113
H  H8  1  0.13700000  0.58000000  0.42000000  1.0 0.1387702113
H  H9  1  0.13700000  0.42000000  0.86300000  1.0 0.1387702113
H  H10  1  0.86300000  0.58000000  0.13700000  1.0 0.1387702113
H  H11  1  0.58000000  0.86300000  0.42000000  1.0 0.1387702113
H  H12  1  0.42000000  0.13700000  0.58000000  1.0 0.1387702113
H  H13  1  0.13700000  0.86300000  0.42000000  1.0 0.1387702113
H  H14  1  0.86300000  0.13700000  0.58000000  1.0 0.1387702113
H  H15  1  0.58000000  0.42000000  0.86300000  1.0 0.1387702113
H  H16  1  0.42000000  0.58000000  0.13700000  1.0 0.1387702113
H  H17  1  0.58000000  0.13700000  0.42000000  1.0 0.1387702113
H  H18  1  0.42000000  0.86300000  0.58000000  1.0 0.1387702113
H  H19  1  0.13700000  0.58000000  0.86300000  1.0 0.1387702113
H  H20  1  0.86300000  0.42000000  0.13700000  1.0 0.1387702113
H  H21  1  0.86300000  0.58000000  0.42000000  1.0 0.1387702113
H  H22  1  0.13700000  0.42000000  0.58000000  1.0 0.1387702113
H  H23  1  0.42000000  0.13700000  0.86300000  1.0 0.1387702113
H  H24  1  0.58000000  0.86300000  0.13700000  1.0 0.1387702113
H  H25  1  0.09530000  0.09530000  0.09530000  1.0 0.2963169196
H  H26  1  0.09530000  0.09530000  0.71410000  1.0 0.2963169196
H  H27  1  0.09530000  0.71410000  0.09530000  1.0 0.2963169196
H  H28  1  0.71410000  0.09530000  0.09530000  1.0 0.2963169196
H  H29  1  0.90470000  0.90470000  0.28590000  1.0 0.2963169196
H  H30  1  0.90470000  0.90470000  0.90470000  1.0 0.2963169196
H  H31  1  0.90470000  0.28590000  0.90470000  1.0 0.2963169196
H  H32  1  0.28590000  0.90470000  0.90470000  1.0 0.2963169196
C  C1  1  0.00000000  0.00000000  0.30380000  1.0 0.1484613385
C  C2  1  0.00000000  0.00000000  0.69620000  1.0 0.1484613385
C  C3  1  0.30380000  0.69620000  0.00000000  1.0 0.1484613385
C  C4  1  0.69620000  0.30380000  0.00000000  1.0 0.1484613385
C  C5  1  0.30380000  0.00000000  0.00000000  1.0 0.1484613385
C  C6  1  0.69620000  0.00000000  0.00000000  1.0 0.1484613385
C  C7  1  0.00000000  0.30380000  0.69620000  1.0 0.1484613385
C  C8  1  0.00000000  0.69620000  0.30380000  1.0 0.1484613385
C  C9  1  0.00000000  0.30380000  0.00000000  1.0 0.1484613385
C  C10  1  0.00000000  0.69620000  0.00000000  1.0 0.1484613385
C  C11  1  0.69620000  0.00000000  0.30380000  1.0 0.1484613385
C  C12  1  0.30380000  0.00000000  0.69620000  1.0 0.1484613385
C  C13  1  0.00000000  0.00000000  0.40560000  1.0 0.0043607799
C  C14  1  0.00000000  0.00000000  0.59440000  1.0 0.0054847283
C  C15  1  0.40560000  0.59440000  0.00000000  1.0 0.0054847283
C  C16  1  0.59440000  0.40560000  0.00000000  1.0 0.0054847283
C  C17  1  0.40560000  0.00000000  0.00000000  1.0 0.0054847283
C  C18  1  0.59440000  0.00000000  0.00000000  1.0 0.0054847283
C  C19  1  0.00000000  0.40560000  0.59440000  1.0 0.0043607799
C  C20  1  0.00000000  0.59440000  0.40560000  1.0 0.0054847283
C  C21  1  0.00000000  0.40560000  0.00000000  1.0 0.0054847283
C  C22  1  0.00000000  0.59440000  0.00000000  1.0 0.0054847283
C  C23  1  0.59440000  0.00000000  0.40560000  1.0 0.0054847283
C  C24  1  0.40560000  0.00000000  0.59440000  1.0 0.0043607799
C  C25  1  0.91920000  0.08080000  0.45240000  1.0 -0.0913955115
C  C26  1  0.08080000  0.91920000  0.54760000  1.0 -0.0913955115
C  C27  1  0.45240000  0.54760000  0.91920000  1.0 -0.0913955115
C  C28  1  0.54760000  0.45240000  0.08080000  1.0 -0.0913955115
C  C29  1  0.45240000  0.91920000  0.08080000  1.0 -0.0913955115
C  C30  1  0.54760000  0.08080000  0.91920000  1.0 -0.0913955115
C  C31  1  0.91920000  0.45240000  0.54760000  1.0 -0.0913955115
C  C32  1  0.08080000  0.54760000  0.45240000  1.0 -0.0913955115
C  C33  1  0.08080000  0.45240000  0.91920000  1.0 -0.0913955115
C  C34  1  0.91920000  0.54760000  0.08080000  1.0 -0.0913955115
C  C35  1  0.54760000  0.91920000  0.45240000  1.0 -0.0913955115
C  C36  1  0.45240000  0.08080000  0.54760000  1.0 -0.0913955115
C  C37  1  0.08080000  0.91920000  0.45240000  1.0 -0.0913955115
C  C38  1  0.91920000  0.08080000  0.54760000  1.0 -0.0913955115
C  C39  1  0.54760000  0.45240000  0.91920000  1.0 -0.0913955115
C  C40  1  0.45240000  0.54760000  0.08080000  1.0 -0.0913955115
C  C41  1  0.54760000  0.08080000  0.45240000  1.0 -0.0913955115
C  C42  1  0.45240000  0.91920000  0.54760000  1.0 -0.0913955115
C  C43  1  0.08080000  0.54760000  0.91920000  1.0 -0.0913955115
C  C44  1  0.91920000  0.45240000  0.08080000  1.0 -0.0913955115
C  C45  1  0.91920000  0.54760000  0.45240000  1.0 -0.0913955115
C  C46  1  0.08080000  0.45240000  0.54760000  1.0 -0.0913955115
C  C47  1  0.45240000  0.08080000  0.91920000  1.0 -0.0913955115
C  C48  1  0.54760000  0.91920000  0.08080000  1.0 -0.0913955115
O  O1  1  0.92190000  0.07810000  0.26510000  1.0 -0.1685279393
O  O2  1  0.07810000  0.92190000  0.73490000  1.0 -0.1685279393
O  O3  1  0.26510000  0.73490000  0.92190000  1.0 -0.1685279393
O  O4  1  0.73490000  0.26510000  0.07810000  1.0 -0.1685279393
O  O5  1  0.26510000  0.92190000  0.07810000  1.0 -0.1685279393
O  O6  1  0.73490000  0.07810000  0.92190000  1.0 -0.1685279393
O  O7  1  0.92190000  0.26510000  0.73490000  1.0 -0.1685279393
O  O8  1  0.07810000  0.73490000  0.26510000  1.0 -0.1685279393
O  O9  1  0.07810000  0.26510000  0.92190000  1.0 -0.1685279393
O  O10  1  0.92190000  0.73490000  0.07810000  1.0 -0.1685279393
O  O11  1  0.73490000  0.92190000  0.26510000  1.0 -0.1685279393
O  O12  1  0.26510000  0.07810000  0.73490000  1.0 -0.1685279393
O  O13  1  0.07810000  0.92190000  0.26510000  1.0 -0.1685279393
O  O14  1  0.92190000  0.07810000  0.73490000  1.0 -0.1685279393
O  O15  1  0.73490000  0.26510000  0.92190000  1.0 -0.1685279393
O  O16  1  0.26510000  0.73490000  0.07810000  1.0 -0.1685279393
O  O17  1  0.73490000  0.07810000  0.26510000  1.0 -0.1685279393
O  O18  1  0.26510000  0.92190000  0.73490000  1.0 -0.1685279393
O  O19  1  0.07810000  0.73490000  0.92190000  1.0 -0.1685279393
O  O20  1  0.92190000  0.26510000  0.07810000  1.0 -0.1685279393
O  O21  1  0.92190000  0.73490000  0.26510000  1.0 -0.1685279393
O  O22  1  0.07810000  0.26510000  0.73490000  1.0 -0.1685279393
O  O23  1  0.26510000  0.07810000  0.92190000  1.0 -0.1685279393
O  O24  1  0.73490000  0.92190000  0.07810000  1.0 -0.1685279393
O  O25  1  0.06800000  0.06800000  0.06800000  1.0 -0.4030673977
O  O26  1  0.06800000  0.06800000  0.79600000  1.0 -0.4030673977
O  O27  1  0.06800000  0.79600000  0.06800000  1.0 -0.4030673977
O  O28  1  0.79600000  0.06800000  0.06800000  1.0 -0.4030673977
O  O29  1  0.93200000  0.93200000  0.20400000  1.0 -0.4030673977
O  O30  1  0.93200000  0.93200000  0.93200000  1.0 -0.4030673977
O  O31  1  0.93200000  0.20400000  0.93200000  1.0 -0.4030673977
O  O32  1  0.20400000  0.93200000  0.93200000  1.0 -0.4058306611
O  O33  1  0.87590000  0.12410000  0.27090000  1.0 -0.2283327514
O  O34  1  0.12410000  0.87590000  0.72910000  1.0 -0.2283327514
O  O35  1  0.27090000  0.72910000  0.87590000  1.0 -0.2283327514
O  O36  1  0.72910000  0.27090000  0.12410000  1.0 -0.2283327514
O  O37  1  0.27090000  0.87590000  0.12410000  1.0 -0.2283327514
O  O38  1  0.72910000  0.12410000  0.87590000  1.0 -0.2283327514
O  O39  1  0.87590000  0.27090000  0.72910000  1.0 -0.2283327514
O  O40  1  0.12410000  0.72910000  0.27090000  1.0 -0.2283327514
O  O41  1  0.12410000  0.27090000  0.87590000  1.0 -0.2283327514
O  O42  1  0.87590000  0.72910000  0.12410000  1.0 -0.2283327514
O  O43  1  0.72910000  0.87590000  0.27090000  1.0 -0.2283327514
O  O44  1  0.27090000  0.12410000  0.72910000  1.0 -0.2283327514
O  O45  1  0.12410000  0.87590000  0.27090000  1.0 -0.2283327514
O  O46  1  0.87590000  0.12410000  0.72910000  1.0 -0.2283327514
O  O47  1  0.72910000  0.27090000  0.87590000  1.0 -0.2283327514
O  O48  1  0.27090000  0.72910000  0.12410000  1.0 -0.2283327514
O  O49  1  0.72910000  0.12410000  0.27090000  1.0 -0.2283327514
O  O50  1  0.27090000  0.87590000  0.72910000  1.0 -0.2283327514
O  O51  1  0.12410000  0.72910000  0.87590000  1.0 -0.2283327514
O  O52  1  0.87590000  0.27090000  0.12410000  1.0 -0.2283327514
O  O53  1  0.87590000  0.72910000  0.27090000  1.0 -0.2283327514
O  O54  1  0.12410000  0.27090000  0.72910000  1.0 -0.2283327514
O  O55  1  0.27090000  0.12410000  0.87590000  1.0 -0.2283327514
O  O56  1  0.72910000  0.87590000  0.12410000  1.0 -0.2283327514
O  O57  1  0.05070000  0.05070000  0.05070000  1.0 -0.4030673977
O  O58  1  0.05070000  0.05070000  0.84790000  1.0 -0.4030673977
O  O59  1  0.05070000  0.84790000  0.05070000  1.0 -0.4030673977
O  O60  1  0.84790000  0.05070000  0.05070000  1.0 -0.4030673977
O  O61  1  0.94930000  0.94930000  0.15210000  1.0 -0.4030673977
O  O62  1  0.94930000  0.94930000  0.94930000  1.0 -0.4030673977
O  O63  1  0.94930000  0.15210000  0.94930000  1.0 -0.4030673977
O  O64  1  0.15210000  0.94930000  0.94930000  1.0 -0.4030673977
