# DDEC6 charges by PACMAN v1.1 (https://github.com/mtap-research/PACMAN-charge/)
data_RUDQOX_ASR_pacman
_symmetry_space_group_name_H-M   'P 1'
_cell_length_a   10.72520000
_cell_length_b   11.51850000
_cell_length_c   17.74800000
_cell_angle_alpha   99.14900000
_cell_angle_beta   103.43800000
_cell_angle_gamma   104.69700000
_symmetry_Int_Tables_number   1
_chemical_formula_structural   Ag8H3C21N(O2F3)6
_chemical_formula_sum   'Ag16 H6 C42 N2 O24 F36'
_cell_volume   2006.63199535
_cell_formula_units_Z   2
loop_
 _symmetry_equiv_pos_site_id
 _symmetry_equiv_pos_as_xyz
  1  'x, y, z'
loop_
 _atom_site_type_symbol
 _atom_site_label
 _atom_site_symmetry_multiplicity
 _atom_site_fract_x
 _atom_site_fract_y
 _atom_site_fract_z
 _atom_site_occupancy
 _atom_site_charge
Ag  Ag1  1  0.17432000  0.67759000  0.10637000  1.0 0.5364298874
Ag  Ag2  1  0.82568000  0.32241000  0.89363000  1.0 0.5364298874
Ag  Ag3  1  0.04773000  0.41165000  0.10186000  1.0 0.4711389594
Ag  Ag4  1  0.95227000  0.58835000  0.89814000  1.0 0.4711389594
Ag  Ag5  1  0.06561000  0.59314000  0.23298000  1.0 0.3481025749
Ag  Ag6  1  0.93439000  0.40686000  0.76702000  1.0 0.3481025749
Ag  Ag7  1  0.20334000  0.41277000  0.26425000  1.0 0.3798540735
Ag  Ag8  1  0.79666000  0.58723000  0.73575000  1.0 0.3798540735
Ag  Ag9  1  0.82419000  0.48698000  0.40465000  1.0 0.5173965746
Ag  Ag10  1  0.17581000  0.51302000  0.59535000  1.0 0.5173965746
Ag  Ag11  1  0.91764000  0.36063000  0.25238000  1.0 0.408468967
Ag  Ag12  1  0.08236000  0.63937000  0.74762000  1.0 0.408468967
Ag  Ag13  1  0.09546000  0.53515000  0.38822000  1.0 0.3798540735
Ag  Ag14  1  0.90454000  0.46485000  0.61178000  1.0 0.3798540735
Ag  Ag15  1  0.76102000  0.03472000  0.26947000  1.0 0.4780901426
Ag  Ag16  1  0.23898000  0.96528000  0.73053000  1.0 0.4780901426
H  H1  1  0.47323000  0.83374000  0.22045000  1.0 0.1039228269
H  H2  1  0.52677000  0.16626000  0.77955000  1.0 0.1039228269
H  H3  1  0.86971000  0.82973000  0.29628000  1.0 0.1119326928
H  H4  1  0.13029000  0.17027000  0.70372000  1.0 0.1119326928
H  H5  1  0.54914000  0.48624000  0.24266000  1.0 0.1374908739
H  H6  1  0.45086000  0.51376000  0.75734000  1.0 0.1374908739
C  C1  1  0.22754000  0.53578000  0.18004000  1.0 -0.51213103
C  C2  1  0.77246000  0.46422000  0.81996000  1.0 -0.51213103
C  C3  1  0.35139000  0.58854000  0.20165000  1.0 0.0815557593
C  C4  1  0.64861000  0.41146000  0.79835000  1.0 0.0815557593
C  C5  1  0.49191000  0.65077000  0.22772000  1.0 0.0815557593
C  C6  1  0.50809000  0.34923000  0.77228000  1.0 0.0815557593
C  C7  1  0.54187000  0.77915000  0.23461000  1.0 0.0616982148
C  C8  1  0.45813000  0.22085000  0.76539000  1.0 0.0616982148
C  C9  1  0.76311000  0.77680000  0.27763000  1.0 0.0815557593
C  C10  1  0.23689000  0.22320000  0.72237000  1.0 0.0815557593
C  C11  1  0.72227000  0.64962000  0.27525000  1.0 0.089761039
C  C12  1  0.27773000  0.35038000  0.72475000  1.0 0.089761039
C  C13  1  0.58444000  0.58581000  0.24803000  1.0 -0.0953945166
C  C14  1  0.41556000  0.41419000  0.75197000  1.0 -0.0953945166
C  C15  1  0.81934000  0.58842000  0.30030000  1.0 0.0616982148
C  C16  1  0.18066000  0.41158000  0.69970000  1.0 0.0616982148
C  C17  1  0.91687000  0.54384000  0.30757000  1.0 -0.4786363191
C  C18  1  0.08313000  0.45616000  0.69243000  1.0 -0.4786363191
C  C19  1  0.74072000  0.27912000  0.06757000  1.0 0.4371008579
C  C20  1  0.25928000  0.72088000  0.93243000  1.0 0.4371008579
C  C21  1  0.60470000  0.19915000  0.00587000  1.0 0.5675893777
C  C22  1  0.39530000  0.80085000  0.99413000  1.0 0.5675893777
C  C23  1  0.99318000  0.14058000  0.17698000  1.0 0.4371008579
C  C24  1  0.00682000  0.85942000  0.82302000  1.0 0.4371008579
C  C25  1  0.94157000  0.00313000  0.12879000  1.0 0.576924836
C  C26  1  0.05843000  0.99687000  0.87121000  1.0 0.576924836
C  C27  1  0.88155000  0.24889000  0.43183000  1.0 0.4371008579
C  C28  1  0.11845000  0.75111000  0.56817000  1.0 0.4371008579
C  C29  1  0.92141000  0.14495000  0.47016000  1.0 0.5675893777
C  C30  1  0.07859000  0.85505000  0.52984000  1.0 0.5675893777
C  C31  1  0.86713000  0.63735000  0.07488000  1.0 0.4279349797
C  C32  1  0.13287000  0.36265000  0.92512000  1.0 0.4279349797
C  C33  1  0.72067000  0.62943000  0.02954000  1.0 0.576924836
C  C34  1  0.27933000  0.37057000  0.97046000  1.0 0.576924836
C  C35  1  0.29096000  0.39163000  0.44350000  1.0 0.4237640553
C  C36  1  0.70904000  0.60837000  0.55650000  1.0 0.4237640553
C  C37  1  0.36826000  0.33394000  0.50630000  1.0 0.5675893777
C  C38  1  0.63174000  0.66606000  0.49370000  1.0 0.5675893777
C  C39  1  0.23754000  0.87644000  0.26208000  1.0 0.4279349797
C  C40  1  0.76246000  0.12356000  0.73792000  1.0 0.4279349797
C  C41  1  0.29220000  0.00966000  0.31690000  1.0 0.5637107842
C  C42  1  0.70780000  0.99034000  0.68310000  1.0 0.5637107842
N  N1  1  0.67482000  0.83995000  0.25768000  1.0 -0.2102508849
N  N2  1  0.32518000  0.16005000  0.74232000  1.0 -0.2102508849
O  O1  1  0.74075000  0.29571000  0.13898000  1.0 -0.4400020735
O  O2  1  0.25925000  0.70429000  0.86102000  1.0 -0.4400020735
O  O3  1  0.83638000  0.31365000  0.03661000  1.0 -0.4716841078
O  O4  1  0.16362000  0.68635000  0.96339000  1.0 -0.4716841078
O  O5  1  0.09233000  0.21198000  0.16558000  1.0 -0.4400020735
O  O6  1  0.90767000  0.78802000  0.83442000  1.0 -0.4400020735
O  O7  1  0.92286000  0.16550000  0.22328000  1.0 -0.4716841078
O  O8  1  0.07714000  0.83450000  0.77672000  1.0 -0.4716841078
O  O9  1  0.82444000  0.22138000  0.35802000  1.0 -0.4874933139
O  O10  1  0.17556000  0.77862000  0.64198000  1.0 -0.4874933139
O  O11  1  0.90795000  0.35439000  0.47805000  1.0 -0.4786363191
O  O12  1  0.09205000  0.64561000  0.52195000  1.0 -0.4874933139
O  O13  1  0.88815000  0.64042000  0.14783000  1.0 -0.4400020735
O  O14  1  0.11185000  0.35958000  0.85217000  1.0 -0.4400020735
O  O15  1  0.94870000  0.63653000  0.03288000  1.0 -0.4874933139
O  O16  1  0.05130000  0.36347000  0.96712000  1.0 -0.4874933139
O  O17  1  0.29379000  0.35906000  0.37358000  1.0 -0.4109595365
O  O18  1  0.70621000  0.64094000  0.62642000  1.0 -0.4109595365
O  O19  1  0.23227000  0.46585000  0.47121000  1.0 -0.4556569404
O  O20  1  0.76773000  0.53415000  0.52879000  1.0 -0.4556569404
O  O21  1  0.25614000  0.86797000  0.19407000  1.0 -0.4874933139
O  O22  1  0.74386000  0.13203000  0.80593000  1.0 -0.4874933139
O  O23  1  0.17731000  0.79558000  0.29280000  1.0 -0.4540663606
O  O24  1  0.82269000  0.20442000  0.70720000  1.0 -0.4540663606
F  F1  1  0.61420000  0.08532000  0.97629000  1.0 -0.1892275206
F  F2  1  0.38580000  0.91468000  0.02371000  1.0 -0.1892275206
F  F3  1  0.50155000  0.18509000  0.03904000  1.0 -0.1837605681
F  F4  1  0.49845000  0.81491000  0.96096000  1.0 -0.1837605681
F  F5  1  0.57408000  0.25139000  0.94160000  1.0 -0.201193755
F  F6  1  0.42592000  0.74861000  0.05840000  1.0 -0.201193755
F  F7  1  0.81223000  0.97691000  0.08088000  1.0 -0.2102508849
F  F8  1  0.18777000  0.02309000  0.91912000  1.0 -0.2102508849
F  F9  1  0.93680000  0.92378000  0.17987000  1.0 -0.201193755
F  F10  1  0.06320000  0.07622000  0.82013000  1.0 -0.201193755
F  F11  1  0.02118000  0.97846000  0.08368000  1.0 -0.1713651663
F  F12  1  0.97882000  0.02154000  0.91632000  1.0 -0.1713651663
F  F13  1  0.80701000  0.06008000  0.47195000  1.0 -0.201193755
F  F14  1  0.19299000  0.93992000  0.52805000  1.0 -0.201193755
F  F15  1  0.98576000  0.08463000  0.42594000  1.0 -0.2102508849
F  F16  1  0.01424000  0.91537000  0.57406000  1.0 -0.2102508849
F  F17  1  0.00501000  0.18992000  0.54608000  1.0 -0.1892275206
F  F18  1  0.99499000  0.81008000  0.45392000  1.0 -0.1892275206
F  F19  1  0.66244000  0.68874000  0.07772000  1.0 -0.1892275206
F  F20  1  0.33756000  0.31126000  0.92228000  1.0 -0.1892275206
F  F21  1  0.64324000  0.50674000  0.00407000  1.0 -0.2102508849
F  F22  1  0.35676000  0.49326000  0.99593000  1.0 -0.2102508849
F  F23  1  0.71482000  0.67802000  0.96379000  1.0 -0.1892275206
F  F24  1  0.28518000  0.32198000  0.03621000  1.0 -0.1892275206
F  F25  1  0.46982000  0.30128000  0.48419000  1.0 -0.1892275206
F  F26  1  0.53018000  0.69872000  0.51581000  1.0 -0.1892275206
F  F27  1  0.28284000  0.23187000  0.51783000  1.0 -0.201193755
F  F28  1  0.71716000  0.76813000  0.48217000  1.0 -0.201193755
F  F29  1  0.42396000  0.41944000  0.57868000  1.0 -0.2102508849
F  F30  1  0.57604000  0.58056000  0.42132000  1.0 -0.2102508849
F  F31  1  0.42329000  0.06892000  0.32081000  1.0 -0.201193755
F  F32  1  0.57671000  0.93108000  0.67919000  1.0 -0.201193755
F  F33  1  0.28726000  0.00809000  0.39349000  1.0 -0.1837605681
F  F34  1  0.71274000  0.99191000  0.60651000  1.0 -0.1837605681
F  F35  1  0.21578000  0.08146000  0.28791000  1.0 -0.1837605681
F  F36  1  0.78422000  0.91854000  0.71209000  1.0 -0.1837605681
