# DDEC6 charges by PACMAN v1.1 (https://github.com/mtap-research/PACMAN-charge/)
data_RUFZID_ASR_pacman
_symmetry_space_group_name_H-M   'P 1'
_cell_length_a   17.54100000
_cell_length_b   17.54100000
_cell_length_c   15.83600000
_cell_angle_alpha   79.74550000
_cell_angle_beta   100.25400000
_cell_angle_gamma   102.25500000
_symmetry_Int_Tables_number   1
_chemical_formula_structural   Cu5H31C36N9O13
_chemical_formula_sum   'Cu10 H62 C72 N18 O26'
_cell_volume   4635.35244454
_cell_formula_units_Z   2
loop_
 _symmetry_equiv_pos_site_id
 _symmetry_equiv_pos_as_xyz
  1  'x, y, z'
loop_
 _atom_site_type_symbol
 _atom_site_label
 _atom_site_symmetry_multiplicity
 _atom_site_fract_x
 _atom_site_fract_y
 _atom_site_fract_z
 _atom_site_occupancy
 _atom_site_charge
Cu  Cu1  1  0.76073000  0.23927000  0.15109000  1.0 0.4189491135
Cu  Cu2  1  0.23927000  0.76073000  0.84891000  1.0 0.4189491135
Cu  Cu3  1  0.76521000  0.38651000  0.24714000  1.0 0.7649870378
Cu  Cu4  1  0.38651000  0.76521000  0.75286000  1.0 0.7649870378
Cu  Cu5  1  0.23479000  0.61349000  0.75286000  1.0 0.7649870378
Cu  Cu6  1  0.61349000  0.23479000  0.24714000  1.0 0.7649870378
Cu  Cu7  1  0.53818000  0.46182000  0.45797000  1.0 0.8276129228
Cu  Cu8  1  0.46182000  0.53818000  0.54203000  1.0 0.8276129228
Cu  Cu9  1  0.00000000  0.50000000  0.00000000  1.0 0.8276129228
Cu  Cu10  1  0.50000000  0.00000000  0.00000000  1.0 0.8232017619
H  H1  1  0.66666667  0.33333333  0.13700000  1.0 0.3892047567
H  H2  1  0.33333333  0.66666667  0.86300000  1.0 0.3892047567
H  H3  1  0.86850000  0.26030000  0.01300000  1.0 0.1388744004
H  H4  1  0.26030000  0.86850000  0.98700000  1.0 0.1388744004
H  H5  1  0.13150000  0.73970000  0.98700000  1.0 0.1388744004
H  H6  1  0.73970000  0.13150000  0.01300000  1.0 0.1388744004
H  H7  1  0.89440000  0.33720000  0.94960000  1.0 0.151564654
H  H8  1  0.33720000  0.89440000  0.05040000  1.0 0.151564654
H  H9  1  0.10560000  0.66280000  0.05040000  1.0 0.151564654
H  H10  1  0.66280000  0.10560000  0.94960000  1.0 0.151564654
H  H11  1  0.95700000  0.30300000  0.02170000  1.0 0.1587219567
H  H12  1  0.30300000  0.95700000  0.97830000  1.0 0.1587219567
H  H13  1  0.04300000  0.69700000  0.97830000  1.0 0.1587219567
H  H14  1  0.69700000  0.04300000  0.02170000  1.0 0.1587219567
H  H15  1  0.87610000  0.54750000  0.18500000  1.0 0.151564654
H  H16  1  0.54750000  0.87610000  0.81500000  1.0 0.151564654
H  H17  1  0.12390000  0.45250000  0.81500000  1.0 0.151564654
H  H18  1  0.45250000  0.12390000  0.18500000  1.0 0.151564654
H  H19  1  0.96440000  0.53720000  0.20310000  1.0 0.151564654
H  H20  1  0.53720000  0.96440000  0.79690000  1.0 0.151564654
H  H21  1  0.03560000  0.46280000  0.79690000  1.0 0.151564654
H  H22  1  0.46280000  0.03560000  0.20310000  1.0 0.151564654
H  H23  1  0.92840000  0.57340000  0.11060000  1.0 0.1587219567
H  H24  1  0.57340000  0.92840000  0.88940000  1.0 0.1587219567
H  H25  1  0.07160000  0.42660000  0.88940000  1.0 0.1587219567
H  H26  1  0.42660000  0.07160000  0.11060000  1.0 0.1587219567
H  H27  1  0.74000000  0.50040000  0.44220000  1.0 0.1587219567
H  H28  1  0.50040000  0.74000000  0.55780000  1.0 0.1587219567
H  H29  1  0.26000000  0.49960000  0.55780000  1.0 0.1587219567
H  H30  1  0.49960000  0.26000000  0.44220000  1.0 0.1587219567
H  H31  1  0.75930000  0.51910000  0.34700000  1.0 0.1388744004
H  H32  1  0.51910000  0.75930000  0.65300000  1.0 0.1388744004
H  H33  1  0.24070000  0.48090000  0.65300000  1.0 0.1388744004
H  H34  1  0.48090000  0.24070000  0.34700000  1.0 0.1388744004
H  H35  1  0.68640000  0.54580000  0.36930000  1.0 0.1587219567
H  H36  1  0.54580000  0.68640000  0.63070000  1.0 0.1587219567
H  H37  1  0.31360000  0.45420000  0.63070000  1.0 0.1587219567
H  H38  1  0.45420000  0.31360000  0.36930000  1.0 0.1587219567
H  H39  1  0.98320000  0.36820000  0.52460000  1.0 0.1388744004
H  H40  1  0.36820000  0.98320000  0.47540000  1.0 0.1388744004
H  H41  1  0.01680000  0.63180000  0.47540000  1.0 0.1388744004
H  H42  1  0.63180000  0.01680000  0.52460000  1.0 0.1388744004
H  H43  1  0.92450000  0.55730000  0.38140000  1.0 0.1292542679
H  H44  1  0.55730000  0.92450000  0.61860000  1.0 0.1292542679
H  H45  1  0.07550000  0.44270000  0.61860000  1.0 0.1292542679
H  H46  1  0.44270000  0.07550000  0.38140000  1.0 0.1292542679
H  H47  1  0.85660000  0.47360000  0.74650000  1.0 0.1292542679
H  H48  1  0.47360000  0.85660000  0.25350000  1.0 0.1292542679
H  H49  1  0.14340000  0.52640000  0.25350000  1.0 0.1292542679
H  H50  1  0.52640000  0.14340000  0.74650000  1.0 0.1292542679
H  H51  1  0.76650000  0.62330000  0.84520000  1.0 0.1292542679
H  H52  1  0.62330000  0.76650000  0.15480000  1.0 0.1292542679
H  H53  1  0.23350000  0.37670000  0.15480000  1.0 0.1292542679
H  H54  1  0.37670000  0.23350000  0.84520000  1.0 0.1292542679
H  H55  1  0.75300000  0.47220000  0.62680000  1.0 0.1292542679
H  H56  1  0.47220000  0.75300000  0.37320000  1.0 0.1292542679
H  H57  1  0.24700000  0.52780000  0.37320000  1.0 0.1292542679
H  H58  1  0.52780000  0.24700000  0.62680000  1.0 0.1292542679
H  H59  1  0.66120000  0.61320000  0.73010000  1.0 0.1292542679
H  H60  1  0.61320000  0.66120000  0.26990000  1.0 0.1292542679
H  H61  1  0.33880000  0.38680000  0.26990000  1.0 0.1292542679
H  H62  1  0.38680000  0.33880000  0.73010000  1.0 0.1292542679
C  C1  1  0.90340000  0.31060000  0.00790000  1.0 -0.4986573668
C  C2  1  0.31060000  0.90340000  0.99210000  1.0 -0.4986573668
C  C3  1  0.09660000  0.68940000  0.99210000  1.0 -0.4986573668
C  C4  1  0.68940000  0.09660000  0.00790000  1.0 -0.4986573668
C  C5  1  0.88800000  0.35840000  0.06830000  1.0 0.3793028755
C  C6  1  0.35840000  0.88800000  0.93170000  1.0 0.3793028755
C  C7  1  0.11200000  0.64160000  0.93170000  1.0 0.3793028755
C  C8  1  0.64160000  0.11200000  0.06830000  1.0 0.3793028755
C  C9  1  0.89320000  0.45460000  0.13510000  1.0 0.3892047567
C  C10  1  0.45460000  0.89320000  0.86490000  1.0 0.3892047567
C  C11  1  0.10680000  0.54540000  0.86490000  1.0 0.3892047567
C  C12  1  0.54540000  0.10680000  0.13510000  1.0 0.3892047567
C  C13  1  0.91770000  0.53550000  0.16080000  1.0 -0.5281175171
C  C14  1  0.53550000  0.91770000  0.83920000  1.0 -0.5281175171
C  C15  1  0.08230000  0.46450000  0.83920000  1.0 -0.5226998465
C  C16  1  0.46450000  0.08230000  0.16080000  1.0 -0.5281175171
C  C17  1  0.66730000  0.42930000  0.36280000  1.0 0.4054719967
C  C18  1  0.42930000  0.66730000  0.63720000  1.0 0.4054719967
C  C19  1  0.33270000  0.57070000  0.63720000  1.0 0.4054719967
C  C20  1  0.57070000  0.33270000  0.36280000  1.0 0.4054719967
C  C21  1  0.71770000  0.50530000  0.38200000  1.0 -0.5281175171
C  C22  1  0.50530000  0.71770000  0.61800000  1.0 -0.5281175171
C  C23  1  0.28230000  0.49470000  0.61800000  1.0 -0.5281175171
C  C24  1  0.49470000  0.28230000  0.38200000  1.0 -0.5281175171
C  C25  1  0.88600000  0.40180000  0.38740000  1.0 0.5577811462
C  C26  1  0.40180000  0.88600000  0.61260000  1.0 0.5577811462
C  C27  1  0.11400000  0.59820000  0.61260000  1.0 0.5577811462
C  C28  1  0.59820000  0.11400000  0.38740000  1.0 0.5577811462
C  C29  1  0.94550000  0.45470000  0.44510000  1.0 -0.001926644
C  C30  1  0.45470000  0.94550000  0.55490000  1.0 -0.001926644
C  C31  1  0.05450000  0.54530000  0.55490000  1.0 -0.001926644
C  C32  1  0.54530000  0.05450000  0.44510000  1.0 -0.001926644
C  C33  1  0.98950000  0.42290000  0.51350000  1.0 -0.1070867466
C  C34  1  0.42290000  0.98950000  0.48650000  1.0 -0.1070867466
C  C35  1  0.01050000  0.57710000  0.48650000  1.0 -0.1070867466
C  C36  1  0.57710000  0.01050000  0.51350000  1.0 -0.1070867466
C  C37  1  0.95420000  0.53260000  0.42880000  1.0 -0.1046633467
C  C38  1  0.53260000  0.95420000  0.57120000  1.0 -0.1046633467
C  C39  1  0.04580000  0.46740000  0.57120000  1.0 -0.1046633467
C  C40  1  0.46740000  0.04580000  0.42880000  1.0 -0.1046633467
C  C41  1  0.88210000  0.54410000  0.88740000  1.0 0.5261202914
C  C42  1  0.54410000  0.88210000  0.11260000  1.0 0.5261202914
C  C43  1  0.11790000  0.45590000  0.11260000  1.0 0.5261202914
C  C44  1  0.45590000  0.11790000  0.88740000  1.0 0.5261202914
C  C45  1  0.82020000  0.54340000  0.80870000  1.0 -0.001926644
C  C46  1  0.54340000  0.82020000  0.19130000  1.0 -0.001926644
C  C47  1  0.17980000  0.45660000  0.19130000  1.0 -0.001926644
C  C48  1  0.45660000  0.17980000  0.80870000  1.0 -0.001926644
C  C49  1  0.81690000  0.50190000  0.74450000  1.0 -0.0876620325
C  C50  1  0.50190000  0.81690000  0.25550000  1.0 -0.0876620325
C  C51  1  0.18310000  0.49810000  0.25550000  1.0 -0.0876620325
C  C52  1  0.49810000  0.18310000  0.74450000  1.0 -0.0876620325
C  C53  1  0.76330000  0.59030000  0.80430000  1.0 -0.1046633467
C  C54  1  0.59030000  0.76330000  0.19570000  1.0 -0.1070867466
C  C55  1  0.23670000  0.40970000  0.19570000  1.0 -0.1070867466
C  C56  1  0.40970000  0.23670000  0.80430000  1.0 -0.1070867466
C  C57  1  0.62440000  0.53040000  0.60310000  1.0 0.5684202177
C  C58  1  0.53040000  0.62440000  0.39690000  1.0 0.5684202177
C  C59  1  0.37560000  0.46960000  0.39690000  1.0 0.5684202177
C  C60  1  0.46960000  0.37560000  0.60310000  1.0 0.5684202177
C  C61  1  0.69590000  0.53830000  0.67200000  1.0 -0.0058625213
C  C62  1  0.53830000  0.69590000  0.32800000  1.0 -0.0058625213
C  C63  1  0.30410000  0.46170000  0.32800000  1.0 -0.0058625213
C  C64  1  0.46170000  0.30410000  0.67200000  1.0 -0.0058625213
C  C65  1  0.75340000  0.49980000  0.67200000  1.0 -0.1046633467
C  C66  1  0.49980000  0.75340000  0.32800000  1.0 -0.1046633467
C  C67  1  0.24660000  0.50020000  0.32800000  1.0 -0.1046633467
C  C68  1  0.50020000  0.24660000  0.67200000  1.0 -0.1046633467
C  C69  1  0.70080000  0.58420000  0.73390000  1.0 -0.1046633467
C  C70  1  0.58420000  0.70080000  0.26610000  1.0 -0.1046633467
C  C71  1  0.29920000  0.41580000  0.26610000  1.0 -0.1046633467
C  C72  1  0.41580000  0.29920000  0.73390000  1.0 -0.1046633467
N  N1  1  0.83810000  0.33410000  0.12490000  1.0 -0.257529671
N  N2  1  0.33410000  0.83810000  0.87510000  1.0 -0.257529671
N  N3  1  0.16190000  0.66590000  0.87510000  1.0 -0.257529671
N  N4  1  0.66590000  0.16190000  0.12490000  1.0 -0.257529671
N  N5  1  0.84070000  0.39550000  0.16710000  1.0 -0.257529671
N  N6  1  0.39550000  0.84070000  0.83290000  1.0 -0.257529671
N  N7  1  0.15930000  0.60450000  0.83290000  1.0 -0.257529671
N  N8  1  0.60450000  0.15930000  0.16710000  1.0 -0.257529671
N  N9  1  0.92280000  0.43340000  0.07100000  1.0 -0.4337296921
N  N10  1  0.43340000  0.92280000  0.92900000  1.0 -0.4337296921
N  N11  1  0.07720000  0.56660000  0.92900000  1.0 -0.4337296921
N  N12  1  0.56660000  0.07720000  0.07100000  1.0 -0.4337296921
N  N13  1  0.68380000  0.37920000  0.31770000  1.0 -0.2990306752
N  N14  1  0.37920000  0.68380000  0.68230000  1.0 -0.2990306752
N  N15  1  0.31620000  0.62080000  0.68230000  1.0 -0.2990306752
N  N16  1  0.62080000  0.31620000  0.31770000  1.0 -0.2990306752
N  N17  1  0.59710000  0.40290000  0.39380000  1.0 -0.4337296921
N  N18  1  0.40290000  0.59710000  0.60620000  1.0 -0.4337296921
O  O1  1  0.69370000  0.30630000  0.18170000  1.0 -0.7575177985
O  O2  1  0.30630000  0.69370000  0.81830000  1.0 -0.7575177985
O  O3  1  0.84650000  0.44170000  0.32680000  1.0 -0.5226998465
O  O4  1  0.44170000  0.84650000  0.67320000  1.0 -0.5226998465
O  O5  1  0.15350000  0.55830000  0.67320000  1.0 -0.5226998465
O  O6  1  0.55830000  0.15350000  0.32680000  1.0 -0.5226998465
O  O7  1  0.87950000  0.33090000  0.40040000  1.0 -0.472101774
O  O8  1  0.33090000  0.87950000  0.59960000  1.0 -0.472101774
O  O9  1  0.12050000  0.66910000  0.59960000  1.0 -0.472101774
O  O10  1  0.66910000  0.12050000  0.40040000  1.0 -0.472101774
O  O11  1  0.62840000  0.49480000  0.54450000  1.0 -0.472101774
O  O12  1  0.49480000  0.62840000  0.45550000  1.0 -0.472101774
O  O13  1  0.37160000  0.50520000  0.45550000  1.0 -0.472101774
O  O14  1  0.50520000  0.37160000  0.54450000  1.0 -0.472101774
O  O15  1  0.56450000  0.55790000  0.61420000  1.0 -0.5226998465
O  O16  1  0.55790000  0.56450000  0.38580000  1.0 -0.5226998465
O  O17  1  0.43550000  0.44210000  0.38580000  1.0 -0.5226998465
O  O18  1  0.44210000  0.43550000  0.61420000  1.0 -0.5226998465
O  O19  1  0.92040000  0.48960000  0.89570000  1.0 -0.4907297405
O  O20  1  0.48960000  0.92040000  0.10430000  1.0 -0.4907297405
O  O21  1  0.07960000  0.51040000  0.10430000  1.0 -0.4907297405
O  O22  1  0.51040000  0.07960000  0.89570000  1.0 -0.4907297405
O  O23  1  0.89550000  0.59170000  0.93660000  1.0 -0.472101774
O  O24  1  0.59170000  0.89550000  0.06340000  1.0 -0.472101774
O  O25  1  0.10450000  0.40830000  0.06340000  1.0 -0.472101774
O  O26  1  0.40830000  0.10450000  0.93660000  1.0 -0.472101774
