# DDEC6 charges by PACMAN v1.1 (https://github.com/mtap-research/PACMAN-charge/)
data_RUGXIB_FSR_pacman
_symmetry_space_group_name_H-M   'P 1'
_cell_length_a   7.98460000
_cell_length_b   15.10200000
_cell_length_c   16.16820000
_cell_angle_alpha   90.00000000
_cell_angle_beta   92.84500000
_cell_angle_gamma   90.00000000
_symmetry_Int_Tables_number   1
_chemical_formula_structural   DyAgH16C15N2O7
_chemical_formula_sum   'Dy4 Ag4 H64 C60 N8 O28'
_cell_volume   1947.21402445
_cell_formula_units_Z   4
loop_
 _symmetry_equiv_pos_site_id
 _symmetry_equiv_pos_as_xyz
  1  'x, y, z'
loop_
 _atom_site_type_symbol
 _atom_site_label
 _atom_site_symmetry_multiplicity
 _atom_site_fract_x
 _atom_site_fract_y
 _atom_site_fract_z
 _atom_site_occupancy
 _atom_site_charge
Dy  Dy1  1  0.95052000  0.38382000  0.54546000  1.0 2.00287209
Dy  Dy2  1  0.54948000  0.88382000  0.45454000  1.0 2.00287209
Dy  Dy3  1  0.04948000  0.61618000  0.45454000  1.0 2.00287209
Dy  Dy4  1  0.45052000  0.11618000  0.54546000  1.0 2.00287209
Ag  Ag1  1  0.39929000  0.26011000  0.02684000  1.0 0.2281839058
Ag  Ag2  1  0.10071000  0.76011000  0.97316000  1.0 0.2281839058
Ag  Ag3  1  0.60071000  0.73989000  0.97316000  1.0 0.2281839058
Ag  Ag4  1  0.89929000  0.23989000  0.02684000  1.0 0.2281839058
H  H1  1  0.99800000  0.20500000  0.48200000  1.0 0.3381682142
H  H2  1  0.50200000  0.70500000  0.51800000  1.0 0.3381682142
H  H3  1  0.00200000  0.79500000  0.51800000  1.0 0.3381682142
H  H4  1  0.49800000  0.29500000  0.48200000  1.0 0.3381682142
H  H5  1  0.86100000  0.20000000  0.52500000  1.0 0.3328326374
H  H6  1  0.63900000  0.70000000  0.47500000  1.0 0.3328326374
H  H7  1  0.13900000  0.80000000  0.47500000  1.0 0.3328326374
H  H8  1  0.36100000  0.30000000  0.52500000  1.0 0.3328326374
H  H9  1  0.10330000  0.38350000  0.76280000  1.0 0.1357662335
H  H10  1  0.39670000  0.88350000  0.23720000  1.0 0.1357662335
H  H11  1  0.89670000  0.61650000  0.23720000  1.0 0.1357662335
H  H12  1  0.60330000  0.11650000  0.76280000  1.0 0.1357662335
H  H13  1  0.99920000  0.37710000  0.89280000  1.0 0.0907755524
H  H14  1  0.50080000  0.87710000  0.10720000  1.0 0.0907755524
H  H15  1  0.00080000  0.62290000  0.10720000  1.0 0.0907755524
H  H16  1  0.49920000  0.12290000  0.89280000  1.0 0.0907755524
H  H17  1  0.02400000  0.11790000  0.89320000  1.0 0.0984735991
H  H18  1  0.47600000  0.61790000  0.10680000  1.0 0.0984735991
H  H19  1  0.97600000  0.88210000  0.10680000  1.0 0.0984735991
H  H20  1  0.52400000  0.38210000  0.89320000  1.0 0.0984735991
H  H21  1  0.13200000  0.11720000  0.76420000  1.0 0.1357662335
H  H22  1  0.36800000  0.61720000  0.23580000  1.0 0.1357662335
H  H23  1  0.86800000  0.88280000  0.23580000  1.0 0.1357662335
H  H24  1  0.63200000  0.38280000  0.76420000  1.0 0.1357662335
H  H25  1  0.23320000  0.25140000  0.33070000  1.0 0.1512007221
H  H26  1  0.26680000  0.75140000  0.66930000  1.0 0.1512007221
H  H27  1  0.76680000  0.74860000  0.66930000  1.0 0.1512007221
H  H28  1  0.73320000  0.24860000  0.33070000  1.0 0.1512007221
H  H29  1  0.32090000  0.19470000  0.20830000  1.0 0.1082386255
H  H30  1  0.17910000  0.69470000  0.79170000  1.0 0.1082386255
H  H31  1  0.67910000  0.80530000  0.79170000  1.0 0.1082386255
H  H32  1  0.82090000  0.30530000  0.20830000  1.0 0.1082386255
H  H33  1  0.25730000  0.42370000  0.09910000  1.0 0.0907755524
H  H34  1  0.24270000  0.92370000  0.90090000  1.0 0.0907755524
H  H35  1  0.74270000  0.57630000  0.90090000  1.0 0.0907755524
H  H36  1  0.75730000  0.07630000  0.09910000  1.0 0.0907755524
H  H37  1  0.17360000  0.48770000  0.21900000  1.0 0.1305039331
H  H38  1  0.32640000  0.98770000  0.78100000  1.0 0.1305039331
H  H39  1  0.82640000  0.51230000  0.78100000  1.0 0.1305039331
H  H40  1  0.67360000  0.01230000  0.21900000  1.0 0.1305039331
H  H41  1  0.55330000  0.45820000  0.32810000  1.0 0.0653656602
H  H42  1  0.94670000  0.95820000  0.67190000  1.0 0.0653656602
H  H43  1  0.44670000  0.54180000  0.67190000  1.0 0.0653656602
H  H44  1  0.05330000  0.04180000  0.32810000  1.0 0.0653656602
H  H45  1  0.61960000  0.55320000  0.35130000  1.0 0.1167369961
H  H46  1  0.88040000  0.05320000  0.64870000  1.0 0.1167369961
H  H47  1  0.38040000  0.44680000  0.64870000  1.0 0.1167369961
H  H48  1  0.11960000  0.94680000  0.35130000  1.0 0.1167369961
H  H49  1  0.47970000  0.50950000  0.40240000  1.0 0.0984735991
H  H50  1  0.02030000  0.00950000  0.59760000  1.0 0.0984735991
H  H51  1  0.52030000  0.49050000  0.59760000  1.0 0.0984735991
H  H52  1  0.97970000  0.99050000  0.40240000  1.0 0.0984735991
H  H53  1  0.50850000  0.45120000  0.34970000  1.0 0.0774666976
H  H54  1  0.99150000  0.95120000  0.65030000  1.0 0.0774666976
H  H55  1  0.49150000  0.54880000  0.65030000  1.0 0.0774666976
H  H56  1  0.00850000  0.04880000  0.34970000  1.0 0.0774666976
H  H57  1  0.67180000  0.48090000  0.30740000  1.0 0.0774666976
H  H58  1  0.82820000  0.98090000  0.69260000  1.0 0.0774666976
H  H59  1  0.32820000  0.51910000  0.69260000  1.0 0.0774666976
H  H60  1  0.17180000  0.01910000  0.30740000  1.0 0.0774666976
H  H61  1  0.57540000  0.54820000  0.36150000  1.0 0.0984735991
H  H62  1  0.92460000  0.04820000  0.63850000  1.0 0.0984735991
H  H63  1  0.42460000  0.45180000  0.63850000  1.0 0.0984735991
H  H64  1  0.07540000  0.95180000  0.36150000  1.0 0.0984735991
C  C1  1  0.13050000  0.25060000  0.74840000  1.0 0.0134280293
C  C2  1  0.36950000  0.75060000  0.25160000  1.0 0.0134280293
C  C3  1  0.86950000  0.74940000  0.25160000  1.0 0.0134280293
C  C4  1  0.63050000  0.24940000  0.74840000  1.0 0.0134280293
C  C5  1  0.08880000  0.32900000  0.78840000  1.0 -0.1705649428
C  C6  1  0.41120000  0.82900000  0.21160000  1.0 -0.1705649428
C  C7  1  0.91120000  0.67100000  0.21160000  1.0 -0.1705649428
C  C8  1  0.58880000  0.17100000  0.78840000  1.0 -0.1705649428
C  C9  1  0.02590000  0.32470000  0.86640000  1.0 0.0297682271
C  C10  1  0.47410000  0.82470000  0.13360000  1.0 0.0297682271
C  C11  1  0.97410000  0.67530000  0.13360000  1.0 0.0297682271
C  C12  1  0.52590000  0.17530000  0.86640000  1.0 0.0297682271
C  C13  1  0.04110000  0.17160000  0.86670000  1.0 0.0223605588
C  C14  1  0.45890000  0.67160000  0.13330000  1.0 0.0223605588
C  C15  1  0.95890000  0.82840000  0.13330000  1.0 0.0223605588
C  C16  1  0.54110000  0.32840000  0.86670000  1.0 0.0223605588
C  C17  1  0.10550000  0.17060000  0.78910000  1.0 -0.1642091654
C  C18  1  0.39450000  0.67060000  0.21090000  1.0 -0.1642091654
C  C19  1  0.89450000  0.82940000  0.21090000  1.0 -0.1642091654
C  C20  1  0.60550000  0.32940000  0.78910000  1.0 -0.1642091654
C  C21  1  0.19920000  0.25050000  0.66330000  1.0 0.5933328673
C  C22  1  0.30080000  0.75050000  0.33670000  1.0 0.5933328673
C  C23  1  0.80080000  0.74950000  0.33670000  1.0 0.5933328673
C  C24  1  0.69920000  0.24950000  0.66330000  1.0 0.5933328673
C  C25  1  0.13630000  0.41910000  0.36680000  1.0 0.5254794017
C  C26  1  0.36370000  0.91910000  0.63320000  1.0 0.5254794017
C  C27  1  0.86370000  0.58090000  0.63320000  1.0 0.5254794017
C  C28  1  0.63630000  0.08090000  0.36680000  1.0 0.5254794017
C  C29  1  0.19420000  0.37690000  0.28870000  1.0 0.0297682271
C  C30  1  0.30580000  0.87690000  0.71130000  1.0 0.0297682271
C  C31  1  0.80580000  0.62310000  0.71130000  1.0 0.0297682271
C  C32  1  0.69420000  0.12310000  0.28870000  1.0 0.0297682271
C  C33  1  0.23870000  0.28770000  0.28440000  1.0 -0.1548907653
C  C34  1  0.26130000  0.78770000  0.71560000  1.0 -0.1548907653
C  C35  1  0.76130000  0.71230000  0.71560000  1.0 -0.1548907653
C  C36  1  0.73870000  0.21230000  0.28440000  1.0 -0.1548907653
C  C37  1  0.29120000  0.25420000  0.21060000  1.0 0.0297682271
C  C38  1  0.20880000  0.75420000  0.78940000  1.0 0.0297682271
C  C39  1  0.70880000  0.74580000  0.78940000  1.0 0.0297682271
C  C40  1  0.79120000  0.24580000  0.21060000  1.0 0.0297682271
C  C41  1  0.25430000  0.38920000  0.14670000  1.0 -0.0011265257
C  C42  1  0.24570000  0.88920000  0.85330000  1.0 -0.0011265257
C  C43  1  0.74570000  0.61080000  0.85330000  1.0 -0.0011265257
C  C44  1  0.75430000  0.11080000  0.14670000  1.0 -0.0011265257
C  C45  1  0.20250000  0.42810000  0.21820000  1.0 -0.1705649428
C  C46  1  0.29750000  0.92810000  0.78180000  1.0 -0.1705649428
C  C47  1  0.79750000  0.57190000  0.78180000  1.0 -0.1705649428
C  C48  1  0.70250000  0.07190000  0.21820000  1.0 -0.1705649428
C  C49  1  0.71020000  0.45890000  0.43030000  1.0 0.5159905955
C  C50  1  0.78980000  0.95890000  0.56970000  1.0 0.5159905955
C  C51  1  0.28980000  0.54110000  0.56970000  1.0 0.5159905955
C  C52  1  0.21020000  0.04110000  0.43030000  1.0 0.5159905955
C  C53  1  0.57900000  0.49850000  0.37290000  1.0 -0.2533504337
C  C54  1  0.92100000  0.99850000  0.62710000  1.0 -0.2533504337
C  C55  1  0.42100000  0.50150000  0.62710000  1.0 -0.2533504337
C  C56  1  0.07900000  0.00150000  0.37290000  1.0 -0.2533504337
C  C57  1  0.60700000  0.48730000  0.35560000  1.0 -0.2612497106
C  C58  1  0.89300000  0.98730000  0.64440000  1.0 -0.2612497106
C  C59  1  0.39300000  0.51270000  0.64440000  1.0 -0.2612497106
C  C60  1  0.10700000  0.01270000  0.35560000  1.0 -0.2612497106
N  N1  1  0.00190000  0.24730000  0.90570000  1.0 -0.2020325929
N  N2  1  0.49810000  0.74730000  0.09430000  1.0 -0.2020325929
N  N3  1  0.99810000  0.75270000  0.09430000  1.0 -0.2020325929
N  N4  1  0.50190000  0.25270000  0.90570000  1.0 -0.2020325929
N  N5  1  0.30090000  0.30330000  0.14240000  1.0 -0.2020325929
N  N6  1  0.19910000  0.80330000  0.85760000  1.0 -0.2020325929
N  N7  1  0.69910000  0.69670000  0.85760000  1.0 -0.2020325929
N  N8  1  0.80090000  0.19670000  0.14240000  1.0 -0.2020325929
O  O1  1  0.28100000  0.18408000  0.64171000  1.0 -0.6527979568
O  O2  1  0.21900000  0.68408000  0.35829000  1.0 -0.6527979568
O  O3  1  0.71900000  0.81592000  0.35829000  1.0 -0.6527979568
O  O4  1  0.78100000  0.31592000  0.64171000  1.0 -0.6527979568
O  O5  1  0.17190000  0.31883000  0.61857000  1.0 -0.6832647667
O  O6  1  0.32810000  0.81883000  0.38143000  1.0 -0.6832647667
O  O7  1  0.82810000  0.68117000  0.38143000  1.0 -0.6832647667
O  O8  1  0.67190000  0.18117000  0.61857000  1.0 -0.6832647667
O  O9  1  0.09200000  0.36700000  0.42380000  1.0 -0.6571025943
O  O10  1  0.40800000  0.86700000  0.57620000  1.0 -0.6571025943
O  O11  1  0.90800000  0.63300000  0.57620000  1.0 -0.6571025943
O  O12  1  0.59200000  0.13300000  0.42380000  1.0 -0.6571025943
O  O13  1  0.13680000  0.50255000  0.36940000  1.0 -0.6571025943
O  O14  1  0.36320000  0.00255000  0.63060000  1.0 -0.6571025943
O  O15  1  0.86320000  0.49745000  0.63060000  1.0 -0.6571025943
O  O16  1  0.63680000  0.99745000  0.36940000  1.0 -0.6571025943
O  O17  1  0.68530000  0.38510000  0.46530000  1.0 -0.5422549441
O  O18  1  0.81470000  0.88510000  0.53470000  1.0 -0.5422549441
O  O19  1  0.31470000  0.61490000  0.53470000  1.0 -0.5422549441
O  O20  1  0.18530000  0.11490000  0.46530000  1.0 -0.5422549441
O  O21  1  0.83930000  0.50300000  0.45219000  1.0 -0.6571025943
O  O22  1  0.66070000  0.00300000  0.54781000  1.0 -0.6571025943
O  O23  1  0.16070000  0.49700000  0.54781000  1.0 -0.6571025943
O  O24  1  0.33930000  0.99700000  0.45219000  1.0 -0.6571025943
O  O25  1  0.92420000  0.23130000  0.50210000  1.0 -0.7077895597
O  O26  1  0.57580000  0.73130000  0.49790000  1.0 -0.7077895597
O  O27  1  0.07580000  0.76870000  0.49790000  1.0 -0.7077895597
O  O28  1  0.42420000  0.26870000  0.50210000  1.0 -0.7077895597
