# DDEC6 charges by PACMAN v1.1 (https://github.com/mtap-research/PACMAN-charge/)
data_RUHFOR_ASR_pacman
_symmetry_space_group_name_H-M   'P 1'
_cell_length_a   17.58000000
_cell_length_b   17.58000000
_cell_length_c   17.58000000
_cell_angle_alpha   90.00000000
_cell_angle_beta   90.00000000
_cell_angle_gamma   90.00000000
_symmetry_Int_Tables_number   1
_chemical_formula_structural   PrCu3C15S3O19
_chemical_formula_sum   'Pr4 Cu12 C60 S12 O76'
_cell_volume   5433.21151200
_cell_formula_units_Z   4
loop_
 _symmetry_equiv_pos_site_id
 _symmetry_equiv_pos_as_xyz
  1  'x, y, z'
loop_
 _atom_site_type_symbol
 _atom_site_label
 _atom_site_symmetry_multiplicity
 _atom_site_fract_x
 _atom_site_fract_y
 _atom_site_fract_z
 _atom_site_occupancy
 _atom_site_charge
Pr  Pr1  1  0.39864000  0.10136000  0.89864000  1.0 1.9017494886
Pr  Pr2  1  0.10136000  0.89864000  0.39864000  1.0 1.9017494886
Pr  Pr3  1  0.89864000  0.39864000  0.10136000  1.0 1.9017494886
Pr  Pr4  1  0.60136000  0.60136000  0.60136000  1.0 1.9017494886
Cu  Cu1  1  0.50127000  0.40556000  0.84804000  1.0 0.7682708372
Cu  Cu2  1  0.99873000  0.59444000  0.34804000  1.0 0.7682708372
Cu  Cu3  1  0.00127000  0.09444000  0.15196000  1.0 0.7682708372
Cu  Cu4  1  0.49873000  0.90556000  0.65196000  1.0 0.7682708372
Cu  Cu5  1  0.40556000  0.84804000  0.50127000  1.0 0.7682708372
Cu  Cu6  1  0.09444000  0.15196000  0.00127000  1.0 0.7682708372
Cu  Cu7  1  0.90556000  0.65196000  0.49873000  1.0 0.7682708372
Cu  Cu8  1  0.59444000  0.34804000  0.99873000  1.0 0.7682708372
Cu  Cu9  1  0.84804000  0.50127000  0.40556000  1.0 0.7682708372
Cu  Cu10  1  0.15196000  0.00127000  0.09444000  1.0 0.7682708372
Cu  Cu11  1  0.65196000  0.49873000  0.90556000  1.0 0.7682708372
Cu  Cu12  1  0.34804000  0.99873000  0.59444000  1.0 0.7682708372
C  C1  1  0.49230000  0.26370000  0.90900000  1.0 0.3469629307
C  C2  1  0.00770000  0.73630000  0.40900000  1.0 0.3469629307
C  C3  1  0.99230000  0.23630000  0.09100000  1.0 0.3469629307
C  C4  1  0.50770000  0.76370000  0.59100000  1.0 0.3469629307
C  C5  1  0.26370000  0.90900000  0.49230000  1.0 0.3469629307
C  C6  1  0.23630000  0.09100000  0.99230000  1.0 0.3469629307
C  C7  1  0.76370000  0.59100000  0.50770000  1.0 0.3469629307
C  C8  1  0.73630000  0.40900000  0.00770000  1.0 0.3469629307
C  C9  1  0.90900000  0.49230000  0.26370000  1.0 0.3469629307
C  C10  1  0.09100000  0.99230000  0.23630000  1.0 0.3469629307
C  C11  1  0.59100000  0.50770000  0.76370000  1.0 0.3469629307
C  C12  1  0.40900000  0.00770000  0.73630000  1.0 0.3469629307
C  C13  1  0.41360000  0.28980000  0.88530000  1.0 0.5078279693
C  C14  1  0.08640000  0.71020000  0.38530000  1.0 0.5078279693
C  C15  1  0.91360000  0.21020000  0.11470000  1.0 0.5078279693
C  C16  1  0.58640000  0.78980000  0.61470000  1.0 0.5078279693
C  C17  1  0.28980000  0.88530000  0.41360000  1.0 0.5078279693
C  C18  1  0.21020000  0.11470000  0.91360000  1.0 0.5078279693
C  C19  1  0.78980000  0.61470000  0.58640000  1.0 0.5078279693
C  C20  1  0.71020000  0.38530000  0.08640000  1.0 0.5078279693
C  C21  1  0.88530000  0.41360000  0.28980000  1.0 0.5078279693
C  C22  1  0.11470000  0.91360000  0.21020000  1.0 0.5078279693
C  C23  1  0.61470000  0.58640000  0.78980000  1.0 0.5078279693
C  C24  1  0.38530000  0.08640000  0.71020000  1.0 0.5078279693
C  C25  1  0.48710000  0.24230000  0.00040000  1.0 0.5395418176
C  C26  1  0.01290000  0.75770000  0.50040000  1.0 0.5395418176
C  C27  1  0.98710000  0.25770000  0.99960000  1.0 0.5395418176
C  C28  1  0.51290000  0.74230000  0.49960000  1.0 0.5395418176
C  C29  1  0.24230000  0.00040000  0.48710000  1.0 0.5395418176
C  C30  1  0.25770000  0.99960000  0.98710000  1.0 0.5395418176
C  C31  1  0.74230000  0.49960000  0.51290000  1.0 0.5395418176
C  C32  1  0.75770000  0.50040000  0.01290000  1.0 0.5395418176
C  C33  1  0.00040000  0.48710000  0.24230000  1.0 0.5395418176
C  C34  1  0.99960000  0.98710000  0.25770000  1.0 0.5395418176
C  C35  1  0.49960000  0.51290000  0.74230000  1.0 0.5395418176
C  C36  1  0.50040000  0.01290000  0.75770000  1.0 0.5395418176
C  C37  1  0.40100000  0.54500000  0.99700000  1.0 -0.0443543965
C  C38  1  0.09900000  0.45500000  0.49700000  1.0 -0.0443543965
C  C39  1  0.90100000  0.95500000  0.00300000  1.0 -0.0443543965
C  C40  1  0.59900000  0.04500000  0.50300000  1.0 -0.0443543965
C  C41  1  0.54500000  0.99700000  0.40100000  1.0 -0.0443543965
C  C42  1  0.95500000  0.00300000  0.90100000  1.0 -0.0443543965
C  C43  1  0.04500000  0.50300000  0.59900000  1.0 -0.0443543965
C  C44  1  0.45500000  0.49700000  0.09900000  1.0 -0.0443543965
C  C45  1  0.99700000  0.40100000  0.54500000  1.0 -0.0443543965
C  C46  1  0.00300000  0.90100000  0.95500000  1.0 -0.0456097045
C  C47  1  0.50300000  0.59900000  0.04500000  1.0 -0.0443543965
C  C48  1  0.49700000  0.09900000  0.45500000  1.0 -0.0443543965
C  C49  1  0.46500000  0.60390000  0.98900000  1.0 -0.0197016522
C  C50  1  0.03500000  0.39610000  0.48900000  1.0 -0.0197016522
C  C51  1  0.96500000  0.89610000  0.01100000  1.0 -0.0197016522
C  C52  1  0.53500000  0.10390000  0.51100000  1.0 -0.0197016522
C  C53  1  0.60390000  0.98900000  0.46500000  1.0 -0.0197016522
C  C54  1  0.89610000  0.01100000  0.96500000  1.0 -0.0197016522
C  C55  1  0.10390000  0.51100000  0.53500000  1.0 -0.0197016522
C  C56  1  0.39610000  0.48900000  0.03500000  1.0 -0.0197016522
C  C57  1  0.98900000  0.46500000  0.60390000  1.0 -0.0197016522
C  C58  1  0.01100000  0.96500000  0.89610000  1.0 -0.0197016522
C  C59  1  0.51100000  0.53500000  0.10390000  1.0 -0.0197016522
C  C60  1  0.48900000  0.03500000  0.39610000  1.0 -0.0197016522
S  S1  1  0.47100000  0.48000000  0.02850000  1.0 -0.1443916571
S  S2  1  0.02900000  0.52000000  0.52850000  1.0 -0.1443916571
S  S3  1  0.97100000  0.02000000  0.97150000  1.0 -0.1457936496
S  S4  1  0.52900000  0.98000000  0.47150000  1.0 -0.1443916571
S  S5  1  0.48000000  0.02850000  0.47100000  1.0 -0.1457936496
S  S6  1  0.02000000  0.97150000  0.97100000  1.0 -0.1443916571
S  S7  1  0.98000000  0.47150000  0.52900000  1.0 -0.1457936496
S  S8  1  0.52000000  0.52850000  0.02900000  1.0 -0.1443916571
S  S9  1  0.02850000  0.47100000  0.48000000  1.0 -0.1443916571
S  S10  1  0.97150000  0.97100000  0.02000000  1.0 -0.1443916571
S  S11  1  0.47150000  0.52900000  0.98000000  1.0 -0.1443916571
S  S12  1  0.52850000  0.02900000  0.52000000  1.0 -0.1457936496
O  O1  1  0.54610000  0.32220000  0.90210000  1.0 -0.5400769195
O  O2  1  0.95390000  0.67780000  0.40210000  1.0 -0.5400769195
O  O3  1  0.04610000  0.17780000  0.09790000  1.0 -0.5400769195
O  O4  1  0.45390000  0.82220000  0.59790000  1.0 -0.5400769195
O  O5  1  0.32220000  0.90210000  0.54610000  1.0 -0.5400769195
O  O6  1  0.17780000  0.09790000  0.04610000  1.0 -0.5400769195
O  O7  1  0.82220000  0.59790000  0.45390000  1.0 -0.5400769195
O  O8  1  0.67780000  0.40210000  0.95390000  1.0 -0.5400769195
O  O9  1  0.90210000  0.54610000  0.32220000  1.0 -0.5400769195
O  O10  1  0.09790000  0.04610000  0.17780000  1.0 -0.5400769195
O  O11  1  0.59790000  0.45390000  0.82220000  1.0 -0.5400769195
O  O12  1  0.40210000  0.95390000  0.67780000  1.0 -0.5400769195
O  O13  1  0.50900000  0.19870000  0.87310000  1.0 -0.4093682325
O  O14  1  0.99100000  0.80130000  0.37310000  1.0 -0.4093682325
O  O15  1  0.00900000  0.30130000  0.12690000  1.0 -0.4093682325
O  O16  1  0.49100000  0.69870000  0.62690000  1.0 -0.4093682325
O  O17  1  0.19870000  0.87310000  0.50900000  1.0 -0.4093682325
O  O18  1  0.30130000  0.12690000  0.00900000  1.0 -0.4093682325
O  O19  1  0.69870000  0.62690000  0.49100000  1.0 -0.4093682325
O  O20  1  0.80130000  0.37310000  0.99100000  1.0 -0.4093682325
O  O21  1  0.87310000  0.50900000  0.19870000  1.0 -0.4093682325
O  O22  1  0.12690000  0.00900000  0.30130000  1.0 -0.4093682325
O  O23  1  0.62690000  0.49100000  0.69870000  1.0 -0.4093682325
O  O24  1  0.37310000  0.99100000  0.80130000  1.0 -0.4093682325
O  O25  1  0.45310000  0.17650000  0.01210000  1.0 -0.4791231335
O  O26  1  0.04690000  0.82350000  0.51210000  1.0 -0.4791231335
O  O27  1  0.95310000  0.32350000  0.98790000  1.0 -0.4791231335
O  O28  1  0.54690000  0.67650000  0.48790000  1.0 -0.4791231335
O  O29  1  0.17650000  0.01210000  0.45310000  1.0 -0.4791231335
O  O30  1  0.32350000  0.98790000  0.95310000  1.0 -0.4791231335
O  O31  1  0.67650000  0.48790000  0.54690000  1.0 -0.4791231335
O  O32  1  0.82350000  0.51210000  0.04690000  1.0 -0.4791231335
O  O33  1  0.01210000  0.45310000  0.17650000  1.0 -0.4791231335
O  O34  1  0.98790000  0.95310000  0.32350000  1.0 -0.4791231335
O  O35  1  0.48790000  0.54690000  0.67650000  1.0 -0.4791231335
O  O36  1  0.51210000  0.04690000  0.82350000  1.0 -0.4791231335
O  O37  1  0.36080000  0.24020000  0.88900000  1.0 -0.4192219258
O  O38  1  0.13920000  0.75980000  0.38900000  1.0 -0.4192219258
O  O39  1  0.86080000  0.25980000  0.11100000  1.0 -0.4192219258
O  O40  1  0.63920000  0.74020000  0.61100000  1.0 -0.4192219258
O  O41  1  0.24020000  0.88900000  0.36080000  1.0 -0.4192219258
O  O42  1  0.25980000  0.11100000  0.86080000  1.0 -0.4192219258
O  O43  1  0.74020000  0.61100000  0.63920000  1.0 -0.4192219258
O  O44  1  0.75980000  0.38900000  0.13920000  1.0 -0.4192219258
O  O45  1  0.88900000  0.36080000  0.24020000  1.0 -0.4192219258
O  O46  1  0.11100000  0.86080000  0.25980000  1.0 -0.4192219258
O  O47  1  0.61100000  0.63920000  0.74020000  1.0 -0.4192219258
O  O48  1  0.38900000  0.13920000  0.75980000  1.0 -0.4192219258
O  O49  1  0.40190000  0.35600000  0.86760000  1.0 -0.3278966875
O  O50  1  0.09810000  0.64400000  0.36760000  1.0 -0.3278966875
O  O51  1  0.90190000  0.14400000  0.13240000  1.0 -0.3278966875
O  O52  1  0.59810000  0.85600000  0.63240000  1.0 -0.3278966875
O  O53  1  0.35600000  0.86760000  0.40190000  1.0 -0.3278966875
O  O54  1  0.14400000  0.13240000  0.90190000  1.0 -0.3278966875
O  O55  1  0.85600000  0.63240000  0.59810000  1.0 -0.3278966875
O  O56  1  0.64400000  0.36760000  0.09810000  1.0 -0.3278966875
O  O57  1  0.86760000  0.40190000  0.35600000  1.0 -0.3278966875
O  O58  1  0.13240000  0.90190000  0.14400000  1.0 -0.3278966875
O  O59  1  0.63240000  0.59810000  0.85600000  1.0 -0.3278966875
O  O60  1  0.36760000  0.09810000  0.64400000  1.0 -0.3278966875
O  O61  1  0.51910000  0.28110000  0.04630000  1.0 -0.3241815598
O  O62  1  0.98090000  0.71890000  0.54630000  1.0 -0.3241815598
O  O63  1  0.01910000  0.21890000  0.95370000  1.0 -0.3241815598
O  O64  1  0.48090000  0.78110000  0.45370000  1.0 -0.3241815598
O  O65  1  0.28110000  0.04630000  0.51910000  1.0 -0.3241815598
O  O66  1  0.21890000  0.95370000  0.01910000  1.0 -0.3241815598
O  O67  1  0.78110000  0.45370000  0.48090000  1.0 -0.3241815598
O  O68  1  0.71890000  0.54630000  0.98090000  1.0 -0.3241815598
O  O69  1  0.04630000  0.51910000  0.28110000  1.0 -0.3241815598
O  O70  1  0.95370000  0.01910000  0.21890000  1.0 -0.3241815598
O  O71  1  0.45370000  0.48090000  0.78110000  1.0 -0.3241815598
O  O72  1  0.54630000  0.98090000  0.71890000  1.0 -0.3241815598
O  O73  1  0.52950000  0.47050000  0.97050000  1.0 -0.2628958405
O  O74  1  0.97050000  0.52950000  0.47050000  1.0 -0.2628958405
O  O75  1  0.02950000  0.02950000  0.02950000  1.0 -0.2628958405
O  O76  1  0.47050000  0.97050000  0.52950000  1.0 -0.2628958405
