# DDEC6 charges by PACMAN v1.1 (https://github.com/mtap-research/PACMAN-charge/)
data_RUHFEH_FSR_pacman
_symmetry_space_group_name_H-M   'P 1'
_cell_length_a   17.52350000
_cell_length_b   17.52350000
_cell_length_c   17.52350000
_cell_angle_alpha   90.00000000
_cell_angle_beta   90.00000000
_cell_angle_gamma   90.00000000
_symmetry_Int_Tables_number   1
_chemical_formula_structural   LaCu3C15S3O20
_chemical_formula_sum   'La4 Cu12 C60 S12 O80'
_cell_volume   5380.99463110
_cell_formula_units_Z   4
loop_
 _symmetry_equiv_pos_site_id
 _symmetry_equiv_pos_as_xyz
  1  'x, y, z'
loop_
 _atom_site_type_symbol
 _atom_site_label
 _atom_site_symmetry_multiplicity
 _atom_site_fract_x
 _atom_site_fract_y
 _atom_site_fract_z
 _atom_site_occupancy
 _atom_site_charge
La  La1  1  0.10547000  0.10547000  0.10547000  1.0 1.4650837315
La  La2  1  0.39453000  0.89453000  0.60547000  1.0 1.4602457019
La  La3  1  0.89453000  0.60547000  0.39453000  1.0 1.4602457019
La  La4  1  0.60547000  0.39453000  0.89453000  1.0 1.4602457019
Cu  Cu1  1  0.91463000  0.35388000  0.99524000  1.0 0.8252339495
Cu  Cu2  1  0.58537000  0.64612000  0.49524000  1.0 0.8241303045
Cu  Cu3  1  0.08537000  0.85388000  0.50476000  1.0 0.8241303045
Cu  Cu4  1  0.41463000  0.14612000  0.00476000  1.0 0.8241303045
Cu  Cu5  1  0.99524000  0.91463000  0.35388000  1.0 0.8241303045
Cu  Cu6  1  0.49524000  0.58537000  0.64612000  1.0 0.8241303045
Cu  Cu7  1  0.50476000  0.08537000  0.85388000  1.0 0.8241303045
Cu  Cu8  1  0.00476000  0.41463000  0.14612000  1.0 0.8241303045
Cu  Cu9  1  0.35388000  0.99524000  0.91463000  1.0 0.8241303045
Cu  Cu10  1  0.64612000  0.49524000  0.58537000  1.0 0.8241303045
Cu  Cu11  1  0.85388000  0.50476000  0.08537000  1.0 0.8241303045
Cu  Cu12  1  0.14612000  0.00476000  0.41463000  1.0 0.8241303045
C  C1  1  0.02060000  0.24540000  0.00030000  1.0 0.506004436
C  C2  1  0.47940000  0.75460000  0.50030000  1.0 0.506004436
C  C3  1  0.97940000  0.74540000  0.49970000  1.0 0.506004436
C  C4  1  0.52060000  0.25460000  0.99970000  1.0 0.506004436
C  C5  1  0.00030000  0.02060000  0.24540000  1.0 0.506004436
C  C6  1  0.50030000  0.47940000  0.75460000  1.0 0.506004436
C  C7  1  0.49970000  0.97940000  0.74540000  1.0 0.506004436
C  C8  1  0.99970000  0.52060000  0.25460000  1.0 0.506004436
C  C9  1  0.24540000  0.00030000  0.02060000  1.0 0.506004436
C  C10  1  0.75460000  0.50030000  0.47940000  1.0 0.506004436
C  C11  1  0.74540000  0.49970000  0.97940000  1.0 0.506004436
C  C12  1  0.25460000  0.99970000  0.52060000  1.0 0.506004436
C  C13  1  0.01350000  0.27010000  0.08390000  1.0 0.3318217876
C  C14  1  0.48650000  0.72990000  0.58390000  1.0 0.3318217876
C  C15  1  0.98650000  0.77010000  0.41610000  1.0 0.3318217876
C  C16  1  0.51350000  0.22990000  0.91610000  1.0 0.3318217876
C  C17  1  0.08390000  0.01350000  0.27010000  1.0 0.3318217876
C  C18  1  0.58390000  0.48650000  0.72990000  1.0 0.3318217876
C  C19  1  0.41610000  0.98650000  0.77010000  1.0 0.3318217876
C  C20  1  0.91610000  0.51350000  0.22990000  1.0 0.3318217876
C  C21  1  0.27010000  0.08390000  0.01350000  1.0 0.3318217876
C  C22  1  0.72990000  0.58390000  0.48650000  1.0 0.3318217876
C  C23  1  0.77010000  0.41610000  0.98650000  1.0 0.3318217876
C  C24  1  0.22990000  0.91610000  0.51350000  1.0 0.3318217876
C  C25  1  0.09350000  0.29490000  0.11140000  1.0 0.5035509599
C  C26  1  0.40650000  0.70510000  0.61140000  1.0 0.5035509599
C  C27  1  0.90650000  0.79490000  0.38860000  1.0 0.5035509599
C  C28  1  0.59350000  0.20510000  0.88860000  1.0 0.5035509599
C  C29  1  0.11140000  0.09350000  0.29490000  1.0 0.5035509599
C  C30  1  0.61140000  0.40650000  0.70510000  1.0 0.5035509599
C  C31  1  0.38860000  0.90650000  0.79490000  1.0 0.5035509599
C  C32  1  0.88860000  0.59350000  0.20510000  1.0 0.5035509599
C  C33  1  0.29490000  0.11140000  0.09350000  1.0 0.5035509599
C  C34  1  0.70510000  0.61140000  0.40650000  1.0 0.5035509599
C  C35  1  0.79490000  0.38860000  0.90650000  1.0 0.5035509599
C  C36  1  0.20510000  0.88860000  0.59350000  1.0 0.5035509599
C  C37  1  0.10270000  0.49700000  0.94200000  1.0 -0.1345255988
C  C38  1  0.39730000  0.50300000  0.44200000  1.0 -0.1345255988
C  C39  1  0.89730000  0.99700000  0.55800000  1.0 -0.1345255988
C  C40  1  0.60270000  0.00300000  0.05800000  1.0 -0.1353267598
C  C41  1  0.94200000  0.10270000  0.49700000  1.0 -0.1345255988
C  C42  1  0.44200000  0.39730000  0.50300000  1.0 -0.1345255988
C  C43  1  0.55800000  0.89730000  0.99700000  1.0 -0.1345255988
C  C44  1  0.05800000  0.60270000  0.00300000  1.0 -0.1345255988
C  C45  1  0.49700000  0.94200000  0.10270000  1.0 -0.1353267598
C  C46  1  0.50300000  0.44200000  0.39730000  1.0 -0.1345255988
C  C47  1  0.99700000  0.55800000  0.89730000  1.0 -0.1345255988
C  C48  1  0.00300000  0.05800000  0.60270000  1.0 -0.1345255988
C  C49  1  0.06000000  0.60100000  0.04800000  1.0 -0.0078988544
C  C50  1  0.44000000  0.39900000  0.54800000  1.0 -0.0078988544
C  C51  1  0.94000000  0.10100000  0.45200000  1.0 -0.0078988544
C  C52  1  0.56000000  0.89900000  0.95200000  1.0 -0.0078988544
C  C53  1  0.04800000  0.06000000  0.60100000  1.0 -0.0078988544
C  C54  1  0.54800000  0.44000000  0.39900000  1.0 -0.0078988544
C  C55  1  0.45200000  0.94000000  0.10100000  1.0 -0.0078988544
C  C56  1  0.95200000  0.56000000  0.89900000  1.0 -0.0078988544
C  C57  1  0.60100000  0.04800000  0.06000000  1.0 -0.0078988544
C  C58  1  0.39900000  0.54800000  0.44000000  1.0 -0.0078988544
C  C59  1  0.10100000  0.45200000  0.94000000  1.0 -0.0078988544
C  C60  1  0.89900000  0.95200000  0.56000000  1.0 -0.0078988544
S  S1  1  0.01890000  0.53880000  0.97980000  1.0 0.071576005
S  S2  1  0.48110000  0.46120000  0.47980000  1.0 0.071576005
S  S3  1  0.98110000  0.03880000  0.52020000  1.0 0.071576005
S  S4  1  0.51890000  0.96120000  0.02020000  1.0 0.071576005
S  S5  1  0.97980000  0.01890000  0.53880000  1.0 0.071576005
S  S6  1  0.47980000  0.48110000  0.46120000  1.0 0.071576005
S  S7  1  0.52020000  0.98110000  0.03880000  1.0 0.071576005
S  S8  1  0.02020000  0.51890000  0.96120000  1.0 0.071576005
S  S9  1  0.53880000  0.97980000  0.01890000  1.0 0.071576005
S  S10  1  0.46120000  0.47980000  0.48110000  1.0 0.071576005
S  S11  1  0.03880000  0.52020000  0.98110000  1.0 0.071576005
S  S12  1  0.96120000  0.02020000  0.51890000  1.0 0.071576005
O  O1  1  0.98920000  0.28510000  0.95050000  1.0 -0.3413601397
O  O2  1  0.51080000  0.71490000  0.45050000  1.0 -0.3413601397
O  O3  1  0.01080000  0.78510000  0.54950000  1.0 -0.3413601397
O  O4  1  0.48920000  0.21490000  0.04950000  1.0 -0.3413601397
O  O5  1  0.95050000  0.98920000  0.28510000  1.0 -0.3413601397
O  O6  1  0.45050000  0.51080000  0.71490000  1.0 -0.3413601397
O  O7  1  0.54950000  0.01080000  0.78510000  1.0 -0.3413601397
O  O8  1  0.04950000  0.48920000  0.21490000  1.0 -0.3413601397
O  O9  1  0.28510000  0.95050000  0.98920000  1.0 -0.3413601397
O  O10  1  0.71490000  0.45050000  0.51080000  1.0 -0.3413601397
O  O11  1  0.78510000  0.54950000  0.01080000  1.0 -0.3413601397
O  O12  1  0.21490000  0.04950000  0.48920000  1.0 -0.3413601397
O  O13  1  0.05600000  0.18460000  0.98840000  1.0 -0.3671924017
O  O14  1  0.44400000  0.81540000  0.48840000  1.0 -0.3671924017
O  O15  1  0.94400000  0.68460000  0.51160000  1.0 -0.3671924017
O  O16  1  0.55600000  0.31540000  0.01160000  1.0 -0.3671924017
O  O17  1  0.98840000  0.05600000  0.18460000  1.0 -0.3671924017
O  O18  1  0.48840000  0.44400000  0.81540000  1.0 -0.3671924017
O  O19  1  0.51160000  0.94400000  0.68460000  1.0 -0.3671924017
O  O20  1  0.01160000  0.55600000  0.31540000  1.0 -0.3671924017
O  O21  1  0.18460000  0.98840000  0.05600000  1.0 -0.3671924017
O  O22  1  0.81540000  0.48840000  0.44400000  1.0 -0.3671924017
O  O23  1  0.68460000  0.51160000  0.94400000  1.0 -0.3671924017
O  O24  1  0.31540000  0.01160000  0.55600000  1.0 -0.3671924017
O  O25  1  0.96130000  0.32820000  0.09160000  1.0 -0.5277369387
O  O26  1  0.53870000  0.67180000  0.59160000  1.0 -0.5277369387
O  O27  1  0.03870000  0.82820000  0.40840000  1.0 -0.5277369387
O  O28  1  0.46130000  0.17180000  0.90840000  1.0 -0.5277369387
O  O29  1  0.09160000  0.96130000  0.32820000  1.0 -0.5277369387
O  O30  1  0.59160000  0.53870000  0.67180000  1.0 -0.5277369387
O  O31  1  0.40840000  0.03870000  0.82820000  1.0 -0.5277369387
O  O32  1  0.90840000  0.46130000  0.17180000  1.0 -0.5277369387
O  O33  1  0.32820000  0.09160000  0.96130000  1.0 -0.5277369387
O  O34  1  0.67180000  0.59160000  0.53870000  1.0 -0.5277369387
O  O35  1  0.82820000  0.40840000  0.03870000  1.0 -0.5277369387
O  O36  1  0.17180000  0.90840000  0.46130000  1.0 -0.5277369387
O  O37  1  0.99670000  0.20570000  0.12850000  1.0 -0.3620587307
O  O38  1  0.50330000  0.79430000  0.62850000  1.0 -0.3620587307
O  O39  1  0.00330000  0.70570000  0.37150000  1.0 -0.3620587307
O  O40  1  0.49670000  0.29430000  0.87150000  1.0 -0.3620587307
O  O41  1  0.12850000  0.99670000  0.20570000  1.0 -0.3620587307
O  O42  1  0.62850000  0.50330000  0.79430000  1.0 -0.3620587307
O  O43  1  0.37150000  0.00330000  0.70570000  1.0 -0.3620587307
O  O44  1  0.87150000  0.49670000  0.29430000  1.0 -0.3620587307
O  O45  1  0.20570000  0.12850000  0.99670000  1.0 -0.3620587307
O  O46  1  0.79430000  0.62850000  0.50330000  1.0 -0.3620587307
O  O47  1  0.70570000  0.37150000  0.00330000  1.0 -0.3620587307
O  O48  1  0.29430000  0.87150000  0.49670000  1.0 -0.3620587307
O  O49  1  0.10230000  0.36520000  0.12950000  1.0 -0.3413601397
O  O50  1  0.39770000  0.63480000  0.62950000  1.0 -0.3413601397
O  O51  1  0.89770000  0.86520000  0.37050000  1.0 -0.3413601397
O  O52  1  0.60230000  0.13480000  0.87050000  1.0 -0.3413601397
O  O53  1  0.12950000  0.10230000  0.36520000  1.0 -0.3413601397
O  O54  1  0.62950000  0.39770000  0.63480000  1.0 -0.3413601397
O  O55  1  0.37050000  0.89770000  0.86520000  1.0 -0.3413601397
O  O56  1  0.87050000  0.60230000  0.13480000  1.0 -0.3413601397
O  O57  1  0.36520000  0.12950000  0.10230000  1.0 -0.3413601397
O  O58  1  0.63480000  0.62950000  0.39770000  1.0 -0.3413601397
O  O59  1  0.86520000  0.37050000  0.89770000  1.0 -0.3413601397
O  O60  1  0.13480000  0.87050000  0.60230000  1.0 -0.3413601397
O  O61  1  0.14450000  0.24580000  0.11390000  1.0 -0.3938308972
O  O62  1  0.35550000  0.75420000  0.61390000  1.0 -0.3938308972
O  O63  1  0.85550000  0.74580000  0.38610000  1.0 -0.3938308972
O  O64  1  0.64450000  0.25420000  0.88610000  1.0 -0.3938308972
O  O65  1  0.11390000  0.14450000  0.24580000  1.0 -0.3938308972
O  O66  1  0.61390000  0.35550000  0.75420000  1.0 -0.3938308972
O  O67  1  0.38610000  0.85550000  0.74580000  1.0 -0.3938308972
O  O68  1  0.88610000  0.64450000  0.25420000  1.0 -0.3938308972
O  O69  1  0.24580000  0.11390000  0.14450000  1.0 -0.3938308972
O  O70  1  0.75420000  0.61390000  0.35550000  1.0 -0.3938308972
O  O71  1  0.74580000  0.38610000  0.85550000  1.0 -0.3938308972
O  O72  1  0.25420000  0.88610000  0.64450000  1.0 -0.3938308972
O  O73  1  0.02610000  0.02610000  0.02610000  1.0 -0.4012905824
O  O74  1  0.47390000  0.97390000  0.52610000  1.0 -0.4012905824
O  O75  1  0.97390000  0.52610000  0.47390000  1.0 -0.4012905824
O  O76  1  0.52610000  0.47390000  0.97390000  1.0 -0.4012905824
O  O77  1  0.97720000  0.47720000  0.02280000  1.0 -0.3413601397
O  O78  1  0.52280000  0.52280000  0.52280000  1.0 -0.3454385268
O  O79  1  0.02280000  0.97720000  0.47720000  1.0 -0.3413601397
O  O80  1  0.47720000  0.02280000  0.97720000  1.0 -0.3454385268
