# DDEC6 charges by PACMAN v1.1 (https://github.com/mtap-research/PACMAN-charge/)
data_RUHKEN_ASR_pacman
_symmetry_space_group_name_H-M   'P 1'
_cell_length_a   6.56050000
_cell_length_b   17.97050000
_cell_length_c   12.38610000
_cell_angle_alpha   90.00000000
_cell_angle_beta   117.92700000
_cell_angle_gamma   90.00000000
_symmetry_Int_Tables_number   1
_chemical_formula_structural   NiH10C16(NO)4
_chemical_formula_sum   'Ni2 H20 C32 N8 O8'
_cell_volume   1290.20989584
_cell_formula_units_Z   2
loop_
 _symmetry_equiv_pos_site_id
 _symmetry_equiv_pos_as_xyz
  1  'x, y, z'
loop_
 _atom_site_type_symbol
 _atom_site_label
 _atom_site_symmetry_multiplicity
 _atom_site_fract_x
 _atom_site_fract_y
 _atom_site_fract_z
 _atom_site_occupancy
 _atom_site_charge
Ni  Ni1  1  0.00000000  0.00000000  0.00000000  1.0 0.6801677351
Ni  Ni2  1  0.00000000  0.50000000  0.50000000  1.0 0.6801677351
H  H1  1  0.32210000  0.86960000  0.20410000  1.0 0.13154994
H  H2  1  0.51400000  0.75950000  0.08760000  1.0 0.1392935519
H  H3  1  0.31890000  0.72900000  0.32370000  1.0 0.13154994
H  H4  1  0.66900000  0.65790000  0.21470000  1.0 0.1243172553
H  H5  1  0.66190000  0.88570000  0.01470000  1.0 0.3016662677
H  H6  1  0.67790000  0.36960000  0.29590000  1.0 0.13154994
H  H7  1  0.48600000  0.25950000  0.41240000  1.0 0.1392935519
H  H8  1  0.68110000  0.22900000  0.17630000  1.0 0.13154994
H  H9  1  0.33100000  0.15790000  0.28530000  1.0 0.1243172553
H  H10  1  0.33810000  0.38570000  0.48530000  1.0 0.3016662677
H  H11  1  0.67790000  0.13040000  0.79590000  1.0 0.13154994
H  H12  1  0.48600000  0.24050000  0.91240000  1.0 0.1392935519
H  H13  1  0.68110000  0.27100000  0.67630000  1.0 0.13154994
H  H14  1  0.33100000  0.34210000  0.78530000  1.0 0.1243172553
H  H15  1  0.33810000  0.11430000  0.98530000  1.0 0.3016662677
H  H16  1  0.32210000  0.63040000  0.70410000  1.0 0.13154994
H  H17  1  0.51400000  0.74050000  0.58760000  1.0 0.1392935519
H  H18  1  0.31890000  0.77100000  0.82370000  1.0 0.13154994
H  H19  1  0.66900000  0.84210000  0.71470000  1.0 0.1243172553
H  H20  1  0.66190000  0.61430000  0.51470000  1.0 0.3016662677
C  C1  1  0.16510000  0.85970000  0.17130000  1.0 -0.0197685345
C  C2  1  0.07140000  0.79640000  0.19990000  1.0 -0.0197685345
C  C3  1  0.83130000  0.80490000  0.12900000  1.0 0.1577400868
C  C4  1  0.67270000  0.75330000  0.13360000  1.0 -0.178620867
C  C5  1  0.16040000  0.73520000  0.27690000  1.0 -0.1397852334
C  C6  1  0.00940000  0.68420000  0.28240000  1.0 -0.0197685345
C  C7  1  0.76730000  0.69360000  0.21010000  1.0 -0.0897168923
C  C8  1  0.10350000  0.61880000  0.36690000  1.0 0.5678249751
C  C9  1  0.83490000  0.35970000  0.32870000  1.0 -0.0197685345
C  C10  1  0.92860000  0.29640000  0.30010000  1.0 -0.0197685345
C  C11  1  0.16870000  0.30490000  0.37100000  1.0 0.1577400868
C  C12  1  0.32730000  0.25330000  0.36640000  1.0 -0.178620867
C  C13  1  0.83960000  0.23520000  0.22310000  1.0 -0.1397852334
C  C14  1  0.99060000  0.18420000  0.21760000  1.0 -0.0197685345
C  C15  1  0.23270000  0.19360000  0.28990000  1.0 -0.0897168923
C  C16  1  0.89650000  0.11880000  0.13310000  1.0 0.5678249751
C  C17  1  0.83490000  0.14030000  0.82870000  1.0 -0.0197685345
C  C18  1  0.92860000  0.20360000  0.80010000  1.0 -0.0197685345
C  C19  1  0.16870000  0.19510000  0.87100000  1.0 0.1577400868
C  C20  1  0.32730000  0.24670000  0.86640000  1.0 -0.178620867
C  C21  1  0.83960000  0.26480000  0.72310000  1.0 -0.1397852334
C  C22  1  0.99060000  0.31580000  0.71760000  1.0 -0.0197685345
C  C23  1  0.23270000  0.30640000  0.78990000  1.0 -0.0897168923
C  C24  1  0.89650000  0.38120000  0.63310000  1.0 0.5678249751
C  C25  1  0.16510000  0.64030000  0.67130000  1.0 -0.0197685345
C  C26  1  0.07140000  0.70360000  0.69990000  1.0 -0.0197685345
C  C27  1  0.83130000  0.69510000  0.62900000  1.0 0.1577400868
C  C28  1  0.67270000  0.74670000  0.63360000  1.0 -0.178620867
C  C29  1  0.16040000  0.76480000  0.77690000  1.0 -0.1397852334
C  C30  1  0.00940000  0.81580000  0.78240000  1.0 -0.0197685345
C  C31  1  0.76730000  0.80640000  0.71010000  1.0 -0.0897168923
C  C32  1  0.10350000  0.88120000  0.86690000  1.0 0.5678249751
N  N1  1  0.00130000  0.90240000  0.09250000  1.0 -0.1578623834
N  N2  1  0.79530000  0.86860000  0.06530000  1.0 -0.1397852334
N  N3  1  0.99870000  0.40240000  0.40750000  1.0 -0.1578623834
N  N4  1  0.20470000  0.36860000  0.43470000  1.0 -0.1397852334
N  N5  1  0.99870000  0.09760000  0.90750000  1.0 -0.1578623834
N  N6  1  0.20470000  0.13140000  0.93470000  1.0 -0.1397852334
N  N7  1  0.00130000  0.59760000  0.59250000  1.0 -0.1578623834
N  N8  1  0.79530000  0.63140000  0.56530000  1.0 -0.1397852334
O  O1  1  0.96300000  0.56700000  0.35610000  1.0 -0.5464464869
O  O2  1  0.31460000  0.61950000  0.44340000  1.0 -0.5825031842
O  O3  1  0.03700000  0.06700000  0.14390000  1.0 -0.5464464869
O  O4  1  0.68540000  0.11950000  0.05660000  1.0 -0.5825031842
O  O5  1  0.03700000  0.43300000  0.64390000  1.0 -0.5464464869
O  O6  1  0.68540000  0.38050000  0.55660000  1.0 -0.5825031842
O  O7  1  0.96300000  0.93300000  0.85610000  1.0 -0.5464464869
O  O8  1  0.31460000  0.88050000  0.94340000  1.0 -0.5825031842
