# DDEC6 charges by PACMAN v1.1 (https://github.com/mtap-research/PACMAN-charge/)
data_RUHWAV_ASR_pacman
_symmetry_space_group_name_H-M   'P 1'
_cell_length_a   14.93050000
_cell_length_b   14.93050000
_cell_length_c   14.93050000
_cell_angle_alpha   110.64000000
_cell_angle_beta   110.64000000
_cell_angle_gamma   110.64000000
_symmetry_Int_Tables_number   1
_chemical_formula_structural   ThH30C63(NO5)3
_chemical_formula_sum   'Th2 H60 C126 N6 O30'
_cell_volume   2444.98967084
_cell_formula_units_Z   2
loop_
 _symmetry_equiv_pos_site_id
 _symmetry_equiv_pos_as_xyz
  1  'x, y, z'
loop_
 _atom_site_type_symbol
 _atom_site_label
 _atom_site_symmetry_multiplicity
 _atom_site_fract_x
 _atom_site_fract_y
 _atom_site_fract_z
 _atom_site_occupancy
 _atom_site_charge
Th  Th1  1  0.69026000  0.69026000  0.69026000  1.0 1.0066552532
Th  Th2  1  0.30974000  0.30974000  0.30974000  1.0 1.0066552532
H  H1  1  0.80700000  0.49400000  0.88900000  1.0 0.1306735051
H  H2  1  0.82220000  0.42730000  0.99510000  1.0 0.1306735051
H  H3  1  0.75800000  0.63850000  0.17420000  1.0 0.1555058022
H  H4  1  0.81430000  0.61560000  0.49000000  1.0 0.1152195667
H  H5  1  0.88580000  0.56920000  0.38090000  1.0 0.1460926803
H  H6  1  0.88900000  0.80700000  0.49400000  1.0 0.1306735051
H  H7  1  0.99510000  0.82220000  0.42730000  1.0 0.1306735051
H  H8  1  0.17420000  0.75800000  0.63850000  1.0 0.1555058022
H  H9  1  0.49000000  0.81430000  0.61560000  1.0 0.1152195667
H  H10  1  0.38090000  0.88580000  0.56920000  1.0 0.1460926803
H  H11  1  0.49400000  0.88900000  0.80700000  1.0 0.1306735051
H  H12  1  0.42730000  0.99510000  0.82220000  1.0 0.1306735051
H  H13  1  0.63850000  0.17420000  0.75800000  1.0 0.1555058022
H  H14  1  0.61560000  0.49000000  0.81430000  1.0 0.1152195667
H  H15  1  0.56920000  0.38090000  0.88580000  1.0 0.1460926803
H  H16  1  0.19300000  0.11100000  0.50600000  1.0 0.1306735051
H  H17  1  0.17780000  0.00490000  0.57270000  1.0 0.1306735051
H  H18  1  0.24200000  0.82580000  0.36150000  1.0 0.1555058022
H  H19  1  0.18570000  0.51000000  0.38440000  1.0 0.1152195667
H  H20  1  0.11420000  0.61910000  0.43080000  1.0 0.1460926803
H  H21  1  0.11100000  0.50600000  0.19300000  1.0 0.1306735051
H  H22  1  0.00490000  0.57270000  0.17780000  1.0 0.1306735051
H  H23  1  0.82580000  0.36150000  0.24200000  1.0 0.1555058022
H  H24  1  0.51000000  0.38440000  0.18570000  1.0 0.1152195667
H  H25  1  0.61910000  0.43080000  0.11420000  1.0 0.1460926803
H  H26  1  0.50600000  0.19300000  0.11100000  1.0 0.1306735051
H  H27  1  0.57270000  0.17780000  0.00490000  1.0 0.1306735051
H  H28  1  0.36150000  0.24200000  0.82580000  1.0 0.1555058022
H  H29  1  0.38440000  0.18570000  0.51000000  1.0 0.1152195667
H  H30  1  0.43080000  0.11420000  0.61910000  1.0 0.1460926803
H  H31  1  0.19300000  0.50600000  0.11100000  1.0 0.1306735051
H  H32  1  0.17780000  0.57270000  0.00490000  1.0 0.1306735051
H  H33  1  0.24200000  0.36150000  0.82580000  1.0 0.1555058022
H  H34  1  0.18570000  0.38440000  0.51000000  1.0 0.1152195667
H  H35  1  0.11420000  0.43080000  0.61910000  1.0 0.1460926803
H  H36  1  0.11100000  0.19300000  0.50600000  1.0 0.1306735051
H  H37  1  0.00490000  0.17780000  0.57270000  1.0 0.1306735051
H  H38  1  0.82580000  0.24200000  0.36150000  1.0 0.1555058022
H  H39  1  0.51000000  0.18570000  0.38440000  1.0 0.1152195667
H  H40  1  0.61910000  0.11420000  0.43080000  1.0 0.1460926803
H  H41  1  0.50600000  0.11100000  0.19300000  1.0 0.1306735051
H  H42  1  0.57270000  0.00490000  0.17780000  1.0 0.1306735051
H  H43  1  0.36150000  0.82580000  0.24200000  1.0 0.1555058022
H  H44  1  0.38440000  0.51000000  0.18570000  1.0 0.1152195667
H  H45  1  0.43080000  0.61910000  0.11420000  1.0 0.1460926803
H  H46  1  0.80700000  0.88900000  0.49400000  1.0 0.1306735051
H  H47  1  0.82220000  0.99510000  0.42730000  1.0 0.1306735051
H  H48  1  0.75800000  0.17420000  0.63850000  1.0 0.1555058022
H  H49  1  0.81430000  0.49000000  0.61560000  1.0 0.1152195667
H  H50  1  0.88580000  0.38090000  0.56920000  1.0 0.1460926803
H  H51  1  0.88900000  0.49400000  0.80700000  1.0 0.1306735051
H  H52  1  0.99510000  0.42730000  0.82220000  1.0 0.1306735051
H  H53  1  0.17420000  0.63850000  0.75800000  1.0 0.1555058022
H  H54  1  0.49000000  0.61560000  0.81430000  1.0 0.1152195667
H  H55  1  0.38090000  0.56920000  0.88580000  1.0 0.1460926803
H  H56  1  0.49400000  0.80700000  0.88900000  1.0 0.1306735051
H  H57  1  0.42730000  0.82220000  0.99510000  1.0 0.1306735051
H  H58  1  0.63850000  0.75800000  0.17420000  1.0 0.1555058022
H  H59  1  0.61560000  0.81430000  0.49000000  1.0 0.1152195667
H  H60  1  0.56920000  0.88580000  0.38090000  1.0 0.1460926803
C  C1  1  0.73200000  0.63940000  0.86600000  1.0 0.1664670604
C  C2  1  0.75520000  0.60080000  0.94680000  1.0 -0.0393402927
C  C3  1  0.74570000  0.64590000  0.03900000  1.0 -0.0732305165
C  C4  1  0.78870000  0.52340000  0.93070000  1.0 -0.0957867432
C  C5  1  0.80380000  0.48210000  0.00670000  1.0 -0.2079035339
C  C6  1  0.79040000  0.52580000  0.09640000  1.0 0.1855686826
C  C7  1  0.76400000  0.60760000  0.11210000  1.0 -0.1986537986
C  C8  1  0.76900000  0.56490000  0.41110000  1.0 -0.1393828718
C  C9  1  0.80940000  0.54510000  0.34250000  1.0 -0.1548767465
C  C10  1  0.86600000  0.73200000  0.63940000  1.0 0.1664670604
C  C11  1  0.94680000  0.75520000  0.60080000  1.0 -0.0393402927
C  C12  1  0.03900000  0.74570000  0.64590000  1.0 -0.0732305165
C  C13  1  0.93070000  0.78870000  0.52340000  1.0 -0.0957867432
C  C14  1  0.00670000  0.80380000  0.48210000  1.0 -0.2079035339
C  C15  1  0.09640000  0.79040000  0.52580000  1.0 0.1855686826
C  C16  1  0.11210000  0.76400000  0.60760000  1.0 -0.1986537986
C  C17  1  0.41110000  0.76900000  0.56490000  1.0 -0.1393828718
C  C18  1  0.34250000  0.80940000  0.54510000  1.0 -0.1548767465
C  C19  1  0.63940000  0.86600000  0.73200000  1.0 0.1664670604
C  C20  1  0.60080000  0.94680000  0.75520000  1.0 -0.0393402927
C  C21  1  0.64590000  0.03900000  0.74570000  1.0 -0.0732305165
C  C22  1  0.52340000  0.93070000  0.78870000  1.0 -0.0957867432
C  C23  1  0.48210000  0.00670000  0.80380000  1.0 -0.2079035339
C  C24  1  0.52580000  0.09640000  0.79040000  1.0 0.1849229706
C  C25  1  0.60760000  0.11210000  0.76400000  1.0 -0.1986537986
C  C26  1  0.56490000  0.41110000  0.76900000  1.0 -0.1393828718
C  C27  1  0.54510000  0.34250000  0.80940000  1.0 -0.1548767465
C  C28  1  0.26800000  0.13400000  0.36060000  1.0 0.1664670604
C  C29  1  0.24480000  0.05320000  0.39920000  1.0 -0.0393402927
C  C30  1  0.25430000  0.96100000  0.35410000  1.0 -0.0732305165
C  C31  1  0.21130000  0.06930000  0.47660000  1.0 -0.0957867432
C  C32  1  0.19620000  0.99330000  0.51790000  1.0 -0.2079035339
C  C33  1  0.20960000  0.90360000  0.47420000  1.0 0.1849229706
C  C34  1  0.23600000  0.88790000  0.39240000  1.0 -0.1986537986
C  C35  1  0.23100000  0.58890000  0.43510000  1.0 -0.1393828718
C  C36  1  0.19060000  0.65750000  0.45490000  1.0 -0.1548767465
C  C37  1  0.13400000  0.36060000  0.26800000  1.0 0.1664670604
C  C38  1  0.05320000  0.39920000  0.24480000  1.0 -0.0393402927
C  C39  1  0.96100000  0.35410000  0.25430000  1.0 -0.0732305165
C  C40  1  0.06930000  0.47660000  0.21130000  1.0 -0.0957867432
C  C41  1  0.99330000  0.51790000  0.19620000  1.0 -0.2079035339
C  C42  1  0.90360000  0.47420000  0.20960000  1.0 0.1855686826
C  C43  1  0.88790000  0.39240000  0.23600000  1.0 -0.1986537986
C  C44  1  0.58890000  0.43510000  0.23100000  1.0 -0.1393828718
C  C45  1  0.65750000  0.45490000  0.19060000  1.0 -0.1548767465
C  C46  1  0.36060000  0.26800000  0.13400000  1.0 0.1664670604
C  C47  1  0.39920000  0.24480000  0.05320000  1.0 -0.0393402927
C  C48  1  0.35410000  0.25430000  0.96100000  1.0 -0.0732305165
C  C49  1  0.47660000  0.21130000  0.06930000  1.0 -0.0957867432
C  C50  1  0.51790000  0.19620000  0.99330000  1.0 -0.2079035339
C  C51  1  0.47420000  0.20960000  0.90360000  1.0 0.1849229706
C  C52  1  0.39240000  0.23600000  0.88790000  1.0 -0.1986537986
C  C53  1  0.43510000  0.23100000  0.58890000  1.0 -0.1393828718
C  C54  1  0.45490000  0.19060000  0.65750000  1.0 -0.1548767465
C  C55  1  0.26800000  0.36060000  0.13400000  1.0 0.1664670604
C  C56  1  0.24480000  0.39920000  0.05320000  1.0 -0.0393402927
C  C57  1  0.25430000  0.35410000  0.96100000  1.0 -0.0732305165
C  C58  1  0.21130000  0.47660000  0.06930000  1.0 -0.0957867432
C  C59  1  0.19620000  0.51790000  0.99330000  1.0 -0.2079035339
C  C60  1  0.20960000  0.47420000  0.90360000  1.0 0.1849229706
C  C61  1  0.23600000  0.39240000  0.88790000  1.0 -0.1986537986
C  C62  1  0.23100000  0.43510000  0.58890000  1.0 -0.1393828718
C  C63  1  0.19060000  0.45490000  0.65750000  1.0 -0.1548767465
C  C64  1  0.13400000  0.26800000  0.36060000  1.0 0.1664670604
C  C65  1  0.05320000  0.24480000  0.39920000  1.0 -0.0393402927
C  C66  1  0.96100000  0.25430000  0.35410000  1.0 -0.0732305165
C  C67  1  0.06930000  0.21130000  0.47660000  1.0 -0.0957867432
C  C68  1  0.99330000  0.19620000  0.51790000  1.0 -0.2079035339
C  C69  1  0.90360000  0.20960000  0.47420000  1.0 0.1849229706
C  C70  1  0.88790000  0.23600000  0.39240000  1.0 -0.1986537986
C  C71  1  0.58890000  0.23100000  0.43510000  1.0 -0.1393828718
C  C72  1  0.65750000  0.19060000  0.45490000  1.0 -0.1548767465
C  C73  1  0.36060000  0.13400000  0.26800000  1.0 0.1664670604
C  C74  1  0.39920000  0.05320000  0.24480000  1.0 -0.0393402927
C  C75  1  0.35410000  0.96100000  0.25430000  1.0 -0.0732305165
C  C76  1  0.47660000  0.06930000  0.21130000  1.0 -0.0957867432
C  C77  1  0.51790000  0.99330000  0.19620000  1.0 -0.2079035339
C  C78  1  0.47420000  0.90360000  0.20960000  1.0 0.1849229706
C  C79  1  0.39240000  0.88790000  0.23600000  1.0 -0.1986537986
C  C80  1  0.43510000  0.58890000  0.23100000  1.0 -0.1393828718
C  C81  1  0.45490000  0.65750000  0.19060000  1.0 -0.1548767465
C  C82  1  0.73200000  0.86600000  0.63940000  1.0 0.1664670604
C  C83  1  0.75520000  0.94680000  0.60080000  1.0 -0.0393402927
C  C84  1  0.74570000  0.03900000  0.64590000  1.0 -0.0732305165
C  C85  1  0.78870000  0.93070000  0.52340000  1.0 -0.0957867432
C  C86  1  0.80380000  0.00670000  0.48210000  1.0 -0.2079035339
C  C87  1  0.79040000  0.09640000  0.52580000  1.0 0.1849229706
C  C88  1  0.76400000  0.11210000  0.60760000  1.0 -0.1986537986
C  C89  1  0.76900000  0.41110000  0.56490000  1.0 -0.1393828718
C  C90  1  0.80940000  0.34250000  0.54510000  1.0 -0.1548767465
C  C91  1  0.86600000  0.63940000  0.73200000  1.0 0.1664670604
C  C92  1  0.94680000  0.60080000  0.75520000  1.0 -0.0393402927
C  C93  1  0.03900000  0.64590000  0.74570000  1.0 -0.0732305165
C  C94  1  0.93070000  0.52340000  0.78870000  1.0 -0.0957867432
C  C95  1  0.00670000  0.48210000  0.80380000  1.0 -0.2079035339
C  C96  1  0.09640000  0.52580000  0.79040000  1.0 0.1849229706
C  C97  1  0.11210000  0.60760000  0.76400000  1.0 -0.1986537986
C  C98  1  0.41110000  0.56490000  0.76900000  1.0 -0.1393828718
C  C99  1  0.34250000  0.54510000  0.80940000  1.0 -0.1548767465
C  C100  1  0.63940000  0.73200000  0.86600000  1.0 0.1664670604
C  C101  1  0.60080000  0.75520000  0.94680000  1.0 -0.0393402927
C  C102  1  0.64590000  0.74570000  0.03900000  1.0 -0.0732305165
C  C103  1  0.52340000  0.78870000  0.93070000  1.0 -0.0957867432
C  C104  1  0.48210000  0.80380000  0.00670000  1.0 -0.2079035339
C  C105  1  0.52580000  0.79040000  0.09640000  1.0 0.1855686826
C  C106  1  0.60760000  0.76400000  0.11210000  1.0 -0.1986537986
C  C107  1  0.56490000  0.76900000  0.41110000  1.0 -0.1393828718
C  C108  1  0.54510000  0.80940000  0.34250000  1.0 -0.1548767465
C  C109  1  0.76275000  0.50000000  0.23725000  1.0 0.1460926803
C  C110  1  0.59065000  0.50000000  0.40935000  1.0 0.2234743434
C  C111  1  0.65225000  0.50000000  0.34775000  1.0 -0.0855696725
C  C112  1  0.23725000  0.76275000  0.50000000  1.0 0.1460926803
C  C113  1  0.40935000  0.59065000  0.50000000  1.0 0.2234743434
C  C114  1  0.34775000  0.65225000  0.50000000  1.0 -0.0855696725
C  C115  1  0.50000000  0.23725000  0.76275000  1.0 0.1460926803
C  C116  1  0.50000000  0.40935000  0.59065000  1.0 0.2234743434
C  C117  1  0.50000000  0.34775000  0.65225000  1.0 -0.0855696725
C  C118  1  0.23725000  0.50000000  0.76275000  1.0 0.1460926803
C  C119  1  0.40935000  0.50000000  0.59065000  1.0 0.2234743434
C  C120  1  0.34775000  0.50000000  0.65225000  1.0 -0.0855696725
C  C121  1  0.76275000  0.23725000  0.50000000  1.0 0.1460926803
C  C122  1  0.59065000  0.40935000  0.50000000  1.0 0.2234743434
C  C123  1  0.65225000  0.34775000  0.50000000  1.0 -0.0843370038
C  C124  1  0.50000000  0.76275000  0.23725000  1.0 0.1460926803
C  C125  1  0.50000000  0.59065000  0.40935000  1.0 0.2234743434
C  C126  1  0.50000000  0.65225000  0.34775000  1.0 -0.0843370038
N  N1  1  0.81875000  0.50000000  0.18125000  1.0 -0.1283268668
N  N2  1  0.18125000  0.81875000  0.50000000  1.0 -0.1283268668
N  N3  1  0.50000000  0.18125000  0.81875000  1.0 -0.1283268668
N  N4  1  0.18125000  0.50000000  0.81875000  1.0 -0.1283268668
N  N5  1  0.81875000  0.18125000  0.50000000  1.0 -0.1283268668
N  N6  1  0.50000000  0.81875000  0.18125000  1.0 -0.1283268668
O  O1  1  0.64950000  0.55200000  0.51620000  1.0 -0.1393828718
O  O2  1  0.74590000  0.59560000  0.78490000  1.0 -0.1227466193
O  O3  1  0.51620000  0.64950000  0.55200000  1.0 -0.1393828718
O  O4  1  0.78490000  0.74590000  0.59560000  1.0 -0.1283268668
O  O5  1  0.55200000  0.51620000  0.64950000  1.0 -0.1393828718
O  O6  1  0.59560000  0.78490000  0.74590000  1.0 -0.1227466193
O  O7  1  0.35050000  0.48380000  0.44800000  1.0 -0.1393828718
O  O8  1  0.25410000  0.21510000  0.40440000  1.0 -0.1283268668
O  O9  1  0.48380000  0.44800000  0.35050000  1.0 -0.1393828718
O  O10  1  0.21510000  0.40440000  0.25410000  1.0 -0.1283268668
O  O11  1  0.44800000  0.35050000  0.48380000  1.0 -0.1393828718
O  O12  1  0.40440000  0.25410000  0.21510000  1.0 -0.1283268668
O  O13  1  0.35050000  0.44800000  0.48380000  1.0 -0.1393828718
O  O14  1  0.25410000  0.40440000  0.21510000  1.0 -0.1283268668
O  O15  1  0.48380000  0.35050000  0.44800000  1.0 -0.1393828718
O  O16  1  0.21510000  0.25410000  0.40440000  1.0 -0.1283268668
O  O17  1  0.44800000  0.48380000  0.35050000  1.0 -0.1393828718
O  O18  1  0.40440000  0.21510000  0.25410000  1.0 -0.1283268668
O  O19  1  0.64950000  0.51620000  0.55200000  1.0 -0.1393828718
O  O20  1  0.74590000  0.78490000  0.59560000  1.0 -0.1283268668
O  O21  1  0.51620000  0.55200000  0.64950000  1.0 -0.1393828718
O  O22  1  0.78490000  0.59560000  0.74590000  1.0 -0.1227466193
O  O23  1  0.55200000  0.64950000  0.51620000  1.0 -0.1393828718
O  O24  1  0.59560000  0.74590000  0.78490000  1.0 -0.1283268668
O  O25  1  0.70900000  0.70900000  0.87790000  1.0 -0.1986537986
O  O26  1  0.87790000  0.70900000  0.70900000  1.0 -0.1986537986
O  O27  1  0.70900000  0.87790000  0.70900000  1.0 -0.2079035339
O  O28  1  0.29100000  0.12210000  0.29100000  1.0 -0.1986537986
O  O29  1  0.12210000  0.29100000  0.29100000  1.0 -0.1986537986
O  O30  1  0.29100000  0.29100000  0.12210000  1.0 -0.1986537986
