# DDEC6 charges by PACMAN v1.1 (https://github.com/mtap-research/PACMAN-charge/)
data_RUHWUP_ASR_pacman
_symmetry_space_group_name_H-M   'P 1'
_cell_length_a   16.32460000
_cell_length_b   16.32460000
_cell_length_c   16.32460000
_cell_angle_alpha   107.91700000
_cell_angle_beta   107.91700000
_cell_angle_gamma   112.62600000
_symmetry_Int_Tables_number   1
_chemical_formula_structural   Cu8H56C72N24(ClO4)5
_chemical_formula_sum   'Cu8 H56 C72 N24 Cl5 O20'
_cell_volume   3341.28646085
_cell_formula_units_Z   1
loop_
 _symmetry_equiv_pos_site_id
 _symmetry_equiv_pos_as_xyz
  1  'x, y, z'
loop_
 _atom_site_type_symbol
 _atom_site_label
 _atom_site_symmetry_multiplicity
 _atom_site_fract_x
 _atom_site_fract_y
 _atom_site_fract_z
 _atom_site_occupancy
 _atom_site_charge
Cu  Cu1  1  0.07018000  0.49818000  0.56836000  1.0 0.8468099312
Cu  Cu2  1  0.92982000  0.50182000  0.43164000  1.0 0.8468099312
Cu  Cu3  1  0.49818000  0.92982000  0.42800000  1.0 0.8468099312
Cu  Cu4  1  0.50182000  0.07018000  0.57200000  1.0 0.8468099312
Cu  Cu5  1  0.40839000  0.40698000  0.81537000  1.0 0.6178163962
Cu  Cu6  1  0.59161000  0.59302000  0.18463000  1.0 0.6178163962
Cu  Cu7  1  0.40698000  0.59161000  0.99859000  1.0 0.6178163962
Cu  Cu8  1  0.59302000  0.40839000  0.00141000  1.0 0.6178163962
H  H1  1  0.26423000  0.27095000  0.60940000  1.0 0.2881149129
H  H2  1  0.25933000  0.15870000  0.69905000  1.0 0.1121260578
H  H3  1  0.46240000  0.16552000  0.90998000  1.0 0.1121260578
H  H4  1  0.32783000  0.00181000  0.86184000  1.0 0.1231803225
H  H5  1  0.23900000  0.82785000  0.78571000  1.0 0.1231803225
H  H6  1  0.12376000  0.81811000  0.52477000  1.0 0.1231803225
H  H7  1  0.23112000  0.99146000  0.59986000  1.0 0.130603783
H  H8  1  0.66155000  0.65483000  0.39060000  1.0 0.2881149129
H  H9  1  0.45965000  0.56028000  0.30095000  1.0 0.1121260578
H  H10  1  0.25554000  0.55242000  0.09002000  1.0 0.1121260578
H  H11  1  0.13997000  0.46599000  0.13816000  1.0 0.1231803225
H  H12  1  0.04214000  0.45329000  0.21429000  1.0 0.1231803225
H  H13  1  0.29334000  0.59899000  0.47523000  1.0 0.1231803225
H  H14  1  0.39160000  0.63126000  0.40014000  1.0 0.130603783
H  H15  1  0.27095000  0.66155000  0.00672000  1.0 0.2881149129
H  H16  1  0.15870000  0.45965000  0.89937000  1.0 0.1121260578
H  H17  1  0.16552000  0.25554000  0.70312000  1.0 0.1121260578
H  H18  1  0.00181000  0.13997000  0.67398000  1.0 0.1231803225
H  H19  1  0.82785000  0.04214000  0.58885000  1.0 0.1231803225
H  H20  1  0.81811000  0.29334000  0.69435000  1.0 0.1231803225
H  H21  1  0.99146000  0.39160000  0.76034000  1.0 0.130603783
H  H22  1  0.65483000  0.26423000  0.99328000  1.0 0.2881149129
H  H23  1  0.56028000  0.25933000  0.10063000  1.0 0.1121260578
H  H24  1  0.55242000  0.46240000  0.29688000  1.0 0.1121260578
H  H25  1  0.46599000  0.32783000  0.32602000  1.0 0.1231803225
H  H26  1  0.45329000  0.23900000  0.41115000  1.0 0.1231803225
H  H27  1  0.59899000  0.12376000  0.30565000  1.0 0.1231803225
H  H28  1  0.63126000  0.23112000  0.23966000  1.0 0.130603783
H  H29  1  0.73577000  0.72905000  0.39060000  1.0 0.2881149129
H  H30  1  0.74067000  0.84130000  0.30095000  1.0 0.1121260578
H  H31  1  0.53760000  0.83448000  0.09002000  1.0 0.1121260578
H  H32  1  0.67217000  0.99819000  0.13816000  1.0 0.1231803225
H  H33  1  0.76100000  0.17215000  0.21429000  1.0 0.1231803225
H  H34  1  0.87624000  0.18189000  0.47523000  1.0 0.1231803225
H  H35  1  0.76888000  0.00854000  0.40014000  1.0 0.130603783
H  H36  1  0.33845000  0.34517000  0.60940000  1.0 0.2881149129
H  H37  1  0.54035000  0.43972000  0.69905000  1.0 0.1121260578
H  H38  1  0.74446000  0.44758000  0.90998000  1.0 0.1121260578
H  H39  1  0.86003000  0.53401000  0.86184000  1.0 0.1231803225
H  H40  1  0.95786000  0.54671000  0.78571000  1.0 0.1231803225
H  H41  1  0.70666000  0.40101000  0.52477000  1.0 0.1231803225
H  H42  1  0.60840000  0.36874000  0.59986000  1.0 0.130603783
H  H43  1  0.72905000  0.33845000  0.99328000  1.0 0.2881149129
H  H44  1  0.84130000  0.54035000  0.10063000  1.0 0.1121260578
H  H45  1  0.83448000  0.74446000  0.29688000  1.0 0.1121260578
H  H46  1  0.99819000  0.86003000  0.32602000  1.0 0.1231803225
H  H47  1  0.17215000  0.95786000  0.41115000  1.0 0.1231803225
H  H48  1  0.18189000  0.70666000  0.30565000  1.0 0.1231803225
H  H49  1  0.00854000  0.60840000  0.23966000  1.0 0.130603783
H  H50  1  0.34517000  0.73577000  0.00672000  1.0 0.2881149129
H  H51  1  0.43972000  0.74067000  0.89937000  1.0 0.1121260578
H  H52  1  0.44758000  0.53760000  0.70312000  1.0 0.1121260578
H  H53  1  0.53401000  0.67217000  0.67398000  1.0 0.1231803225
H  H54  1  0.54671000  0.76100000  0.58885000  1.0 0.1231803225
H  H55  1  0.40101000  0.87624000  0.69435000  1.0 0.1231803225
H  H56  1  0.36874000  0.76888000  0.76034000  1.0 0.130603783
C  C1  1  0.31680000  0.18170000  0.75610000  1.0 0.1001784803
C  C2  1  0.42790000  0.18540000  0.87150000  1.0 0.1121260578
C  C3  1  0.28240000  0.01150000  0.73850000  1.0 0.1498370247
C  C4  1  0.28760000  0.96390000  0.79370000  1.0 -0.186407633
C  C5  1  0.10600000  0.69070000  0.59570000  1.0 0.5606109874
C  C6  1  0.23370000  0.86070000  0.74860000  1.0 -0.0879586607
C  C7  1  0.17020000  0.80400000  0.64600000  1.0 -0.0174075899
C  C8  1  0.16730000  0.85480000  0.59230000  1.0 -0.07905744
C  C9  1  0.22740000  0.95810000  0.63690000  1.0 -0.1765046491
C  C10  1  0.42560000  0.56070000  0.24390000  1.0 0.1001784803
C  C11  1  0.31390000  0.55640000  0.12850000  1.0 0.1121260578
C  C12  1  0.27300000  0.54390000  0.26150000  1.0 0.1498370247
C  C13  1  0.17020000  0.49390000  0.20630000  1.0 -0.186407633
C  C14  1  0.09500000  0.51030000  0.40430000  1.0 0.5606109874
C  C15  1  0.11210000  0.48510000  0.25140000  1.0 -0.0879586607
C  C16  1  0.15800000  0.52420000  0.35400000  1.0 -0.0174075899
C  C17  1  0.26250000  0.57500000  0.40770000  1.0 -0.07905744
C  C18  1  0.32120000  0.59050000  0.36310000  1.0 -0.1765046491
C  C19  1  0.18170000  0.42560000  0.86490000  1.0 0.1001784803
C  C20  1  0.18540000  0.31390000  0.75750000  1.0 0.1121260578
C  C21  1  0.01150000  0.27300000  0.72910000  1.0 0.1498370247
C  C22  1  0.96390000  0.17020000  0.67630000  1.0 -0.186407633
C  C23  1  0.69070000  0.09500000  0.58470000  1.0 0.5606109874
C  C24  1  0.86070000  0.11210000  0.62700000  1.0 -0.0879586607
C  C25  1  0.80400000  0.15800000  0.63380000  1.0 -0.0174075899
C  C26  1  0.85480000  0.26250000  0.68750000  1.0 -0.07905744
C  C27  1  0.95810000  0.32120000  0.73070000  1.0 -0.1765046491
C  C28  1  0.56070000  0.31680000  0.13510000  1.0 0.1001784803
C  C29  1  0.55640000  0.42790000  0.24250000  1.0 0.1121260578
C  C30  1  0.54390000  0.28240000  0.27090000  1.0 0.1498370247
C  C31  1  0.49390000  0.28760000  0.32370000  1.0 -0.186407633
C  C32  1  0.51030000  0.10600000  0.41530000  1.0 0.5606109874
C  C33  1  0.48510000  0.23370000  0.37300000  1.0 -0.0879586607
C  C34  1  0.52420000  0.17020000  0.36620000  1.0 -0.0174075899
C  C35  1  0.57500000  0.16730000  0.31250000  1.0 -0.07905744
C  C36  1  0.59050000  0.22740000  0.26930000  1.0 -0.1765046491
C  C37  1  0.68320000  0.81830000  0.24390000  1.0 0.1001784803
C  C38  1  0.57210000  0.81460000  0.12850000  1.0 0.1121260578
C  C39  1  0.71760000  0.98850000  0.26150000  1.0 0.1498370247
C  C40  1  0.71240000  0.03610000  0.20630000  1.0 -0.186407633
C  C41  1  0.89400000  0.30930000  0.40430000  1.0 0.5606109874
C  C42  1  0.76630000  0.13930000  0.25140000  1.0 -0.0879586607
C  C43  1  0.82980000  0.19600000  0.35400000  1.0 -0.0174075899
C  C44  1  0.83270000  0.14520000  0.40770000  1.0 -0.07905744
C  C45  1  0.77260000  0.04190000  0.36310000  1.0 -0.1765046491
C  C46  1  0.57440000  0.43930000  0.75610000  1.0 0.1001784803
C  C47  1  0.68610000  0.44360000  0.87150000  1.0 0.1121260578
C  C48  1  0.72700000  0.45610000  0.73850000  1.0 0.1498370247
C  C49  1  0.82980000  0.50610000  0.79370000  1.0 -0.186407633
C  C50  1  0.90500000  0.48970000  0.59570000  1.0 0.5606109874
C  C51  1  0.88790000  0.51490000  0.74860000  1.0 -0.0879586607
C  C52  1  0.84200000  0.47580000  0.64600000  1.0 -0.0174075899
C  C53  1  0.73750000  0.42500000  0.59230000  1.0 -0.07905744
C  C54  1  0.67880000  0.40950000  0.63690000  1.0 -0.1765046491
C  C55  1  0.81830000  0.57440000  0.13510000  1.0 0.1001784803
C  C56  1  0.81460000  0.68610000  0.24250000  1.0 0.1121260578
C  C57  1  0.98850000  0.72700000  0.27090000  1.0 0.1498370247
C  C58  1  0.03610000  0.82980000  0.32370000  1.0 -0.186407633
C  C59  1  0.30930000  0.90500000  0.41530000  1.0 0.5606109874
C  C60  1  0.13930000  0.88790000  0.37300000  1.0 -0.0879586607
C  C61  1  0.19600000  0.84200000  0.36620000  1.0 -0.0174075899
C  C62  1  0.14520000  0.73750000  0.31250000  1.0 -0.07905744
C  C63  1  0.04190000  0.67880000  0.26930000  1.0 -0.1765046491
C  C64  1  0.43930000  0.68320000  0.86490000  1.0 0.1001784803
C  C65  1  0.44360000  0.57210000  0.75750000  1.0 0.1121260578
C  C66  1  0.45610000  0.71760000  0.72910000  1.0 0.1498370247
C  C67  1  0.50610000  0.71240000  0.67630000  1.0 -0.186407633
C  C68  1  0.48970000  0.89400000  0.58470000  1.0 0.5606109874
C  C69  1  0.51490000  0.76630000  0.62700000  1.0 -0.0879586607
C  C70  1  0.47580000  0.82980000  0.63380000  1.0 -0.0174075899
C  C71  1  0.42500000  0.83270000  0.68750000  1.0 -0.07905744
C  C72  1  0.40950000  0.77260000  0.73070000  1.0 -0.1765046491
N  N1  1  0.38670000  0.27620000  0.81790000  1.0 -0.1660222791
N  N2  1  0.45830000  0.27800000  0.89230000  1.0 -0.1660222791
N  N3  1  0.33990000  0.12140000  0.78710000  1.0 -0.0174075899
N  N4  1  0.45830000  0.56880000  0.18210000  1.0 -0.1660222791
N  N5  1  0.38570000  0.56600000  0.10770000  1.0 -0.1660222791
N  N6  1  0.33430000  0.55280000  0.21290000  1.0 -0.0174075899
N  N7  1  0.27620000  0.45830000  0.88950000  1.0 -0.1660222791
N  N8  1  0.27800000  0.38570000  0.81970000  1.0 -0.1660222791
N  N9  1  0.12140000  0.33430000  0.78150000  1.0 -0.0174075899
N  N10  1  0.56880000  0.38670000  0.11050000  1.0 -0.1660222791
N  N11  1  0.56600000  0.45830000  0.18030000  1.0 -0.1660222791
N  N12  1  0.55280000  0.33990000  0.21850000  1.0 -0.0174075899
N  N13  1  0.61330000  0.72380000  0.18210000  1.0 -0.1660222791
N  N14  1  0.54170000  0.72200000  0.10770000  1.0 -0.1660222791
N  N15  1  0.66010000  0.87860000  0.21290000  1.0 -0.0174075899
N  N16  1  0.54170000  0.43120000  0.81790000  1.0 -0.1660222791
N  N17  1  0.61430000  0.43400000  0.89230000  1.0 -0.1660222791
N  N18  1  0.66570000  0.44720000  0.78710000  1.0 -0.0174075899
N  N19  1  0.72380000  0.54170000  0.11050000  1.0 -0.1660222791
N  N20  1  0.72200000  0.61430000  0.18030000  1.0 -0.1660222791
N  N21  1  0.87860000  0.66570000  0.21850000  1.0 -0.0174075899
N  N22  1  0.43120000  0.61330000  0.88950000  1.0 -0.1660222791
N  N23  1  0.43400000  0.54170000  0.81970000  1.0 -0.1660222791
N  N24  1  0.44720000  0.66010000  0.78150000  1.0 -0.0174075899
Cl  Cl1  1  0.19530000  0.48510000  0.68040000  1.0 -0.670286469
Cl  Cl2  1  0.80470000  0.51490000  0.31960000  1.0 -0.670286469
Cl  Cl3  1  0.48510000  0.80470000  0.28980000  1.0 -0.670286469
Cl  Cl4  1  0.51490000  0.19530000  0.71020000  1.0 -0.670286469
Cl  Cl5  1  0.50000000  0.50000000  0.00000000  1.0 -0.5624911411
O  O1  1  0.14040000  0.64700000  0.63520000  1.0 -0.515311919
O  O2  1  0.02450000  0.64970000  0.51880000  1.0 -0.5097573025
O  O3  1  0.01180000  0.50520000  0.36480000  1.0 -0.515311919
O  O4  1  0.13090000  0.50570000  0.48120000  1.0 -0.5097573025
O  O5  1  0.64700000  0.01180000  0.50660000  1.0 -0.515311919
O  O6  1  0.64970000  0.13090000  0.62520000  1.0 -0.5097573025
O  O7  1  0.50520000  0.14040000  0.49340000  1.0 -0.515311919
O  O8  1  0.50570000  0.02450000  0.37480000  1.0 -0.5097573025
O  O9  1  0.85960000  0.35300000  0.36480000  1.0 -0.515311919
O  O10  1  0.97550000  0.35030000  0.48120000  1.0 -0.5097573025
O  O11  1  0.98820000  0.49480000  0.63520000  1.0 -0.515311919
O  O12  1  0.86910000  0.49430000  0.51880000  1.0 -0.5097573025
O  O13  1  0.35300000  0.98820000  0.49340000  1.0 -0.515311919
O  O14  1  0.35030000  0.86910000  0.37480000  1.0 -0.5097573025
O  O15  1  0.49480000  0.85960000  0.50660000  1.0 -0.515311919
O  O16  1  0.49430000  0.97550000  0.62520000  1.0 -0.5097573025
O  O17  1  0.32120000  0.32640000  0.64760000  1.0 -0.6805310471
O  O18  1  0.67880000  0.67360000  0.35240000  1.0 -0.6805310471
O  O19  1  0.32640000  0.67880000  0.00520000  1.0 -0.6805310471
O  O20  1  0.67360000  0.32120000  0.99480000  1.0 -0.6805310471
