# DDEC6 charges by PACMAN v1.1 (https://github.com/mtap-research/PACMAN-charge/)
data_RUJMAM_ASR_pacman
_symmetry_space_group_name_H-M   'P 1'
_cell_length_a   24.68470000
_cell_length_b   23.94540000
_cell_length_c   19.28420000
_cell_angle_alpha   68.67010000
_cell_angle_beta   64.63540000
_cell_angle_gamma   46.69450000
_symmetry_Int_Tables_number   1
_chemical_formula_structural   ZnH13(C4O)4
_chemical_formula_sum   'Zn8 H104 C128 O32'
_cell_volume   7452.72762655
_cell_formula_units_Z   8
loop_
 _symmetry_equiv_pos_site_id
 _symmetry_equiv_pos_as_xyz
  1  'x, y, z'
loop_
 _atom_site_type_symbol
 _atom_site_label
 _atom_site_symmetry_multiplicity
 _atom_site_fract_x
 _atom_site_fract_y
 _atom_site_fract_z
 _atom_site_occupancy
 _atom_site_charge
Zn  Zn1  1  0.93863000  0.50491000  0.49509000  1.0 0.9316481467
Zn  Zn2  1  0.50491000  0.93863000  0.06137000  1.0 0.9316481467
Zn  Zn3  1  0.49509000  0.06137000  0.93863000  1.0 0.9316481467
Zn  Zn4  1  0.06137000  0.49509000  0.50491000  1.0 0.9316481467
Zn  Zn5  1  0.51172000  0.93396000  0.48828000  1.0 0.9357997593
Zn  Zn6  1  0.93396000  0.51172000  0.06604000  1.0 0.9357997593
Zn  Zn7  1  0.48828000  0.06604000  0.51172000  1.0 0.9357997593
Zn  Zn8  1  0.06604000  0.48828000  0.93396000  1.0 0.9357997593
H  H1  1  0.97090000  0.14630000  0.57250000  1.0 0.1825054723
H  H2  1  0.14630000  0.97090000  0.31030000  1.0 0.1825054723
H  H3  1  0.57250000  0.31030000  0.97090000  1.0 0.1825054723
H  H4  1  0.31030000  0.57250000  0.14630000  1.0 0.1825054723
H  H5  1  0.02910000  0.85370000  0.42750000  1.0 0.1825054723
H  H6  1  0.85370000  0.02910000  0.68970000  1.0 0.1825054723
H  H7  1  0.42750000  0.68970000  0.02910000  1.0 0.1858413186
H  H8  1  0.68970000  0.42750000  0.85370000  1.0 0.1825054723
H  H9  1  0.17800000  0.97800000  0.45240000  1.0 0.2664008469
H  H10  1  0.97800000  0.17800000  0.39160000  1.0 0.2664008469
H  H11  1  0.45240000  0.39160000  0.17800000  1.0 0.2664008469
H  H12  1  0.39160000  0.45240000  0.97800000  1.0 0.2646373924
H  H13  1  0.82200000  0.02200000  0.54760000  1.0 0.2664008469
H  H14  1  0.02200000  0.82200000  0.60840000  1.0 0.2664008469
H  H15  1  0.54760000  0.60840000  0.82200000  1.0 0.2664008469
H  H16  1  0.60840000  0.54760000  0.02200000  1.0 0.2664008469
H  H17  1  0.02330000  0.19650000  0.57370000  1.0 0.1446065273
H  H18  1  0.19650000  0.02330000  0.20650000  1.0 0.1446065273
H  H19  1  0.57370000  0.20650000  0.02330000  1.0 0.1446065273
H  H20  1  0.20650000  0.57370000  0.19650000  1.0 0.1456585523
H  H21  1  0.97670000  0.80350000  0.42630000  1.0 0.1456585523
H  H22  1  0.80350000  0.97670000  0.79350000  1.0 0.1456585523
H  H23  1  0.42630000  0.79350000  0.97670000  1.0 0.1456585523
H  H24  1  0.79350000  0.42630000  0.80350000  1.0 0.1456585523
H  H25  1  0.22880000  0.02660000  0.45940000  1.0 0.1204961924
H  H26  1  0.02660000  0.22880000  0.28520000  1.0 0.1204961924
H  H27  1  0.45940000  0.28520000  0.22880000  1.0 0.1204961924
H  H28  1  0.28520000  0.45940000  0.02660000  1.0 0.1204961924
H  H29  1  0.77120000  0.97340000  0.54060000  1.0 0.1204961924
H  H30  1  0.97340000  0.77120000  0.71480000  1.0 0.1204961924
H  H31  1  0.54060000  0.71480000  0.77120000  1.0 0.1204961924
H  H32  1  0.71480000  0.54060000  0.97340000  1.0 0.1204961924
H  H33  1  0.06660000  0.26440000  0.51440000  1.0 0.1124199661
H  H34  1  0.26440000  0.06660000  0.15460000  1.0 0.1124199661
H  H35  1  0.51440000  0.15460000  0.06660000  1.0 0.1124199661
H  H36  1  0.15460000  0.51440000  0.26440000  1.0 0.1124199661
H  H37  1  0.93340000  0.73560000  0.48560000  1.0 0.1124199661
H  H38  1  0.73560000  0.93340000  0.84540000  1.0 0.1124199661
H  H39  1  0.48560000  0.84540000  0.93340000  1.0 0.1124199661
H  H40  1  0.84540000  0.48560000  0.73560000  1.0 0.1124199661
H  H41  1  0.27250000  0.05330000  0.51410000  1.0 0.1124199661
H  H42  1  0.05330000  0.27250000  0.16010000  1.0 0.1124199661
H  H43  1  0.51410000  0.16010000  0.27250000  1.0 0.1124199661
H  H44  1  0.16010000  0.51410000  0.05330000  1.0 0.1124199661
H  H45  1  0.72750000  0.94670000  0.48590000  1.0 0.1124199661
H  H46  1  0.94670000  0.72750000  0.83990000  1.0 0.1124199661
H  H47  1  0.48590000  0.83990000  0.72750000  1.0 0.1124199661
H  H48  1  0.83990000  0.48590000  0.94670000  1.0 0.1124199661
H  H49  1  0.24320000  0.24020000  0.51500000  1.0 0.1204961924
H  H50  1  0.24020000  0.24320000  0.00160000  1.0 0.1204961924
H  H51  1  0.51500000  0.00160000  0.24320000  1.0 0.1204961924
H  H52  1  0.00160000  0.51500000  0.24020000  1.0 0.1204961924
H  H53  1  0.75680000  0.75980000  0.48500000  1.0 0.1204961924
H  H54  1  0.75980000  0.75680000  0.99840000  1.0 0.1204961924
H  H55  1  0.48500000  0.99840000  0.75680000  1.0 0.1204961924
H  H56  1  0.99840000  0.48500000  0.75980000  1.0 0.1204961924
H  H57  1  0.99860000  0.95640000  0.68700000  1.0 0.0399162689
H  H58  1  0.95640000  0.99860000  0.35800000  1.0 0.0399162689
H  H59  1  0.68700000  0.35800000  0.99860000  1.0 0.0399162689
H  H60  1  0.35800000  0.68700000  0.95640000  1.0 0.0399162689
H  H61  1  0.00140000  0.04360000  0.31300000  1.0 0.0399162689
H  H62  1  0.04360000  0.00140000  0.64200000  1.0 0.0399162689
H  H63  1  0.31300000  0.64200000  0.00140000  1.0 0.0399162689
H  H64  1  0.64200000  0.31300000  0.04360000  1.0 0.0399162689
H  H65  1  0.99610000  0.02810000  0.66230000  1.0 0.0204166918
H  H66  1  0.02810000  0.99610000  0.31350000  1.0 0.0204166918
H  H67  1  0.66230000  0.31350000  0.99610000  1.0 0.0294580312
H  H68  1  0.31350000  0.66230000  0.02810000  1.0 0.0204166918
H  H69  1  0.00390000  0.97190000  0.33770000  1.0 0.0204166918
H  H70  1  0.97190000  0.00390000  0.68650000  1.0 0.0204166918
H  H71  1  0.33770000  0.68650000  0.00390000  1.0 0.0204166918
H  H72  1  0.68650000  0.33770000  0.97190000  1.0 0.0294580312
H  H73  1  0.07480000  0.94600000  0.64260000  1.0 0.0294580312
H  H74  1  0.94600000  0.07480000  0.33660000  1.0 0.0294580312
H  H75  1  0.64260000  0.33660000  0.07480000  1.0 0.0294580312
H  H76  1  0.33660000  0.64260000  0.94600000  1.0 0.0294580312
H  H77  1  0.92520000  0.05400000  0.35740000  1.0 0.0294580312
H  H78  1  0.05400000  0.92520000  0.66340000  1.0 0.0294580312
H  H79  1  0.35740000  0.66340000  0.92520000  1.0 0.0294580312
H  H80  1  0.66340000  0.35740000  0.05400000  1.0 0.0399162689
H  H81  1  0.04770000  0.99730000  0.64090000  1.0 0.0399162689
H  H82  1  0.99730000  0.04770000  0.31410000  1.0 0.0399162689
H  H83  1  0.64090000  0.31410000  0.04770000  1.0 0.0399162689
H  H84  1  0.31410000  0.64090000  0.99730000  1.0 0.0399162689
H  H85  1  0.95230000  0.00270000  0.35910000  1.0 0.0399162689
H  H86  1  0.00270000  0.95230000  0.68590000  1.0 0.0399162689
H  H87  1  0.35910000  0.68590000  0.95230000  1.0 0.0399162689
H  H88  1  0.68590000  0.35910000  0.00270000  1.0 0.0399162689
H  H89  1  0.05020000  0.92560000  0.66560000  1.0 0.0294580312
H  H90  1  0.92560000  0.05020000  0.35860000  1.0 0.0294580312
H  H91  1  0.66560000  0.35860000  0.05020000  1.0 0.0294580312
H  H92  1  0.35860000  0.66560000  0.92560000  1.0 0.0294580312
H  H93  1  0.94980000  0.07440000  0.33440000  1.0 0.0294580312
H  H94  1  0.07440000  0.94980000  0.64140000  1.0 0.0294580312
H  H95  1  0.33440000  0.64140000  0.94980000  1.0 0.0294580312
H  H96  1  0.64140000  0.33440000  0.07440000  1.0 0.0294580312
H  H97  1  0.97160000  0.00760000  0.68540000  1.0 0.0204166918
H  H98  1  0.00760000  0.97160000  0.33540000  1.0 0.0204166918
H  H99  1  0.68540000  0.33540000  0.97160000  1.0 0.0294580312
H  H100  1  0.33540000  0.68540000  0.00760000  1.0 0.0204166918
H  H101  1  0.02840000  0.99240000  0.31460000  1.0 0.0204166918
H  H102  1  0.99240000  0.02840000  0.66460000  1.0 0.0294580312
H  H103  1  0.31460000  0.66460000  0.02840000  1.0 0.0204166918
H  H104  1  0.66460000  0.31460000  0.99240000  1.0 0.0294580312
C  C1  1  0.02030000  0.97970000  0.64790000  1.0 -0.3003151003
C  C2  1  0.97970000  0.02030000  0.35210000  1.0 -0.3003151003
C  C3  1  0.64790000  0.35210000  0.02030000  1.0 -0.3144550804
C  C4  1  0.35210000  0.64790000  0.97970000  1.0 -0.3003151003
C  C5  1  0.00700000  0.99300000  0.57160000  1.0 0.0804495554
C  C6  1  0.99300000  0.00700000  0.42840000  1.0 0.0804495554
C  C7  1  0.57160000  0.42840000  0.00700000  1.0 0.0804495554
C  C8  1  0.42840000  0.57160000  0.99300000  1.0 0.0804495554
C  C9  1  0.03337000  0.02657000  0.50463000  1.0 -0.0785129383
C  C10  1  0.02657000  0.03337000  0.43543000  1.0 -0.0785129383
C  C11  1  0.50463000  0.43543000  0.03337000  1.0 -0.0785129383
C  C12  1  0.43543000  0.50463000  0.02657000  1.0 -0.0785129383
C  C13  1  0.96663000  0.97343000  0.49537000  1.0 -0.0744299177
C  C14  1  0.97343000  0.96663000  0.56457000  1.0 -0.0744299177
C  C15  1  0.49537000  0.56457000  0.96663000  1.0 -0.0785129383
C  C16  1  0.56457000  0.49537000  0.97343000  1.0 -0.0785129383
C  C17  1  0.06940000  0.05560000  0.51120000  1.0 0.0712529983
C  C18  1  0.05560000  0.06940000  0.36380000  1.0 0.0712529983
C  C19  1  0.51120000  0.36380000  0.06940000  1.0 0.0712529983
C  C20  1  0.36380000  0.51120000  0.05560000  1.0 0.0712529983
C  C21  1  0.93060000  0.94440000  0.48880000  1.0 0.0712529983
C  C22  1  0.94440000  0.93060000  0.63620000  1.0 0.0712529983
C  C23  1  0.48880000  0.63620000  0.93060000  1.0 0.0712529983
C  C24  1  0.63620000  0.48880000  0.94440000  1.0 0.0712529983
C  C25  1  0.02291000  0.12231000  0.54869000  1.0 -0.1617305498
C  C26  1  0.12231000  0.02291000  0.30609000  1.0 -0.1617305498
C  C27  1  0.54869000  0.30609000  0.02291000  1.0 -0.1617305498
C  C28  1  0.30609000  0.54869000  0.12231000  1.0 -0.1617305498
C  C29  1  0.97709000  0.87769000  0.45131000  1.0 -0.1617305498
C  C30  1  0.87769000  0.97709000  0.69391000  1.0 -0.1617305498
C  C31  1  0.45131000  0.69391000  0.97709000  1.0 -0.1617305498
C  C32  1  0.69391000  0.45131000  0.87769000  1.0 -0.1617305498
C  C33  1  0.14625000  0.02165000  0.47775000  1.0 -0.1989027258
C  C34  1  0.02165000  0.14625000  0.35435000  1.0 -0.1989027258
C  C35  1  0.47775000  0.35435000  0.14625000  1.0 -0.1989027258
C  C36  1  0.35435000  0.47775000  0.02165000  1.0 -0.1989027258
C  C37  1  0.85375000  0.97835000  0.52225000  1.0 -0.1989027258
C  C38  1  0.97835000  0.85375000  0.64565000  1.0 -0.1989027258
C  C39  1  0.52225000  0.64565000  0.85375000  1.0 -0.1989027258
C  C40  1  0.64565000  0.52225000  0.97835000  1.0 -0.1989027258
C  C41  1  0.05475000  0.15195000  0.54985000  1.0 -0.2316780235
C  C42  1  0.15195000  0.05475000  0.24345000  1.0 -0.2316780235
C  C43  1  0.54985000  0.24345000  0.05475000  1.0 -0.2316780235
C  C44  1  0.24345000  0.54985000  0.15195000  1.0 -0.2316780235
C  C45  1  0.94525000  0.84805000  0.45015000  1.0 -0.2316780235
C  C46  1  0.84805000  0.94525000  0.75655000  1.0 -0.2316780235
C  C47  1  0.45015000  0.75655000  0.94525000  1.0 -0.2316780235
C  C48  1  0.75655000  0.45015000  0.84805000  1.0 -0.2316780235
C  C49  1  0.17649000  0.05129000  0.48131000  1.0 -0.1395354215
C  C50  1  0.05129000  0.17649000  0.29091000  1.0 -0.1395354215
C  C51  1  0.48131000  0.29091000  0.17649000  1.0 -0.1472307974
C  C52  1  0.29091000  0.48131000  0.05129000  1.0 -0.1472307974
C  C53  1  0.82351000  0.94871000  0.51869000  1.0 -0.1472307974
C  C54  1  0.94871000  0.82351000  0.70909000  1.0 -0.1472307974
C  C55  1  0.51869000  0.70909000  0.82351000  1.0 -0.1472307974
C  C56  1  0.70909000  0.51869000  0.94871000  1.0 -0.1472307974
C  C57  1  0.13046000  0.11786000  0.51734000  1.0 0.0204166918
C  C58  1  0.11786000  0.13046000  0.23434000  1.0 0.0204166918
C  C59  1  0.51734000  0.23434000  0.13046000  1.0 0.0143891931
C  C60  1  0.23434000  0.51734000  0.11786000  1.0 0.0204166918
C  C61  1  0.86954000  0.88214000  0.48266000  1.0 0.0204166918
C  C62  1  0.88214000  0.86954000  0.76566000  1.0 0.0204166918
C  C63  1  0.48266000  0.76566000  0.86954000  1.0 0.0204166918
C  C64  1  0.76566000  0.48266000  0.88214000  1.0 0.0204166918
C  C65  1  0.16415000  0.15189000  0.51691000  1.0 0.0878521869
C  C66  1  0.15189000  0.16415000  0.16705000  1.0 0.0878521869
C  C67  1  0.51691000  0.16705000  0.16415000  1.0 0.0878521869
C  C68  1  0.16705000  0.51691000  0.15189000  1.0 0.0878521869
C  C69  1  0.83585000  0.84811000  0.48309000  1.0 0.0878521869
C  C70  1  0.84811000  0.83585000  0.83295000  1.0 0.0878521869
C  C71  1  0.48309000  0.83295000  0.83585000  1.0 0.0878521869
C  C72  1  0.83295000  0.48309000  0.84811000  1.0 0.0878521869
C  C73  1  0.11801000  0.23261000  0.51479000  1.0 -0.122336391
C  C74  1  0.23261000  0.11801000  0.13459000  1.0 -0.122336391
C  C75  1  0.51479000  0.13459000  0.11801000  1.0 -0.122336391
C  C76  1  0.13459000  0.51479000  0.23261000  1.0 -0.122336391
C  C77  1  0.88199000  0.76739000  0.48521000  1.0 -0.122336391
C  C78  1  0.76739000  0.88199000  0.86541000  1.0 -0.122336391
C  C79  1  0.48521000  0.86541000  0.88199000  1.0 -0.122336391
C  C80  1  0.86541000  0.48521000  0.76739000  1.0 -0.122336391
C  C81  1  0.24062000  0.10622000  0.51538000  1.0 -0.1395354215
C  C82  1  0.10622000  0.24062000  0.13778000  1.0 -0.1395354215
C  C83  1  0.51538000  0.13778000  0.24062000  1.0 -0.1395354215
C  C84  1  0.13778000  0.51538000  0.10622000  1.0 -0.1395354215
C  C85  1  0.75938000  0.89378000  0.48462000  1.0 -0.1395354215
C  C86  1  0.89378000  0.75938000  0.86222000  1.0 -0.1395354215
C  C87  1  0.48462000  0.86222000  0.75938000  1.0 -0.1395354215
C  C88  1  0.86222000  0.48462000  0.89378000  1.0 -0.1395354215
C  C89  1  0.14733000  0.26513000  0.51327000  1.0 -0.0218927582
C  C90  1  0.26513000  0.14733000  0.07427000  1.0 -0.0218927582
C  C91  1  0.51327000  0.07427000  0.14733000  1.0 -0.0218927582
C  C92  1  0.07427000  0.51327000  0.26513000  1.0 -0.0218927582
C  C93  1  0.85267000  0.73487000  0.48673000  1.0 -0.0218927582
C  C94  1  0.73487000  0.85267000  0.92573000  1.0 -0.0218927582
C  C95  1  0.48673000  0.92573000  0.85267000  1.0 -0.0218927582
C  C96  1  0.92573000  0.48673000  0.73487000  1.0 -0.0218927582
C  C97  1  0.27081000  0.13901000  0.51559000  1.0 -0.0218927582
C  C98  1  0.13901000  0.27081000  0.07459000  1.0 -0.0218927582
C  C99  1  0.51559000  0.07459000  0.27081000  1.0 -0.0218927582
C  C100  1  0.07459000  0.51559000  0.13901000  1.0 -0.0218927582
C  C101  1  0.72919000  0.86099000  0.48441000  1.0 -0.0218927582
C  C102  1  0.86099000  0.72919000  0.92541000  1.0 -0.0218927582
C  C103  1  0.48441000  0.92541000  0.72919000  1.0 -0.0218927582
C  C104  1  0.92541000  0.48441000  0.86099000  1.0 -0.0218927582
C  C105  1  0.22366000  0.21826000  0.51474000  1.0 -0.1124693999
C  C106  1  0.21826000  0.22366000  0.04334000  1.0 -0.1124693999
C  C107  1  0.51474000  0.04334000  0.22366000  1.0 -0.1124693999
C  C108  1  0.04334000  0.51474000  0.21826000  1.0 -0.1124693999
C  C109  1  0.77634000  0.78174000  0.48526000  1.0 -0.1124693999
C  C110  1  0.78174000  0.77634000  0.95666000  1.0 -0.1124693999
C  C111  1  0.48526000  0.95666000  0.77634000  1.0 -0.1124693999
C  C112  1  0.95666000  0.48526000  0.78174000  1.0 -0.1124693999
C  C113  1  0.35366000  0.08846000  0.51514000  1.0 0.5766640607
C  C114  1  0.08846000  0.35366000  0.04274000  1.0 0.5766640607
C  C115  1  0.51514000  0.04274000  0.35366000  1.0 0.5766640607
C  C116  1  0.04274000  0.51514000  0.08846000  1.0 0.5766640607
C  C117  1  0.64634000  0.91154000  0.48486000  1.0 0.5766640607
C  C118  1  0.91154000  0.64634000  0.95726000  1.0 0.5766640607
C  C119  1  0.48486000  0.95726000  0.64634000  1.0 0.5766640607
C  C120  1  0.95726000  0.48486000  0.91154000  1.0 0.5766640607
C  C121  1  0.09597000  0.35197000  0.50803000  1.0 0.5766640607
C  C122  1  0.35197000  0.09597000  0.04403000  1.0 0.5766640607
C  C123  1  0.50803000  0.04403000  0.09597000  1.0 0.5766640607
C  C124  1  0.04403000  0.50803000  0.35197000  1.0 0.5766640607
C  C125  1  0.90403000  0.64803000  0.49197000  1.0 0.5766640607
C  C126  1  0.64803000  0.90403000  0.95597000  1.0 0.5766640607
C  C127  1  0.49197000  0.95597000  0.90403000  1.0 0.5766640607
C  C128  1  0.95597000  0.49197000  0.64803000  1.0 0.5766640607
O  O1  1  0.39594000  0.01846000  0.50566000  1.0 -0.5529867966
O  O2  1  0.01846000  0.39594000  0.07994000  1.0 -0.5529867966
O  O3  1  0.50566000  0.07994000  0.39594000  1.0 -0.5529867966
O  O4  1  0.07994000  0.50566000  0.01846000  1.0 -0.5529867966
O  O5  1  0.60406000  0.98154000  0.49434000  1.0 -0.5529867966
O  O6  1  0.98154000  0.60406000  0.92006000  1.0 -0.5529867966
O  O7  1  0.49434000  0.92006000  0.60406000  1.0 -0.5529867966
O  O8  1  0.92006000  0.49434000  0.98154000  1.0 -0.5529867966
O  O9  1  0.03054000  0.38932000  0.50194000  1.0 -0.5417110208
O  O10  1  0.38932000  0.03054000  0.07820000  1.0 -0.5417110208
O  O11  1  0.50194000  0.07820000  0.03054000  1.0 -0.5417110208
O  O12  1  0.07820000  0.50194000  0.38932000  1.0 -0.5417110208
O  O13  1  0.96946000  0.61068000  0.49806000  1.0 -0.5417110208
O  O14  1  0.61068000  0.96946000  0.92180000  1.0 -0.5417110208
O  O15  1  0.49806000  0.92180000  0.96946000  1.0 -0.5417110208
O  O16  1  0.92180000  0.49806000  0.61068000  1.0 -0.5417110208
O  O17  1  0.37656000  0.11898000  0.52190000  1.0 -0.5417110208
O  O18  1  0.11898000  0.37656000  0.98256000  1.0 -0.5417110208
O  O19  1  0.52190000  0.98256000  0.37656000  1.0 -0.5417110208
O  O20  1  0.98256000  0.52190000  0.11898000  1.0 -0.5417110208
O  O21  1  0.62344000  0.88102000  0.47810000  1.0 -0.5417110208
O  O22  1  0.88102000  0.62344000  0.01744000  1.0 -0.5417110208
O  O23  1  0.47810000  0.01744000  0.62344000  1.0 -0.5417110208
O  O24  1  0.01744000  0.47810000  0.88102000  1.0 -0.5417110208
O  O25  1  0.12363000  0.37943000  0.50979000  1.0 -0.53121357
O  O26  1  0.37943000  0.12363000  0.98715000  1.0 -0.53121357
O  O27  1  0.50979000  0.98715000  0.12363000  1.0 -0.53121357
O  O28  1  0.98715000  0.50979000  0.37943000  1.0 -0.53121357
O  O29  1  0.87637000  0.62057000  0.49021000  1.0 -0.53121357
O  O30  1  0.62057000  0.87637000  0.01285000  1.0 -0.53121357
O  O31  1  0.49021000  0.01285000  0.87637000  1.0 -0.53121357
O  O32  1  0.01285000  0.49021000  0.62057000  1.0 -0.53121357
