# DDEC6 charges by PACMAN v1.1 (https://github.com/mtap-research/PACMAN-charge/)
data_RUJMEQ_ASR_pacman
_symmetry_space_group_name_H-M   'P 1'
_cell_length_a   24.68320000
_cell_length_b   23.98120000
_cell_length_c   19.03280000
_cell_angle_alpha   68.93620000
_cell_angle_beta   65.04550000
_cell_angle_gamma   46.01830000
_symmetry_Int_Tables_number   1
_chemical_formula_structural   CuH11(C4O)4
_chemical_formula_sum   'Cu8 H88 C128 O32'
_cell_volume   7311.66405407
_cell_formula_units_Z   8
loop_
 _symmetry_equiv_pos_site_id
 _symmetry_equiv_pos_as_xyz
  1  'x, y, z'
loop_
 _atom_site_type_symbol
 _atom_site_label
 _atom_site_symmetry_multiplicity
 _atom_site_fract_x
 _atom_site_fract_y
 _atom_site_fract_z
 _atom_site_occupancy
 _atom_site_charge
Cu  Cu1  1  0.44339000  0.00505000  0.99495000  1.0 0.8492371389
Cu  Cu2  1  0.00505000  0.44339000  0.55661000  1.0 0.8446218321
Cu  Cu3  1  0.99495000  0.55661000  0.44339000  1.0 0.8492371389
Cu  Cu4  1  0.55661000  0.99495000  0.00505000  1.0 0.8492371389
Cu  Cu5  1  0.44071000  0.01119000  0.55929000  1.0 0.8492371389
Cu  Cu6  1  0.01119000  0.44071000  0.98881000  1.0 0.8492371389
Cu  Cu7  1  0.55929000  0.98881000  0.44071000  1.0 0.8555856296
Cu  Cu8  1  0.98881000  0.55929000  0.01119000  1.0 0.8555856296
H  H1  1  0.50240000  0.01520000  0.73940000  1.0 0.1308143721
H  H2  1  0.01520000  0.50240000  0.74300000  1.0 0.1308143721
H  H3  1  0.73940000  0.74300000  0.50240000  1.0 0.1308143721
H  H4  1  0.74300000  0.73940000  0.01520000  1.0 0.1308143721
H  H5  1  0.49760000  0.98480000  0.26060000  1.0 0.1308143721
H  H6  1  0.98480000  0.49760000  0.25700000  1.0 0.1308143721
H  H7  1  0.26060000  0.25700000  0.49760000  1.0 0.1308143721
H  H8  1  0.25700000  0.26060000  0.98480000  1.0 0.1308143721
H  H9  1  0.65660000  0.01860000  0.55140000  1.0 0.1213910902
H  H10  1  0.01860000  0.65660000  0.77340000  1.0 0.1213910902
H  H11  1  0.55140000  0.77340000  0.65660000  1.0 0.1213910902
H  H12  1  0.77340000  0.55140000  0.01860000  1.0 0.1213910902
H  H13  1  0.34340000  0.98140000  0.44860000  1.0 0.1213910902
H  H14  1  0.98140000  0.34340000  0.22660000  1.0 0.1213910902
H  H15  1  0.44860000  0.22660000  0.34340000  1.0 0.1213910902
H  H16  1  0.22660000  0.44860000  0.98140000  1.0 0.1213910902
H  H17  1  0.65430000  0.01770000  0.76270000  1.0 0.1213910902
H  H18  1  0.01770000  0.65430000  0.56530000  1.0 0.1213910902
H  H19  1  0.76270000  0.56530000  0.65430000  1.0 0.1213910902
H  H20  1  0.56530000  0.76270000  0.01770000  1.0 0.1213910902
H  H21  1  0.34570000  0.98230000  0.23730000  1.0 0.1213910902
H  H22  1  0.98230000  0.34570000  0.43470000  1.0 0.1213910902
H  H23  1  0.23730000  0.43470000  0.34570000  1.0 0.1213910902
H  H24  1  0.43470000  0.23730000  0.98230000  1.0 0.1213910902
H  H25  1  0.78570000  0.96010000  0.52490000  1.0 0.1110918946
H  H26  1  0.96010000  0.78570000  0.72930000  1.0 0.1110918946
H  H27  1  0.52490000  0.72930000  0.78570000  1.0 0.1110918946
H  H28  1  0.72930000  0.52490000  0.96010000  1.0 0.1110918946
H  H29  1  0.21430000  0.03990000  0.47510000  1.0 0.1110918946
H  H30  1  0.03990000  0.21430000  0.27070000  1.0 0.1110918946
H  H31  1  0.47510000  0.27070000  0.21430000  1.0 0.1110918946
H  H32  1  0.27070000  0.47510000  0.03990000  1.0 0.1110918946
H  H33  1  0.70450000  0.07830000  0.69450000  1.0 0.1110918946
H  H34  1  0.07830000  0.70450000  0.52270000  1.0 0.1110918946
H  H35  1  0.69450000  0.52270000  0.70450000  1.0 0.1110918946
H  H36  1  0.52270000  0.69450000  0.07830000  1.0 0.1110918946
H  H37  1  0.29550000  0.92170000  0.30550000  1.0 0.1110918946
H  H38  1  0.92170000  0.29550000  0.47730000  1.0 0.1110918946
H  H39  1  0.30550000  0.47730000  0.29550000  1.0 0.1110918946
H  H40  1  0.47730000  0.30550000  0.92170000  1.0 0.1110918946
H  H41  1  0.89170000  0.95390000  0.47570000  1.0 0.1567209089
H  H42  1  0.95390000  0.89170000  0.67870000  1.0 0.1567209089
H  H43  1  0.47570000  0.67870000  0.89170000  1.0 0.1567209089
H  H44  1  0.67870000  0.47570000  0.95390000  1.0 0.1567209089
H  H45  1  0.10830000  0.04610000  0.52430000  1.0 0.1567209089
H  H46  1  0.04610000  0.10830000  0.32130000  1.0 0.1567209089
H  H47  1  0.52430000  0.32130000  0.10830000  1.0 0.1567209089
H  H48  1  0.32130000  0.52430000  0.04610000  1.0 0.1567209089
H  H49  1  0.81200000  0.07260000  0.64620000  1.0 0.1394259935
H  H50  1  0.07260000  0.81200000  0.46920000  1.0 0.1394259935
H  H51  1  0.64620000  0.46920000  0.81200000  1.0 0.1394259935
H  H52  1  0.46920000  0.64620000  0.07260000  1.0 0.1394259935
H  H53  1  0.18800000  0.92740000  0.35380000  1.0 0.1394259935
H  H54  1  0.92740000  0.18800000  0.53080000  1.0 0.1394259935
H  H55  1  0.35380000  0.53080000  0.18800000  1.0 0.1394259935
H  H56  1  0.53080000  0.35380000  0.92740000  1.0 0.1394259935
H  H57  1  0.80900000  0.14640000  0.50180000  1.0 0.0828910031
H  H58  1  0.14640000  0.80900000  0.54280000  1.0 0.0828910031
H  H59  1  0.50180000  0.54280000  0.80900000  1.0 0.0828910031
H  H60  1  0.54280000  0.50180000  0.14640000  1.0 0.0828910031
H  H61  1  0.19100000  0.85360000  0.49820000  1.0 0.0828910031
H  H62  1  0.85360000  0.19100000  0.45720000  1.0 0.0828910031
H  H63  1  0.49820000  0.45720000  0.19100000  1.0 0.0828910031
H  H64  1  0.45720000  0.49820000  0.85360000  1.0 0.0862089345
H  H65  1  0.85420000  0.19040000  0.45480000  1.0 0.0828910031
H  H66  1  0.19040000  0.85420000  0.50060000  1.0 0.0828910031
H  H67  1  0.45480000  0.50060000  0.85420000  1.0 0.0862089345
H  H68  1  0.50060000  0.45480000  0.19040000  1.0 0.0828910031
H  H69  1  0.14580000  0.80960000  0.54520000  1.0 0.0828910031
H  H70  1  0.80960000  0.14580000  0.49940000  1.0 0.0828910031
H  H71  1  0.54520000  0.49940000  0.14580000  1.0 0.0828910031
H  H72  1  0.49940000  0.54520000  0.80960000  1.0 0.0828910031
H  H73  1  0.81160000  0.16700000  0.53060000  1.0 -0.0205748108
H  H74  1  0.16700000  0.81160000  0.49080000  1.0 -0.0205748108
H  H75  1  0.53060000  0.49080000  0.81160000  1.0 -0.0110223732
H  H76  1  0.49080000  0.53060000  0.16700000  1.0 -0.0205748108
H  H77  1  0.18840000  0.83300000  0.46940000  1.0 -0.0205748108
H  H78  1  0.83300000  0.18840000  0.50920000  1.0 -0.0205748108
H  H79  1  0.46940000  0.50920000  0.18840000  1.0 -0.0205748108
H  H80  1  0.50920000  0.46940000  0.83300000  1.0 -0.0205748108
H  H81  1  0.82890000  0.14790000  0.44950000  1.0 -0.0110223732
H  H82  1  0.14790000  0.82890000  0.57370000  1.0 -0.0110223732
H  H83  1  0.44950000  0.57370000  0.82890000  1.0 -0.0043154424
H  H84  1  0.57370000  0.44950000  0.14790000  1.0 -0.0110223732
H  H85  1  0.17110000  0.85210000  0.55050000  1.0 -0.0043154424
H  H86  1  0.85210000  0.17110000  0.42630000  1.0 -0.0110223732
H  H87  1  0.55050000  0.42630000  0.17110000  1.0 -0.0110223732
H  H88  1  0.42630000  0.55050000  0.85210000  1.0 -0.0110223732
C  C1  1  0.54355000  0.01435000  0.58745000  1.0 0.5729197362
C  C2  1  0.01435000  0.54355000  0.85465000  1.0 0.5729197362
C  C3  1  0.58745000  0.85465000  0.54355000  1.0 0.5729197362
C  C4  1  0.85465000  0.58745000  0.01435000  1.0 0.5729197362
C  C5  1  0.45645000  0.98565000  0.41255000  1.0 0.5729197362
C  C6  1  0.98565000  0.45645000  0.14535000  1.0 0.5729197362
C  C7  1  0.41255000  0.14535000  0.45645000  1.0 0.5729197362
C  C8  1  0.14535000  0.41255000  0.98565000  1.0 0.5729197362
C  C9  1  0.57537000  0.01577000  0.63843000  1.0 -0.0205748108
C  C10  1  0.01577000  0.57537000  0.77043000  1.0 -0.0205748108
C  C11  1  0.63843000  0.77043000  0.57537000  1.0 -0.0205748108
C  C12  1  0.77043000  0.63843000  0.01577000  1.0 -0.0205748108
C  C13  1  0.42463000  0.98423000  0.36157000  1.0 -0.0205748108
C  C14  1  0.98423000  0.42463000  0.22957000  1.0 -0.0205748108
C  C15  1  0.36157000  0.22957000  0.42463000  1.0 -0.0205748108
C  C16  1  0.22957000  0.36157000  0.98423000  1.0 -0.0205748108
C  C17  1  0.54393000  0.01513000  0.71747000  1.0 -0.1142678014
C  C18  1  0.01513000  0.54393000  0.72347000  1.0 -0.1142678014
C  C19  1  0.71747000  0.72347000  0.54393000  1.0 -0.120410848
C  C20  1  0.72347000  0.71747000  0.01513000  1.0 -0.120410848
C  C21  1  0.45607000  0.98487000  0.28253000  1.0 -0.1142678014
C  C22  1  0.98487000  0.45607000  0.27653000  1.0 -0.1142678014
C  C23  1  0.28253000  0.27653000  0.45607000  1.0 -0.1142678014
C  C24  1  0.27653000  0.28253000  0.98487000  1.0 -0.1142678014
C  C25  1  0.57460000  0.01460000  0.76380000  1.0 -0.0110223732
C  C26  1  0.01460000  0.57460000  0.64700000  1.0 -0.0110223732
C  C27  1  0.76380000  0.64700000  0.57460000  1.0 -0.0110223732
C  C28  1  0.64700000  0.76380000  0.01460000  1.0 -0.0110223732
C  C29  1  0.42540000  0.98540000  0.23620000  1.0 -0.0110223732
C  C30  1  0.98540000  0.42540000  0.35300000  1.0 -0.0110223732
C  C31  1  0.23620000  0.35300000  0.42540000  1.0 -0.0110223732
C  C32  1  0.35300000  0.23620000  0.98540000  1.0 -0.0110223732
C  C33  1  0.54600000  0.00780000  0.85320000  1.0 0.5729197362
C  C34  1  0.00780000  0.54600000  0.59300000  1.0 0.5729197362
C  C35  1  0.85320000  0.59300000  0.54600000  1.0 0.5729197362
C  C36  1  0.59300000  0.85320000  0.00780000  1.0 0.5729197362
C  C37  1  0.45400000  0.99220000  0.14680000  1.0 0.5729197362
C  C38  1  0.99220000  0.45400000  0.40700000  1.0 0.5729197362
C  C39  1  0.14680000  0.40700000  0.45400000  1.0 0.5729197362
C  C40  1  0.40700000  0.14680000  0.99220000  1.0 0.5729197362
C  C41  1  0.63625000  0.01785000  0.60515000  1.0 -0.1403780058
C  C42  1  0.01785000  0.63625000  0.74075000  1.0 -0.1403780058
C  C43  1  0.60515000  0.74075000  0.63625000  1.0 -0.1403780058
C  C44  1  0.74075000  0.60515000  0.01785000  1.0 -0.1403780058
C  C45  1  0.36375000  0.98215000  0.39485000  1.0 -0.1403780058
C  C46  1  0.98215000  0.36375000  0.25925000  1.0 -0.1403780058
C  C47  1  0.39485000  0.25925000  0.36375000  1.0 -0.1403780058
C  C48  1  0.25925000  0.39485000  0.98215000  1.0 -0.1403780058
C  C49  1  0.63491000  0.01711000  0.73049000  1.0 -0.1403780058
C  C50  1  0.01711000  0.63491000  0.61749000  1.0 -0.1403780058
C  C51  1  0.73049000  0.61749000  0.63491000  1.0 -0.1403780058
C  C52  1  0.61749000  0.73049000  0.01711000  1.0 -0.1403780058
C  C53  1  0.36509000  0.98289000  0.26951000  1.0 -0.1403780058
C  C54  1  0.98289000  0.36509000  0.38251000  1.0 -0.1403780058
C  C55  1  0.26951000  0.38251000  0.36509000  1.0 -0.1403780058
C  C56  1  0.38251000  0.26951000  0.98289000  1.0 -0.1403780058
C  C57  1  0.66725000  0.01865000  0.65055000  1.0 0.0736257234
C  C58  1  0.01865000  0.66725000  0.66355000  1.0 0.0736257234
C  C59  1  0.65055000  0.66355000  0.66725000  1.0 0.0736257234
C  C60  1  0.66355000  0.65055000  0.01865000  1.0 0.0736257234
C  C61  1  0.33275000  0.98135000  0.34945000  1.0 0.0736257234
C  C62  1  0.98135000  0.33275000  0.33645000  1.0 0.0736257234
C  C63  1  0.34945000  0.33645000  0.33275000  1.0 0.0736257234
C  C64  1  0.33645000  0.34945000  0.98135000  1.0 0.0736257234
C  C65  1  0.73286000  0.01986000  0.61554000  1.0 0.0243490139
C  C66  1  0.01986000  0.73286000  0.63174000  1.0 0.0243490139
C  C67  1  0.61554000  0.63174000  0.73286000  1.0 0.0306968953
C  C68  1  0.63174000  0.61554000  0.01986000  1.0 0.0243490139
C  C69  1  0.26714000  0.98014000  0.38446000  1.0 0.0243490139
C  C70  1  0.98014000  0.26714000  0.36826000  1.0 0.0306968953
C  C71  1  0.38446000  0.36826000  0.26714000  1.0 0.0306968953
C  C72  1  0.36826000  0.38446000  0.98014000  1.0 0.0306968953
C  C73  1  0.79033000  0.98313000  0.54987000  1.0 -0.1300468519
C  C74  1  0.98313000  0.79033000  0.67667000  1.0 -0.1300468519
C  C75  1  0.54987000  0.67667000  0.79033000  1.0 -0.1403780058
C  C76  1  0.67667000  0.54987000  0.98313000  1.0 -0.1300468519
C  C77  1  0.20967000  0.01687000  0.45013000  1.0 -0.1300468519
C  C78  1  0.01687000  0.20967000  0.32333000  1.0 -0.1403780058
C  C79  1  0.45013000  0.32333000  0.20967000  1.0 -0.1300468519
C  C80  1  0.32333000  0.45013000  0.01687000  1.0 -0.1403780058
C  C81  1  0.74229000  0.05289000  0.65031000  1.0 -0.120410848
C  C82  1  0.05289000  0.74229000  0.55451000  1.0 -0.120410848
C  C83  1  0.65031000  0.55451000  0.74229000  1.0 -0.120410848
C  C84  1  0.55451000  0.65031000  0.05289000  1.0 -0.120410848
C  C85  1  0.25771000  0.94711000  0.34969000  1.0 -0.120410848
C  C86  1  0.94711000  0.25771000  0.44549000  1.0 -0.120410848
C  C87  1  0.34969000  0.44549000  0.25771000  1.0 -0.120410848
C  C88  1  0.44549000  0.34969000  0.94711000  1.0 -0.120410848
C  C89  1  0.85423000  0.97923000  0.51997000  1.0 -0.1142678014
C  C90  1  0.97923000  0.85423000  0.64657000  1.0 -0.1142678014
C  C91  1  0.51997000  0.64657000  0.85423000  1.0 -0.1142678014
C  C92  1  0.64657000  0.51997000  0.97923000  1.0 -0.120410848
C  C93  1  0.14577000  0.02077000  0.48003000  1.0 -0.120410848
C  C94  1  0.02077000  0.14577000  0.35343000  1.0 -0.1142678014
C  C95  1  0.48003000  0.35343000  0.14577000  1.0 -0.120410848
C  C96  1  0.35343000  0.48003000  0.02077000  1.0 -0.1142678014
C  C97  1  0.80713000  0.04973000  0.62127000  1.0 -0.1300468519
C  C98  1  0.04973000  0.80713000  0.52187000  1.0 -0.1300468519
C  C99  1  0.62127000  0.52187000  0.80713000  1.0 -0.1300468519
C  C100  1  0.52187000  0.62127000  0.04973000  1.0 -0.1300468519
C  C101  1  0.19287000  0.95027000  0.37873000  1.0 -0.1300468519
C  C102  1  0.95027000  0.19287000  0.47813000  1.0 -0.1300468519
C  C103  1  0.37873000  0.47813000  0.19287000  1.0 -0.1300468519
C  C104  1  0.47813000  0.37873000  0.95027000  1.0 -0.1300468519
C  C105  1  0.86302000  0.01282000  0.55578000  1.0 0.0306968953
C  C106  1  0.01282000  0.86302000  0.56838000  1.0 0.0306968953
C  C107  1  0.55578000  0.56838000  0.86302000  1.0 0.0306968953
C  C108  1  0.56838000  0.55578000  0.01282000  1.0 0.0306968953
C  C109  1  0.13698000  0.98718000  0.44422000  1.0 0.0306968953
C  C110  1  0.98718000  0.13698000  0.43162000  1.0 0.0306968953
C  C111  1  0.44422000  0.43162000  0.13698000  1.0 0.0306968953
C  C112  1  0.43162000  0.44422000  0.98718000  1.0 0.0306968953
C  C113  1  0.93353000  0.00693000  0.52707000  1.0 -0.0110223732
C  C114  1  0.00693000  0.93353000  0.53247000  1.0 -0.0110223732
C  C115  1  0.52707000  0.53247000  0.93353000  1.0 -0.0110223732
C  C116  1  0.53247000  0.52707000  0.00693000  1.0 -0.0110223732
C  C117  1  0.06647000  0.99307000  0.47293000  1.0 -0.0110223732
C  C118  1  0.99307000  0.06647000  0.46753000  1.0 -0.0110223732
C  C119  1  0.47293000  0.46753000  0.06647000  1.0 -0.0110223732
C  C120  1  0.46753000  0.47293000  0.99307000  1.0 -0.0110223732
C  C121  1  0.92770000  0.07230000  0.49090000  1.0 0.0306968953
C  C122  1  0.07230000  0.92770000  0.50910000  1.0 0.0306968953
C  C123  1  0.49090000  0.50910000  0.92770000  1.0 0.0306968953
C  C124  1  0.50910000  0.49090000  0.07230000  1.0 0.0306968953
C  C125  1  0.84810000  0.15190000  0.48050000  1.0 -0.237526556
C  C126  1  0.15190000  0.84810000  0.51950000  1.0 -0.2473593554
C  C127  1  0.48050000  0.51950000  0.84810000  1.0 -0.2473593554
C  C128  1  0.51950000  0.48050000  0.15190000  1.0 -0.237526556
O  O1  1  0.48319000  0.02159000  0.61681000  1.0 -0.5198516934
O  O2  1  0.02159000  0.48319000  0.87841000  1.0 -0.5198516934
O  O3  1  0.61681000  0.87841000  0.48319000  1.0 -0.5198516934
O  O4  1  0.87841000  0.61681000  0.02159000  1.0 -0.5198516934
O  O5  1  0.51681000  0.97841000  0.38319000  1.0 -0.5198516934
O  O6  1  0.97841000  0.51681000  0.12159000  1.0 -0.5198516934
O  O7  1  0.38319000  0.12159000  0.51681000  1.0 -0.5198516934
O  O8  1  0.12159000  0.38319000  0.97841000  1.0 -0.5198516934
O  O9  1  0.58175000  0.00401000  0.51585000  1.0 -0.5444415143
O  O10  1  0.00401000  0.58175000  0.89839000  1.0 -0.5462679119
O  O11  1  0.51585000  0.89839000  0.58175000  1.0 -0.5444415143
O  O12  1  0.89839000  0.51585000  0.00401000  1.0 -0.5462679119
O  O13  1  0.41825000  0.99599000  0.48415000  1.0 -0.5444415143
O  O14  1  0.99599000  0.41825000  0.10161000  1.0 -0.5444415143
O  O15  1  0.48415000  0.10161000  0.41825000  1.0 -0.5444415143
O  O16  1  0.10161000  0.48415000  0.99599000  1.0 -0.5462679119
O  O17  1  0.58134000  0.00152000  0.89006000  1.0 -0.52691259
O  O18  1  0.00152000  0.58134000  0.52708000  1.0 -0.52691259
O  O19  1  0.89006000  0.52708000  0.58134000  1.0 -0.52691259
O  O20  1  0.52708000  0.89006000  0.00152000  1.0 -0.52691259
O  O21  1  0.41866000  0.99848000  0.10994000  1.0 -0.52691259
O  O22  1  0.99848000  0.41866000  0.47292000  1.0 -0.52691259
O  O23  1  0.10994000  0.47292000  0.41866000  1.0 -0.52691259
O  O24  1  0.47292000  0.10994000  0.99848000  1.0 -0.52691259
O  O25  1  0.48863000  0.01031000  0.88137000  1.0 -0.5198516934
O  O26  1  0.01031000  0.48863000  0.61969000  1.0 -0.5198516934
O  O27  1  0.88137000  0.61969000  0.48863000  1.0 -0.5198516934
O  O28  1  0.61969000  0.88137000  0.01031000  1.0 -0.5198516934
O  O29  1  0.51137000  0.98969000  0.11863000  1.0 -0.5198516934
O  O30  1  0.98969000  0.51137000  0.38031000  1.0 -0.5198516934
O  O31  1  0.11863000  0.38031000  0.51137000  1.0 -0.5198516934
O  O32  1  0.38031000  0.11863000  0.98969000  1.0 -0.5198516934
