# DDEC6 charges by PACMAN v1.1 (https://github.com/mtap-research/PACMAN-charge/)
data_RULQIY_ASR_pacman
_symmetry_space_group_name_H-M   'P 1'
_cell_length_a   14.34400000
_cell_length_b   14.34400000
_cell_length_c   15.47000000
_cell_angle_alpha   90.00000000
_cell_angle_beta   90.00000000
_cell_angle_gamma   120.00000000
_symmetry_Int_Tables_number   1
_chemical_formula_structural   Yb4Cu3(C4O5)6
_chemical_formula_sum   'Yb8 Cu6 C48 O60'
_cell_volume   2756.52222557
_cell_formula_units_Z   2
loop_
 _symmetry_equiv_pos_site_id
 _symmetry_equiv_pos_as_xyz
  1  'x, y, z'
loop_
 _atom_site_type_symbol
 _atom_site_label
 _atom_site_symmetry_multiplicity
 _atom_site_fract_x
 _atom_site_fract_y
 _atom_site_fract_z
 _atom_site_occupancy
 _atom_site_charge
Yb  Yb1  1  0.66600000  0.33300000  0.75000000  1.0 1.9819122943
Yb  Yb2  1  0.33300000  0.66600000  0.75000000  1.0 1.9819122943
Yb  Yb3  1  0.33400000  0.66700000  0.75000000  1.0 1.9819122943
Yb  Yb4  1  0.66700000  0.33400000  0.75000000  1.0 1.9819122943
Yb  Yb5  1  0.33400000  0.66700000  0.25000000  1.0 1.9819122943
Yb  Yb6  1  0.66700000  0.33400000  0.25000000  1.0 1.9819122943
Yb  Yb7  1  0.66600000  0.33300000  0.25000000  1.0 1.9819122943
Yb  Yb8  1  0.33300000  0.66600000  0.25000000  1.0 1.9819122943
Cu  Cu1  1  0.50000000  0.00000000  0.00000000  1.0 0.9272546066
Cu  Cu2  1  0.50000000  0.50000000  0.00000000  1.0 0.9272546066
Cu  Cu3  1  0.00000000  0.50000000  0.50000000  1.0 0.9243461383
Cu  Cu4  1  0.00000000  0.50000000  0.00000000  1.0 0.9243461383
Cu  Cu5  1  0.50000000  0.00000000  0.50000000  1.0 0.9272546066
Cu  Cu6  1  0.50000000  0.50000000  0.50000000  1.0 0.9243461383
C  C1  1  0.73900000  0.14800000  0.80900000  1.0 -0.0498471289
C  C2  1  0.59100000  0.73900000  0.80900000  1.0 -0.0498471289
C  C3  1  0.85200000  0.26100000  0.69100000  1.0 -0.0498471289
C  C4  1  0.85200000  0.59100000  0.80900000  1.0 -0.0498471289
C  C5  1  0.59100000  0.85200000  0.69100000  1.0 -0.0498471289
C  C6  1  0.26100000  0.85200000  0.80900000  1.0 -0.0498471289
C  C7  1  0.73900000  0.59100000  0.69100000  1.0 -0.0498471289
C  C8  1  0.40900000  0.26100000  0.80900000  1.0 -0.0498471289
C  C9  1  0.14800000  0.73900000  0.69100000  1.0 -0.0498471289
C  C10  1  0.14800000  0.40900000  0.80900000  1.0 -0.0498471289
C  C11  1  0.40900000  0.14800000  0.69100000  1.0 -0.0498471289
C  C12  1  0.26100000  0.40900000  0.69100000  1.0 -0.0498471289
C  C13  1  0.26100000  0.85200000  0.19100000  1.0 -0.0498471289
C  C14  1  0.40900000  0.26100000  0.19100000  1.0 -0.0498471289
C  C15  1  0.14800000  0.73900000  0.30900000  1.0 -0.0498471289
C  C16  1  0.14800000  0.40900000  0.19100000  1.0 -0.0498471289
C  C17  1  0.40900000  0.14800000  0.30900000  1.0 -0.0498471289
C  C18  1  0.73900000  0.14800000  0.19100000  1.0 -0.0498471289
C  C19  1  0.26100000  0.40900000  0.30900000  1.0 -0.0498471289
C  C20  1  0.59100000  0.73900000  0.19100000  1.0 -0.0498471289
C  C21  1  0.85200000  0.26100000  0.30900000  1.0 -0.0498471289
C  C22  1  0.85200000  0.59100000  0.19100000  1.0 -0.0498471289
C  C23  1  0.59100000  0.85200000  0.30900000  1.0 -0.0498471289
C  C24  1  0.73900000  0.59100000  0.30900000  1.0 -0.0498471289
C  C25  1  0.64800000  0.13500000  0.86300000  1.0 0.5748912188
C  C26  1  0.51300000  0.64800000  0.86300000  1.0 0.5753614399
C  C27  1  0.86500000  0.35200000  0.63700000  1.0 0.5748912188
C  C28  1  0.86500000  0.51300000  0.86300000  1.0 0.5748912188
C  C29  1  0.51300000  0.86500000  0.63700000  1.0 0.5753614399
C  C30  1  0.35200000  0.86500000  0.86300000  1.0 0.5753614399
C  C31  1  0.64800000  0.51300000  0.63700000  1.0 0.5753614399
C  C32  1  0.48700000  0.35200000  0.86300000  1.0 0.5748912188
C  C33  1  0.13500000  0.64800000  0.63700000  1.0 0.5753614399
C  C34  1  0.13500000  0.48700000  0.86300000  1.0 0.5753614399
C  C35  1  0.48700000  0.13500000  0.63700000  1.0 0.5748912188
C  C36  1  0.35200000  0.48700000  0.63700000  1.0 0.5753614399
C  C37  1  0.35200000  0.86500000  0.13700000  1.0 0.5748912188
C  C38  1  0.48700000  0.35200000  0.13700000  1.0 0.5748912188
C  C39  1  0.13500000  0.64800000  0.36300000  1.0 0.5753614399
C  C40  1  0.13500000  0.48700000  0.13700000  1.0 0.5753614399
C  C41  1  0.48700000  0.13500000  0.36300000  1.0 0.5748912188
C  C42  1  0.64800000  0.13500000  0.13700000  1.0 0.5753614399
C  C43  1  0.35200000  0.48700000  0.36300000  1.0 0.5748912188
C  C44  1  0.51300000  0.64800000  0.13700000  1.0 0.5753614399
C  C45  1  0.86500000  0.35200000  0.36300000  1.0 0.5748912188
C  C46  1  0.86500000  0.51300000  0.13700000  1.0 0.5748912188
C  C47  1  0.51300000  0.86500000  0.36300000  1.0 0.5748912188
C  C48  1  0.64800000  0.51300000  0.36300000  1.0 0.5748912188
O  O1  1  0.76380000  0.23620000  0.75000000  1.0 -0.4579971017
O  O2  1  0.52760000  0.76380000  0.75000000  1.0 -0.4579971017
O  O3  1  0.76380000  0.52760000  0.75000000  1.0 -0.4579971017
O  O4  1  0.23620000  0.76380000  0.75000000  1.0 -0.4579971017
O  O5  1  0.47240000  0.23620000  0.75000000  1.0 -0.4579971017
O  O6  1  0.23620000  0.47240000  0.75000000  1.0 -0.4579971017
O  O7  1  0.23620000  0.76380000  0.25000000  1.0 -0.4579971017
O  O8  1  0.47240000  0.23620000  0.25000000  1.0 -0.4579971017
O  O9  1  0.23620000  0.47240000  0.25000000  1.0 -0.4579971017
O  O10  1  0.76380000  0.23620000  0.25000000  1.0 -0.4579971017
O  O11  1  0.52760000  0.76380000  0.25000000  1.0 -0.4579971017
O  O12  1  0.76380000  0.52760000  0.25000000  1.0 -0.4579971017
O  O13  1  0.61400000  0.19630000  0.85430000  1.0 -0.7141407487
O  O14  1  0.41770000  0.61400000  0.85430000  1.0 -0.7152247337
O  O15  1  0.80370000  0.38600000  0.64570000  1.0 -0.7141407487
O  O16  1  0.80370000  0.41770000  0.85430000  1.0 -0.7141407487
O  O17  1  0.41770000  0.80370000  0.64570000  1.0 -0.7141407487
O  O18  1  0.38600000  0.80370000  0.85430000  1.0 -0.7141407487
O  O19  1  0.61400000  0.41770000  0.64570000  1.0 -0.7152247337
O  O20  1  0.58230000  0.38600000  0.85430000  1.0 -0.7152247337
O  O21  1  0.19630000  0.61400000  0.64570000  1.0 -0.7141407487
O  O22  1  0.19630000  0.58230000  0.85430000  1.0 -0.7141407487
O  O23  1  0.58230000  0.19630000  0.64570000  1.0 -0.7141407487
O  O24  1  0.38600000  0.58230000  0.64570000  1.0 -0.7152247337
O  O25  1  0.38600000  0.80370000  0.14570000  1.0 -0.7141407487
O  O26  1  0.58230000  0.38600000  0.14570000  1.0 -0.7152247337
O  O27  1  0.19630000  0.61400000  0.35430000  1.0 -0.7141407487
O  O28  1  0.19630000  0.58230000  0.14570000  1.0 -0.7141407487
O  O29  1  0.58230000  0.19630000  0.35430000  1.0 -0.7141407487
O  O30  1  0.61400000  0.19630000  0.14570000  1.0 -0.7141407487
O  O31  1  0.38600000  0.58230000  0.35430000  1.0 -0.7152247337
O  O32  1  0.41770000  0.61400000  0.14570000  1.0 -0.7152247337
O  O33  1  0.80370000  0.38600000  0.35430000  1.0 -0.7141407487
O  O34  1  0.80370000  0.41770000  0.14570000  1.0 -0.7141407487
O  O35  1  0.41770000  0.80370000  0.35430000  1.0 -0.7141407487
O  O36  1  0.61400000  0.41770000  0.35430000  1.0 -0.7152247337
O  O37  1  0.61100000  0.05440000  0.91100000  1.0 -0.4737476213
O  O38  1  0.55660000  0.61100000  0.91100000  1.0 -0.4737476213
O  O39  1  0.94560000  0.38900000  0.58900000  1.0 -0.4737476213
O  O40  1  0.94560000  0.55660000  0.91100000  1.0 -0.4737476213
O  O41  1  0.55660000  0.94560000  0.58900000  1.0 -0.4737476213
O  O42  1  0.38900000  0.94560000  0.91100000  1.0 -0.4761208204
O  O43  1  0.61100000  0.55660000  0.58900000  1.0 -0.4737476213
O  O44  1  0.44340000  0.38900000  0.91100000  1.0 -0.4737476213
O  O45  1  0.05440000  0.61100000  0.58900000  1.0 -0.4737476213
O  O46  1  0.05440000  0.44340000  0.91100000  1.0 -0.4737476213
O  O47  1  0.44340000  0.05440000  0.58900000  1.0 -0.4737476213
O  O48  1  0.38900000  0.44340000  0.58900000  1.0 -0.4737476213
O  O49  1  0.38900000  0.94560000  0.08900000  1.0 -0.4737476213
O  O50  1  0.44340000  0.38900000  0.08900000  1.0 -0.4737476213
O  O51  1  0.05440000  0.61100000  0.41100000  1.0 -0.4737476213
O  O52  1  0.05440000  0.44340000  0.08900000  1.0 -0.4737476213
O  O53  1  0.44340000  0.05440000  0.41100000  1.0 -0.4737476213
O  O54  1  0.61100000  0.05440000  0.08900000  1.0 -0.4737476213
O  O55  1  0.38900000  0.44340000  0.41100000  1.0 -0.4737476213
O  O56  1  0.55660000  0.61100000  0.08900000  1.0 -0.4737476213
O  O57  1  0.94560000  0.38900000  0.41100000  1.0 -0.4737476213
O  O58  1  0.94560000  0.55660000  0.08900000  1.0 -0.4737476213
O  O59  1  0.55660000  0.94560000  0.41100000  1.0 -0.4737476213
O  O60  1  0.61100000  0.55660000  0.41100000  1.0 -0.4737476213
