# DDEC6 charges by PACMAN v1.1 (https://github.com/mtap-research/PACMAN-charge/)
data_RUPZIM_ASR_pacman
_symmetry_space_group_name_H-M   'P 1'
_cell_length_a   7.61450000
_cell_length_b   11.13300000
_cell_length_c   16.86880000
_cell_angle_alpha   90.00000000
_cell_angle_beta   90.00000000
_cell_angle_gamma   90.00000000
_symmetry_Int_Tables_number   1
_chemical_formula_structural   ZnH8C14(NO2)2
_chemical_formula_sum   'Zn4 H32 C56 N8 O16'
_cell_volume   1430.00576812
_cell_formula_units_Z   4
loop_
 _symmetry_equiv_pos_site_id
 _symmetry_equiv_pos_as_xyz
  1  'x, y, z'
loop_
 _atom_site_type_symbol
 _atom_site_label
 _atom_site_symmetry_multiplicity
 _atom_site_fract_x
 _atom_site_fract_y
 _atom_site_fract_z
 _atom_site_occupancy
 _atom_site_charge
Zn  Zn1  1  0.10229000  0.14092000  0.96158000  1.0 0.915498143
Zn  Zn2  1  0.39771000  0.85908000  0.46158000  1.0 0.9119751111
Zn  Zn3  1  0.89771000  0.64092000  0.53842000  1.0 0.9119751111
Zn  Zn4  1  0.60229000  0.35908000  0.03842000  1.0 0.9119751111
H  H1  1  0.21660000  0.20520000  0.21590000  1.0 0.1199514338
H  H2  1  0.28340000  0.79480000  0.71590000  1.0 0.1199514338
H  H3  1  0.78340000  0.70520000  0.28410000  1.0 0.1199514338
H  H4  1  0.71660000  0.29480000  0.78410000  1.0 0.1199514338
H  H5  1  0.24490000  0.39260000  0.63210000  1.0 0.1530682301
H  H6  1  0.25510000  0.60740000  0.13210000  1.0 0.1530682301
H  H7  1  0.75510000  0.89260000  0.86790000  1.0 0.1553063597
H  H8  1  0.74490000  0.10740000  0.36790000  1.0 0.1530682301
H  H9  1  0.01580000  0.59920000  0.84510000  1.0 0.1404151227
H  H10  1  0.48420000  0.40080000  0.34510000  1.0 0.1404151227
H  H11  1  0.98420000  0.09920000  0.65490000  1.0 0.1404151227
H  H12  1  0.51580000  0.90080000  0.15490000  1.0 0.1404151227
H  H13  1  0.25930000  0.17300000  0.35050000  1.0 0.1308941654
H  H14  1  0.24070000  0.82700000  0.85050000  1.0 0.1308941654
H  H15  1  0.74070000  0.67300000  0.14950000  1.0 0.1308941654
H  H16  1  0.75930000  0.32700000  0.64950000  1.0 0.1308941654
H  H17  1  0.01260000  0.68540000  0.72000000  1.0 0.1199514338
H  H18  1  0.48740000  0.31460000  0.22000000  1.0 0.1199514338
H  H19  1  0.98740000  0.18540000  0.78000000  1.0 0.1199514338
H  H20  1  0.51260000  0.81460000  0.28000000  1.0 0.1199514338
H  H21  1  0.24540000  0.30560000  0.75730000  1.0 0.1137540917
H  H22  1  0.25460000  0.69440000  0.25730000  1.0 0.1137540917
H  H23  1  0.75460000  0.80560000  0.74270000  1.0 0.1137540917
H  H24  1  0.74540000  0.19440000  0.24270000  1.0 0.1137540917
H  H25  1  0.01300000  0.87600000  0.19440000  1.0 0.1308941654
H  H26  1  0.48700000  0.12400000  0.69440000  1.0 0.1308941654
H  H27  1  0.98700000  0.37600000  0.30560000  1.0 0.1308941654
H  H28  1  0.51300000  0.62400000  0.80560000  1.0 0.1308941654
H  H29  1  0.06100000  0.82600000  0.33100000  1.0 0.1199514338
H  H30  1  0.43900000  0.17400000  0.83100000  1.0 0.1199514338
H  H31  1  0.93900000  0.32600000  0.16900000  1.0 0.1199514338
H  H32  1  0.56100000  0.67400000  0.66900000  1.0 0.1199514338
C  C1  1  0.08560000  0.91500000  0.30650000  1.0 -0.1455859859
C  C2  1  0.41440000  0.08500000  0.80650000  1.0 -0.1455859859
C  C3  1  0.91440000  0.41500000  0.19350000  1.0 -0.1455859859
C  C4  1  0.58560000  0.58500000  0.69350000  1.0 -0.1455859859
C  C5  1  0.18430000  0.13230000  0.23840000  1.0 -0.0892148372
C  C6  1  0.31570000  0.86770000  0.73840000  1.0 -0.0892148372
C  C7  1  0.81570000  0.63230000  0.26160000  1.0 -0.0892148372
C  C8  1  0.68430000  0.36770000  0.76160000  1.0 -0.0892148372
C  C9  1  0.11070000  0.04500000  0.19180000  1.0 -0.0539475959
C  C10  1  0.38930000  0.95500000  0.69180000  1.0 -0.0539475959
C  C11  1  0.88930000  0.54500000  0.30820000  1.0 -0.0539475959
C  C12  1  0.61070000  0.45500000  0.80820000  1.0 -0.0539475959
C  C13  1  0.20040000  0.43510000  0.67520000  1.0 -0.134036908
C  C14  1  0.29960000  0.56490000  0.17520000  1.0 -0.134036908
C  C15  1  0.79960000  0.93510000  0.82480000  1.0 -0.1408481841
C  C16  1  0.70040000  0.06490000  0.32480000  1.0 -0.134036908
C  C17  1  0.13110000  0.44370000  0.81450000  1.0 -0.0412507281
C  C18  1  0.36890000  0.55630000  0.31450000  1.0 -0.0412507281
C  C19  1  0.86890000  0.94370000  0.68550000  1.0 -0.0412507281
C  C20  1  0.63110000  0.05630000  0.18550000  1.0 -0.0412507281
C  C21  1  0.06260000  0.55710000  0.80240000  1.0 -0.0955449343
C  C22  1  0.43740000  0.44290000  0.30240000  1.0 -0.0955449343
C  C23  1  0.93740000  0.05710000  0.69760000  1.0 -0.0955449343
C  C24  1  0.56260000  0.94290000  0.19760000  1.0 -0.0955449343
C  C25  1  0.21110000  0.11300000  0.31900000  1.0 -0.1408481841
C  C26  1  0.28890000  0.88700000  0.81900000  1.0 -0.1408481841
C  C27  1  0.78890000  0.61300000  0.18100000  1.0 -0.1408481841
C  C28  1  0.71110000  0.38700000  0.68100000  1.0 -0.1408481841
C  C29  1  0.13540000  0.54980000  0.66420000  1.0 0.2071102093
C  C30  1  0.36460000  0.45020000  0.16420000  1.0 0.2071102093
C  C31  1  0.86460000  0.04980000  0.83580000  1.0 0.2071102093
C  C32  1  0.63540000  0.95020000  0.33580000  1.0 0.2071102093
C  C33  1  0.08720000  0.06610000  0.10650000  1.0 0.5329290684
C  C34  1  0.41280000  0.93390000  0.60650000  1.0 0.5329290684
C  C35  1  0.91280000  0.56610000  0.39350000  1.0 0.5329290684
C  C36  1  0.58720000  0.43390000  0.89350000  1.0 0.5329290684
C  C37  1  0.06220000  0.60990000  0.72730000  1.0 -0.157922173
C  C38  1  0.43780000  0.39010000  0.22730000  1.0 -0.157922173
C  C39  1  0.93780000  0.10990000  0.77270000  1.0 -0.157922173
C  C40  1  0.56220000  0.89010000  0.27270000  1.0 -0.157922173
C  C41  1  0.19960000  0.38230000  0.75040000  1.0 -0.0844295752
C  C42  1  0.30040000  0.61770000  0.25040000  1.0 -0.0892148372
C  C43  1  0.80040000  0.88230000  0.74960000  1.0 -0.0892148372
C  C44  1  0.69960000  0.11770000  0.24960000  1.0 -0.0844295752
C  C45  1  0.16480000  0.00230000  0.35170000  1.0 0.2175260204
C  C46  1  0.33520000  0.99770000  0.85170000  1.0 0.2175260204
C  C47  1  0.83520000  0.50230000  0.14830000  1.0 0.2175260204
C  C48  1  0.66480000  0.49770000  0.64830000  1.0 0.2175260204
C  C49  1  0.06200000  0.93570000  0.22600000  1.0 -0.0892148372
C  C50  1  0.43800000  0.06430000  0.72600000  1.0 -0.0892148372
C  C51  1  0.93800000  0.43570000  0.27400000  1.0 -0.0892148372
C  C52  1  0.56200000  0.56430000  0.77400000  1.0 -0.0892148372
C  C53  1  0.12730000  0.38390000  0.89450000  1.0 0.5603019055
C  C54  1  0.37270000  0.61610000  0.39450000  1.0 0.5603019055
C  C55  1  0.87270000  0.88390000  0.60550000  1.0 0.5603019055
C  C56  1  0.62730000  0.11610000  0.10550000  1.0 0.5603019055
N  N1  1  0.19880000  0.98060000  0.43560000  1.0 -0.2890055348
N  N2  1  0.30120000  0.01940000  0.93560000  1.0 -0.2890055348
N  N3  1  0.80120000  0.48060000  0.06440000  1.0 -0.2890055348
N  N4  1  0.69880000  0.51940000  0.56440000  1.0 -0.2890055348
N  N5  1  0.14360000  0.60830000  0.58740000  1.0 -0.2785966937
N  N6  1  0.35640000  0.39170000  0.08740000  1.0 -0.2785966937
N  N7  1  0.85640000  0.10830000  0.91260000  1.0 -0.2785966937
N  N8  1  0.64360000  0.89170000  0.41260000  1.0 -0.2785966937
O  O1  1  0.13360000  0.16780000  0.07670000  1.0 -0.4475576524
O  O2  1  0.36640000  0.83220000  0.57670000  1.0 -0.4475576524
O  O3  1  0.86640000  0.66780000  0.42330000  1.0 -0.4475576524
O  O4  1  0.63360000  0.33220000  0.92330000  1.0 -0.4475576524
O  O5  1  0.02280000  0.98650000  0.06190000  1.0 -0.4836676587
O  O6  1  0.47720000  0.01350000  0.56190000  1.0 -0.4836676587
O  O7  1  0.97720000  0.48650000  0.43810000  1.0 -0.4836676587
O  O8  1  0.52280000  0.51350000  0.93810000  1.0 -0.4836676587
O  O9  1  0.17730000  0.27690000  0.89790000  1.0 -0.5183800106
O  O10  1  0.32270000  0.72310000  0.39790000  1.0 -0.5183800106
O  O11  1  0.82270000  0.77690000  0.60210000  1.0 -0.5183800106
O  O12  1  0.67730000  0.22310000  0.10210000  1.0 -0.5183800106
O  O13  1  0.08250000  0.44460000  0.95360000  1.0 -0.4068639223
O  O14  1  0.41750000  0.55540000  0.45360000  1.0 -0.4068639223
O  O15  1  0.91750000  0.94460000  0.54640000  1.0 -0.4068639223
O  O16  1  0.58250000  0.05540000  0.04640000  1.0 -0.4068639223
