# DDEC6 charges by PACMAN v1.1 (https://github.com/mtap-research/PACMAN-charge/)
data_RURPEA_ASR_pacman
_symmetry_space_group_name_H-M   'P 1'
_cell_length_a   7.28100000
_cell_length_b   7.46000000
_cell_length_c   7.44100000
_cell_angle_alpha   90.00000000
_cell_angle_beta   95.81400000
_cell_angle_gamma   90.00000000
_symmetry_Int_Tables_number   1
_chemical_formula_structural   FeH4Pt(C4N3)2
_chemical_formula_sum   'Fe1 H4 Pt1 C8 N6'
_cell_volume   402.08824863
_cell_formula_units_Z   1
loop_
 _symmetry_equiv_pos_site_id
 _symmetry_equiv_pos_as_xyz
  1  'x, y, z'
loop_
 _atom_site_type_symbol
 _atom_site_label
 _atom_site_symmetry_multiplicity
 _atom_site_fract_x
 _atom_site_fract_y
 _atom_site_fract_z
 _atom_site_occupancy
 _atom_site_charge
Fe  Fe1  1  0.00000000  0.50000000  0.50000000  1.0 0.7795251522
H  H1  1  0.65840000  0.76120000  0.49120000  1.0 0.1288091455
H  H2  1  0.34160000  0.76120000  0.50880000  1.0 0.1288091455
H  H3  1  0.34160000  0.23880000  0.50880000  1.0 0.1288091455
H  H4  1  0.65840000  0.23880000  0.49120000  1.0 0.1288091455
Pt  Pt1  1  0.00000000  0.00000000  0.00000000  1.0 0.1241522197
C  C1  1  0.59600000  0.65300000  0.49500000  1.0 0.0472619858
C  C2  1  0.40400000  0.65300000  0.50500000  1.0 0.0472619858
C  C3  1  0.40400000  0.34700000  0.50500000  1.0 0.0472619858
C  C4  1  0.59600000  0.34700000  0.49500000  1.0 0.0472619858
C  C5  1  0.99140000  0.81100000  0.18900000  1.0 0.0343181684
C  C6  1  0.00860000  0.81100000  0.81100000  1.0 0.0343181684
C  C7  1  0.00860000  0.18900000  0.81100000  1.0 0.0343181684
C  C8  1  0.99140000  0.18900000  0.18900000  1.0 0.0343181684
N  N1  1  0.68970000  0.50000000  0.48900000  1.0 -0.1659812566
N  N2  1  0.31030000  0.50000000  0.51100000  1.0 -0.1659812566
N  N3  1  0.99050000  0.70470000  0.30000000  1.0 -0.3533180144
N  N4  1  0.00950000  0.70470000  0.70000000  1.0 -0.3533180144
N  N5  1  0.00950000  0.29530000  0.70000000  1.0 -0.3533180144
N  N6  1  0.99050000  0.29530000  0.30000000  1.0 -0.3533180144
