# DDEC6 charges by PACMAN v1.1 (https://github.com/mtap-research/PACMAN-charge/)
data_RUVMUR_ion_pacman
_symmetry_space_group_name_H-M   'P 1'
_cell_length_a   7.15990000
_cell_length_b   9.71270000
_cell_length_c   39.15900000
_cell_angle_alpha   90.00000000
_cell_angle_beta   90.00000000
_cell_angle_gamma   90.00000000
_symmetry_Int_Tables_number   1
_chemical_formula_structural   ZnCoH15C24N6ClO8
_chemical_formula_sum   'Zn4 Co4 H60 C96 N24 Cl4 O32'
_cell_volume   2723.19364023
_cell_formula_units_Z   4
loop_
 _symmetry_equiv_pos_site_id
 _symmetry_equiv_pos_as_xyz
  1  'x, y, z'
loop_
 _atom_site_type_symbol
 _atom_site_label
 _atom_site_symmetry_multiplicity
 _atom_site_fract_x
 _atom_site_fract_y
 _atom_site_fract_z
 _atom_site_occupancy
 _atom_site_charge
Zn  Zn1  1  0.00769000  0.40226000  0.71433000  1.0 0.8616131083
Zn  Zn2  1  0.99231000  0.90226000  0.78567000  1.0 0.8616131083
Zn  Zn3  1  0.49231000  0.59774000  0.21433000  1.0 0.8616131083
Zn  Zn4  1  0.50769000  0.09774000  0.28567000  1.0 0.8616131083
Co  Co1  1  0.69745000  0.13206000  0.42750000  1.0 0.7852856652
Co  Co2  1  0.30255000  0.63206000  0.07250000  1.0 0.7852856652
Co  Co3  1  0.80255000  0.86794000  0.92750000  1.0 0.7852856652
Co  Co4  1  0.19745000  0.36794000  0.57250000  1.0 0.7852856652
H  H1  1  0.71720000  0.21540000  0.59420000  1.0 0.1493536733
H  H2  1  0.28280000  0.71540000  0.90580000  1.0 0.1493536733
H  H3  1  0.78280000  0.78460000  0.09420000  1.0 0.1493536733
H  H4  1  0.21720000  0.28460000  0.40580000  1.0 0.1493536733
H  H5  1  0.56530000  0.86440000  0.54590000  1.0 0.1493536733
H  H6  1  0.43470000  0.36440000  0.95410000  1.0 0.1493536733
H  H7  1  0.93470000  0.13560000  0.04590000  1.0 0.1493536733
H  H8  1  0.06530000  0.63560000  0.45410000  1.0 0.1493536733
H  H9  1  0.58620000  0.87700000  0.64840000  1.0 0.1493536733
H  H10  1  0.41380000  0.37700000  0.85160000  1.0 0.1493536733
H  H11  1  0.91380000  0.12300000  0.14840000  1.0 0.1493536733
H  H12  1  0.08620000  0.62300000  0.35160000  1.0 0.1493536733
H  H13  1  0.55470000  0.01500000  0.69380000  1.0 0.1383729116
H  H14  1  0.44530000  0.51500000  0.80620000  1.0 0.1383729116
H  H15  1  0.94530000  0.98500000  0.19380000  1.0 0.1383729116
H  H16  1  0.05470000  0.48500000  0.30620000  1.0 0.1383729116
H  H17  1  0.71650000  0.16180000  0.73510000  1.0 0.1493536733
H  H18  1  0.28350000  0.66180000  0.76490000  1.0 0.1493536733
H  H19  1  0.78350000  0.83820000  0.23510000  1.0 0.1493536733
H  H20  1  0.21650000  0.33820000  0.26490000  1.0 0.1493536733
H  H21  1  0.86630000  0.28430000  0.64360000  1.0 0.1291065457
H  H22  1  0.13370000  0.78430000  0.85640000  1.0 0.1291065457
H  H23  1  0.63370000  0.71570000  0.14360000  1.0 0.1291065457
H  H24  1  0.36630000  0.21570000  0.35640000  1.0 0.1291065457
H  H25  1  0.64380000  0.32880000  0.54520000  1.0 0.1383729116
H  H26  1  0.35620000  0.82880000  0.95480000  1.0 0.1383729116
H  H27  1  0.85620000  0.67120000  0.04520000  1.0 0.1383729116
H  H28  1  0.14380000  0.17120000  0.45480000  1.0 0.1383729116
H  H29  1  0.67540000  0.36350000  0.48300000  1.0 0.1291065457
H  H30  1  0.32460000  0.86350000  0.01700000  1.0 0.1291065457
H  H31  1  0.82460000  0.63650000  0.98300000  1.0 0.1291065457
H  H32  1  0.17540000  0.13650000  0.51700000  1.0 0.1291065457
H  H33  1  0.68280000  0.96360000  0.49930000  1.0 0.1232140547
H  H34  1  0.31720000  0.46360000  0.00070000  1.0 0.1232140547
H  H35  1  0.81720000  0.03640000  0.99930000  1.0 0.1232140547
H  H36  1  0.18280000  0.53640000  0.50070000  1.0 0.1232140547
H  H37  1  0.62940000  0.64170000  0.64510000  1.0 0.1383729116
H  H38  1  0.37060000  0.14170000  0.85490000  1.0 0.1383729116
H  H39  1  0.87060000  0.35830000  0.14510000  1.0 0.1383729116
H  H40  1  0.12940000  0.85830000  0.35490000  1.0 0.1383729116
H  H41  1  0.48810000  0.42110000  0.63330000  1.0 0.1291065457
H  H42  1  0.51190000  0.92110000  0.86670000  1.0 0.1291065457
H  H43  1  0.01190000  0.57890000  0.13330000  1.0 0.1291065457
H  H44  1  0.98810000  0.07890000  0.36670000  1.0 0.1291065457
H  H45  1  0.35630000  0.67270000  0.55740000  1.0 0.1232140547
H  H46  1  0.64370000  0.17270000  0.94260000  1.0 0.1232140547
H  H47  1  0.14370000  0.32730000  0.05740000  1.0 0.1232140547
H  H48  1  0.85630000  0.82730000  0.44260000  1.0 0.1232140547
H  H49  1  0.68890000  0.42860000  0.32170000  1.0 0.1291065457
H  H50  1  0.31110000  0.92860000  0.17830000  1.0 0.1291065457
H  H51  1  0.81110000  0.57140000  0.82170000  1.0 0.1291065457
H  H52  1  0.18890000  0.07140000  0.67830000  1.0 0.1291065457
H  H53  1  0.52650000  0.79360000  0.38900000  1.0 0.1291065457
H  H54  1  0.47350000  0.29360000  0.11100000  1.0 0.1291065457
H  H55  1  0.97350000  0.20640000  0.88900000  1.0 0.1291065457
H  H56  1  0.02650000  0.70640000  0.61100000  1.0 0.1291065457
H  H57  1  0.58720000  0.58480000  0.41420000  1.0 0.1232140547
H  H58  1  0.41280000  0.08480000  0.08580000  1.0 0.1232140547
H  H59  1  0.91280000  0.41520000  0.91420000  1.0 0.1232140547
H  H60  1  0.08720000  0.91520000  0.58580000  1.0 0.1232140547
C  C1  1  0.65510000  0.05740000  0.62570000  1.0 0.2146290527
C  C2  1  0.34490000  0.55740000  0.87430000  1.0 0.2146290527
C  C3  1  0.84490000  0.94260000  0.12570000  1.0 0.2146290527
C  C4  1  0.15510000  0.44260000  0.37430000  1.0 0.2146290527
C  C5  1  0.67920000  0.12390000  0.59504000  1.0 -0.2550588711
C  C6  1  0.32080000  0.62390000  0.90496000  1.0 -0.2550588711
C  C7  1  0.82080000  0.87610000  0.09504000  1.0 -0.2550588711
C  C8  1  0.17920000  0.37610000  0.40496000  1.0 -0.2550588711
C  C9  1  0.64450000  0.04870000  0.56500000  1.0 0.2350074486
C  C10  1  0.35550000  0.54870000  0.93500000  1.0 0.2350074486
C  C11  1  0.85550000  0.95130000  0.06500000  1.0 0.2350074486
C  C12  1  0.14450000  0.45130000  0.43500000  1.0 0.2350074486
C  C13  1  0.58830000  0.91280000  0.56590000  1.0 -0.2437860532
C  C14  1  0.41170000  0.41280000  0.93410000  1.0 -0.2437860532
C  C15  1  0.91170000  0.08720000  0.06590000  1.0 -0.2437860532
C  C16  1  0.08830000  0.58720000  0.43410000  1.0 -0.2437860532
C  C17  1  0.56700000  0.85030000  0.59760000  1.0 0.2228627042
C  C18  1  0.43300000  0.35030000  0.90240000  1.0 0.2228627042
C  C19  1  0.93300000  0.14970000  0.09760000  1.0 0.2228627042
C  C20  1  0.06700000  0.64970000  0.40240000  1.0 0.2228627042
C  C21  1  0.60030000  0.92050000  0.62740000  1.0 -0.2526579214
C  C22  1  0.39970000  0.42050000  0.87260000  1.0 -0.2526579214
C  C23  1  0.89970000  0.07950000  0.12740000  1.0 -0.2526579214
C  C24  1  0.10030000  0.57950000  0.37260000  1.0 -0.2526579214
C  C25  1  0.63830000  0.08560000  0.68890000  1.0 -0.0605989932
C  C26  1  0.36170000  0.58560000  0.81110000  1.0 -0.0605989932
C  C27  1  0.86170000  0.91440000  0.18890000  1.0 -0.0605989932
C  C28  1  0.13830000  0.41440000  0.31110000  1.0 -0.0605989932
C  C29  1  0.72630000  0.16750000  0.71150000  1.0 0.0016747981
C  C30  1  0.27370000  0.66750000  0.78850000  1.0 0.0016747981
C  C31  1  0.77370000  0.83250000  0.21150000  1.0 0.0016747981
C  C32  1  0.22630000  0.33250000  0.28850000  1.0 0.0016747981
C  C33  1  0.81130000  0.23540000  0.66130000  1.0 0.1291065457
C  C34  1  0.18870000  0.73540000  0.83870000  1.0 0.1291065457
C  C35  1  0.68870000  0.76460000  0.16130000  1.0 0.1291065457
C  C36  1  0.31130000  0.26460000  0.33870000  1.0 0.1291065457
C  C37  1  0.65550000  0.26110000  0.52860000  1.0 -0.089015461
C  C38  1  0.34450000  0.76110000  0.97140000  1.0 -0.089015461
C  C39  1  0.84450000  0.73890000  0.02860000  1.0 -0.089015461
C  C40  1  0.15550000  0.23890000  0.47140000  1.0 -0.089015461
C  C41  1  0.67220000  0.27880000  0.49410000  1.0 -0.0092118959
C  C42  1  0.32780000  0.77880000  0.00590000  1.0 -0.0092118959
C  C43  1  0.82780000  0.72120000  0.99410000  1.0 -0.0092118959
C  C44  1  0.17220000  0.22120000  0.50590000  1.0 -0.0092118959
C  C45  1  0.67680000  0.05820000  0.50280000  1.0 0.1383729116
C  C46  1  0.32320000  0.55820000  0.99720000  1.0 0.1383729116
C  C47  1  0.82320000  0.94180000  0.00280000  1.0 0.1383729116
C  C48  1  0.17680000  0.44180000  0.49720000  1.0 0.1383729116
C  C49  1  0.55700000  0.62010000  0.62620000  1.0 -0.0728653683
C  C50  1  0.44300000  0.12010000  0.87380000  1.0 -0.0728653683
C  C51  1  0.94300000  0.37990000  0.12620000  1.0 -0.0728653683
C  C52  1  0.05700000  0.87990000  0.37380000  1.0 -0.0728653683
C  C53  1  0.47930000  0.49890000  0.61960000  1.0 -0.0031591445
C  C54  1  0.52070000  0.99890000  0.88040000  1.0 -0.0031591445
C  C55  1  0.02070000  0.50110000  0.11960000  1.0 -0.0031591445
C  C56  1  0.97930000  0.00110000  0.38040000  1.0 -0.0031591445
C  C57  1  0.40570000  0.63740000  0.57750000  1.0 0.1106532649
C  C58  1  0.59430000  0.13740000  0.92250000  1.0 0.1106532649
C  C59  1  0.09430000  0.36260000  0.07750000  1.0 0.1106532649
C  C60  1  0.90570000  0.86260000  0.42250000  1.0 0.1106532649
C  C61  1  0.64640000  0.48530000  0.36980000  1.0 -0.0242985724
C  C62  1  0.35360000  0.98530000  0.13020000  1.0 -0.0242985724
C  C63  1  0.85360000  0.51470000  0.86980000  1.0 -0.0242985724
C  C64  1  0.14640000  0.01470000  0.63020000  1.0 -0.0242985724
C  C65  1  0.65150000  0.50200000  0.33530000  1.0 -0.15332316
C  C66  1  0.34850000  0.00200000  0.16470000  1.0 -0.15332316
C  C67  1  0.84850000  0.49800000  0.83530000  1.0 -0.15332316
C  C68  1  0.15150000  0.99800000  0.66470000  1.0 -0.15332316
C  C69  1  0.60220000  0.62570000  0.31980000  1.0 -0.0031591445
C  C70  1  0.39780000  0.12570000  0.18020000  1.0 -0.0031591445
C  C71  1  0.89780000  0.37430000  0.81980000  1.0 -0.0031591445
C  C72  1  0.10220000  0.87430000  0.68020000  1.0 -0.0031591445
C  C73  1  0.55760000  0.73880000  0.34040000  1.0 -0.0501194908
C  C74  1  0.44240000  0.23880000  0.15960000  1.0 -0.0501194908
C  C75  1  0.94240000  0.26120000  0.84040000  1.0 -0.0501194908
C  C76  1  0.05760000  0.76120000  0.65960000  1.0 -0.0501194908
C  C77  1  0.55590000  0.71890000  0.37510000  1.0 -0.1094907536
C  C78  1  0.44410000  0.21890000  0.12490000  1.0 -0.1094907536
C  C79  1  0.94410000  0.28110000  0.87510000  1.0 -0.1094907536
C  C80  1  0.05590000  0.78110000  0.62490000  1.0 -0.1094907536
C  C81  1  0.59500000  0.59500000  0.39060000  1.0 -0.1242623492
C  C82  1  0.40500000  0.09500000  0.10940000  1.0 -0.1242623492
C  C83  1  0.90500000  0.40500000  0.89060000  1.0 -0.1242623492
C  C84  1  0.09500000  0.90500000  0.60940000  1.0 -0.1242623492
C  C85  1  0.69710000  0.34480000  0.38510000  1.0 0.5140584098
C  C86  1  0.30290000  0.84480000  0.11490000  1.0 0.5140584098
C  C87  1  0.80290000  0.65520000  0.88510000  1.0 0.5140584098
C  C88  1  0.19710000  0.15520000  0.61490000  1.0 0.5140584098
C  C89  1  0.61230000  0.62550000  0.28040000  1.0 0.5583873378
C  C90  1  0.38770000  0.12550000  0.21960000  1.0 0.5583873378
C  C91  1  0.88770000  0.37450000  0.78040000  1.0 0.5583873378
C  C92  1  0.11230000  0.87450000  0.71960000  1.0 0.5583873378
C  C93  1  0.51700000  0.88100000  0.32640000  1.0 0.5390626924
C  C94  1  0.48300000  0.38100000  0.17360000  1.0 0.5390626924
C  C95  1  0.98300000  0.11900000  0.82640000  1.0 0.5390626924
C  C96  1  0.01700000  0.61900000  0.67360000  1.0 0.5390626924
N  N1  1  0.83470000  0.26250000  0.69356000  1.0 -0.2876383676
N  N2  1  0.16530000  0.76250000  0.80644000  1.0 -0.2876383676
N  N3  1  0.66530000  0.73750000  0.19356000  1.0 -0.2876383676
N  N4  1  0.33470000  0.23750000  0.30644000  1.0 -0.2876383676
N  N5  1  0.69660000  0.12700000  0.65726000  1.0 -0.0092118959
N  N6  1  0.30340000  0.62700000  0.84274000  1.0 -0.0092118959
N  N7  1  0.80340000  0.87300000  0.15726000  1.0 -0.0092118959
N  N8  1  0.19660000  0.37300000  0.34274000  1.0 -0.0092118959
N  N9  1  0.68370000  0.15120000  0.47800000  1.0 -0.3153888746
N  N10  1  0.31630000  0.65120000  0.02200000  1.0 -0.3153888746
N  N11  1  0.81630000  0.84880000  0.97800000  1.0 -0.3153888746
N  N12  1  0.18370000  0.34880000  0.52200000  1.0 -0.3153888746
N  N13  1  0.66010000  0.11720000  0.53330000  1.0 0.007618079
N  N14  1  0.33990000  0.61720000  0.96670000  1.0 0.007618079
N  N15  1  0.83990000  0.88280000  0.03330000  1.0 0.007618079
N  N16  1  0.16010000  0.38280000  0.46670000  1.0 0.007618079
N  N17  1  0.38340000  0.50650000  0.58910000  1.0 -0.3062032624
N  N18  1  0.61660000  0.00650000  0.91090000  1.0 -0.3062032624
N  N19  1  0.11660000  0.49350000  0.08910000  1.0 -0.3062032624
N  N20  1  0.88340000  0.99350000  0.41090000  1.0 -0.3062032624
N  N21  1  0.51140000  0.70750000  0.60007000  1.0 0.007618079
N  N22  1  0.48860000  0.20750000  0.89993000  1.0 0.007618079
N  N23  1  0.98860000  0.29250000  0.10007000  1.0 0.007618079
N  N24  1  0.01140000  0.79250000  0.39993000  1.0 0.007618079
Cl  Cl1  1  0.60090000  0.66450000  0.48310000  1.0 -0.5740390682
Cl  Cl2  1  0.39910000  0.16450000  0.01690000  1.0 -0.5740390682
Cl  Cl3  1  0.89910000  0.33550000  0.98310000  1.0 -0.5740390682
Cl  Cl4  1  0.10090000  0.83550000  0.51690000  1.0 -0.5759754046
O  O1  1  0.68530000  0.33050000  0.41662000  1.0 -0.4971809885
O  O2  1  0.31470000  0.83050000  0.08338000  1.0 -0.4971809885
O  O3  1  0.81470000  0.66950000  0.91662000  1.0 -0.4971809885
O  O4  1  0.18530000  0.16950000  0.58338000  1.0 -0.4971809885
O  O5  1  0.74530000  0.25040000  0.36563000  1.0 -0.4422702654
O  O6  1  0.25470000  0.75040000  0.13437000  1.0 -0.4422702654
O  O7  1  0.75470000  0.74960000  0.86563000  1.0 -0.4422702654
O  O8  1  0.24530000  0.24960000  0.63437000  1.0 -0.4422702654
O  O9  1  0.46490000  0.62610000  0.26358000  1.0 -0.4779799259
O  O10  1  0.53510000  0.12610000  0.23642000  1.0 -0.4779799259
O  O11  1  0.03510000  0.37390000  0.76358000  1.0 -0.4779799259
O  O12  1  0.96490000  0.87390000  0.73642000  1.0 -0.4779799259
O  O13  1  0.76990000  0.61590000  0.26837000  1.0 -0.4971809885
O  O14  1  0.23010000  0.11590000  0.23163000  1.0 -0.4971809885
O  O15  1  0.73010000  0.38410000  0.76837000  1.0 -0.4971809885
O  O16  1  0.26990000  0.88410000  0.73163000  1.0 -0.4971809885
O  O17  1  0.53440000  0.89810000  0.29520000  1.0 -0.4779799259
O  O18  1  0.46560000  0.39810000  0.20480000  1.0 -0.4779799259
O  O19  1  0.96560000  0.10190000  0.79520000  1.0 -0.4779799259
O  O20  1  0.03440000  0.60190000  0.70480000  1.0 -0.4779799259
O  O21  1  0.47960000  0.97630000  0.34705000  1.0 -0.4915417447
O  O22  1  0.52040000  0.47630000  0.15295000  1.0 -0.4915417447
O  O23  1  0.02040000  0.02370000  0.84705000  1.0 -0.4915417447
O  O24  1  0.97960000  0.52370000  0.65295000  1.0 -0.4915417447
O  O25  1  0.25620000  0.32960000  0.70078000  1.0 -0.1561202905
O  O26  1  0.74380000  0.82960000  0.79922000  1.0 -0.1561202905
O  O27  1  0.24380000  0.67040000  0.20078000  1.0 -0.1561202905
O  O28  1  0.75620000  0.17040000  0.29922000  1.0 -0.1561202905
O  O29  1  0.44480000  0.05730000  0.41248000  1.0 -0.3694315566
O  O30  1  0.55520000  0.55730000  0.08752000  1.0 -0.3694315566
O  O31  1  0.05520000  0.94270000  0.91248000  1.0 -0.3694315566
O  O32  1  0.94480000  0.44270000  0.58752000  1.0 -0.3694315566
