# DDEC6 charges by PACMAN v1.1 (https://github.com/mtap-research/PACMAN-charge/)
data_RUVMAX_FSR_pacman
_symmetry_space_group_name_H-M   'P 1'
_cell_length_a   12.91400000
_cell_length_b   12.91400000
_cell_length_c   14.76500000
_cell_angle_alpha   88.47760000
_cell_angle_beta   91.52240000
_cell_angle_gamma   89.64240000
_symmetry_Int_Tables_number   1
_chemical_formula_structural   Zn3H29C36N11O14
_chemical_formula_sum   'Zn6 H58 C72 N22 O28'
_cell_volume   2460.58213796
_cell_formula_units_Z   2
loop_
 _symmetry_equiv_pos_site_id
 _symmetry_equiv_pos_as_xyz
  1  'x, y, z'
loop_
 _atom_site_type_symbol
 _atom_site_label
 _atom_site_symmetry_multiplicity
 _atom_site_fract_x
 _atom_site_fract_y
 _atom_site_fract_z
 _atom_site_occupancy
 _atom_site_charge
Zn  Zn1  1  0.58884000  0.93416000  0.77449000  1.0 0.7298115448
Zn  Zn2  1  0.93416000  0.58884000  0.72551000  1.0 0.7298115448
Zn  Zn3  1  0.41116000  0.06584000  0.22551000  1.0 0.7298115448
Zn  Zn4  1  0.06584000  0.41116000  0.27449000  1.0 0.7298115448
Zn  Zn5  1  0.38174000  0.38174000  0.75000000  1.0 0.7142589645
Zn  Zn6  1  0.61826000  0.61826000  0.25000000  1.0 0.7142589645
H  H1  1  0.55600000  0.15800000  0.50900000  1.0 0.3521467106
H  H2  1  0.15800000  0.55600000  0.99100000  1.0 0.3521467106
H  H3  1  0.44400000  0.84200000  0.49100000  1.0 0.3521467106
H  H4  1  0.84200000  0.44400000  0.00900000  1.0 0.3521467106
H  H5  1  0.96300000  0.96300000  0.75000000  1.0 0.3335172788
H  H6  1  0.03700000  0.03700000  0.25000000  1.0 0.3335172788
H  H7  1  0.47630000  0.23210000  0.09290000  1.0 0.1102131586
H  H8  1  0.23210000  0.47630000  0.40710000  1.0 0.1102131586
H  H9  1  0.52370000  0.76790000  0.90710000  1.0 0.1102131586
H  H10  1  0.76790000  0.52370000  0.59290000  1.0 0.1102131586
H  H11  1  0.49610000  0.26470000  0.94380000  1.0 0.1478087039
H  H12  1  0.26470000  0.49610000  0.55620000  1.0 0.1478087039
H  H13  1  0.50390000  0.73530000  0.05620000  1.0 0.1478087039
H  H14  1  0.73530000  0.50390000  0.44380000  1.0 0.1478087039
H  H15  1  0.36100000  0.99580000  0.89030000  1.0 0.1394351543
H  H16  1  0.99580000  0.36100000  0.60970000  1.0 0.1394351543
H  H17  1  0.63900000  0.00420000  0.10970000  1.0 0.1394351543
H  H18  1  0.00420000  0.63900000  0.39030000  1.0 0.1394351543
H  H19  1  0.34260000  0.96900000  0.04320000  1.0 0.1102131586
H  H20  1  0.96900000  0.34260000  0.45680000  1.0 0.1102131586
H  H21  1  0.65740000  0.03100000  0.95680000  1.0 0.1102131586
H  H22  1  0.03100000  0.65740000  0.54320000  1.0 0.1102131586
H  H23  1  0.46870000  0.54710000  0.62500000  1.0 0.1201091254
H  H24  1  0.54710000  0.46870000  0.87500000  1.0 0.1201091254
H  H25  1  0.53130000  0.45290000  0.37500000  1.0 0.1201091254
H  H26  1  0.45290000  0.53130000  0.12500000  1.0 0.1201091254
H  H27  1  0.58630000  0.67930000  0.62460000  1.0 0.1394351543
H  H28  1  0.67930000  0.58630000  0.87540000  1.0 0.1394351543
H  H29  1  0.41370000  0.32070000  0.37540000  1.0 0.1394351543
H  H30  1  0.32070000  0.41370000  0.12460000  1.0 0.1394351543
H  H31  1  0.41710000  0.87670000  0.64410000  1.0 0.1102131586
H  H32  1  0.87670000  0.41710000  0.85590000  1.0 0.1102131586
H  H33  1  0.58290000  0.12330000  0.35590000  1.0 0.1102131586
H  H34  1  0.12330000  0.58290000  0.14410000  1.0 0.1102131586
H  H35  1  0.19400000  0.73220000  0.61840000  1.0 0.1394351543
H  H36  1  0.73220000  0.19400000  0.88160000  1.0 0.1394351543
H  H37  1  0.80600000  0.26780000  0.38160000  1.0 0.1394351543
H  H38  1  0.26780000  0.80600000  0.11840000  1.0 0.1394351543
H  H39  1  0.22620000  0.84580000  0.59240000  1.0 0.1478087039
H  H40  1  0.84580000  0.22620000  0.90760000  1.0 0.1478087039
H  H41  1  0.77380000  0.15420000  0.40760000  1.0 0.1478087039
H  H42  1  0.15420000  0.77380000  0.09240000  1.0 0.1478087039
H  H43  1  0.29020000  0.75180000  0.55790000  1.0 0.1334392683
H  H44  1  0.75180000  0.29020000  0.94210000  1.0 0.1334392683
H  H45  1  0.70980000  0.24820000  0.44210000  1.0 0.1334392683
H  H46  1  0.24820000  0.70980000  0.05790000  1.0 0.1334392683
H  H47  1  0.22660000  0.67800000  0.74650000  1.0 0.1394351543
H  H48  1  0.67800000  0.22660000  0.75350000  1.0 0.1394351543
H  H49  1  0.77340000  0.32200000  0.25350000  1.0 0.1394351543
H  H50  1  0.32200000  0.77340000  0.24650000  1.0 0.1394351543
H  H51  1  0.34380000  0.66380000  0.77470000  1.0 0.1201091254
H  H52  1  0.66380000  0.34380000  0.72530000  1.0 0.1201091254
H  H53  1  0.65620000  0.33620000  0.22530000  1.0 0.1201091254
H  H54  1  0.33620000  0.65620000  0.27470000  1.0 0.1201091254
H  H55  1  0.27900000  0.75420000  0.81450000  1.0 0.1394351543
H  H56  1  0.75420000  0.27900000  0.68550000  1.0 0.1394351543
H  H57  1  0.72100000  0.24580000  0.18550000  1.0 0.1394351543
H  H58  1  0.24580000  0.72100000  0.31450000  1.0 0.1394351543
C  C1  1  0.45560000  0.14740000  0.80230000  1.0 0.2886921534
C  C2  1  0.14740000  0.45560000  0.69770000  1.0 0.2886921534
C  C3  1  0.54440000  0.85260000  0.19770000  1.0 0.2886921534
C  C4  1  0.85260000  0.54440000  0.30230000  1.0 0.2886921534
C  C5  1  0.51080000  0.11320000  0.67050000  1.0 -0.0255346114
C  C6  1  0.11320000  0.51080000  0.82950000  1.0 -0.0255346114
C  C7  1  0.48920000  0.88680000  0.32950000  1.0 -0.0255346114
C  C8  1  0.88680000  0.48920000  0.17050000  1.0 -0.0255346114
C  C9  1  0.47060000  0.21000000  0.66620000  1.0 -0.0205427037
C  C10  1  0.21000000  0.47060000  0.83380000  1.0 -0.0205427037
C  C11  1  0.52940000  0.79000000  0.33380000  1.0 -0.0205427037
C  C12  1  0.79000000  0.52940000  0.16620000  1.0 -0.0205427037
C  C13  1  0.56370000  0.05210000  0.60240000  1.0 0.5683727817
C  C14  1  0.05210000  0.56370000  0.89760000  1.0 0.5683727817
C  C15  1  0.43630000  0.94790000  0.39760000  1.0 0.5683727817
C  C16  1  0.94790000  0.43630000  0.10240000  1.0 0.5683727817
C  C17  1  0.45800000  0.28760000  0.59110000  1.0 0.5498430909
C  C18  1  0.28760000  0.45800000  0.90890000  1.0 0.5498430909
C  C19  1  0.54200000  0.71240000  0.40890000  1.0 0.5498430909
C  C20  1  0.71240000  0.54200000  0.09110000  1.0 0.5498430909
C  C21  1  0.45430000  0.18310000  0.05170000  1.0 0.0726164433
C  C22  1  0.18310000  0.45430000  0.44830000  1.0 0.0726164433
C  C23  1  0.54570000  0.81690000  0.94830000  1.0 0.0726164433
C  C24  1  0.81690000  0.54570000  0.55170000  1.0 0.0726164433
C  C25  1  0.46580000  0.20280000  0.96250000  1.0 -0.1683853212
C  C26  1  0.20280000  0.46580000  0.53750000  1.0 -0.1683853212
C  C27  1  0.53420000  0.79720000  0.03750000  1.0 -0.1683853212
C  C28  1  0.79720000  0.53420000  0.46250000  1.0 -0.1683853212
C  C29  1  0.43370000  0.13350000  0.89850000  1.0 0.077623962
C  C30  1  0.13350000  0.43370000  0.60150000  1.0 0.077623962
C  C31  1  0.56630000  0.86650000  0.10150000  1.0 0.077623962
C  C32  1  0.86650000  0.56630000  0.39850000  1.0 0.077623962
C  C33  1  0.38600000  0.04440000  0.93060000  1.0 -0.1783456399
C  C34  1  0.04440000  0.38600000  0.56940000  1.0 -0.1783456399
C  C35  1  0.61400000  0.95560000  0.06940000  1.0 -0.1783456399
C  C36  1  0.95560000  0.61400000  0.43060000  1.0 -0.1783456399
C  C37  1  0.37590000  0.02830000  0.02250000  1.0 0.0726164433
C  C38  1  0.02830000  0.37590000  0.47750000  1.0 0.0726164433
C  C39  1  0.62410000  0.97170000  0.97750000  1.0 0.077623962
C  C40  1  0.97170000  0.62410000  0.52250000  1.0 0.0726164433
C  C41  1  0.72740000  0.72740000  0.75000000  1.0 0.3029602722
C  C42  1  0.27260000  0.27260000  0.25000000  1.0 0.3029602722
C  C43  1  0.79990000  0.87590000  0.75560000  1.0 -0.0205427037
C  C44  1  0.87590000  0.79990000  0.74440000  1.0 -0.0205427037
C  C45  1  0.20010000  0.12410000  0.24440000  1.0 -0.0205427037
C  C46  1  0.12410000  0.20010000  0.25560000  1.0 -0.0205427037
C  C47  1  0.80680000  0.98720000  0.76560000  1.0 0.5498430909
C  C48  1  0.98720000  0.80680000  0.73440000  1.0 0.5498430909
C  C49  1  0.19320000  0.01280000  0.23440000  1.0 0.5498430909
C  C50  1  0.01280000  0.19320000  0.26560000  1.0 0.5498430909
C  C51  1  0.50930000  0.55710000  0.67690000  1.0 0.0726164433
C  C52  1  0.55710000  0.50930000  0.82310000  1.0 0.0726164433
C  C53  1  0.49070000  0.44290000  0.32310000  1.0 0.0726164433
C  C54  1  0.44290000  0.49070000  0.17690000  1.0 0.0726164433
C  C55  1  0.58140000  0.63520000  0.67520000  1.0 -0.1683853212
C  C56  1  0.63520000  0.58140000  0.82480000  1.0 -0.1683853212
C  C57  1  0.41860000  0.36480000  0.32480000  1.0 -0.164974366
C  C58  1  0.36480000  0.41860000  0.17520000  1.0 -0.164974366
C  C59  1  0.64670000  0.64670000  0.75000000  1.0 0.0726164433
C  C60  1  0.35330000  0.35330000  0.25000000  1.0 0.0726164433
C  C61  1  0.40140000  0.83520000  0.69430000  1.0 0.2886921534
C  C62  1  0.83520000  0.40140000  0.80570000  1.0 0.2886921534
C  C63  1  0.59860000  0.16480000  0.30570000  1.0 0.2886921534
C  C64  1  0.16480000  0.59860000  0.19430000  1.0 0.2886921534
C  C65  1  0.25140000  0.77720000  0.60740000  1.0 -0.3262627541
C  C66  1  0.77720000  0.25140000  0.89260000  1.0 -0.3262627541
C  C67  1  0.74860000  0.22280000  0.39260000  1.0 -0.3262627541
C  C68  1  0.22280000  0.74860000  0.10740000  1.0 -0.3262627541
C  C69  1  0.28940000  0.71360000  0.76190000  1.0 -0.3158385276
C  C70  1  0.71360000  0.28940000  0.73810000  1.0 -0.3158385276
C  C71  1  0.71060000  0.28640000  0.23810000  1.0 -0.3158385276
C  C72  1  0.28640000  0.71060000  0.26190000  1.0 -0.3158385276
N  N1  1  0.50200000  0.07140000  0.75630000  1.0 -0.3711207999
N  N2  1  0.07140000  0.50200000  0.74370000  1.0 -0.3711207999
N  N3  1  0.49800000  0.92860000  0.24370000  1.0 -0.3711207999
N  N4  1  0.92860000  0.49800000  0.25630000  1.0 -0.3711207999
N  N5  1  0.43560000  0.23400000  0.75110000  1.0 -0.359867905
N  N6  1  0.23400000  0.43560000  0.74890000  1.0 -0.359867905
N  N7  1  0.56440000  0.76600000  0.24890000  1.0 -0.359867905
N  N8  1  0.76600000  0.56440000  0.25110000  1.0 -0.359867905
N  N9  1  0.41230000  0.09510000  0.08290000  1.0 -0.2227541624
N  N10  1  0.09510000  0.41230000  0.41710000  1.0 -0.2227541624
N  N11  1  0.58770000  0.90490000  0.91710000  1.0 -0.2227541624
N  N12  1  0.90490000  0.58770000  0.58290000  1.0 -0.2227541624
N  N13  1  0.70750000  0.82830000  0.75680000  1.0 -0.3262627541
N  N14  1  0.82830000  0.70750000  0.74320000  1.0 -0.3262627541
N  N15  1  0.29250000  0.17170000  0.24320000  1.0 -0.3262627541
N  N16  1  0.17170000  0.29250000  0.25680000  1.0 -0.3262627541
N  N17  1  0.49420000  0.49420000  0.75000000  1.0 -0.2452575906
N  N18  1  0.50580000  0.50580000  0.25000000  1.0 -0.2452575906
N  N19  1  0.31750000  0.77990000  0.68770000  1.0 0.0400409729
N  N20  1  0.77990000  0.31750000  0.81230000  1.0 0.0400409729
N  N21  1  0.68250000  0.22010000  0.31230000  1.0 0.0400409729
N  N22  1  0.22010000  0.68250000  0.18770000  1.0 0.0400409729
O  O1  1  0.59490000  0.96330000  0.62410000  1.0 -0.4844652458
O  O2  1  0.96330000  0.59490000  0.87590000  1.0 -0.4844652458
O  O3  1  0.40510000  0.03670000  0.37590000  1.0 -0.4844652458
O  O4  1  0.03670000  0.40510000  0.12410000  1.0 -0.4844652458
O  O5  1  0.57610000  0.09270000  0.52310000  1.0 -0.4434696181
O  O6  1  0.09270000  0.57610000  0.97690000  1.0 -0.4434696181
O  O7  1  0.42390000  0.90730000  0.47690000  1.0 -0.4434696181
O  O8  1  0.90730000  0.42390000  0.02310000  1.0 -0.4434696181
O  O9  1  0.40860000  0.36860000  0.60840000  1.0 -0.535260026
O  O10  1  0.36860000  0.40860000  0.89160000  1.0 -0.535260026
O  O11  1  0.59140000  0.63140000  0.39160000  1.0 -0.5339091066
O  O12  1  0.63140000  0.59140000  0.10840000  1.0 -0.5339091066
O  O13  1  0.49560000  0.26840000  0.51640000  1.0 -0.5339091066
O  O14  1  0.26840000  0.49560000  0.98360000  1.0 -0.5339091066
O  O15  1  0.50440000  0.73160000  0.48360000  1.0 -0.5339091066
O  O16  1  0.73160000  0.50440000  0.01640000  1.0 -0.5339091066
O  O17  1  0.72600000  0.03600000  0.78020000  1.0 -0.5127288743
O  O18  1  0.03600000  0.72600000  0.71980000  1.0 -0.5127288743
O  O19  1  0.27400000  0.96400000  0.21980000  1.0 -0.5127288743
O  O20  1  0.96400000  0.27400000  0.28020000  1.0 -0.5127288743
O  O21  1  0.89600000  0.03080000  0.76050000  1.0 -0.4875622137
O  O22  1  0.03080000  0.89600000  0.73950000  1.0 -0.4875622137
O  O23  1  0.10400000  0.96920000  0.23950000  1.0 -0.4875622137
O  O24  1  0.96920000  0.10400000  0.26050000  1.0 -0.4875622137
O  O25  1  0.46180000  0.83840000  0.75940000  1.0 -0.4514481767
O  O26  1  0.83840000  0.46180000  0.74060000  1.0 -0.4514481767
O  O27  1  0.53820000  0.16160000  0.24060000  1.0 -0.4514481767
O  O28  1  0.16160000  0.53820000  0.25940000  1.0 -0.4514481767
