# DDEC6 charges by PACMAN v1.1 (https://github.com/mtap-research/PACMAN-charge/)
data_RUVRUX_ASR_pacman
_symmetry_space_group_name_H-M   'P 1'
_cell_length_a   17.25720000
_cell_length_b   17.25720000
_cell_length_c   16.21400000
_cell_angle_alpha   70.56870000
_cell_angle_beta   109.43100000
_cell_angle_gamma   109.14500000
_symmetry_Int_Tables_number   1
_chemical_formula_structural   Cu20H38C17O46
_chemical_formula_sum   'Cu40 H76 C34 O92'
_cell_volume   4164.15519145
_cell_formula_units_Z   2
loop_
 _symmetry_equiv_pos_site_id
 _symmetry_equiv_pos_as_xyz
  1  'x, y, z'
loop_
 _atom_site_type_symbol
 _atom_site_label
 _atom_site_symmetry_multiplicity
 _atom_site_fract_x
 _atom_site_fract_y
 _atom_site_fract_z
 _atom_site_occupancy
 _atom_site_charge
Cu  Cu1  1  0.54837000  0.85561000  0.82163000  1.0 0.9316704944
Cu  Cu2  1  0.85561000  0.54837000  0.67837000  1.0 0.9316704944
Cu  Cu3  1  0.45163000  0.14439000  0.17837000  1.0 0.9316704944
Cu  Cu4  1  0.14439000  0.45163000  0.32163000  1.0 0.9316704944
Cu  Cu5  1  0.15785000  0.40599000  0.85248000  1.0 0.943520176
Cu  Cu6  1  0.40599000  0.15785000  0.64752000  1.0 0.943520176
Cu  Cu7  1  0.84215000  0.59401000  0.14752000  1.0 0.943520176
Cu  Cu8  1  0.59401000  0.84215000  0.35248000  1.0 0.943520176
Cu  Cu9  1  0.66123000  0.93549000  0.49529000  1.0 0.9218341882
Cu  Cu10  1  0.93549000  0.66123000  0.00471000  1.0 0.9218341882
Cu  Cu11  1  0.33877000  0.06451000  0.50471000  1.0 0.9218341882
Cu  Cu12  1  0.06451000  0.33877000  0.99529000  1.0 0.9218341882
Cu  Cu13  1  0.64764000  0.94068000  0.68644000  1.0 0.9218341882
Cu  Cu14  1  0.94068000  0.64764000  0.81356000  1.0 0.9218341882
Cu  Cu15  1  0.35236000  0.05932000  0.31356000  1.0 0.9218341882
Cu  Cu16  1  0.05932000  0.35236000  0.18644000  1.0 0.9218341882
Cu  Cu17  1  0.44587000  0.81419000  0.64712000  1.0 0.968552428
Cu  Cu18  1  0.81419000  0.44587000  0.85288000  1.0 0.968552428
Cu  Cu19  1  0.55413000  0.18581000  0.35288000  1.0 0.968552428
Cu  Cu20  1  0.18581000  0.55413000  0.14712000  1.0 0.968552428
Cu  Cu21  1  0.48229000  0.00601000  0.69683000  1.0 0.9771877403
Cu  Cu22  1  0.00601000  0.48229000  0.80317000  1.0 0.9771877403
Cu  Cu23  1  0.51771000  0.99399000  0.30317000  1.0 0.9771877403
Cu  Cu24  1  0.99399000  0.51771000  0.19683000  1.0 0.9771877403
Cu  Cu25  1  0.68753000  0.11929000  0.53900000  1.0 0.9121265883
Cu  Cu26  1  0.11929000  0.68753000  0.96100000  1.0 0.9121265883
Cu  Cu27  1  0.31247000  0.88071000  0.46100000  1.0 0.9121265883
Cu  Cu28  1  0.88071000  0.31247000  0.03900000  1.0 0.9121265883
Cu  Cu29  1  0.46449000  0.80861000  0.45523000  1.0 0.9910977359
Cu  Cu30  1  0.80861000  0.46449000  0.04477000  1.0 0.9910977359
Cu  Cu31  1  0.53551000  0.19139000  0.54477000  1.0 0.9910977359
Cu  Cu32  1  0.19139000  0.53551000  0.95523000  1.0 0.9910977359
Cu  Cu33  1  0.30355000  0.69847000  0.53128000  1.0 0.7895717199
Cu  Cu34  1  0.69847000  0.30355000  0.96872000  1.0 0.7895717199
Cu  Cu35  1  0.69645000  0.30153000  0.46872000  1.0 0.7895717199
Cu  Cu36  1  0.30153000  0.69645000  0.03128000  1.0 0.7895717199
Cu  Cu37  1  0.81412000  0.01620000  0.62697000  1.0 0.9316704944
Cu  Cu38  1  0.01620000  0.81412000  0.87303000  1.0 0.9316704944
Cu  Cu39  1  0.18588000  0.98380000  0.37303000  1.0 0.9218341882
Cu  Cu40  1  0.98380000  0.18588000  0.12697000  1.0 0.9218341882
H  H1  1  0.48470000  0.58070000  0.95940000  1.0 0.1106103954
H  H2  1  0.58070000  0.48470000  0.54060000  1.0 0.1106103954
H  H3  1  0.51530000  0.41930000  0.04060000  1.0 0.1106103954
H  H4  1  0.41930000  0.51530000  0.45940000  1.0 0.1106103954
H  H5  1  0.53860000  0.58380000  0.89710000  1.0 0.1009620793
H  H6  1  0.58380000  0.53860000  0.60290000  1.0 0.1009620793
H  H7  1  0.46140000  0.41620000  0.10290000  1.0 0.1009620793
H  H8  1  0.41620000  0.46140000  0.39710000  1.0 0.1009620793
H  H9  1  0.40830000  0.53570000  0.79520000  1.0 0.1106103954
H  H10  1  0.53570000  0.40830000  0.70480000  1.0 0.1106103954
H  H11  1  0.59170000  0.46430000  0.20480000  1.0 0.1106103954
H  H12  1  0.46430000  0.59170000  0.29520000  1.0 0.1106103954
H  H13  1  0.43560000  0.46900000  0.88470000  1.0 0.1106103954
H  H14  1  0.46900000  0.43560000  0.61530000  1.0 0.1106103954
H  H15  1  0.56440000  0.53100000  0.11530000  1.0 0.1106103954
H  H16  1  0.53100000  0.56440000  0.38470000  1.0 0.1106103954
H  H17  1  0.59010000  0.78590000  0.73370000  1.0 0.3697018294
H  H18  1  0.78590000  0.59010000  0.76630000  1.0 0.3697018294
H  H19  1  0.40990000  0.21410000  0.26630000  1.0 0.3697018294
H  H20  1  0.21410000  0.40990000  0.23370000  1.0 0.3697018294
H  H21  1  0.71480000  0.84760000  0.65260000  1.0 0.380636471
H  H22  1  0.84760000  0.71480000  0.84740000  1.0 0.380636471
H  H23  1  0.28520000  0.15240000  0.34740000  1.0 0.380636471
H  H24  1  0.15240000  0.28520000  0.15260000  1.0 0.380636471
H  H25  1  0.38120000  0.86540000  0.72970000  1.0 0.3697018294
H  H26  1  0.86540000  0.38120000  0.77030000  1.0 0.3697018294
H  H27  1  0.61880000  0.13460000  0.27030000  1.0 0.3697018294
H  H28  1  0.13460000  0.61880000  0.22970000  1.0 0.3697018294
H  H29  1  0.57780000  0.14700000  0.71640000  1.0 0.380636471
H  H30  1  0.14700000  0.57780000  0.78360000  1.0 0.380636471
H  H31  1  0.42220000  0.85300000  0.28360000  1.0 0.380636471
H  H32  1  0.85300000  0.42220000  0.21640000  1.0 0.380636471
H  H33  1  0.48610000  0.71110000  0.60400000  1.0 0.3617293711
H  H34  1  0.71110000  0.48610000  0.89600000  1.0 0.3617293711
H  H35  1  0.51390000  0.28890000  0.39600000  1.0 0.3617293711
H  H36  1  0.28890000  0.51390000  0.10400000  1.0 0.3617293711
H  H37  1  0.57380000  0.97260000  0.03720000  1.0 0.1009620793
H  H38  1  0.97260000  0.57380000  0.46280000  1.0 0.1009620793
H  H39  1  0.42620000  0.02740000  0.96280000  1.0 0.1009620793
H  H40  1  0.02740000  0.42620000  0.53720000  1.0 0.1009620793
H  H41  1  0.48320000  0.91340000  0.03600000  1.0 0.1009620793
H  H42  1  0.91340000  0.48320000  0.46400000  1.0 0.1009620793
H  H43  1  0.51680000  0.08660000  0.96400000  1.0 0.1009620793
H  H44  1  0.08660000  0.51680000  0.53600000  1.0 0.1009620793
H  H45  1  0.63340000  0.00960000  0.79300000  1.0 0.380636471
H  H46  1  0.00960000  0.63340000  0.70700000  1.0 0.380636471
H  H47  1  0.36660000  0.99040000  0.20700000  1.0 0.380636471
H  H48  1  0.99040000  0.36660000  0.29300000  1.0 0.380636471
H  H49  1  0.75120000  0.07960000  0.70760000  1.0 0.3890507792
H  H50  1  0.07960000  0.75120000  0.79240000  1.0 0.3890507792
H  H51  1  0.24880000  0.92040000  0.29240000  1.0 0.3890507792
H  H52  1  0.92040000  0.24880000  0.20760000  1.0 0.3890507792
H  H53  1  0.76360000  0.07980000  0.45480000  1.0 0.3697018294
H  H54  1  0.07980000  0.76360000  0.04520000  1.0 0.3697018294
H  H55  1  0.23640000  0.92020000  0.54520000  1.0 0.3697018294
H  H56  1  0.92020000  0.23640000  0.95480000  1.0 0.3697018294
H  H57  1  0.61190000  0.77630000  0.52290000  1.0 0.3890507792
H  H58  1  0.77630000  0.61190000  0.97710000  1.0 0.3890507792
H  H59  1  0.38810000  0.22370000  0.47710000  1.0 0.3890507792
H  H60  1  0.22370000  0.38810000  0.02290000  1.0 0.3890507792
H  H61  1  0.67350000  0.99870000  0.33320000  1.0 0.3890507792
H  H62  1  0.99870000  0.67350000  0.16680000  1.0 0.3890507792
H  H63  1  0.32650000  0.00130000  0.66680000  1.0 0.3890507792
H  H64  1  0.00130000  0.32650000  0.83320000  1.0 0.3890507792
H  H65  1  0.28730000  0.79210000  0.61290000  1.0 0.3697018294
H  H66  1  0.79210000  0.28730000  0.88710000  1.0 0.3697018294
H  H67  1  0.71270000  0.20790000  0.38710000  1.0 0.3697018294
H  H68  1  0.20790000  0.71270000  0.11290000  1.0 0.3697018294
H  H69  1  0.97280000  0.90820000  0.52790000  1.0 0.1009620793
H  H70  1  0.90820000  0.97280000  0.97210000  1.0 0.1009620793
H  H71  1  0.02720000  0.09180000  0.47210000  1.0 0.1009620793
H  H72  1  0.09180000  0.02720000  0.02790000  1.0 0.1009620793
H  H73  1  0.93640000  0.96000000  0.43160000  1.0 0.1106103954
H  H74  1  0.96000000  0.93640000  0.06840000  1.0 0.1106103954
H  H75  1  0.06360000  0.04000000  0.56840000  1.0 0.1106103954
H  H76  1  0.04000000  0.06360000  0.93160000  1.0 0.1106103954
C  C1  1  0.47830000  0.67910000  0.84770000  1.0 0.61956917
C  C2  1  0.67910000  0.47830000  0.65230000  1.0 0.61956917
C  C3  1  0.52170000  0.32090000  0.15230000  1.0 0.61956917
C  C4  1  0.32090000  0.52170000  0.34770000  1.0 0.61956917
C  C5  1  0.48460000  0.58960000  0.89700000  1.0 -0.2915425723
C  C6  1  0.58960000  0.48460000  0.60300000  1.0 -0.2915425723
C  C7  1  0.51540000  0.41040000  0.10300000  1.0 -0.2915425723
C  C8  1  0.41040000  0.51540000  0.39700000  1.0 -0.2915425723
C  C9  1  0.33230000  0.50270000  0.87840000  1.0 0.61956917
C  C10  1  0.50270000  0.33230000  0.62160000  1.0 0.61956917
C  C11  1  0.66770000  0.49730000  0.12160000  1.0 0.61956917
C  C12  1  0.49730000  0.66770000  0.37840000  1.0 0.61956917
C  C13  1  0.41600000  0.52080000  0.86010000  1.0 -0.3001454411
C  C14  1  0.52080000  0.41600000  0.63990000  1.0 -0.3001454411
C  C15  1  0.58400000  0.47920000  0.13990000  1.0 -0.3001454411
C  C16  1  0.47920000  0.58400000  0.36010000  1.0 -0.3001454411
C  C17  1  0.51170000  0.94790000  0.91650000  1.0 0.61956917
C  C18  1  0.94790000  0.51170000  0.58350000  1.0 0.61956917
C  C19  1  0.48830000  0.05210000  0.08350000  1.0 0.61956917
C  C20  1  0.05210000  0.48830000  0.41650000  1.0 0.61956917
C  C21  1  0.51530000  0.96430000  0.00220000  1.0 -0.3001454411
C  C22  1  0.96430000  0.51530000  0.49780000  1.0 -0.3001454411
C  C23  1  0.48470000  0.03570000  0.99780000  1.0 -0.3001454411
C  C24  1  0.03570000  0.48470000  0.50220000  1.0 -0.3001454411
C  C25  1  0.95590000  0.96070000  0.49500000  1.0 -0.3134474953
C  C26  1  0.96070000  0.95590000  0.00500000  1.0 -0.3134474953
C  C27  1  0.04410000  0.03930000  0.50500000  1.0 -0.3134474953
C  C28  1  0.03930000  0.04410000  0.99500000  1.0 -0.3134474953
C  C29  1  0.87700000  0.95700000  0.52500000  1.0 0.6356771166
C  C30  1  0.95700000  0.87700000  0.97500000  1.0 0.6356771166
C  C31  1  0.12300000  0.04300000  0.47500000  1.0 0.6356771166
C  C32  1  0.04300000  0.12300000  0.02500000  1.0 0.6356771166
C  C33  1  0.50000000  0.00000000  0.50000000  1.0 0.3617293711
C  C34  1  0.00000000  0.50000000  0.00000000  1.0 0.3617293711
O  O1  1  0.52990000  0.73630000  0.88490000  1.0 -0.5729988043
O  O2  1  0.73630000  0.52990000  0.61510000  1.0 -0.5729988043
O  O3  1  0.47010000  0.26370000  0.11510000  1.0 -0.5729988043
O  O4  1  0.26370000  0.47010000  0.38490000  1.0 -0.5729988043
O  O5  1  0.42290000  0.69310000  0.77420000  1.0 -0.6322212045
O  O6  1  0.69310000  0.42290000  0.72580000  1.0 -0.6322212045
O  O7  1  0.57710000  0.30690000  0.22580000  1.0 -0.6322212045
O  O8  1  0.30690000  0.57710000  0.27420000  1.0 -0.6322212045
O  O9  1  0.31790000  0.54830000  0.91310000  1.0 -0.5899003868
O  O10  1  0.54830000  0.31790000  0.58690000  1.0 -0.5899003868
O  O11  1  0.68210000  0.45170000  0.08690000  1.0 -0.5899003868
O  O12  1  0.45170000  0.68210000  0.41310000  1.0 -0.5899003868
O  O13  1  0.27540000  0.44080000  0.84900000  1.0 -0.6116771226
O  O14  1  0.44080000  0.27540000  0.65100000  1.0 -0.6116771226
O  O15  1  0.72460000  0.55920000  0.15100000  1.0 -0.6116771226
O  O16  1  0.55920000  0.72460000  0.34900000  1.0 -0.6116771226
O  O17  1  0.56660000  0.83520000  0.71690000  1.0 -0.8614388948
O  O18  1  0.83520000  0.56660000  0.78310000  1.0 -0.8614388948
O  O19  1  0.43340000  0.16480000  0.28310000  1.0 -0.8614388948
O  O20  1  0.16480000  0.43340000  0.21690000  1.0 -0.8614388948
O  O21  1  0.70300000  0.90380000  0.62520000  1.0 -0.9026330834
O  O22  1  0.90380000  0.70300000  0.87480000  1.0 -0.9026330834
O  O23  1  0.29700000  0.09620000  0.37480000  1.0 -0.9026330834
O  O24  1  0.09620000  0.29700000  0.12520000  1.0 -0.9026330834
O  O25  1  0.43380000  0.88600000  0.70990000  1.0 -0.8842163359
O  O26  1  0.88600000  0.43380000  0.79010000  1.0 -0.8842163359
O  O27  1  0.56620000  0.11400000  0.29010000  1.0 -0.8842163359
O  O28  1  0.11400000  0.56620000  0.20990000  1.0 -0.8842163359
O  O29  1  0.53100000  0.12620000  0.66870000  1.0 -0.8842163359
O  O30  1  0.12620000  0.53100000  0.83130000  1.0 -0.8842163359
O  O31  1  0.46900000  0.87380000  0.33130000  1.0 -0.8842163359
O  O32  1  0.87380000  0.46900000  0.16870000  1.0 -0.8842163359
O  O33  1  0.45750000  0.74810000  0.57630000  1.0 -0.8374847
O  O34  1  0.74810000  0.45750000  0.92370000  1.0 -0.8374847
O  O35  1  0.54250000  0.25190000  0.42370000  1.0 -0.8374847
O  O36  1  0.25190000  0.54250000  0.07630000  1.0 -0.8374847
O  O37  1  0.47670000  0.99370000  0.84330000  1.0 -0.6322212045
O  O38  1  0.99370000  0.47670000  0.65670000  1.0 -0.6322212045
O  O39  1  0.52330000  0.00630000  0.15670000  1.0 -0.6322212045
O  O40  1  0.00630000  0.52330000  0.34330000  1.0 -0.6322212045
O  O41  1  0.53860000  0.88620000  0.92350000  1.0 -0.5729988043
O  O42  1  0.88620000  0.53860000  0.57650000  1.0 -0.5729988043
O  O43  1  0.46140000  0.11380000  0.07650000  1.0 -0.5729988043
O  O44  1  0.11380000  0.46140000  0.42350000  1.0 -0.5729988043
O  O45  1  0.59310000  0.97370000  0.75350000  1.0 -0.8614388948
O  O46  1  0.97370000  0.59310000  0.74650000  1.0 -0.8614388948
O  O47  1  0.40690000  0.02630000  0.24650000  1.0 -0.8614388948
O  O48  1  0.02630000  0.40690000  0.25350000  1.0 -0.8614388948
O  O49  1  0.72800000  0.04980000  0.65930000  1.0 -0.8614388948
O  O50  1  0.04980000  0.72800000  0.84070000  1.0 -0.8614388948
O  O51  1  0.27200000  0.95020000  0.34070000  1.0 -0.8614388948
O  O52  1  0.95020000  0.27200000  0.15930000  1.0 -0.8614388948
O  O53  1  0.66080000  0.20560000  0.57140000  1.0 -0.9324600522
O  O54  1  0.20560000  0.66080000  0.92860000  1.0 -0.9324600522
O  O55  1  0.33920000  0.79440000  0.42860000  1.0 -0.9324600522
O  O56  1  0.79440000  0.33920000  0.07140000  1.0 -0.9324600522
O  O57  1  0.73550000  0.04970000  0.50410000  1.0 -0.8614388948
O  O58  1  0.04970000  0.73550000  0.99590000  1.0 -0.8614388948
O  O59  1  0.26450000  0.95030000  0.49590000  1.0 -0.8614388948
O  O60  1  0.95030000  0.26450000  0.00410000  1.0 -0.8614388948
O  O61  1  0.59030000  0.82430000  0.47970000  1.0 -0.8726222043
O  O62  1  0.82430000  0.59030000  0.02030000  1.0 -0.8726222043
O  O63  1  0.40970000  0.17570000  0.52030000  1.0 -0.8726222043
O  O64  1  0.17570000  0.40970000  0.97970000  1.0 -0.8726222043
O  O65  1  0.62770000  0.96230000  0.36180000  1.0 -0.8614388948
O  O66  1  0.96230000  0.62770000  0.13820000  1.0 -0.8614388948
O  O67  1  0.37230000  0.03770000  0.63820000  1.0 -0.8614388948
O  O68  1  0.03770000  0.37230000  0.86180000  1.0 -0.8614388948
O  O69  1  0.32670000  0.79750000  0.57830000  1.0 -0.8508969669
O  O70  1  0.79750000  0.32670000  0.92170000  1.0 -0.8508969669
O  O71  1  0.67330000  0.20250000  0.42170000  1.0 -0.8508969669
O  O72  1  0.20250000  0.67330000  0.07830000  1.0 -0.8508969669
O  O73  1  0.89760000  0.00220000  0.57880000  1.0 -0.5899003868
O  O74  1  0.00220000  0.89760000  0.92120000  1.0 -0.5899003868
O  O75  1  0.10240000  0.99780000  0.42120000  1.0 -0.5899003868
O  O76  1  0.99780000  0.10240000  0.07880000  1.0 -0.5899003868
O  O77  1  0.80870000  0.91170000  0.48600000  1.0 -0.6357665782
O  O78  1  0.91170000  0.80870000  0.01400000  1.0 -0.6357665782
O  O79  1  0.19130000  0.08830000  0.51400000  1.0 -0.6357665782
O  O80  1  0.08830000  0.19130000  0.98600000  1.0 -0.6357665782
O  O81  1  0.44770000  0.92510000  0.49620000  1.0 -0.2158344959
O  O82  1  0.92510000  0.44770000  0.00380000  1.0 -0.2158344959
O  O83  1  0.55230000  0.07490000  0.50380000  1.0 -0.2158344959
O  O84  1  0.07490000  0.55230000  0.99620000  1.0 -0.2158344959
O  O85  1  0.53710000  0.94310000  0.51350000  1.0 -0.1228097056
O  O86  1  0.94310000  0.53710000  0.98650000  1.0 -0.1228097056
O  O87  1  0.46290000  0.05690000  0.48650000  1.0 -0.1228097056
O  O88  1  0.05690000  0.46290000  0.01350000  1.0 -0.1228097056
O  O89  1  0.57710000  0.00290000  0.53070000  1.0 -0.1019514551
O  O90  1  0.00290000  0.57710000  0.96930000  1.0 -0.1019514551
O  O91  1  0.42290000  0.99710000  0.46930000  1.0 -0.1019514551
O  O92  1  0.99710000  0.42290000  0.03070000  1.0 -0.1019514551
