# DDEC6 charges by PACMAN v1.1 (https://github.com/mtap-research/PACMAN-charge/)
data_RUYVEO_FSR_pacman
_symmetry_space_group_name_H-M   'P 1'
_cell_length_a   16.90100000
_cell_length_b   16.90100000
_cell_length_c   16.90100000
_cell_angle_alpha   113.82100000
_cell_angle_beta   113.82100000
_cell_angle_gamma   113.82100000
_symmetry_Int_Tables_number   1
_chemical_formula_structural   LaH15C26NO7
_chemical_formula_sum   'La3 H45 C78 N3 O21'
_cell_volume   2971.58298762
_cell_formula_units_Z   3
loop_
 _symmetry_equiv_pos_site_id
 _symmetry_equiv_pos_as_xyz
  1  'x, y, z'
loop_
 _atom_site_type_symbol
 _atom_site_label
 _atom_site_symmetry_multiplicity
 _atom_site_fract_x
 _atom_site_fract_y
 _atom_site_fract_z
 _atom_site_occupancy
 _atom_site_charge
La  La1  1  0.67755000  0.32245000  0.00000000  1.0 1.7763938402
La  La2  1  0.32245000  0.00000000  0.67755000  1.0 1.7763938402
La  La3  1  0.00000000  0.67755000  0.32245000  1.0 1.7763938402
H  H1  1  0.12340000  0.53359000  0.14073000  1.0 0.1021101296
H  H2  1  0.53359000  0.14073000  0.12340000  1.0 0.1021101296
H  H3  1  0.14073000  0.12340000  0.53359000  1.0 0.1021101296
H  H4  1  0.87660000  0.85927000  0.46641000  1.0 0.1021101296
H  H5  1  0.46641000  0.87660000  0.85927000  1.0 0.1021101296
H  H6  1  0.85927000  0.46641000  0.87660000  1.0 0.1021101296
H  H7  1  0.20709000  0.53359000  0.05704000  1.0 0.1021101296
H  H8  1  0.53359000  0.05704000  0.20709000  1.0 0.1021101296
H  H9  1  0.05704000  0.20709000  0.53359000  1.0 0.1021101296
H  H10  1  0.79291000  0.94296000  0.46641000  1.0 0.1021101296
H  H11  1  0.46641000  0.79291000  0.94296000  1.0 0.1021101296
H  H12  1  0.94296000  0.46641000  0.79291000  1.0 0.1021101296
H  H13  1  0.17677000  0.41165000  0.89748000  1.0 0.1329388489
H  H14  1  0.41165000  0.89748000  0.17677000  1.0 0.1329388489
H  H15  1  0.89748000  0.17677000  0.41165000  1.0 0.1329388489
H  H16  1  0.82323000  0.10252000  0.58835000  1.0 0.1329388489
H  H17  1  0.58835000  0.82323000  0.10252000  1.0 0.1329388489
H  H18  1  0.10252000  0.58835000  0.82323000  1.0 0.1329388489
H  H19  1  0.26517000  0.50000000  0.73483000  1.0 0.2660780941
H  H20  1  0.50000000  0.73483000  0.26517000  1.0 0.2660780941
H  H21  1  0.73483000  0.26517000  0.50000000  1.0 0.2660780941
H  H22  1  0.33546000  0.43909000  0.97010000  1.0 0.1134111528
H  H23  1  0.43909000  0.97010000  0.33546000  1.0 0.1134111528
H  H24  1  0.97010000  0.33546000  0.43909000  1.0 0.1134111528
H  H25  1  0.66454000  0.02990000  0.56091000  1.0 0.1134111528
H  H26  1  0.56091000  0.66454000  0.02990000  1.0 0.1134111528
H  H27  1  0.02990000  0.56091000  0.66454000  1.0 0.1134111528
H  H28  1  0.41444000  0.35075000  0.96539000  1.0 0.1329388489
H  H29  1  0.35075000  0.96539000  0.41444000  1.0 0.1329388489
H  H30  1  0.96539000  0.41444000  0.35075000  1.0 0.1329388489
H  H31  1  0.58556000  0.03461000  0.64925000  1.0 0.1329388489
H  H32  1  0.64925000  0.58556000  0.03461000  1.0 0.1329388489
H  H33  1  0.03461000  0.64925000  0.58556000  1.0 0.1329388489
H  H34  1  0.30742000  0.24780000  0.65024000  1.0 0.1234224864
H  H35  1  0.24780000  0.65024000  0.30742000  1.0 0.1234224864
H  H36  1  0.65024000  0.30742000  0.24780000  1.0 0.1234224864
H  H37  1  0.69258000  0.34976000  0.75220000  1.0 0.1234224864
H  H38  1  0.75220000  0.69258000  0.34976000  1.0 0.1234224864
H  H39  1  0.34976000  0.75220000  0.69258000  1.0 0.1234224864
H  H40  1  0.22845000  0.33614000  0.65494000  1.0 0.1021101296
H  H41  1  0.33614000  0.65494000  0.22845000  1.0 0.1021101296
H  H42  1  0.65494000  0.22845000  0.33614000  1.0 0.1021101296
H  H43  1  0.77155000  0.34506000  0.66386000  1.0 0.1021101296
H  H44  1  0.66386000  0.77155000  0.34506000  1.0 0.1021101296
H  H45  1  0.34506000  0.66386000  0.77155000  1.0 0.1021101296
C  C1  1  0.93290000  0.50000000  0.06710000  1.0 0.5899708961
C  C2  1  0.50000000  0.06710000  0.93290000  1.0 0.5899708961
C  C3  1  0.06710000  0.93290000  0.50000000  1.0 0.5899708961
C  C4  1  0.98481000  0.50000000  0.01519000  1.0 -0.034068154
C  C5  1  0.50000000  0.01519000  0.98481000  1.0 -0.034068154
C  C6  1  0.01519000  0.98481000  0.50000000  1.0 -0.034068154
C  C7  1  0.08533000  0.51941000  0.06734000  1.0 -0.087084238
C  C8  1  0.51941000  0.06734000  0.08533000  1.0 -0.087084238
C  C9  1  0.06734000  0.08533000  0.51941000  1.0 -0.087084238
C  C10  1  0.91467000  0.93266000  0.48059000  1.0 -0.087084238
C  C11  1  0.48059000  0.91467000  0.93266000  1.0 -0.087084238
C  C12  1  0.93266000  0.48059000  0.91467000  1.0 -0.087084238
C  C13  1  0.13370000  0.51941000  0.01897000  1.0 -0.1536386105
C  C14  1  0.51941000  0.01897000  0.13370000  1.0 -0.1536386105
C  C15  1  0.01897000  0.13370000  0.51941000  1.0 -0.1536386105
C  C16  1  0.86630000  0.98103000  0.48059000  1.0 -0.1536386105
C  C17  1  0.48059000  0.86630000  0.98103000  1.0 -0.1536386105
C  C18  1  0.98103000  0.48059000  0.86630000  1.0 -0.1536386105
C  C19  1  0.08156000  0.50000000  0.91844000  1.0 0.0726303404
C  C20  1  0.50000000  0.91844000  0.08156000  1.0 0.0726303404
C  C21  1  0.91844000  0.08156000  0.50000000  1.0 0.0726303404
C  C22  1  0.13311000  0.50000000  0.86689000  1.0 0.1234224864
C  C23  1  0.50000000  0.86689000  0.13311000  1.0 0.1234224864
C  C24  1  0.86689000  0.13311000  0.50000000  1.0 0.1234224864
C  C25  1  0.17875000  0.44894000  0.86418000  1.0 -0.255679588
C  C26  1  0.44894000  0.86418000  0.17875000  1.0 -0.255679588
C  C27  1  0.86418000  0.17875000  0.44894000  1.0 -0.255679588
C  C28  1  0.82125000  0.13582000  0.55106000  1.0 -0.255679588
C  C29  1  0.55106000  0.82125000  0.13582000  1.0 -0.255679588
C  C30  1  0.13582000  0.55106000  0.82125000  1.0 -0.255679588
C  C31  1  0.22714000  0.44894000  0.81579000  1.0 0.1870827322
C  C32  1  0.44894000  0.81579000  0.22714000  1.0 0.1870827322
C  C33  1  0.81579000  0.22714000  0.44894000  1.0 0.1870827322
C  C34  1  0.77286000  0.18421000  0.55106000  1.0 0.1870827322
C  C35  1  0.55106000  0.77286000  0.18421000  1.0 0.1870827322
C  C36  1  0.18421000  0.55106000  0.77286000  1.0 0.1870827322
C  C37  1  0.27579000  0.39452000  0.81289000  1.0 0.0291413089
C  C38  1  0.39452000  0.81289000  0.27579000  1.0 0.0291413089
C  C39  1  0.81289000  0.27579000  0.39452000  1.0 0.0291413089
C  C40  1  0.72421000  0.18711000  0.60548000  1.0 0.0291413089
C  C41  1  0.60548000  0.72421000  0.18711000  1.0 0.0291413089
C  C42  1  0.18711000  0.60548000  0.72421000  1.0 0.0291413089
C  C43  1  0.32954000  0.39873000  0.90262000  1.0 -0.1536386105
C  C44  1  0.39873000  0.90262000  0.32954000  1.0 -0.1536386105
C  C45  1  0.90262000  0.32954000  0.39873000  1.0 -0.1536386105
C  C46  1  0.67046000  0.09738000  0.60127000  1.0 -0.1536386105
C  C47  1  0.60127000  0.67046000  0.09738000  1.0 -0.1536386105
C  C48  1  0.09738000  0.60127000  0.67046000  1.0 -0.1536386105
C  C49  1  0.37519000  0.34767000  0.89990000  1.0 -0.0809592585
C  C50  1  0.34767000  0.89990000  0.37519000  1.0 -0.0809592585
C  C51  1  0.89990000  0.37519000  0.34767000  1.0 -0.0809592585
C  C52  1  0.62481000  0.10010000  0.65233000  1.0 -0.0809592585
C  C53  1  0.65233000  0.62481000  0.10010000  1.0 -0.0809592585
C  C54  1  0.10010000  0.65233000  0.62481000  1.0 -0.0809592585
C  C55  1  0.36709000  0.29238000  0.80744000  1.0 -0.0239559411
C  C56  1  0.29238000  0.80744000  0.36709000  1.0 -0.0239559411
C  C57  1  0.80744000  0.36709000  0.29238000  1.0 -0.0239559411
C  C58  1  0.63291000  0.19256000  0.70762000  1.0 -0.0239559411
C  C59  1  0.70762000  0.63291000  0.19256000  1.0 -0.0239559411
C  C60  1  0.19256000  0.70762000  0.63291000  1.0 -0.0239559411
C  C61  1  0.31334000  0.28816000  0.71772000  1.0 -0.087084238
C  C62  1  0.28816000  0.71772000  0.31334000  1.0 -0.087084238
C  C63  1  0.71772000  0.31334000  0.28816000  1.0 -0.087084238
C  C64  1  0.68666000  0.28228000  0.71184000  1.0 -0.087084238
C  C65  1  0.71184000  0.68666000  0.28228000  1.0 -0.087084238
C  C66  1  0.28228000  0.71184000  0.68666000  1.0 -0.087084238
C  C67  1  0.26768000  0.33923000  0.72044000  1.0 -0.1581656093
C  C68  1  0.33923000  0.72044000  0.26768000  1.0 -0.1581656093
C  C69  1  0.72044000  0.26768000  0.33923000  1.0 -0.1581656093
C  C70  1  0.73232000  0.27956000  0.66077000  1.0 -0.1581656093
C  C71  1  0.66077000  0.73232000  0.27956000  1.0 -0.1581656093
C  C72  1  0.27956000  0.66077000  0.73232000  1.0 -0.1581656093
C  C73  1  0.41607000  0.23759000  0.80452000  1.0 0.5442618822
C  C74  1  0.23759000  0.80452000  0.41607000  1.0 0.5442618822
C  C75  1  0.80452000  0.41607000  0.23759000  1.0 0.5442618822
C  C76  1  0.58393000  0.19548000  0.76241000  1.0 0.5442618822
C  C77  1  0.76241000  0.58393000  0.19548000  1.0 0.5442618822
C  C78  1  0.19548000  0.76241000  0.58393000  1.0 0.5442618822
N  N1  1  0.22986000  0.50000000  0.77014000  1.0 -0.291472356
N  N2  1  0.50000000  0.77014000  0.22986000  1.0 -0.291472356
N  N3  1  0.77014000  0.22986000  0.50000000  1.0 -0.291472356
O  O1  1  0.99616000  0.55561000  0.17449000  1.0 -0.5640420223
O  O2  1  0.55561000  0.17449000  0.99616000  1.0 -0.5640420223
O  O3  1  0.17449000  0.99616000  0.55561000  1.0 -0.5640420223
O  O4  1  0.00384000  0.82551000  0.44439000  1.0 -0.5640420223
O  O5  1  0.44439000  0.00384000  0.82551000  1.0 -0.5640420223
O  O6  1  0.82551000  0.44439000  0.00384000  1.0 -0.5640420223
O  O7  1  0.46443000  0.24005000  0.88687000  1.0 -0.5840046311
O  O8  1  0.24005000  0.88687000  0.46443000  1.0 -0.5840046311
O  O9  1  0.88687000  0.46443000  0.24005000  1.0 -0.5840046311
O  O10  1  0.53557000  0.11313000  0.75995000  1.0 -0.5840046311
O  O11  1  0.75995000  0.53557000  0.11313000  1.0 -0.5840046311
O  O12  1  0.11313000  0.75995000  0.53557000  1.0 -0.5840046311
O  O13  1  0.41005000  0.18780000  0.71966000  1.0 -0.4679574574
O  O14  1  0.18780000  0.71966000  0.41005000  1.0 -0.4679574574
O  O15  1  0.71966000  0.41005000  0.18780000  1.0 -0.4679574574
O  O16  1  0.58995000  0.28034000  0.81220000  1.0 -0.4679574574
O  O17  1  0.81220000  0.58995000  0.28034000  1.0 -0.4679574574
O  O18  1  0.28034000  0.81220000  0.58995000  1.0 -0.4679574574
O  O19  1  0.76589000  0.23411000  0.00000000  1.0 -0.4095900362
O  O20  1  0.23411000  0.00000000  0.76589000  1.0 -0.4095900362
O  O21  1  0.00000000  0.76589000  0.23411000  1.0 -0.4095900362
