# DDEC6 charges by PACMAN v1.1 (https://github.com/mtap-research/PACMAN-charge/)
data_RUZCOF_FSR_pacman
_symmetry_space_group_name_H-M   'P 1'
_cell_length_a   9.90960000
_cell_length_b   13.80220000
_cell_length_c   15.67800000
_cell_angle_alpha   90.00000000
_cell_angle_beta   90.00000000
_cell_angle_gamma   90.00000000
_symmetry_Int_Tables_number   1
_chemical_formula_structural   Zn3P4(HO3)4
_chemical_formula_sum   'Zn12 P16 H16 O48'
_cell_volume   2144.34717940
_cell_formula_units_Z   4
loop_
 _symmetry_equiv_pos_site_id
 _symmetry_equiv_pos_as_xyz
  1  'x, y, z'
loop_
 _atom_site_type_symbol
 _atom_site_label
 _atom_site_symmetry_multiplicity
 _atom_site_fract_x
 _atom_site_fract_y
 _atom_site_fract_z
 _atom_site_occupancy
 _atom_site_charge
Zn  Zn1  1  0.04004000  0.60735000  0.58253000  1.0 1.0878941005
Zn  Zn2  1  0.45996000  0.10735000  0.91747000  1.0 1.0878941005
Zn  Zn3  1  0.95996000  0.89265000  0.58253000  1.0 1.0878941005
Zn  Zn4  1  0.54004000  0.39265000  0.91747000  1.0 1.0878941005
Zn  Zn5  1  0.95996000  0.39265000  0.41747000  1.0 1.0878941005
Zn  Zn6  1  0.54004000  0.89265000  0.08253000  1.0 1.0878941005
Zn  Zn7  1  0.04004000  0.10735000  0.41747000  1.0 1.0878941005
Zn  Zn8  1  0.45996000  0.60735000  0.08253000  1.0 1.0878941005
Zn  Zn9  1  0.00000000  0.75000000  0.22788000  1.0 1.1479487902
Zn  Zn10  1  0.50000000  0.25000000  0.27212000  1.0 1.1479487902
Zn  Zn11  1  0.00000000  0.25000000  0.77212000  1.0 1.1479487902
Zn  Zn12  1  0.50000000  0.75000000  0.72788000  1.0 1.1479487902
P  P1  1  0.23491000  0.78443000  0.61362000  1.0 1.2325090553
P  P2  1  0.26509000  0.28443000  0.88638000  1.0 1.2325090553
P  P3  1  0.76509000  0.71557000  0.61362000  1.0 1.2325090553
P  P4  1  0.73491000  0.21557000  0.88638000  1.0 1.2325090553
P  P5  1  0.76509000  0.21557000  0.38638000  1.0 1.2356888241
P  P6  1  0.73491000  0.71557000  0.11362000  1.0 1.2325090553
P  P7  1  0.23491000  0.28443000  0.38638000  1.0 1.2356888241
P  P8  1  0.26509000  0.78443000  0.11362000  1.0 1.2325090553
P  P9  1  0.97169000  0.61392000  0.38334000  1.0 1.2793858385
P  P10  1  0.52831000  0.11392000  0.11666000  1.0 1.2793858385
P  P11  1  0.02831000  0.88608000  0.38334000  1.0 1.2793858385
P  P12  1  0.47169000  0.38608000  0.11666000  1.0 1.2793858385
P  P13  1  0.02831000  0.38608000  0.61666000  1.0 1.2793858385
P  P14  1  0.47169000  0.88608000  0.88334000  1.0 1.2793858385
P  P15  1  0.97169000  0.11392000  0.61666000  1.0 1.2793858385
P  P16  1  0.52831000  0.61392000  0.88334000  1.0 1.2793858385
H  H1  1  0.27400000  0.77290000  0.53300000  1.0 -0.1462888608
H  H2  1  0.22600000  0.27290000  0.96700000  1.0 -0.1462888608
H  H3  1  0.72600000  0.72710000  0.53300000  1.0 -0.1462888608
H  H4  1  0.77400000  0.22710000  0.96700000  1.0 -0.1462888608
H  H5  1  0.72600000  0.22710000  0.46700000  1.0 -0.1414926463
H  H6  1  0.77400000  0.72710000  0.03300000  1.0 -0.1462888608
H  H7  1  0.27400000  0.27290000  0.46700000  1.0 -0.1414926463
H  H8  1  0.22600000  0.77290000  0.03300000  1.0 -0.1462888608
H  H9  1  0.87000000  0.68400000  0.39590000  1.0 -0.1287968626
H  H10  1  0.63000000  0.18400000  0.10410000  1.0 -0.1287968626
H  H11  1  0.13000000  0.81600000  0.39590000  1.0 -0.1287968626
H  H12  1  0.37000000  0.31600000  0.10410000  1.0 -0.1287968626
H  H13  1  0.13000000  0.31600000  0.60410000  1.0 -0.1287968626
H  H14  1  0.37000000  0.81600000  0.89590000  1.0 -0.1287968626
H  H15  1  0.87000000  0.18400000  0.60410000  1.0 -0.1287968626
H  H16  1  0.63000000  0.68400000  0.89590000  1.0 -0.1287968626
O  O1  1  0.35740000  0.80520000  0.66430000  1.0 -0.6334066952
O  O2  1  0.14260000  0.30520000  0.83570000  1.0 -0.6334066952
O  O3  1  0.64260000  0.69480000  0.66430000  1.0 -0.6334066952
O  O4  1  0.85740000  0.19480000  0.83570000  1.0 -0.6334066952
O  O5  1  0.64260000  0.19480000  0.33570000  1.0 -0.6334066952
O  O6  1  0.85740000  0.69480000  0.16430000  1.0 -0.6334066952
O  O7  1  0.35740000  0.30520000  0.33570000  1.0 -0.6334066952
O  O8  1  0.14260000  0.80520000  0.16430000  1.0 -0.6334066952
O  O9  1  0.16500000  0.69220000  0.64020000  1.0 -0.6493307068
O  O10  1  0.33500000  0.19220000  0.85980000  1.0 -0.6493307068
O  O11  1  0.83500000  0.80780000  0.64020000  1.0 -0.6493307068
O  O12  1  0.66500000  0.30780000  0.85980000  1.0 -0.6493307068
O  O13  1  0.83500000  0.30780000  0.35980000  1.0 -0.6493307068
O  O14  1  0.66500000  0.80780000  0.14020000  1.0 -0.6493307068
O  O15  1  0.16500000  0.19220000  0.35980000  1.0 -0.6493307068
O  O16  1  0.33500000  0.69220000  0.14020000  1.0 -0.6493307068
O  O17  1  0.14670000  0.87370000  0.61670000  1.0 -0.6493307068
O  O18  1  0.35330000  0.37370000  0.88330000  1.0 -0.6493307068
O  O19  1  0.85330000  0.62630000  0.61670000  1.0 -0.6493307068
O  O20  1  0.64670000  0.12630000  0.88330000  1.0 -0.6493307068
O  O21  1  0.85330000  0.12630000  0.38330000  1.0 -0.6438887233
O  O22  1  0.64670000  0.62630000  0.11670000  1.0 -0.6438887233
O  O23  1  0.14670000  0.37370000  0.38330000  1.0 -0.6438887233
O  O24  1  0.35330000  0.87370000  0.11670000  1.0 -0.6438887233
O  O25  1  0.05110000  0.64370000  0.30390000  1.0 -0.6565116757
O  O26  1  0.44890000  0.14370000  0.19610000  1.0 -0.6565116757
O  O27  1  0.94890000  0.85630000  0.30390000  1.0 -0.6565116757
O  O28  1  0.55110000  0.35630000  0.19610000  1.0 -0.6565116757
O  O29  1  0.94890000  0.35630000  0.69610000  1.0 -0.6565116757
O  O30  1  0.55110000  0.85630000  0.80390000  1.0 -0.6565116757
O  O31  1  0.05110000  0.14370000  0.69610000  1.0 -0.6565116757
O  O32  1  0.44890000  0.64370000  0.80390000  1.0 -0.6565116757
O  O33  1  0.90200000  0.51710000  0.37080000  1.0 -0.619303126
O  O34  1  0.59800000  0.01710000  0.12920000  1.0 -0.619303126
O  O35  1  0.09800000  0.98290000  0.37080000  1.0 -0.619303126
O  O36  1  0.40200000  0.48290000  0.12920000  1.0 -0.619303126
O  O37  1  0.09800000  0.48290000  0.62920000  1.0 -0.619303126
O  O38  1  0.40200000  0.98290000  0.87080000  1.0 -0.619303126
O  O39  1  0.90200000  0.01710000  0.62920000  1.0 -0.619303126
O  O40  1  0.59800000  0.51710000  0.87080000  1.0 -0.619303126
O  O41  1  0.06130000  0.61620000  0.46040000  1.0 -0.6940921956
O  O42  1  0.43870000  0.11620000  0.03960000  1.0 -0.6963602716
O  O43  1  0.93870000  0.88380000  0.46040000  1.0 -0.6963602716
O  O44  1  0.56130000  0.38380000  0.03960000  1.0 -0.6963602716
O  O45  1  0.93870000  0.38380000  0.53960000  1.0 -0.6963602716
O  O46  1  0.56130000  0.88380000  0.96040000  1.0 -0.6940921956
O  O47  1  0.06130000  0.11620000  0.53960000  1.0 -0.6963602716
O  O48  1  0.43870000  0.61620000  0.96040000  1.0 -0.6940921956
