# DDEC6 charges by PACMAN v1.1 (https://github.com/mtap-research/PACMAN-charge/)
data_RUZRUC_FSR_pacman
_symmetry_space_group_name_H-M   'P 1'
_cell_length_a   16.84780000
_cell_length_b   16.84780000
_cell_length_c   16.84780000
_cell_angle_alpha   116.25400000
_cell_angle_beta   110.55100000
_cell_angle_gamma   101.92400000
_symmetry_Int_Tables_number   1
_chemical_formula_structural   Co3H13C21NO15
_chemical_formula_sum   'Co12 H52 C84 N4 O60'
_cell_volume   3623.89683790
_cell_formula_units_Z   4
loop_
 _symmetry_equiv_pos_site_id
 _symmetry_equiv_pos_as_xyz
  1  'x, y, z'
loop_
 _atom_site_type_symbol
 _atom_site_label
 _atom_site_symmetry_multiplicity
 _atom_site_fract_x
 _atom_site_fract_y
 _atom_site_fract_z
 _atom_site_occupancy
 _atom_site_charge
Co  Co1  1  0.69027000  0.08216000  0.05089000  1.0 1.061258438
Co  Co2  1  0.64075000  0.15046000  0.23201000  1.0 1.0698981313
Co  Co3  1  0.64002000  0.27889000  0.10683000  1.0 1.1704259542
Co  Co4  1  0.30973000  0.36062000  0.39189000  1.0 1.061258438
Co  Co5  1  0.35925000  0.59126000  0.50971000  1.0 1.0698981313
Co  Co6  1  0.35998000  0.46681000  0.63887000  1.0 1.1704259542
Co  Co7  1  0.96873000  0.86062000  0.55089000  1.0 1.061258438
Co  Co8  1  0.08155000  0.09126000  0.73201000  1.0 1.0698981313
Co  Co9  1  0.82794000  0.96681000  0.60683000  1.0 1.1704259542
Co  Co10  1  0.03127000  0.58216000  0.89189000  1.0 1.061258438
Co  Co11  1  0.91845000  0.65046000  0.00971000  1.0 1.0698981313
Co  Co12  1  0.17206000  0.77889000  0.13887000  1.0 1.1704259542
H  H1  1  0.78592000  0.01476000  0.36502000  1.0 0.1391405169
H  H2  1  0.87285000  0.80046000  0.27137000  1.0 0.1308769131
H  H3  1  0.82372000  0.93240000  0.11962000  1.0 0.1308769131
H  H4  1  0.36021000  0.91097000  0.05654000  1.0 0.1391405169
H  H5  1  0.21856000  0.62745000  0.80725000  1.0 0.1391405169
H  H6  1  0.47309000  0.80214000  0.87987000  1.0 0.1199755025
H  H7  1  0.62031000  0.86793000  0.89926000  1.0 0.1581136854
H  H8  1  0.58184000  0.70557000  0.69541000  1.0 0.1508301623
H  H9  1  0.59463000  0.70006000  0.79129000  1.0 0.1508301623
H  H10  1  0.66379000  0.68074000  0.74735000  1.0 0.1391405169
H  H11  1  0.83915000  0.90657000  0.92116000  1.0 0.1508301623
H  H12  1  0.79622000  0.89145000  0.81169000  1.0 0.1581136854
H  H13  1  0.80192000  0.80143000  0.81975000  1.0 0.1391405169
H  H14  1  0.21408000  0.57910000  0.22884000  1.0 0.1391405169
H  H15  1  0.12715000  0.39852000  0.92761000  1.0 0.1308769131
H  H16  1  0.17628000  0.29590000  0.10868000  1.0 0.1308769131
H  H17  1  0.63979000  0.69633000  0.55076000  1.0 0.1391405169
H  H18  1  0.78144000  0.58869000  0.40889000  1.0 0.1391405169
H  H19  1  0.52691000  0.40678000  0.32905000  1.0 0.1199755025
H  H20  1  0.37969000  0.27895000  0.24762000  1.0 0.1581136854
H  H21  1  0.41816000  0.11357000  0.12373000  1.0 0.1508301623
H  H22  1  0.40537000  0.19666000  0.10543000  1.0 0.1508301623
H  H23  1  0.33621000  0.08356000  0.01695000  1.0 0.1391405169
H  H24  1  0.16085000  0.08201000  0.06742000  1.0 0.1508301623
H  H25  1  0.20378000  0.01547000  0.09523000  1.0 0.1581136854
H  H26  1  0.19808000  0.01783000  0.99951000  1.0 0.1391405169
H  H27  1  0.35026000  0.07910000  0.86502000  1.0 0.1391405169
H  H28  1  0.47091000  0.89852000  0.77137000  1.0 0.1308769131
H  H29  1  0.18722000  0.79590000  0.61962000  1.0 0.1308769131
H  H30  1  0.14557000  0.19633000  0.55654000  1.0 0.1391405169
H  H31  1  0.17980000  0.08869000  0.30725000  1.0 0.1391405169
H  H32  1  0.07773000  0.90678000  0.37987000  1.0 0.1199755025
H  H33  1  0.03133000  0.77895000  0.39926000  1.0 0.1581136854
H  H34  1  0.98984000  0.61357000  0.19541000  1.0 0.1508301623
H  H35  1  0.09123000  0.69666000  0.29129000  1.0 0.1508301623
H  H36  1  0.06661000  0.58356000  0.24735000  1.0 0.1391405169
H  H37  1  0.01459000  0.58201000  0.42116000  1.0 0.1508301623
H  H38  1  0.92024000  0.51547000  0.31169000  1.0 0.1581136854
H  H39  1  0.01832000  0.51783000  0.31975000  1.0 0.1391405169
H  H40  1  0.64974000  0.51476000  0.72884000  1.0 0.1391405169
H  H41  1  0.52909000  0.30046000  0.42761000  1.0 0.1308769131
H  H42  1  0.81278000  0.43240000  0.60868000  1.0 0.1308769131
H  H43  1  0.85443000  0.41097000  0.05076000  1.0 0.1391405169
H  H44  1  0.82020000  0.12745000  0.90889000  1.0 0.1308769131
H  H45  1  0.92227000  0.30214000  0.82905000  1.0 0.1199755025
H  H46  1  0.96867000  0.36793000  0.74762000  1.0 0.1581136854
H  H47  1  0.01016000  0.20557000  0.62373000  1.0 0.1508301623
H  H48  1  0.90877000  0.20006000  0.60543000  1.0 0.1508301623
H  H49  1  0.93339000  0.18074000  0.51695000  1.0 0.1391405169
H  H50  1  0.98541000  0.40657000  0.56742000  1.0 0.1508301623
H  H51  1  0.07976000  0.39145000  0.59523000  1.0 0.1581136854
H  H52  1  0.98168000  0.30143000  0.49951000  1.0 0.1391405169
C  C1  1  0.76390000  0.05290000  0.22180000  1.0 0.588908079
C  C2  1  0.79790000  0.98300000  0.23910000  1.0 -0.0056290851
C  C3  1  0.80210000  0.97420000  0.31890000  1.0 -0.1104687757
C  C4  1  0.83010000  0.90640000  0.33130000  1.0 -0.0031299375
C  C5  1  0.85440000  0.84740000  0.26360000  1.0 -0.1104687757
C  C6  1  0.85190000  0.85690000  0.18540000  1.0 0.0038773978
C  C7  1  0.82440000  0.92520000  0.17260000  1.0 -0.1104687757
C  C8  1  0.83700000  0.89890000  0.41930000  1.0 0.5724363056
C  C9  1  0.87970000  0.79420000  0.11310000  1.0 0.548984739
C  C10  1  0.51480000  0.96660000  0.04580000  1.0 0.5845237104
C  C11  1  0.42870000  0.87050000  0.97800000  1.0 -0.0181922066
C  C12  1  0.35650000  0.85810000  0.99920000  1.0 -0.1104687757
C  C13  1  0.27750000  0.76650000  0.93540000  1.0 -0.0031299375
C  C14  1  0.27230000  0.68890000  0.85120000  1.0 -0.1008099979
C  C15  1  0.34640000  0.70210000  0.83190000  1.0 0.0078441699
C  C16  1  0.42360000  0.79290000  0.89430000  1.0 -0.1104687757
C  C17  1  0.34770000  0.61570000  0.75180000  1.0 0.5140484301
C  C18  1  0.20280000  0.74690000  0.96190000  1.0 0.588908079
C  C19  1  0.67590000  0.89580000  0.90010000  1.0 0.3275001076
C  C20  1  0.62770000  0.71880000  0.76030000  1.0 -0.3893854889
C  C21  1  0.79160000  0.86060000  0.84840000  1.0 -0.3196495968
C  C22  1  0.23610000  0.45790000  0.28900000  1.0 0.588908079
C  C23  1  0.20210000  0.44120000  0.18510000  1.0 -0.0056290851
C  C24  1  0.19790000  0.51680000  0.17210000  1.0 -0.1104687757
C  C25  1  0.16990000  0.50120000  0.07630000  1.0 -0.0031299375
C  C26  1  0.14560000  0.40920000  0.99300000  1.0 -0.1104687757
C  C27  1  0.14810000  0.33350000  0.00500000  1.0 0.0038773978
C  C28  1  0.17560000  0.34820000  0.10080000  1.0 -0.1104687757
C  C29  1  0.16300000  0.58230000  0.06190000  1.0 0.5724363056
C  C30  1  0.12030000  0.23340000  0.91450000  1.0 0.548984739
C  C31  1  0.48520000  0.53100000  0.45180000  1.0 0.5845237104
C  C32  1  0.57130000  0.54930000  0.44180000  1.0 -0.0181922066
C  C33  1  0.64350000  0.64270000  0.50160000  1.0 -0.1104687757
C  C34  1  0.72250000  0.65790000  0.48900000  1.0 -0.0031299375
C  C35  1  0.72770000  0.57890000  0.41660000  1.0 -0.1008099979
C  C36  1  0.65360000  0.48550000  0.35570000  1.0 0.0078441699
C  C37  1  0.57640000  0.47070000  0.36930000  1.0 -0.1104687757
C  C38  1  0.65230000  0.40410000  0.26800000  1.0 0.5140484301
C  C39  1  0.79720000  0.75910000  0.54410000  1.0 0.588908079
C  C40  1  0.32410000  0.22420000  0.21990000  1.0 0.3275001076
C  C41  1  0.37230000  0.13260000  0.09110000  1.0 -0.3893854889
C  C42  1  0.20840000  0.05680000  0.06900000  1.0 -0.3196495968
C  C43  1  0.16890000  0.95790000  0.72180000  1.0 0.588908079
C  C44  1  0.25610000  0.94120000  0.73910000  1.0 -0.0056290851
C  C45  1  0.34470000  0.01680000  0.81890000  1.0 -0.1104687757
C  C46  1  0.42490000  0.00120000  0.83130000  1.0 -0.0031299375
C  C47  1  0.41620000  0.90920000  0.76360000  1.0 -0.1104687757
C  C48  1  0.32850000  0.83350000  0.68540000  1.0 0.0038773978
C  C49  1  0.24740000  0.84820000  0.67260000  1.0 -0.1104687757
C  C50  1  0.52040000  0.08230000  0.91930000  1.0 0.5724363056
C  C51  1  0.31890000  0.73340000  0.61310000  1.0 0.548984739
C  C52  1  0.07920000  0.03100000  0.54580000  1.0 0.5845237104
C  C53  1  0.10750000  0.04930000  0.47800000  1.0 -0.0181922066
C  C54  1  0.14110000  0.14270000  0.49920000  1.0 -0.1104687757
C  C55  1  0.16890000  0.15790000  0.43540000  1.0 -0.0031299375
C  C56  1  0.16230000  0.07890000  0.35120000  1.0 -0.1008099979
C  C57  1  0.12980000  0.98550000  0.33190000  1.0 0.0078441699
C  C58  1  0.10140000  0.97070000  0.39430000  1.0 -0.1104687757
C  C59  1  0.13610000  0.90410000  0.25180000  1.0 0.5140484301
C  C60  1  0.21500000  0.25910000  0.46190000  1.0 0.588908079
C  C61  1  0.00430000  0.72420000  0.40010000  1.0 0.3275001076
C  C62  1  0.04150000  0.63260000  0.26030000  1.0 -0.3893854889
C  C63  1  0.98780000  0.55680000  0.34840000  1.0 -0.3196495968
C  C64  1  0.83110000  0.55290000  0.78900000  1.0 0.588908079
C  C65  1  0.74390000  0.48300000  0.68510000  1.0 -0.0056290851
C  C66  1  0.65530000  0.47420000  0.67210000  1.0 -0.1104687757
C  C67  1  0.57510000  0.40640000  0.57630000  1.0 -0.0031299375
C  C68  1  0.58380000  0.34740000  0.49300000  1.0 -0.1104687757
C  C69  1  0.67150000  0.35690000  0.50500000  1.0 0.0038773978
C  C70  1  0.75260000  0.42520000  0.60080000  1.0 -0.1104687757
C  C71  1  0.47960000  0.39890000  0.56190000  1.0 0.5724363056
C  C72  1  0.68110000  0.29420000  0.41450000  1.0 0.548984739
C  C73  1  0.92080000  0.46660000  0.95180000  1.0 0.5845237104
C  C74  1  0.89250000  0.37050000  0.94180000  1.0 -0.0181922066
C  C75  1  0.85890000  0.35810000  0.00160000  1.0 -0.1104687757
C  C76  1  0.83110000  0.26650000  0.98900000  1.0 -0.0031299375
C  C77  1  0.83770000  0.18890000  0.91660000  1.0 -0.1008099979
C  C78  1  0.87020000  0.20210000  0.85570000  1.0 0.0078441699
C  C79  1  0.89860000  0.29290000  0.86930000  1.0 -0.1104687757
C  C80  1  0.86390000  0.11570000  0.76800000  1.0 0.5140484301
C  C81  1  0.78500000  0.24690000  0.04410000  1.0 0.588908079
C  C82  1  0.99570000  0.39580000  0.71990000  1.0 0.3275001076
C  C83  1  0.95850000  0.21880000  0.59110000  1.0 -0.3893854889
C  C84  1  0.01220000  0.36060000  0.56900000  1.0 -0.3196495968
N  N1  1  0.69770000  0.83380000  0.83690000  1.0 0.0503040356
N  N2  1  0.30230000  0.13920000  0.13610000  1.0 0.0503040356
N  N3  1  0.00310000  0.63920000  0.33690000  1.0 0.0503040356
N  N4  1  0.99690000  0.33380000  0.63610000  1.0 0.0503040356
O  O1  1  0.68690000  0.20090000  0.16440000  1.0 -0.828101364
O  O2  1  0.78160000  0.07340000  0.16540000  1.0 -0.5132182909
O  O3  1  0.71880000  0.08430000  0.26550000  1.0 -0.5308411243
O  O4  1  0.82520000  0.96370000  0.48410000  1.0 -0.5132182909
O  O5  1  0.85550000  0.83290000  0.42400000  1.0 -0.5308411243
O  O6  1  0.88640000  0.72070000  0.11390000  1.0 -0.5204611841
O  O7  1  0.89070000  0.81250000  0.05340000  1.0 -0.4931666526
O  O8  1  0.57750000  0.97250000  0.02340000  1.0 -0.5710496577
O  O9  1  0.51730000  0.03510000  0.12240000  1.0 -0.5204611841
O  O10  1  0.22730000  0.79730000  0.05460000  1.0 -0.5204611841
O  O11  1  0.12170000  0.68230000  0.88820000  1.0 -0.4983212511
O  O12  1  0.27590000  0.53290000  0.69340000  1.0 -0.4983212511
O  O13  1  0.42040000  0.62400000  0.74580000  1.0 -0.5132182909
O  O14  1  0.71570000  0.97430000  0.95140000  1.0 -0.2551570806
O  O15  1  0.59480000  0.36070000  0.04910000  1.0 -0.239744735
O  O16  1  0.31310000  0.47750000  0.51400000  1.0 -0.828101364
O  O17  1  0.21840000  0.38380000  0.29180000  1.0 -0.5132182909
O  O18  1  0.28120000  0.54670000  0.36550000  1.0 -0.5308411243
O  O19  1  0.17480000  0.65890000  0.13850000  1.0 -0.5132182909
O  O20  1  0.14450000  0.56850000  0.97740000  1.0 -0.5308411243
O  O21  1  0.11360000  0.22750000  0.83430000  1.0 -0.5204611841
O  O22  1  0.10930000  0.16270000  0.92180000  1.0 -0.4931666526
O  O23  1  0.42250000  0.44590000  0.39500000  1.0 -0.5710496577
O  O24  1  0.48270000  0.60510000  0.51780000  1.0 -0.5204611841
O  O25  1  0.77270000  0.82730000  0.57000000  1.0 -0.5204611841
O  O26  1  0.87830000  0.76650000  0.56060000  1.0 -0.4983212511
O  O27  1  0.72410000  0.41750000  0.25700000  1.0 -0.4983212511
O  O28  1  0.57960000  0.32540000  0.20360000  1.0 -0.5132182909
O  O29  1  0.28430000  0.23570000  0.25860000  1.0 -0.2547510835
O  O30  1  0.40520000  0.45430000  0.76590000  1.0 -0.2323489361
O  O31  1  0.96350000  0.97750000  0.66440000  1.0 -0.828101364
O  O32  1  0.09200000  0.88380000  0.66540000  1.0 -0.5132182909
O  O33  1  0.18120000  0.04670000  0.76550000  1.0 -0.5308411243
O  O34  1  0.52040000  0.15890000  0.98410000  1.0 -0.5132182909
O  O35  1  0.59110000  0.06850000  0.92400000  1.0 -0.5308411243
O  O36  1  0.39320000  0.72750000  0.61390000  1.0 -0.5204611841
O  O37  1  0.24090000  0.66270000  0.55340000  1.0 -0.4931666526
O  O38  1  0.05090000  0.94590000  0.52340000  1.0 -0.5710496577
O  O39  1  0.08730000  0.10510000  0.62240000  1.0 -0.5204611841
O  O40  1  0.25730000  0.32730000  0.55460000  1.0 -0.5204611841
O  O41  1  0.20590000  0.26650000  0.38820000  1.0 -0.4983212511
O  O42  1  0.16050000  0.91750000  0.19340000  1.0 -0.4983212511
O  O43  1  0.12180000  0.82540000  0.24580000  1.0 -0.5132182909
O  O44  1  0.97710000  0.73570000  0.45140000  1.0 -0.2547510835
O  O45  1  0.68840000  0.95430000  0.54910000  1.0 -0.2323489361
O  O46  1  0.03650000  0.70090000  0.01400000  1.0 -0.828101364
O  O47  1  0.90800000  0.57340000  0.79180000  1.0 -0.5132182909
O  O48  1  0.81880000  0.58430000  0.86550000  1.0 -0.5308411243
O  O49  1  0.47960000  0.46370000  0.63850000  1.0 -0.5132182909
O  O50  1  0.40890000  0.33290000  0.47740000  1.0 -0.5308411243
O  O51  1  0.60680000  0.22070000  0.33430000  1.0 -0.5204611841
O  O52  1  0.75910000  0.31250000  0.42180000  1.0 -0.4931666526
O  O53  1  0.94910000  0.47250000  0.89500000  1.0 -0.5710496577
O  O54  1  0.91270000  0.53510000  0.01780000  1.0 -0.5204611841
O  O55  1  0.74270000  0.29730000  0.07000000  1.0 -0.5204611841
O  O56  1  0.79410000  0.18230000  0.06060000  1.0 -0.4983212511
O  O57  1  0.83950000  0.03290000  0.75700000  1.0 -0.4983212511
O  O58  1  0.87820000  0.12400000  0.70360000  1.0 -0.5132182909
O  O59  1  0.02290000  0.47430000  0.75860000  1.0 -0.2547510835
O  O60  1  0.31160000  0.86070000  0.26590000  1.0 -0.2323489361
