# DDEC6 charges by PACMAN v1.1 (https://github.com/mtap-research/PACMAN-charge/)
data_RUZSEN_ASR_pacman
_symmetry_space_group_name_H-M   'P 1'
_cell_length_a   17.30300000
_cell_length_b   17.36000000
_cell_length_c   28.61800000
_cell_angle_alpha   90.00000000
_cell_angle_beta   90.00000000
_cell_angle_gamma   90.00000000
_symmetry_Int_Tables_number   1
_chemical_formula_structural   Co3H30C54O13
_chemical_formula_sum   'Co12 H120 C216 O52'
_cell_volume   8596.27712944
_cell_formula_units_Z   4
loop_
 _symmetry_equiv_pos_site_id
 _symmetry_equiv_pos_as_xyz
  1  'x, y, z'
loop_
 _atom_site_type_symbol
 _atom_site_label
 _atom_site_symmetry_multiplicity
 _atom_site_fract_x
 _atom_site_fract_y
 _atom_site_fract_z
 _atom_site_occupancy
 _atom_site_charge
Co  Co1  1  0.48603000  0.00648000  0.18381000  1.0 1.1079304753
Co  Co2  1  0.98603000  0.49352000  0.81619000  1.0 1.1079304753
Co  Co3  1  0.48603000  0.00648000  0.31619000  1.0 1.1079304753
Co  Co4  1  0.98603000  0.49352000  0.68381000  1.0 1.1079304753
Co  Co5  1  0.36822000  0.11950000  0.25000000  1.0 1.1192538974
Co  Co6  1  0.86822000  0.38050000  0.75000000  1.0 1.1192538974
Co  Co7  1  0.51397000  0.99352000  0.68381000  1.0 1.1079304753
Co  Co8  1  0.01397000  0.50648000  0.31619000  1.0 1.1079304753
Co  Co9  1  0.51397000  0.99352000  0.81619000  1.0 1.1079304753
Co  Co10  1  0.01397000  0.50648000  0.18381000  1.0 1.1079304753
Co  Co11  1  0.63178000  0.88050000  0.75000000  1.0 1.1192538974
Co  Co12  1  0.13178000  0.61950000  0.25000000  1.0 1.1192538974
H  H1  1  0.55454000  0.18893000  0.09056000  1.0 0.1308328537
H  H2  1  0.59333000  0.29674000  0.05021000  1.0 0.1197609884
H  H3  1  0.44623000  0.42402000  0.12449000  1.0 0.1197609884
H  H4  1  0.41329000  0.31664000  0.16763000  1.0 0.1308328537
H  H5  1  0.60163000  0.39211000  0.00368000  1.0 0.1197609884
H  H6  1  0.62716000  0.62167000  0.00179000  1.0 0.1197609884
H  H7  1  0.52035000  0.51970000  0.10968000  1.0 0.1118056153
H  H8  1  0.60875000  0.41443000  0.92117000  1.0 0.1118056153
H  H9  1  0.68285000  0.40657000  0.85439000  1.0 0.1197609884
H  H10  1  0.82376000  0.57077000  0.90437000  1.0 0.1308328537
H  H11  1  0.74569000  0.58250000  0.96966000  1.0 0.1197609884
H  H12  1  0.54424000  0.71990000  0.02102000  1.0 0.1197609884
H  H13  1  0.52301000  0.83870000  0.05447000  1.0 0.1308328537
H  H14  1  0.53929000  0.74430000  0.18148000  1.0 0.1308328537
H  H15  1  0.56326000  0.62602000  0.14793000  1.0 0.1197609884
H  H16  1  0.05454000  0.31107000  0.90944000  1.0 0.1308328537
H  H17  1  0.09333000  0.20326000  0.94979000  1.0 0.1197609884
H  H18  1  0.94623000  0.07598000  0.87551000  1.0 0.1197609884
H  H19  1  0.91329000  0.18336000  0.83237000  1.0 0.1308328537
H  H20  1  0.10163000  0.10789000  0.99632000  1.0 0.1197609884
H  H21  1  0.12716000  0.87833000  0.99821000  1.0 0.1197609884
H  H22  1  0.02035000  0.98030000  0.89032000  1.0 0.1118056153
H  H23  1  0.10875000  0.08557000  0.07883000  1.0 0.1118056153
H  H24  1  0.18285000  0.09343000  0.14561000  1.0 0.1197609884
H  H25  1  0.32376000  0.92923000  0.09563000  1.0 0.1308328537
H  H26  1  0.24569000  0.91750000  0.03034000  1.0 0.1197609884
H  H27  1  0.04424000  0.78010000  0.97898000  1.0 0.1197609884
H  H28  1  0.02301000  0.66130000  0.94553000  1.0 0.1308328537
H  H29  1  0.03929000  0.75570000  0.81852000  1.0 0.1308328537
H  H30  1  0.06326000  0.87398000  0.85207000  1.0 0.1197609884
H  H31  1  0.55454000  0.18893000  0.40944000  1.0 0.1308328537
H  H32  1  0.59333000  0.29674000  0.44979000  1.0 0.1197609884
H  H33  1  0.44623000  0.42402000  0.37551000  1.0 0.1197609884
H  H34  1  0.41329000  0.31664000  0.33237000  1.0 0.1308328537
H  H35  1  0.60163000  0.39211000  0.49632000  1.0 0.1197609884
H  H36  1  0.62716000  0.62167000  0.49821000  1.0 0.1197609884
H  H37  1  0.52035000  0.51970000  0.39032000  1.0 0.1118056153
H  H38  1  0.60875000  0.41443000  0.57883000  1.0 0.1118056153
H  H39  1  0.68285000  0.40657000  0.64561000  1.0 0.1197609884
H  H40  1  0.82376000  0.57077000  0.59563000  1.0 0.1308328537
H  H41  1  0.74569000  0.58250000  0.53034000  1.0 0.1197609884
H  H42  1  0.54424000  0.71990000  0.47898000  1.0 0.1197609884
H  H43  1  0.52301000  0.83870000  0.44553000  1.0 0.1308328537
H  H44  1  0.53929000  0.74430000  0.31852000  1.0 0.1308328537
H  H45  1  0.56326000  0.62602000  0.35207000  1.0 0.1197609884
H  H46  1  0.05454000  0.31107000  0.59056000  1.0 0.1308328537
H  H47  1  0.09333000  0.20326000  0.55021000  1.0 0.1197609884
H  H48  1  0.94623000  0.07598000  0.62449000  1.0 0.1197609884
H  H49  1  0.91329000  0.18336000  0.66763000  1.0 0.1308328537
H  H50  1  0.10163000  0.10789000  0.50368000  1.0 0.1197609884
H  H51  1  0.12716000  0.87833000  0.50179000  1.0 0.1197609884
H  H52  1  0.02035000  0.98030000  0.60968000  1.0 0.1118056153
H  H53  1  0.10875000  0.08557000  0.42117000  1.0 0.1118056153
H  H54  1  0.18285000  0.09343000  0.35439000  1.0 0.1197609884
H  H55  1  0.32376000  0.92923000  0.40437000  1.0 0.1308328537
H  H56  1  0.24569000  0.91750000  0.46966000  1.0 0.1197609884
H  H57  1  0.04424000  0.78010000  0.52102000  1.0 0.1197609884
H  H58  1  0.02301000  0.66130000  0.55447000  1.0 0.1308328537
H  H59  1  0.03929000  0.75570000  0.68148000  1.0 0.1308328537
H  H60  1  0.06326000  0.87398000  0.64793000  1.0 0.1197609884
H  H61  1  0.44546000  0.81107000  0.59056000  1.0 0.1308328537
H  H62  1  0.40667000  0.70326000  0.55021000  1.0 0.1197609884
H  H63  1  0.55377000  0.57598000  0.62449000  1.0 0.1197609884
H  H64  1  0.58671000  0.68336000  0.66763000  1.0 0.1308328537
H  H65  1  0.39837000  0.60789000  0.50368000  1.0 0.1197609884
H  H66  1  0.37284000  0.37833000  0.50179000  1.0 0.1197609884
H  H67  1  0.47965000  0.48030000  0.60968000  1.0 0.1118056153
H  H68  1  0.39125000  0.58557000  0.42117000  1.0 0.1118056153
H  H69  1  0.31715000  0.59343000  0.35439000  1.0 0.1197609884
H  H70  1  0.17624000  0.42923000  0.40437000  1.0 0.1308328537
H  H71  1  0.25431000  0.41750000  0.46966000  1.0 0.1197609884
H  H72  1  0.45576000  0.28010000  0.52102000  1.0 0.1197609884
H  H73  1  0.47699000  0.16130000  0.55447000  1.0 0.1308328537
H  H74  1  0.46071000  0.25570000  0.68148000  1.0 0.1308328537
H  H75  1  0.43674000  0.37398000  0.64793000  1.0 0.1197609884
H  H76  1  0.94546000  0.68893000  0.40944000  1.0 0.1308328537
H  H77  1  0.90667000  0.79674000  0.44979000  1.0 0.1197609884
H  H78  1  0.05377000  0.92402000  0.37551000  1.0 0.1197609884
H  H79  1  0.08671000  0.81664000  0.33237000  1.0 0.1308328537
H  H80  1  0.89837000  0.89211000  0.49632000  1.0 0.1197609884
H  H81  1  0.87284000  0.12167000  0.49821000  1.0 0.1197609884
H  H82  1  0.97965000  0.01970000  0.39032000  1.0 0.1118056153
H  H83  1  0.89125000  0.91443000  0.57883000  1.0 0.1118056153
H  H84  1  0.81715000  0.90657000  0.64561000  1.0 0.1197609884
H  H85  1  0.67624000  0.07077000  0.59563000  1.0 0.1308328537
H  H86  1  0.75431000  0.08250000  0.53034000  1.0 0.1197609884
H  H87  1  0.95576000  0.21990000  0.47898000  1.0 0.1197609884
H  H88  1  0.97699000  0.33870000  0.44553000  1.0 0.1308328537
H  H89  1  0.96071000  0.24430000  0.31852000  1.0 0.1308328537
H  H90  1  0.93674000  0.12602000  0.35207000  1.0 0.1197609884
H  H91  1  0.44546000  0.81107000  0.90944000  1.0 0.1308328537
H  H92  1  0.40667000  0.70326000  0.94979000  1.0 0.1197609884
H  H93  1  0.55377000  0.57598000  0.87551000  1.0 0.1197609884
H  H94  1  0.58671000  0.68336000  0.83237000  1.0 0.1308328537
H  H95  1  0.39837000  0.60789000  0.99632000  1.0 0.1197609884
H  H96  1  0.37284000  0.37833000  0.99821000  1.0 0.1197609884
H  H97  1  0.47965000  0.48030000  0.89032000  1.0 0.1118056153
H  H98  1  0.39125000  0.58557000  0.07883000  1.0 0.1118056153
H  H99  1  0.31715000  0.59343000  0.14561000  1.0 0.1197609884
H  H100  1  0.17624000  0.42923000  0.09563000  1.0 0.1308328537
H  H101  1  0.25431000  0.41750000  0.03034000  1.0 0.1197609884
H  H102  1  0.45576000  0.28010000  0.97898000  1.0 0.1197609884
H  H103  1  0.47699000  0.16130000  0.94553000  1.0 0.1308328537
H  H104  1  0.46071000  0.25570000  0.81852000  1.0 0.1308328537
H  H105  1  0.43674000  0.37398000  0.85207000  1.0 0.1197609884
H  H106  1  0.94546000  0.68893000  0.09056000  1.0 0.1308328537
H  H107  1  0.90667000  0.79674000  0.05021000  1.0 0.1197609884
H  H108  1  0.05377000  0.92402000  0.12449000  1.0 0.1197609884
H  H109  1  0.08671000  0.81664000  0.16763000  1.0 0.1308328537
H  H110  1  0.89837000  0.89211000  0.00368000  1.0 0.1197609884
H  H111  1  0.87284000  0.12167000  0.00179000  1.0 0.1197609884
H  H112  1  0.97965000  0.01970000  0.10968000  1.0 0.1118056153
H  H113  1  0.89125000  0.91443000  0.92117000  1.0 0.1118056153
H  H114  1  0.81715000  0.90657000  0.85439000  1.0 0.1197609884
H  H115  1  0.67624000  0.07077000  0.90437000  1.0 0.1308328537
H  H116  1  0.75431000  0.08250000  0.96966000  1.0 0.1197609884
H  H117  1  0.95576000  0.21990000  0.02102000  1.0 0.1197609884
H  H118  1  0.97699000  0.33870000  0.05447000  1.0 0.1308328537
H  H119  1  0.96071000  0.24430000  0.18148000  1.0 0.1308328537
H  H120  1  0.93674000  0.12602000  0.14793000  1.0 0.1197609884
C  C1  1  0.46280000  0.17298000  0.16443000  1.0 0.5962602136
C  C2  1  0.48440000  0.24213000  0.13556000  1.0 -0.0184571591
C  C3  1  0.53500000  0.23690000  0.09900000  1.0 -0.0866275957
C  C4  1  0.55770000  0.30170000  0.07436000  1.0 -0.1513076493
C  C5  1  0.52830000  0.37361000  0.08503000  1.0 0.0696511477
C  C6  1  0.47110000  0.37750000  0.11881000  1.0 -0.1601029274
C  C7  1  0.45050000  0.31250000  0.14430000  1.0 -0.0815270195
C  C8  1  0.55550000  0.44423000  0.06063000  1.0 0.0879947313
C  C9  1  0.59440000  0.43984000  0.01778000  1.0 -0.1938514324
C  C10  1  0.62250000  0.50594000  0.99597000  1.0 0.0879947313
C  C11  1  0.60940000  0.57731000  0.01652000  1.0 -0.1974006879
C  C12  1  0.57010000  0.58334000  0.05890000  1.0 0.0879947313
C  C13  1  0.54490000  0.51622000  0.08084000  1.0 -0.1974006879
C  C14  1  0.66920000  0.50012000  0.95254000  1.0 0.0696511477
C  C15  1  0.65130000  0.44663000  0.91760000  1.0 -0.1601029274
C  C16  1  0.69630000  0.44123000  0.87780000  1.0 -0.0866275957
C  C17  1  0.76130000  0.48705000  0.87252000  1.0 -0.0113659712
C  C18  1  0.78010000  0.53990000  0.90743000  1.0 -0.0815270195
C  C19  1  0.73340000  0.54640000  0.94681000  1.0 -0.1513076493
C  C20  1  0.81640000  0.47740000  0.83197000  1.0 0.5928619442
C  C21  1  0.55610000  0.65983000  0.08057000  1.0 0.0696511477
C  C22  1  0.54390000  0.72450000  0.05340000  1.0 -0.1601029274
C  C23  1  0.53120000  0.79590000  0.07343000  1.0 -0.0866275957
C  C24  1  0.53050000  0.80409000  0.12172000  1.0 -0.0113659712
C  C25  1  0.54120000  0.73990000  0.14911000  1.0 -0.0866275957
C  C26  1  0.55480000  0.66860000  0.12890000  1.0 -0.1513076493
C  C27  1  0.51910000  0.88120000  0.14417000  1.0 0.5348556874
C  C28  1  0.96280000  0.32702000  0.83557000  1.0 0.5962602136
C  C29  1  0.98440000  0.25787000  0.86444000  1.0 -0.0184571591
C  C30  1  0.03500000  0.26310000  0.90100000  1.0 -0.0866275957
C  C31  1  0.05770000  0.19830000  0.92564000  1.0 -0.1513076493
C  C32  1  0.02830000  0.12639000  0.91497000  1.0 0.0696511477
C  C33  1  0.97110000  0.12250000  0.88119000  1.0 -0.1601029274
C  C34  1  0.95050000  0.18750000  0.85570000  1.0 -0.0815270195
C  C35  1  0.05550000  0.05577000  0.93937000  1.0 0.0879947313
C  C36  1  0.09440000  0.06016000  0.98222000  1.0 -0.1938514324
C  C37  1  0.12250000  0.99406000  0.00403000  1.0 0.0879947313
C  C38  1  0.10940000  0.92269000  0.98348000  1.0 -0.1974006879
C  C39  1  0.07010000  0.91666000  0.94110000  1.0 0.0879947313
C  C40  1  0.04490000  0.98378000  0.91916000  1.0 -0.1974006879
C  C41  1  0.16920000  0.99988000  0.04746000  1.0 0.0696511477
C  C42  1  0.15130000  0.05337000  0.08240000  1.0 -0.1601029274
C  C43  1  0.19630000  0.05877000  0.12220000  1.0 -0.0866275957
C  C44  1  0.26130000  0.01295000  0.12748000  1.0 -0.0113659712
C  C45  1  0.28010000  0.96010000  0.09257000  1.0 -0.0815270195
C  C46  1  0.23340000  0.95360000  0.05319000  1.0 -0.1513076493
C  C47  1  0.31640000  0.02260000  0.16803000  1.0 0.5928619442
C  C48  1  0.05610000  0.84017000  0.91943000  1.0 0.0696511477
C  C49  1  0.04390000  0.77550000  0.94660000  1.0 -0.1601029274
C  C50  1  0.03120000  0.70410000  0.92657000  1.0 -0.0866275957
C  C51  1  0.03050000  0.69591000  0.87828000  1.0 -0.0113659712
C  C52  1  0.04120000  0.76010000  0.85089000  1.0 -0.0866275957
C  C53  1  0.05480000  0.83140000  0.87110000  1.0 -0.1513076493
C  C54  1  0.01910000  0.61880000  0.85583000  1.0 0.5348556874
C  C55  1  0.46280000  0.17298000  0.33557000  1.0 0.5962602136
C  C56  1  0.48440000  0.24213000  0.36444000  1.0 -0.0184571591
C  C57  1  0.53500000  0.23690000  0.40100000  1.0 -0.0866275957
C  C58  1  0.55770000  0.30170000  0.42564000  1.0 -0.1513076493
C  C59  1  0.52830000  0.37361000  0.41497000  1.0 0.0696511477
C  C60  1  0.47110000  0.37750000  0.38119000  1.0 -0.1601029274
C  C61  1  0.45050000  0.31250000  0.35570000  1.0 -0.0815270195
C  C62  1  0.55550000  0.44423000  0.43937000  1.0 0.0879947313
C  C63  1  0.59440000  0.43984000  0.48222000  1.0 -0.1938514324
C  C64  1  0.62250000  0.50594000  0.50403000  1.0 0.0879947313
C  C65  1  0.60940000  0.57731000  0.48348000  1.0 -0.1974006879
C  C66  1  0.57010000  0.58334000  0.44110000  1.0 0.0879947313
C  C67  1  0.54490000  0.51622000  0.41916000  1.0 -0.1974006879
C  C68  1  0.66920000  0.50012000  0.54746000  1.0 0.0696511477
C  C69  1  0.65130000  0.44663000  0.58240000  1.0 -0.1601029274
C  C70  1  0.69630000  0.44123000  0.62220000  1.0 -0.0866275957
C  C71  1  0.76130000  0.48705000  0.62748000  1.0 -0.0113659712
C  C72  1  0.78010000  0.53990000  0.59257000  1.0 -0.0815270195
C  C73  1  0.73340000  0.54640000  0.55319000  1.0 -0.1513076493
C  C74  1  0.81640000  0.47740000  0.66803000  1.0 0.5928619442
C  C75  1  0.55610000  0.65983000  0.41943000  1.0 0.0696511477
C  C76  1  0.54390000  0.72450000  0.44660000  1.0 -0.1601029274
C  C77  1  0.53120000  0.79590000  0.42657000  1.0 -0.0866275957
C  C78  1  0.53050000  0.80409000  0.37828000  1.0 -0.0113659712
C  C79  1  0.54120000  0.73990000  0.35089000  1.0 -0.0866275957
C  C80  1  0.55480000  0.66860000  0.37110000  1.0 -0.1513076493
C  C81  1  0.51910000  0.88120000  0.35583000  1.0 0.5348556874
C  C82  1  0.96280000  0.32702000  0.66443000  1.0 0.5962602136
C  C83  1  0.98440000  0.25787000  0.63556000  1.0 -0.0184571591
C  C84  1  0.03500000  0.26310000  0.59900000  1.0 -0.0866275957
C  C85  1  0.05770000  0.19830000  0.57436000  1.0 -0.1513076493
C  C86  1  0.02830000  0.12639000  0.58503000  1.0 0.0696511477
C  C87  1  0.97110000  0.12250000  0.61881000  1.0 -0.1601029274
C  C88  1  0.95050000  0.18750000  0.64430000  1.0 -0.0815270195
C  C89  1  0.05550000  0.05577000  0.56063000  1.0 0.0879947313
C  C90  1  0.09440000  0.06016000  0.51778000  1.0 -0.1938514324
C  C91  1  0.12250000  0.99406000  0.49597000  1.0 0.0879947313
C  C92  1  0.10940000  0.92269000  0.51652000  1.0 -0.1974006879
C  C93  1  0.07010000  0.91666000  0.55890000  1.0 0.0879947313
C  C94  1  0.04490000  0.98378000  0.58084000  1.0 -0.1974006879
C  C95  1  0.16920000  0.99988000  0.45254000  1.0 0.0696511477
C  C96  1  0.15130000  0.05337000  0.41760000  1.0 -0.1601029274
C  C97  1  0.19630000  0.05877000  0.37780000  1.0 -0.0866275957
C  C98  1  0.26130000  0.01295000  0.37252000  1.0 -0.0113659712
C  C99  1  0.28010000  0.96010000  0.40743000  1.0 -0.0815270195
C  C100  1  0.23340000  0.95360000  0.44681000  1.0 -0.1513076493
C  C101  1  0.31640000  0.02260000  0.33197000  1.0 0.5928619442
C  C102  1  0.05610000  0.84017000  0.58057000  1.0 0.0696511477
C  C103  1  0.04390000  0.77550000  0.55340000  1.0 -0.1601029274
C  C104  1  0.03120000  0.70410000  0.57343000  1.0 -0.0866275957
C  C105  1  0.03050000  0.69591000  0.62172000  1.0 -0.0113659712
C  C106  1  0.04120000  0.76010000  0.64911000  1.0 -0.0866275957
C  C107  1  0.05480000  0.83140000  0.62890000  1.0 -0.1513076493
C  C108  1  0.01910000  0.61880000  0.64417000  1.0 0.5348556874
C  C109  1  0.53720000  0.82702000  0.66443000  1.0 0.5962602136
C  C110  1  0.51560000  0.75787000  0.63556000  1.0 -0.0184571591
C  C111  1  0.46500000  0.76310000  0.59900000  1.0 -0.0866275957
C  C112  1  0.44230000  0.69830000  0.57436000  1.0 -0.1513076493
C  C113  1  0.47170000  0.62639000  0.58503000  1.0 0.0696511477
C  C114  1  0.52890000  0.62250000  0.61881000  1.0 -0.1601029274
C  C115  1  0.54950000  0.68750000  0.64430000  1.0 -0.0815270195
C  C116  1  0.44450000  0.55577000  0.56063000  1.0 0.0879947313
C  C117  1  0.40560000  0.56016000  0.51778000  1.0 -0.1938514324
C  C118  1  0.37750000  0.49406000  0.49597000  1.0 0.0879947313
C  C119  1  0.39060000  0.42269000  0.51652000  1.0 -0.1974006879
C  C120  1  0.42990000  0.41666000  0.55890000  1.0 0.0879947313
C  C121  1  0.45510000  0.48378000  0.58084000  1.0 -0.1974006879
C  C122  1  0.33080000  0.49988000  0.45254000  1.0 0.0696511477
C  C123  1  0.34870000  0.55337000  0.41760000  1.0 -0.1601029274
C  C124  1  0.30370000  0.55877000  0.37780000  1.0 -0.0866275957
C  C125  1  0.23870000  0.51295000  0.37252000  1.0 -0.0113659712
C  C126  1  0.21990000  0.46010000  0.40743000  1.0 -0.0815270195
C  C127  1  0.26660000  0.45360000  0.44681000  1.0 -0.1513076493
C  C128  1  0.18360000  0.52260000  0.33197000  1.0 0.5928619442
C  C129  1  0.44390000  0.34017000  0.58057000  1.0 0.0696511477
C  C130  1  0.45610000  0.27550000  0.55340000  1.0 -0.1601029274
C  C131  1  0.46880000  0.20410000  0.57343000  1.0 -0.0866275957
C  C132  1  0.46950000  0.19591000  0.62172000  1.0 -0.0113659712
C  C133  1  0.45880000  0.26010000  0.64911000  1.0 -0.0866275957
C  C134  1  0.44520000  0.33140000  0.62890000  1.0 -0.1513076493
C  C135  1  0.48090000  0.11880000  0.64417000  1.0 0.5348556874
C  C136  1  0.03720000  0.67298000  0.33557000  1.0 0.5962602136
C  C137  1  0.01560000  0.74213000  0.36444000  1.0 -0.0184571591
C  C138  1  0.96500000  0.73690000  0.40100000  1.0 -0.0866275957
C  C139  1  0.94230000  0.80170000  0.42564000  1.0 -0.1513076493
C  C140  1  0.97170000  0.87361000  0.41497000  1.0 0.0696511477
C  C141  1  0.02890000  0.87750000  0.38119000  1.0 -0.1601029274
C  C142  1  0.04950000  0.81250000  0.35570000  1.0 -0.0815270195
C  C143  1  0.94450000  0.94423000  0.43937000  1.0 0.0879947313
C  C144  1  0.90560000  0.93984000  0.48222000  1.0 -0.1938514324
C  C145  1  0.87750000  0.00594000  0.50403000  1.0 0.0879947313
C  C146  1  0.89060000  0.07731000  0.48348000  1.0 -0.1974006879
C  C147  1  0.92990000  0.08334000  0.44110000  1.0 0.0879947313
C  C148  1  0.95510000  0.01622000  0.41916000  1.0 -0.1974006879
C  C149  1  0.83080000  0.00012000  0.54746000  1.0 0.0696511477
C  C150  1  0.84870000  0.94663000  0.58240000  1.0 -0.1601029274
C  C151  1  0.80370000  0.94123000  0.62220000  1.0 -0.0866275957
C  C152  1  0.73870000  0.98705000  0.62748000  1.0 -0.0113659712
C  C153  1  0.71990000  0.03990000  0.59257000  1.0 -0.0815270195
C  C154  1  0.76660000  0.04640000  0.55319000  1.0 -0.1513076493
C  C155  1  0.68360000  0.97740000  0.66803000  1.0 0.5928619442
C  C156  1  0.94390000  0.15983000  0.41943000  1.0 0.0696511477
C  C157  1  0.95610000  0.22450000  0.44660000  1.0 -0.1601029274
C  C158  1  0.96880000  0.29590000  0.42657000  1.0 -0.0866275957
C  C159  1  0.96950000  0.30409000  0.37828000  1.0 -0.0113659712
C  C160  1  0.95880000  0.23990000  0.35089000  1.0 -0.0866275957
C  C161  1  0.94520000  0.16860000  0.37110000  1.0 -0.1513076493
C  C162  1  0.98090000  0.38120000  0.35583000  1.0 0.5348556874
C  C163  1  0.53720000  0.82702000  0.83557000  1.0 0.5962602136
C  C164  1  0.51560000  0.75787000  0.86444000  1.0 -0.0184571591
C  C165  1  0.46500000  0.76310000  0.90100000  1.0 -0.0866275957
C  C166  1  0.44230000  0.69830000  0.92564000  1.0 -0.1513076493
C  C167  1  0.47170000  0.62639000  0.91497000  1.0 0.0696511477
C  C168  1  0.52890000  0.62250000  0.88119000  1.0 -0.1601029274
C  C169  1  0.54950000  0.68750000  0.85570000  1.0 -0.0815270195
C  C170  1  0.44450000  0.55577000  0.93937000  1.0 0.0879947313
C  C171  1  0.40560000  0.56016000  0.98222000  1.0 -0.1938514324
C  C172  1  0.37750000  0.49406000  0.00403000  1.0 0.0879947313
C  C173  1  0.39060000  0.42269000  0.98348000  1.0 -0.1974006879
C  C174  1  0.42990000  0.41666000  0.94110000  1.0 0.0879947313
C  C175  1  0.45510000  0.48378000  0.91916000  1.0 -0.1974006879
C  C176  1  0.33080000  0.49988000  0.04746000  1.0 0.0696511477
C  C177  1  0.34870000  0.55337000  0.08240000  1.0 -0.1601029274
C  C178  1  0.30370000  0.55877000  0.12220000  1.0 -0.0866275957
C  C179  1  0.23870000  0.51295000  0.12748000  1.0 -0.0113659712
C  C180  1  0.21990000  0.46010000  0.09257000  1.0 -0.0815270195
C  C181  1  0.26660000  0.45360000  0.05319000  1.0 -0.1513076493
C  C182  1  0.18360000  0.52260000  0.16803000  1.0 0.5928619442
C  C183  1  0.44390000  0.34017000  0.91943000  1.0 0.0696511477
C  C184  1  0.45610000  0.27550000  0.94660000  1.0 -0.1601029274
C  C185  1  0.46880000  0.20410000  0.92657000  1.0 -0.0866275957
C  C186  1  0.46950000  0.19591000  0.87828000  1.0 -0.0113659712
C  C187  1  0.45880000  0.26010000  0.85089000  1.0 -0.0866275957
C  C188  1  0.44520000  0.33140000  0.87110000  1.0 -0.1513076493
C  C189  1  0.48090000  0.11880000  0.85583000  1.0 0.5348556874
C  C190  1  0.03720000  0.67298000  0.16443000  1.0 0.5962602136
C  C191  1  0.01560000  0.74213000  0.13556000  1.0 -0.0184571591
C  C192  1  0.96500000  0.73690000  0.09900000  1.0 -0.0866275957
C  C193  1  0.94230000  0.80170000  0.07436000  1.0 -0.1513076493
C  C194  1  0.97170000  0.87361000  0.08503000  1.0 0.0696511477
C  C195  1  0.02890000  0.87750000  0.11881000  1.0 -0.1601029274
C  C196  1  0.04950000  0.81250000  0.14430000  1.0 -0.0815270195
C  C197  1  0.94450000  0.94423000  0.06063000  1.0 0.0879947313
C  C198  1  0.90560000  0.93984000  0.01778000  1.0 -0.1938514324
C  C199  1  0.87750000  0.00594000  0.99597000  1.0 0.0879947313
C  C200  1  0.89060000  0.07731000  0.01652000  1.0 -0.1974006879
C  C201  1  0.92990000  0.08334000  0.05890000  1.0 0.0879947313
C  C202  1  0.95510000  0.01622000  0.08084000  1.0 -0.1974006879
C  C203  1  0.83080000  0.00012000  0.95254000  1.0 0.0696511477
C  C204  1  0.84870000  0.94663000  0.91760000  1.0 -0.1601029274
C  C205  1  0.80370000  0.94123000  0.87780000  1.0 -0.0866275957
C  C206  1  0.73870000  0.98705000  0.87252000  1.0 -0.0113659712
C  C207  1  0.71990000  0.03990000  0.90743000  1.0 -0.0815270195
C  C208  1  0.76660000  0.04640000  0.94681000  1.0 -0.1513076493
C  C209  1  0.68360000  0.97740000  0.83197000  1.0 0.5928619442
C  C210  1  0.94390000  0.15983000  0.08057000  1.0 0.0696511477
C  C211  1  0.95610000  0.22450000  0.05340000  1.0 -0.1601029274
C  C212  1  0.96880000  0.29590000  0.07343000  1.0 -0.0866275957
C  C213  1  0.96950000  0.30409000  0.12172000  1.0 -0.0113659712
C  C214  1  0.95880000  0.23990000  0.14911000  1.0 -0.0866275957
C  C215  1  0.94520000  0.16860000  0.12890000  1.0 -0.1513076493
C  C216  1  0.98090000  0.38120000  0.14417000  1.0 0.5348556874
O  O1  1  0.42540000  0.18495000  0.20056000  1.0 -0.5277960661
O  O2  1  0.48120000  0.10833000  0.14921000  1.0 -0.5440225365
O  O3  1  0.79942000  0.42776000  0.80195000  1.0 -0.5460549953
O  O4  1  0.87200000  0.52135000  0.83020000  1.0 -0.4973765375
O  O5  1  0.51800000  0.94032000  0.11970000  1.0 -0.5277960661
O  O6  1  0.50800000  0.88485000  0.18768000  1.0 -0.5087355139
O  O7  1  0.92540000  0.31505000  0.79944000  1.0 -0.5277960661
O  O8  1  0.98120000  0.39167000  0.85079000  1.0 -0.5440225365
O  O9  1  0.29942000  0.07224000  0.19805000  1.0 -0.5460549953
O  O10  1  0.37200000  0.97865000  0.16980000  1.0 -0.4973765375
O  O11  1  0.01800000  0.55968000  0.88030000  1.0 -0.5277960661
O  O12  1  0.00800000  0.61515000  0.81232000  1.0 -0.5087355139
O  O13  1  0.42540000  0.18495000  0.29944000  1.0 -0.5277960661
O  O14  1  0.48120000  0.10833000  0.35079000  1.0 -0.5440225365
O  O15  1  0.79942000  0.42776000  0.69805000  1.0 -0.5460549953
O  O16  1  0.87200000  0.52135000  0.66980000  1.0 -0.4973765375
O  O17  1  0.51800000  0.94032000  0.38030000  1.0 -0.5277960661
O  O18  1  0.50800000  0.88485000  0.31232000  1.0 -0.5087355139
O  O19  1  0.92540000  0.31505000  0.70056000  1.0 -0.5277960661
O  O20  1  0.98120000  0.39167000  0.64921000  1.0 -0.5440225365
O  O21  1  0.29942000  0.07224000  0.30195000  1.0 -0.5460549953
O  O22  1  0.37200000  0.97865000  0.33020000  1.0 -0.4973765375
O  O23  1  0.01800000  0.55968000  0.61970000  1.0 -0.5277960661
O  O24  1  0.00800000  0.61515000  0.68768000  1.0 -0.5087355139
O  O25  1  0.45530000  0.03310000  0.25000000  1.0 -0.9498330715
O  O26  1  0.95530000  0.46690000  0.75000000  1.0 -0.9498330715
O  O27  1  0.57460000  0.81505000  0.70056000  1.0 -0.5277960661
O  O28  1  0.51880000  0.89167000  0.64921000  1.0 -0.5440225365
O  O29  1  0.20058000  0.57224000  0.30195000  1.0 -0.5460549953
O  O30  1  0.12800000  0.47865000  0.33020000  1.0 -0.4973765375
O  O31  1  0.48200000  0.05968000  0.61970000  1.0 -0.5277960661
O  O32  1  0.49200000  0.11515000  0.68768000  1.0 -0.5087355139
O  O33  1  0.07460000  0.68495000  0.29944000  1.0 -0.5277960661
O  O34  1  0.01880000  0.60833000  0.35079000  1.0 -0.5440225365
O  O35  1  0.70058000  0.92776000  0.69805000  1.0 -0.5460549953
O  O36  1  0.62800000  0.02135000  0.66980000  1.0 -0.4973765375
O  O37  1  0.98200000  0.44032000  0.38030000  1.0 -0.5277960661
O  O38  1  0.99200000  0.38485000  0.31232000  1.0 -0.5087355139
O  O39  1  0.57460000  0.81505000  0.79944000  1.0 -0.5277960661
O  O40  1  0.51880000  0.89167000  0.85079000  1.0 -0.5440225365
O  O41  1  0.20058000  0.57224000  0.19805000  1.0 -0.5460549953
O  O42  1  0.12800000  0.47865000  0.16980000  1.0 -0.4973765375
O  O43  1  0.48200000  0.05968000  0.88030000  1.0 -0.5277960661
O  O44  1  0.49200000  0.11515000  0.81232000  1.0 -0.5087355139
O  O45  1  0.07460000  0.68495000  0.20056000  1.0 -0.5277960661
O  O46  1  0.01880000  0.60833000  0.14921000  1.0 -0.5440225365
O  O47  1  0.70058000  0.92776000  0.80195000  1.0 -0.5460549953
O  O48  1  0.62800000  0.02135000  0.83020000  1.0 -0.4973765375
O  O49  1  0.98200000  0.44032000  0.11970000  1.0 -0.5277960661
O  O50  1  0.99200000  0.38485000  0.18768000  1.0 -0.5087355139
O  O51  1  0.54470000  0.96690000  0.75000000  1.0 -0.9498330715
O  O52  1  0.04470000  0.53310000  0.25000000  1.0 -0.9498330715
