# DDEC6 charges by PACMAN v1.1 (https://github.com/mtap-research/PACMAN-charge/)
data_RUZTAK_FSR_pacman
_symmetry_space_group_name_H-M   'P 1'
_cell_length_a   6.84180000
_cell_length_b   8.49430000
_cell_length_c   17.53790000
_cell_angle_alpha   92.96900000
_cell_angle_beta   99.48200000
_cell_angle_gamma   94.76600000
_symmetry_Int_Tables_number   1
_chemical_formula_structural   DyH21(CO)14
_chemical_formula_sum   'Dy2 H42 C28 O28'
_cell_volume   999.61072807
_cell_formula_units_Z   2
loop_
 _symmetry_equiv_pos_site_id
 _symmetry_equiv_pos_as_xyz
  1  'x, y, z'
loop_
 _atom_site_type_symbol
 _atom_site_label
 _atom_site_symmetry_multiplicity
 _atom_site_fract_x
 _atom_site_fract_y
 _atom_site_fract_z
 _atom_site_occupancy
 _atom_site_charge
Dy  Dy1  1  0.61052000  0.51197000  0.28061000  1.0 1.9688138077
Dy  Dy2  1  0.38948000  0.48803000  0.71939000  1.0 1.9688138077
H  H1  1  0.01604000  0.83591000  0.25281000  1.0 0.2697897861
H  H2  1  0.19190000  0.89968000  0.26543000  1.0 0.1797856698
H  H3  1  0.65260000  0.12713000  0.61851000  1.0 0.1287500159
H  H4  1  0.06791000  0.95932000  0.63244000  1.0 0.1405903557
H  H5  1  0.96543000  0.59825000  0.87667000  1.0 0.1405903557
H  H6  1  0.65083000  0.34832000  0.46704000  1.0 0.3619250366
H  H7  1  0.85854000  0.64274000  0.51824000  1.0 0.3619250366
H  H8  1  0.61998000  0.68909000  0.98105000  1.0 0.3501780936
H  H9  1  0.37083000  0.30835000  0.15505000  1.0 0.3501780936
H  H10  1  0.36203000  0.23837000  0.22185000  1.0 0.3619250366
H  H11  1  0.23137000  0.53316000  0.32735000  1.0 0.2809124896
H  H12  1  0.34701000  0.59177000  0.38433000  1.0 0.2890416691
H  H13  1  0.96309000  0.36584000  0.34022000  1.0 0.2977149794
H  H14  1  0.93021000  0.33426000  0.27523000  1.0 0.2890416691
H  H15  1  0.44942000  0.67786000  0.15671000  1.0 0.3129872093
H  H16  1  0.32116000  0.72639000  0.21018000  1.0 0.0951647395
H  H17  1  0.21457000  0.78377000  0.07840000  1.0 0.1287500159
H  H18  1  0.33678000  0.93400000  0.12838000  1.0 0.1405903557
H  H19  1  0.10036000  0.90714000  0.12261000  1.0 0.1405903557
H  H20  1  0.26562000  0.83269000  0.24211000  1.0 0.1087575471
H  H21  1  0.12774000  0.68759000  0.19413000  1.0 0.1172581622
H  H22  1  0.98396000  0.16409000  0.74719000  1.0 0.2697897861
H  H23  1  0.80810000  0.10032000  0.73457000  1.0 0.1797856698
H  H24  1  0.34740000  0.87287000  0.38149000  1.0 0.1287500159
H  H25  1  0.93209000  0.04068000  0.36756000  1.0 0.1405903557
H  H26  1  0.03457000  0.40175000  0.12333000  1.0 0.1405903557
H  H27  1  0.34917000  0.65168000  0.53296000  1.0 0.3619250366
H  H28  1  0.14146000  0.35726000  0.48176000  1.0 0.3619250366
H  H29  1  0.38002000  0.31091000  0.01895000  1.0 0.3501780936
H  H30  1  0.62917000  0.69165000  0.84495000  1.0 0.3501780936
H  H31  1  0.63797000  0.76163000  0.77815000  1.0 0.3619250366
H  H32  1  0.76863000  0.46684000  0.67265000  1.0 0.2809124896
H  H33  1  0.65299000  0.40823000  0.61567000  1.0 0.2890416691
H  H34  1  0.03691000  0.63416000  0.65978000  1.0 0.2977149794
H  H35  1  0.06979000  0.66574000  0.72477000  1.0 0.2890416691
H  H36  1  0.55058000  0.32214000  0.84329000  1.0 0.3129872093
H  H37  1  0.67884000  0.27361000  0.78982000  1.0 0.0944964299
H  H38  1  0.78543000  0.21623000  0.92160000  1.0 0.1287500159
H  H39  1  0.66322000  0.06600000  0.87162000  1.0 0.1405903557
H  H40  1  0.89964000  0.09286000  0.87739000  1.0 0.1405903557
H  H41  1  0.73438000  0.16731000  0.75789000  1.0 0.1087575471
H  H42  1  0.87226000  0.31241000  0.80587000  1.0 0.1172581622
C  C1  1  0.46890000  0.16680000  0.35900000  1.0 0.6195139596
C  C2  1  0.48740000  0.08260000  0.43260000  1.0 -0.1359172902
C  C3  1  0.57930000  0.15750000  0.50370000  1.0 0.258231303
C  C4  1  0.59070000  0.07530000  0.57020000  1.0 -0.2136409274
C  C5  1  0.81900000  0.74470000  0.39000000  1.0 0.5771975824
C  C6  1  0.91090000  0.87560000  0.44740000  1.0 -0.1292711189
C  C7  1  0.95160000  0.85210000  0.52660000  1.0 0.258231303
C  C8  1  0.04020000  0.97560000  0.57870000  1.0 -0.1980233928
C  C9  1  0.72680000  0.57560000  0.10320000  1.0 0.6039483854
C  C10  1  0.86710000  0.53600000  0.04990000  1.0 -0.1292711189
C  C11  1  0.84830000  0.59520000  0.97570000  1.0 0.258231303
C  C12  1  0.97970000  0.55850000  0.92680000  1.0 -0.2153312853
C  C13  1  0.22310000  0.85430000  0.12510000  1.0 -0.4993998697
C  C14  1  0.24980000  0.75960000  0.19520000  1.0 0.1087575471
C  C15  1  0.53110000  0.83320000  0.64100000  1.0 0.6195139596
C  C16  1  0.51260000  0.91740000  0.56740000  1.0 -0.1359172902
C  C17  1  0.42070000  0.84250000  0.49630000  1.0 0.258231303
C  C18  1  0.40930000  0.92470000  0.42980000  1.0 -0.2136409274
C  C19  1  0.18100000  0.25530000  0.61000000  1.0 0.5771975824
C  C20  1  0.08910000  0.12440000  0.55260000  1.0 -0.1292711189
C  C21  1  0.04840000  0.14790000  0.47340000  1.0 0.258231303
C  C22  1  0.95980000  0.02440000  0.42130000  1.0 -0.1980233928
C  C23  1  0.27320000  0.42440000  0.89680000  1.0 0.6039483854
C  C24  1  0.13290000  0.46400000  0.95010000  1.0 -0.1292711189
C  C25  1  0.15170000  0.40480000  0.02430000  1.0 0.258231303
C  C26  1  0.02030000  0.44150000  0.07320000  1.0 -0.2153312853
C  C27  1  0.77690000  0.14570000  0.87490000  1.0 -0.4993998697
C  C28  1  0.75020000  0.24040000  0.80480000  1.0 0.1087575471
O  O1  1  0.10940000  0.85670000  0.23190000  1.0 -0.3436773112
O  O2  1  0.57340000  0.29940000  0.36128000  1.0 -0.6809841882
O  O3  1  0.35730000  0.10400000  0.30032000  1.0 -0.5256323507
O  O4  1  0.65950000  0.31230000  0.51106000  1.0 -0.438881605
O  O5  1  0.75620000  0.61290000  0.41423000  1.0 -0.6395108393
O  O6  1  0.79700000  0.76310000  0.31881000  1.0 -0.6195546677
O  O7  1  0.90580000  0.70930000  0.55514000  1.0 -0.4489086634
O  O8  1  0.75280000  0.52410000  0.17005000  1.0 -0.6809841882
O  O9  1  0.58870000  0.66010000  0.07903000  1.0 -0.5080995998
O  O10  1  0.70280000  0.69020000  0.95059000  1.0 -0.4489086634
O  O11  1  0.41670000  0.31540000  0.20293000  1.0 -0.8144460013
O  O12  1  0.32930000  0.56260000  0.33906000  1.0 -0.6809841882
O  O13  1  0.93010000  0.40270000  0.30393000  1.0 -0.6395108393
O  O14  1  0.41270000  0.67010000  0.20088000  1.0 -0.5080995998
O  O15  1  0.89060000  0.14330000  0.76810000  1.0 -0.3436773112
O  O16  1  0.42660000  0.70060000  0.63872000  1.0 -0.6809841882
O  O17  1  0.64270000  0.89600000  0.69968000  1.0 -0.5256323507
O  O18  1  0.34050000  0.68770000  0.48894000  1.0 -0.438881605
O  O19  1  0.24380000  0.38710000  0.58577000  1.0 -0.6395108393
O  O20  1  0.20300000  0.23690000  0.68119000  1.0 -0.6195546677
O  O21  1  0.09420000  0.29070000  0.44486000  1.0 -0.4489086634
O  O22  1  0.24720000  0.47590000  0.82995000  1.0 -0.6809841882
O  O23  1  0.41130000  0.33990000  0.92097000  1.0 -0.5080995998
O  O24  1  0.29720000  0.30980000  0.04941000  1.0 -0.4489086634
O  O25  1  0.58330000  0.68460000  0.79707000  1.0 -0.8144460013
O  O26  1  0.67070000  0.43740000  0.66094000  1.0 -0.6809841882
O  O27  1  0.06990000  0.59730000  0.69607000  1.0 -0.6395108393
O  O28  1  0.58730000  0.32990000  0.79912000  1.0 -0.5080995998
