# DDEC6 charges by PACMAN v1.1 (https://github.com/mtap-research/PACMAN-charge/)
data_SABFUX_FSR_pacman
_symmetry_space_group_name_H-M   'P 1'
_cell_length_a   11.70790000
_cell_length_b   12.85540000
_cell_length_c   16.86050000
_cell_angle_alpha   90.00000000
_cell_angle_beta   100.66600000
_cell_angle_gamma   90.00000000
_symmetry_Int_Tables_number   1
_chemical_formula_structural   Mn(C3N5)2
_chemical_formula_sum   'Mn4 C24 N40'
_cell_volume   2493.82561031
_cell_formula_units_Z   4
loop_
 _symmetry_equiv_pos_site_id
 _symmetry_equiv_pos_as_xyz
  1  'x, y, z'
loop_
 _atom_site_type_symbol
 _atom_site_label
 _atom_site_symmetry_multiplicity
 _atom_site_fract_x
 _atom_site_fract_y
 _atom_site_fract_z
 _atom_site_occupancy
 _atom_site_charge
Mn  Mn1  1  0.25372000  0.23154000  0.77161000  1.0 0.9466183923
Mn  Mn2  1  0.74628000  0.73154000  0.72839000  1.0 0.9466183923
Mn  Mn3  1  0.74628000  0.76846000  0.22839000  1.0 0.9466183923
Mn  Mn4  1  0.25372000  0.26846000  0.27161000  1.0 0.9466183923
C  C1  1  0.41965000  0.02145000  0.79491000  1.0 0.4283328124
C  C2  1  0.58035000  0.52145000  0.70509000  1.0 0.4283328124
C  C3  1  0.58035000  0.97855000  0.20509000  1.0 0.4283328124
C  C4  1  0.41965000  0.47855000  0.29491000  1.0 0.4283328124
C  C5  1  0.53295000  0.88420000  0.76967000  1.0 0.4358537265
C  C6  1  0.46705000  0.38420000  0.73033000  1.0 0.4358537265
C  C7  1  0.46705000  0.11580000  0.23033000  1.0 0.4358537265
C  C8  1  0.53295000  0.61580000  0.26967000  1.0 0.4358537265
C  C9  1  0.07899000  0.04263000  0.81546000  1.0 0.3890461914
C  C10  1  0.92101000  0.54263000  0.68454000  1.0 0.3890461914
C  C11  1  0.92101000  0.95737000  0.18454000  1.0 0.3890461914
C  C12  1  0.07899000  0.45737000  0.31546000  1.0 0.3890461914
C  C13  1  0.28165000  0.15445000  0.58819000  1.0 0.4134767495
C  C14  1  0.71835000  0.65445000  0.91181000  1.0 0.4134767495
C  C15  1  0.71835000  0.84555000  0.41181000  1.0 0.4134767495
C  C16  1  0.28165000  0.34555000  0.08819000  1.0 0.4134767495
C  C17  1  0.30704000  0.17404000  0.45974000  1.0 0.4283328124
C  C18  1  0.69296000  0.67404000  0.04026000  1.0 0.4283328124
C  C19  1  0.69296000  0.82596000  0.54026000  1.0 0.4283328124
C  C20  1  0.30704000  0.32596000  0.95974000  1.0 0.4283328124
C  C21  1  0.95447000  0.90291000  0.80066000  1.0 0.3729705952
C  C22  1  0.04553000  0.40291000  0.69934000  1.0 0.3729705952
C  C23  1  0.04553000  0.09709000  0.19934000  1.0 0.3729705952
C  C24  1  0.95447000  0.59709000  0.30066000  1.0 0.3729705952
N  N1  1  0.38926000  0.10436000  0.80168000  1.0 -0.4325697637
N  N2  1  0.61074000  0.60436000  0.69832000  1.0 -0.4325697637
N  N3  1  0.61074000  0.89564000  0.19832000  1.0 -0.4325697637
N  N4  1  0.38926000  0.39564000  0.30168000  1.0 -0.4325697637
N  N5  1  0.60845000  0.83862000  0.75271000  1.0 -0.4506567277
N  N6  1  0.39155000  0.33862000  0.74729000  1.0 -0.4506567277
N  N7  1  0.39155000  0.16138000  0.24729000  1.0 -0.4506567277
N  N8  1  0.60845000  0.66138000  0.25271000  1.0 -0.4506567277
N  N9  1  0.12800000  0.11309000  0.79895000  1.0 -0.4216989733
N  N10  1  0.87200000  0.61309000  0.70105000  1.0 -0.4216989733
N  N11  1  0.87200000  0.88691000  0.20105000  1.0 -0.4216989733
N  N12  1  0.12800000  0.38691000  0.29895000  1.0 -0.4216989733
N  N13  1  0.24340000  0.17383000  0.64422000  1.0 -0.4403234621
N  N14  1  0.75660000  0.67383000  0.85578000  1.0 -0.4403234621
N  N15  1  0.75660000  0.82617000  0.35578000  1.0 -0.4403234621
N  N16  1  0.24340000  0.32617000  0.14422000  1.0 -0.4403234621
N  N17  1  0.29213000  0.21160000  0.39722000  1.0 -0.4624979652
N  N18  1  0.70787000  0.71160000  0.10278000  1.0 -0.4624979652
N  N19  1  0.70787000  0.78840000  0.60278000  1.0 -0.4624979652
N  N20  1  0.29213000  0.28840000  0.89722000  1.0 -0.4624979652
N  N21  1  0.88735000  0.84395000  0.77173000  1.0 -0.4403234621
N  N22  1  0.11265000  0.34395000  0.72827000  1.0 -0.4325697637
N  N23  1  0.11265000  0.15605000  0.22827000  1.0 -0.4403234621
N  N24  1  0.88735000  0.65605000  0.27173000  1.0 -0.4403234621
N  N25  1  0.00800000  0.98230000  0.84350000  1.0 -0.0371669166
N  N26  1  0.99200000  0.48230000  0.65650000  1.0 -0.0371669166
N  N27  1  0.99200000  0.01770000  0.15650000  1.0 -0.0371669166
N  N28  1  0.00800000  0.51770000  0.34350000  1.0 -0.0371669166
N  N29  1  0.44086000  0.92247000  0.79193000  1.0 -0.3693925298
N  N30  1  0.55914000  0.42247000  0.70807000  1.0 -0.3693925298
N  N31  1  0.55914000  0.07753000  0.20807000  1.0 -0.3693925298
N  N32  1  0.44086000  0.57753000  0.29193000  1.0 -0.3693925298
N  N33  1  0.32749000  0.12336000  0.52815000  1.0 -0.3329134815
N  N34  1  0.67251000  0.62336000  0.97185000  1.0 -0.3329134815
N  N35  1  0.67251000  0.87664000  0.47185000  1.0 -0.3329134815
N  N36  1  0.32749000  0.37664000  0.02815000  1.0 -0.3329134815
N  N37  1  0.04490000  0.95030000  0.84050000  1.0 -0.0290264224
N  N38  1  0.95510000  0.45030000  0.65950000  1.0 -0.0290264224
N  N39  1  0.95510000  0.04970000  0.15950000  1.0 -0.0290264224
N  N40  1  0.04490000  0.54970000  0.34050000  1.0 -0.0290264224
