# DDEC6 charges by PACMAN v1.1 (https://github.com/mtap-research/PACMAN-charge/)
data_SABWEA_FSR_pacman
_symmetry_space_group_name_H-M   'P 1'
_cell_length_a   10.59900000
_cell_length_b   10.68100000
_cell_length_c   11.42400000
_cell_angle_alpha   82.67000000
_cell_angle_beta   74.14000000
_cell_angle_gamma   69.32000000
_symmetry_Int_Tables_number   1
_chemical_formula_structural   Pr2CuH20C32(NO7)4
_chemical_formula_sum   'Pr2 Cu1 H20 C32 N4 O28'
_cell_volume   1163.20313781
_cell_formula_units_Z   1
loop_
 _symmetry_equiv_pos_site_id
 _symmetry_equiv_pos_as_xyz
  1  'x, y, z'
loop_
 _atom_site_type_symbol
 _atom_site_label
 _atom_site_symmetry_multiplicity
 _atom_site_fract_x
 _atom_site_fract_y
 _atom_site_fract_z
 _atom_site_occupancy
 _atom_site_charge
Pr  Pr1  1  0.58905000  0.59790000  0.62865000  1.0 2.1176593372
Pr  Pr2  1  0.41095000  0.40210000  0.37135000  1.0 2.1176593372
Cu  Cu1  1  0.00000000  0.50000000  0.50000000  1.0 0.9110098549
H  H1  1  0.34520000  0.99130000  0.46270000  1.0 0.1406851553
H  H2  1  0.65480000  0.00870000  0.53730000  1.0 0.1406851553
H  H3  1  0.99100000  0.16390000  0.35270000  1.0 0.1331409954
H  H4  1  0.00900000  0.83610000  0.64730000  1.0 0.1331409954
H  H5  1  0.17960000  0.76500000  0.33650000  1.0 0.1406851553
H  H6  1  0.82040000  0.23500000  0.66350000  1.0 0.1406851553
H  H7  1  0.69210000  0.47650000  0.94540000  1.0 0.1406851553
H  H8  1  0.30790000  0.52350000  0.05460000  1.0 0.1406851553
H  H9  1  0.91580000  0.32470000  0.19570000  1.0 0.1331409954
H  H10  1  0.08420000  0.67530000  0.80430000  1.0 0.1331409954
H  H11  1  0.11010000  0.33790000  0.84080000  1.0 0.1406851553
H  H12  1  0.88990000  0.66210000  0.15920000  1.0 0.1406851553
H  H13  1  0.46780000  0.86450000  0.75780000  1.0 0.4293596515
H  H14  1  0.53220000  0.13550000  0.24220000  1.0 0.4293596515
H  H15  1  0.48790000  0.75750000  0.85560000  1.0 0.4235982218
H  H16  1  0.51210000  0.24250000  0.14440000  1.0 0.4235982218
H  H17  1  0.72590000  0.60590000  0.39130000  1.0 0.404643304
H  H18  1  0.27410000  0.39410000  0.60870000  1.0 0.404643304
H  H19  1  0.74260000  0.46100000  0.38310000  1.0 0.4235982218
H  H20  1  0.25740000  0.53900000  0.61690000  1.0 0.4235982218
C  C1  1  0.28000000  0.85830000  0.40500000  1.0 -0.0108139989
C  C2  1  0.72000000  0.14170000  0.59500000  1.0 -0.0108139989
C  C3  1  0.27580000  0.98430000  0.43140000  1.0 -0.1057612977
C  C4  1  0.72420000  0.01570000  0.56860000  1.0 -0.1057612977
C  C5  1  0.16920000  0.09840000  0.41140000  1.0 -0.0108139989
C  C6  1  0.83080000  0.90160000  0.58860000  1.0 -0.0108139989
C  C7  1  0.06480000  0.08830000  0.36430000  1.0 -0.1399700573
C  C8  1  0.93520000  0.91170000  0.63570000  1.0 -0.1452806226
C  C9  1  0.07400000  0.96380000  0.33540000  1.0 0.0557488346
C  C10  1  0.92600000  0.03620000  0.66460000  1.0 0.0557488346
C  C11  1  0.17780000  0.84790000  0.35550000  1.0 -0.1296380094
C  C12  1  0.82220000  0.15210000  0.64450000  1.0 -0.1296380094
C  C13  1  0.39100000  0.73520000  0.43570000  1.0 0.6441163489
C  C14  1  0.60900000  0.26480000  0.56430000  1.0 0.6441163489
C  C15  1  0.16080000  0.23510000  0.44020000  1.0 0.6047425338
C  C16  1  0.83920000  0.76490000  0.55980000  1.0 0.6047425338
C  C17  1  0.89900000  0.41370000  0.87390000  1.0 -0.0150197956
C  C18  1  0.10100000  0.58630000  0.12610000  1.0 -0.0108139989
C  C19  1  0.77760000  0.43810000  0.96500000  1.0 -0.1043282754
C  C20  1  0.22240000  0.56190000  0.03500000  1.0 -0.1043282754
C  C21  1  0.78250000  0.40550000  0.08630000  1.0 -0.0025271834
C  C22  1  0.21750000  0.59450000  0.91370000  1.0 -0.0025271834
C  C23  1  0.91090000  0.34740000  0.11540000  1.0 -0.1399700573
C  C24  1  0.08910000  0.65260000  0.88460000  1.0 -0.1399700573
C  C25  1  0.03070000  0.32410000  0.02220000  1.0 0.0548291871
C  C26  1  0.96930000  0.67590000  0.97780000  1.0 0.0548291871
C  C27  1  0.02800000  0.35530000  0.90180000  1.0 -0.1399700573
C  C28  1  0.97200000  0.64470000  0.09820000  1.0 -0.1399700573
C  C29  1  0.89470000  0.44950000  0.74330000  1.0 0.6084220478
C  C30  1  0.10530000  0.55050000  0.25670000  1.0 0.6084220478
C  C31  1  0.65070000  0.42660000  0.18540000  1.0 0.5554955074
C  C32  1  0.34930000  0.57340000  0.81460000  1.0 0.5554955074
N  N1  1  0.96270000  0.95630000  0.28500000  1.0 0.4936777422
N  N2  1  0.03730000  0.04370000  0.71500000  1.0 0.4936777422
N  N3  1  0.16760000  0.26520000  0.05100000  1.0 0.4990322658
N  N4  1  0.83240000  0.73480000  0.94900000  1.0 0.4990322658
O  O1  1  0.39700000  0.62390000  0.40860000  1.0 -0.6686712733
O  O2  1  0.60300000  0.37610000  0.59140000  1.0 -0.6686712733
O  O3  1  0.47090000  0.75300000  0.49100000  1.0 -0.6686712733
O  O4  1  0.52910000  0.24700000  0.50900000  1.0 -0.6686712733
O  O5  1  0.26750000  0.25440000  0.44750000  1.0 -0.6582562855
O  O6  1  0.73250000  0.74560000  0.55250000  1.0 -0.6582562855
O  O7  1  0.04080000  0.32150000  0.45520000  1.0 -0.5231704644
O  O8  1  0.95920000  0.67850000  0.54480000  1.0 -0.5231704644
O  O9  1  0.87760000  0.06020000  0.26040000  1.0 -0.3151518038
O  O10  1  0.12240000  0.93980000  0.73960000  1.0 -0.3151518038
O  O11  1  0.95660000  0.84760000  0.27470000  1.0 -0.2901648662
O  O12  1  0.04340000  0.15240000  0.72530000  1.0 -0.2901648662
O  O13  1  0.00800000  0.43960000  0.66780000  1.0 -0.5009984306
O  O14  1  0.99200000  0.56040000  0.33220000  1.0 -0.5009984306
O  O15  1  0.78110000  0.48530000  0.71640000  1.0 -0.6799844138
O  O16  1  0.21890000  0.51470000  0.28360000  1.0 -0.6799844138
O  O17  1  0.53590000  0.47780000  0.15970000  1.0 -0.5974447659
O  O18  1  0.46410000  0.52220000  0.84030000  1.0 -0.5974447659
O  O19  1  0.66170000  0.38650000  0.29270000  1.0 -0.6458319059
O  O20  1  0.33830000  0.61350000  0.70730000  1.0 -0.6458319059
O  O21  1  0.17120000  0.25130000  0.15740000  1.0 -0.3060044578
O  O22  1  0.82880000  0.74870000  0.84260000  1.0 -0.3060044578
O  O23  1  0.27050000  0.23980000  0.96710000  1.0 -0.3034537664
O  O24  1  0.72950000  0.76020000  0.03290000  1.0 -0.3060044578
O  O25  1  0.50360000  0.77760000  0.77530000  1.0 -0.8090258769
O  O26  1  0.49640000  0.22240000  0.22470000  1.0 -0.8090258769
O  O27  1  0.74340000  0.52320000  0.42680000  1.0 -0.8319806984
O  O28  1  0.25660000  0.47680000  0.57320000  1.0 -0.8319806984
