# DDEC6 charges by PACMAN v1.1 (https://github.com/mtap-research/PACMAN-charge/)
data_SABWAU_ASR_pacman
_symmetry_space_group_name_H-M   'P 1'
_cell_length_a   10.47260000
_cell_length_b   10.47260000
_cell_length_c   6.57600000
_cell_angle_alpha   76.75210000
_cell_angle_beta   103.24800000
_cell_angle_gamma   137.37900000
_symmetry_Int_Tables_number   1
_chemical_formula_structural   AlC8O5
_chemical_formula_sum   'Al2 C16 O10'
_cell_volume   473.36853618
_cell_formula_units_Z   2
loop_
 _symmetry_equiv_pos_site_id
 _symmetry_equiv_pos_as_xyz
  1  'x, y, z'
loop_
 _atom_site_type_symbol
 _atom_site_label
 _atom_site_symmetry_multiplicity
 _atom_site_fract_x
 _atom_site_fract_y
 _atom_site_fract_z
 _atom_site_occupancy
 _atom_site_charge
Al  Al1  1  0.00120000  0.99880000  0.00100000  1.0 1.6160708921
Al  Al2  1  0.00120000  0.99880000  0.50100000  1.0 1.6160708921
C  C1  1  0.71450000  0.92750000  0.16000000  1.0 0.6670739906
C  C2  1  0.07250000  0.28550000  0.66000000  1.0 0.6670739906
C  C3  1  0.28140000  0.06860000  0.83500000  1.0 0.6329632657
C  C4  1  0.93140000  0.71860000  0.33500000  1.0 0.6329632657
C  C5  1  0.52280000  0.92320000  0.87100000  1.0 0.0094783002
C  C6  1  0.07680000  0.47720000  0.37100000  1.0 0.0094783002
C  C7  1  0.44560000  0.03840000  0.13000000  1.0 0.0289187594
C  C8  1  0.96160000  0.55440000  0.63000000  1.0 0.0289187594
C  C9  1  0.42560000  0.97440000  0.78100000  1.0 0.0374671327
C  C10  1  0.02560000  0.57440000  0.28100000  1.0 0.0374671327
C  C11  1  0.57440000  0.02360000  0.21200000  1.0 0.0289187594
C  C12  1  0.97640000  0.42560000  0.71200000  1.0 0.0289187594
C  C13  1  0.60720000  0.97080000  0.07800000  1.0 -0.0945871589
C  C14  1  0.02920000  0.39280000  0.57800000  1.0 -0.0950934855
C  C15  1  0.40760000  0.04840000  0.91000000  1.0 -0.1051303489
C  C16  1  0.95160000  0.59240000  0.41000000  1.0 -0.1051303489
O  O1  1  0.11000000  0.11000000  0.25600000  1.0 -0.8929982526
O  O2  1  0.89000000  0.89000000  0.75600000  1.0 -0.8929982526
O  O3  1  0.76320000  0.89080000  0.05100000  1.0 -0.4669569475
O  O4  1  0.10920000  0.23680000  0.55100000  1.0 -0.4669569475
O  O5  1  0.24250000  0.11750000  0.94000000  1.0 -0.481674519
O  O6  1  0.88250000  0.75750000  0.44000000  1.0 -0.481674519
O  O7  1  0.80960000  0.99240000  0.34000000  1.0 -0.497616191
O  O8  1  0.00760000  0.19040000  0.84000000  1.0 -0.497616191
O  O9  1  0.23440000  0.06560000  0.63700000  1.0 -0.481674519
O  O10  1  0.93440000  0.76560000  0.13700000  1.0 -0.481674519
