# DDEC6 charges by PACMAN v1.1 (https://github.com/mtap-research/PACMAN-charge/)
data_SABWUQ_FSR_pacman
_symmetry_space_group_name_H-M   'P 1'
_cell_length_a   10.42500000
_cell_length_b   10.62000000
_cell_length_c   11.32300000
_cell_angle_alpha   83.41000000
_cell_angle_beta   74.96000000
_cell_angle_gamma   69.67000000
_symmetry_Int_Tables_number   1
_chemical_formula_structural   Dy2CuH20C32(NO7)4
_chemical_formula_sum   'Dy2 Cu1 H20 C32 N4 O28'
_cell_volume   1134.83135543
_cell_formula_units_Z   1
loop_
 _symmetry_equiv_pos_site_id
 _symmetry_equiv_pos_as_xyz
  1  'x, y, z'
loop_
 _atom_site_type_symbol
 _atom_site_label
 _atom_site_symmetry_multiplicity
 _atom_site_fract_x
 _atom_site_fract_y
 _atom_site_fract_z
 _atom_site_occupancy
 _atom_site_charge
Dy  Dy1  1  0.58699000  0.59728000  0.63175000  1.0 2.1081131546
Dy  Dy2  1  0.41301000  0.40272000  0.36825000  1.0 2.1081131546
Cu  Cu1  1  0.00000000  0.50000000  0.50000000  1.0 0.9268685429
H  H1  1  0.35430000  0.98340000  0.46240000  1.0 0.1376853063
H  H2  1  0.64570000  0.01660000  0.53760000  1.0 0.1376853063
H  H3  1  0.99410000  0.16330000  0.35200000  1.0 0.1376853063
H  H4  1  0.00590000  0.83670000  0.64800000  1.0 0.1376853063
H  H5  1  0.17780000  0.76130000  0.33530000  1.0 0.1463244705
H  H6  1  0.82220000  0.23870000  0.66470000  1.0 0.1463244705
H  H7  1  0.68460000  0.48400000  0.95060000  1.0 0.1463244705
H  H8  1  0.31540000  0.51600000  0.04940000  1.0 0.1463244705
H  H9  1  0.91680000  0.32610000  0.19930000  1.0 0.1376853063
H  H10  1  0.08320000  0.67390000  0.80070000  1.0 0.1376853063
H  H11  1  0.10730000  0.33840000  0.84340000  1.0 0.1376853063
H  H12  1  0.89270000  0.66160000  0.15660000  1.0 0.1376853063
H  H13  1  0.46880000  0.76000000  0.85470000  1.0 0.3944221436
H  H14  1  0.53120000  0.24000000  0.14530000  1.0 0.3944221436
H  H15  1  0.46150000  0.85920000  0.76260000  1.0 0.4003411679
H  H16  1  0.53850000  0.14080000  0.23740000  1.0 0.4003411679
H  H17  1  0.73510000  0.46970000  0.39050000  1.0 0.3944221436
H  H18  1  0.26490000  0.53030000  0.60950000  1.0 0.3944221436
H  H19  1  0.76470000  0.58700000  0.38510000  1.0 0.3778399675
H  H20  1  0.23530000  0.41300000  0.61490000  1.0 0.3778399675
C  C1  1  0.28140000  0.85280000  0.40600000  1.0 -0.0096135972
C  C2  1  0.71860000  0.14720000  0.59400000  1.0 -0.0096135972
C  C3  1  0.28210000  0.97800000  0.43140000  1.0 -0.0997885281
C  C4  1  0.71790000  0.02200000  0.56860000  1.0 -0.0997885281
C  C5  1  0.17550000  0.09500000  0.41080000  1.0 -0.0096135972
C  C6  1  0.82450000  0.90500000  0.58920000  1.0 -0.0096135972
C  C7  1  0.06780000  0.08670000  0.36380000  1.0 -0.1416812354
C  C8  1  0.93220000  0.91330000  0.63620000  1.0 -0.1416812354
C  C9  1  0.07320000  0.96200000  0.33540000  1.0 0.0592226152
C  C10  1  0.92680000  0.03800000  0.66460000  1.0 0.0592226152
C  C11  1  0.17750000  0.84390000  0.35530000  1.0 -0.1244112925
C  C12  1  0.82250000  0.15610000  0.64470000  1.0 -0.1244112925
C  C13  1  0.39190000  0.72720000  0.43730000  1.0 0.6565253584
C  C14  1  0.60810000  0.27280000  0.56270000  1.0 0.6565253584
C  C15  1  0.17120000  0.23180000  0.43710000  1.0 0.6049700229
C  C16  1  0.82880000  0.76820000  0.56290000  1.0 0.6049700229
C  C17  1  0.89430000  0.41820000  0.87660000  1.0 -0.0153225186
C  C18  1  0.10570000  0.58180000  0.12340000  1.0 -0.0153225186
C  C19  1  0.77180000  0.44390000  0.96950000  1.0 -0.0997885281
C  C20  1  0.22820000  0.55610000  0.03050000  1.0 -0.0997885281
C  C21  1  0.77930000  0.40990000  0.09050000  1.0 -0.0096135972
C  C22  1  0.22070000  0.59010000  0.90950000  1.0 -0.0096135972
C  C23  1  0.90990000  0.34940000  0.11890000  1.0 -0.1312928201
C  C24  1  0.09010000  0.65060000  0.88110000  1.0 -0.1312928201
C  C25  1  0.02820000  0.32510000  0.02460000  1.0 0.0592226152
C  C26  1  0.97180000  0.67490000  0.97540000  1.0 0.0592226152
C  C27  1  0.02470000  0.35710000  0.90460000  1.0 -0.1416812354
C  C28  1  0.97530000  0.64290000  0.09540000  1.0 -0.1416812354
C  C29  1  0.88790000  0.45540000  0.74640000  1.0 0.6212197392
C  C30  1  0.11210000  0.54460000  0.25360000  1.0 0.6212197392
C  C31  1  0.64800000  0.43040000  0.18990000  1.0 0.5602464228
C  C32  1  0.35200000  0.56960000  0.81010000  1.0 0.5602464228
N  N1  1  0.96020000  0.95600000  0.28310000  1.0 0.5029781608
N  N2  1  0.03980000  0.04400000  0.71690000  1.0 0.5029781608
N  N3  1  0.16920000  0.26130000  0.05200000  1.0 0.5029781608
N  N4  1  0.83080000  0.73870000  0.94800000  1.0 0.5029781608
O  O1  1  0.39660000  0.61680000  0.40510000  1.0 -0.6701216848
O  O2  1  0.60340000  0.38320000  0.59490000  1.0 -0.6701216848
O  O3  1  0.47160000  0.74170000  0.49640000  1.0 -0.6565406473
O  O4  1  0.52840000  0.25830000  0.50360000  1.0 -0.6565406473
O  O5  1  0.28290000  0.24910000  0.43960000  1.0 -0.6402478368
O  O6  1  0.71710000  0.75090000  0.56040000  1.0 -0.6402478368
O  O7  1  0.05140000  0.31870000  0.45450000  1.0 -0.5226615222
O  O8  1  0.94860000  0.68130000  0.54550000  1.0 -0.5226615222
O  O9  1  0.87130000  0.06270000  0.26230000  1.0 -0.3285371811
O  O10  1  0.12870000  0.93730000  0.73770000  1.0 -0.3285371811
O  O11  1  0.94940000  0.84840000  0.27470000  1.0 -0.2835429461
O  O12  1  0.05060000  0.15160000  0.72530000  1.0 -0.2835429461
O  O13  1  0.00290000  0.44110000  0.66950000  1.0 -0.5226615222
O  O14  1  0.99710000  0.55890000  0.33050000  1.0 -0.5226615222
O  O15  1  0.77080000  0.49620000  0.71980000  1.0 -0.6914912612
O  O16  1  0.22920000  0.50380000  0.28020000  1.0 -0.6914912612
O  O17  1  0.52900000  0.48140000  0.16490000  1.0 -0.6125295908
O  O18  1  0.47100000  0.51860000  0.83510000  1.0 -0.6125295908
O  O19  1  0.65830000  0.39120000  0.29780000  1.0 -0.6402478368
O  O20  1  0.34170000  0.60880000  0.70220000  1.0 -0.6402478368
O  O21  1  0.17600000  0.24770000  0.15880000  1.0 -0.3022141905
O  O22  1  0.82400000  0.75230000  0.84120000  1.0 -0.3022141905
O  O23  1  0.27110000  0.23410000  0.96790000  1.0 -0.2923341246
O  O24  1  0.72890000  0.76590000  0.03210000  1.0 -0.2923341246
O  O25  1  0.50100000  0.77100000  0.77350000  1.0 -0.783854142
O  O26  1  0.49900000  0.22900000  0.22650000  1.0 -0.783854142
O  O27  1  0.74540000  0.52410000  0.43890000  1.0 -0.8195346744
O  O28  1  0.25460000  0.47590000  0.56110000  1.0 -0.8195346744
