# DDEC6 charges by PACMAN v1.1 (https://github.com/mtap-research/PACMAN-charge/)
data_SABYUS_FSR_pacman
_symmetry_space_group_name_H-M   'P 1'
_cell_length_a   10.50000000
_cell_length_b   10.63500000
_cell_length_c   11.37300000
_cell_angle_alpha   82.98000000
_cell_angle_beta   74.42000000
_cell_angle_gamma   69.60000000
_symmetry_Int_Tables_number   1
_chemical_formula_structural   Eu2CuH20C32(NO7)4
_chemical_formula_sum   'Eu2 Cu1 H20 C32 N4 O28'
_cell_volume   1146.03019778
_cell_formula_units_Z   1
loop_
 _symmetry_equiv_pos_site_id
 _symmetry_equiv_pos_as_xyz
  1  'x, y, z'
loop_
 _atom_site_type_symbol
 _atom_site_label
 _atom_site_symmetry_multiplicity
 _atom_site_fract_x
 _atom_site_fract_y
 _atom_site_fract_z
 _atom_site_occupancy
 _atom_site_charge
Eu  Eu1  1  0.58804000  0.59837000  0.62980000  1.0 2.1271761808
Eu  Eu2  1  0.41196000  0.40163000  0.37020000  1.0 2.1271761808
Cu  Cu1  1  0.00000000  0.50000000  0.50000000  1.0 0.9167126569
H  H1  1  0.34920000  0.98700000  0.46350000  1.0 0.1399558544
H  H2  1  0.65080000  0.01300000  0.53650000  1.0 0.1399558544
H  H3  1  0.99270000  0.16410000  0.35260000  1.0 0.1320912543
H  H4  1  0.00730000  0.83590000  0.64740000  1.0 0.1320912543
H  H5  1  0.17810000  0.76330000  0.33520000  1.0 0.1399558544
H  H6  1  0.82190000  0.23670000  0.66480000  1.0 0.1399558544
H  H7  1  0.68850000  0.47970000  0.94860000  1.0 0.1399558544
H  H8  1  0.31150000  0.52030000  0.05140000  1.0 0.1399558544
H  H9  1  0.91600000  0.32560000  0.19730000  1.0 0.1320912543
H  H10  1  0.08400000  0.67440000  0.80270000  1.0 0.1320912543
H  H11  1  0.10820000  0.33750000  0.84140000  1.0 0.1399558544
H  H12  1  0.89180000  0.66250000  0.15860000  1.0 0.1399558544
H  H13  1  0.50180000  0.73880000  0.84440000  1.0 0.4020815495
H  H14  1  0.49820000  0.26120000  0.15560000  1.0 0.4020815495
H  H15  1  0.45170000  0.86480000  0.77840000  1.0 0.4279483709
H  H16  1  0.54830000  0.13520000  0.22160000  1.0 0.4279483709
H  H17  1  0.78280000  0.57440000  0.37730000  1.0 0.4052523527
H  H18  1  0.21720000  0.42560000  0.62270000  1.0 0.4052523527
H  H19  1  0.71980000  0.47130000  0.39200000  1.0 0.4052523527
H  H20  1  0.28020000  0.52870000  0.60800000  1.0 0.4052523527
C  C1  1  0.28190000  0.85440000  0.40420000  1.0 -0.0094691783
C  C2  1  0.71810000  0.14560000  0.59580000  1.0 -0.0094691783
C  C3  1  0.27910000  0.98070000  0.43140000  1.0 -0.1011070699
C  C4  1  0.72090000  0.01930000  0.56860000  1.0 -0.1011070699
C  C5  1  0.17320000  0.09560000  0.41110000  1.0 -0.0094691783
C  C6  1  0.82680000  0.90440000  0.58890000  1.0 -0.0094691783
C  C7  1  0.06650000  0.08780000  0.36380000  1.0 -0.1492216956
C  C8  1  0.93350000  0.91220000  0.63620000  1.0 -0.1492216956
C  C9  1  0.07480000  0.96180000  0.33410000  1.0 0.0577628597
C  C10  1  0.92520000  0.03820000  0.66590000  1.0 0.0577628597
C  C11  1  0.17780000  0.84600000  0.35440000  1.0 -0.1245534938
C  C12  1  0.82220000  0.15400000  0.64560000  1.0 -0.1245534938
C  C13  1  0.39180000  0.73090000  0.43590000  1.0 0.6474377069
C  C14  1  0.60820000  0.26910000  0.56410000  1.0 0.6474377069
C  C15  1  0.16680000  0.23280000  0.43900000  1.0 0.6033253822
C  C16  1  0.83320000  0.76720000  0.56100000  1.0 0.6033253822
C  C17  1  0.89630000  0.41590000  0.87530000  1.0 -0.0153608468
C  C18  1  0.10370000  0.58410000  0.12470000  1.0 -0.0153608468
C  C19  1  0.77500000  0.44020000  0.96750000  1.0 -0.1011070699
C  C20  1  0.22500000  0.55980000  0.03250000  1.0 -0.1011070699
C  C21  1  0.78120000  0.40590000  0.08880000  1.0 -0.0094691783
C  C22  1  0.21880000  0.59410000  0.91120000  1.0 -0.0094691783
C  C23  1  0.91010000  0.34790000  0.11690000  1.0 -0.1337326911
C  C24  1  0.08990000  0.65210000  0.88310000  1.0 -0.1337326911
C  C25  1  0.03010000  0.32380000  0.02250000  1.0 0.0577628597
C  C26  1  0.96990000  0.67620000  0.97750000  1.0 0.0577628597
C  C27  1  0.02600000  0.35570000  0.90290000  1.0 -0.1412612346
C  C28  1  0.97400000  0.64430000  0.09710000  1.0 -0.1412612346
C  C29  1  0.89020000  0.45380000  0.74510000  1.0 0.6159786138
C  C30  1  0.10980000  0.54620000  0.25490000  1.0 0.6159786138
C  C31  1  0.64930000  0.42660000  0.18800000  1.0 0.5634483251
C  C32  1  0.35070000  0.57340000  0.81200000  1.0 0.5634483251
N  N1  1  0.96170000  0.95640000  0.28310000  1.0 0.4937012348
N  N2  1  0.03830000  0.04360000  0.71690000  1.0 0.4937012348
N  N3  1  0.16900000  0.26200000  0.05070000  1.0 0.4980733845
N  N4  1  0.83100000  0.73800000  0.94930000  1.0 0.4980733845
O  O1  1  0.39700000  0.62000000  0.40580000  1.0 -0.6727407422
O  O2  1  0.60300000  0.38000000  0.59420000  1.0 -0.6727407422
O  O3  1  0.47270000  0.74570000  0.49240000  1.0 -0.649825677
O  O4  1  0.52730000  0.25430000  0.50760000  1.0 -0.649825677
O  O5  1  0.27480000  0.25160000  0.44570000  1.0 -0.6385598626
O  O6  1  0.72520000  0.74840000  0.55430000  1.0 -0.6385598626
O  O7  1  0.04600000  0.31930000  0.45460000  1.0 -0.5363002863
O  O8  1  0.95400000  0.68070000  0.54540000  1.0 -0.5363002863
O  O9  1  0.87780000  0.06050000  0.25770000  1.0 -0.3091380742
O  O10  1  0.12220000  0.93950000  0.74230000  1.0 -0.3091380742
O  O11  1  0.95260000  0.84840000  0.27420000  1.0 -0.2852495458
O  O12  1  0.04740000  0.15160000  0.72580000  1.0 -0.2841988948
O  O13  1  0.00480000  0.44070000  0.66870000  1.0 -0.5159481016
O  O14  1  0.99520000  0.55930000  0.33130000  1.0 -0.5159481016
O  O15  1  0.77460000  0.49320000  0.71910000  1.0 -0.6859003451
O  O16  1  0.22540000  0.50680000  0.28090000  1.0 -0.6859003451
O  O17  1  0.53270000  0.47630000  0.16310000  1.0 -0.6077613678
O  O18  1  0.46730000  0.52370000  0.83690000  1.0 -0.6077613678
O  O19  1  0.65900000  0.38850000  0.29650000  1.0 -0.649825677
O  O20  1  0.34100000  0.61150000  0.70350000  1.0 -0.649825677
O  O21  1  0.17440000  0.25080000  0.15630000  1.0 -0.3010507446
O  O22  1  0.82560000  0.74920000  0.84370000  1.0 -0.3010507446
O  O23  1  0.27120000  0.23290000  0.96590000  1.0 -0.3010507446
O  O24  1  0.72880000  0.76710000  0.03410000  1.0 -0.3010507446
O  O25  1  0.50080000  0.77840000  0.76910000  1.0 -0.8066887703
O  O26  1  0.49920000  0.22160000  0.23090000  1.0 -0.8066887703
O  O27  1  0.74490000  0.52220000  0.43330000  1.0 -0.8332971778
O  O28  1  0.25510000  0.47780000  0.56670000  1.0 -0.8332971778
