# DDEC6 charges by PACMAN v1.1 (https://github.com/mtap-research/PACMAN-charge/)
data_SABYAY_ASR_pacman
_symmetry_space_group_name_H-M   'P 1'
_cell_length_a   10.54600000
_cell_length_b   10.65300000
_cell_length_c   11.42200000
_cell_angle_alpha   82.68000000
_cell_angle_beta   74.10000000
_cell_angle_gamma   69.42000000
_symmetry_Int_Tables_number   1
_chemical_formula_structural   Nd2CuH12C32(NO6)4
_chemical_formula_sum   'Nd2 Cu1 H12 C32 N4 O24'
_cell_volume   1154.67865708
_cell_formula_units_Z   1
loop_
 _symmetry_equiv_pos_site_id
 _symmetry_equiv_pos_as_xyz
  1  'x, y, z'
loop_
 _atom_site_type_symbol
 _atom_site_label
 _atom_site_symmetry_multiplicity
 _atom_site_fract_x
 _atom_site_fract_y
 _atom_site_fract_z
 _atom_site_occupancy
 _atom_site_charge
Nd  Nd1  1  0.58900000  0.59851000  0.62829000  1.0 2.0953253977
Nd  Nd2  1  0.41100000  0.40149000  0.37171000  1.0 2.0953253977
Cu  Cu1  1  0.00000000  0.50000000  0.50000000  1.0 0.8726523988
H  H1  1  0.34650000  0.99020000  0.46210000  1.0 0.1462290756
H  H2  1  0.65350000  0.00980000  0.53790000  1.0 0.1431743346
H  H3  1  0.99190000  0.16380000  0.35260000  1.0 0.1337520353
H  H4  1  0.00810000  0.83620000  0.64740000  1.0 0.1337520353
H  H5  1  0.18110000  0.76360000  0.33450000  1.0 0.1431743346
H  H6  1  0.81890000  0.23640000  0.66550000  1.0 0.1431743346
H  H7  1  0.69000000  0.47610000  0.94650000  1.0 0.1462290756
H  H8  1  0.31000000  0.52390000  0.05350000  1.0 0.1462290756
H  H9  1  0.91660000  0.32370000  0.19570000  1.0 0.1337520353
H  H10  1  0.08340000  0.67630000  0.80430000  1.0 0.1337520353
H  H11  1  0.10930000  0.33690000  0.83980000  1.0 0.1431743346
H  H12  1  0.89070000  0.66310000  0.16020000  1.0 0.1431743346
C  C1  1  0.28060000  0.85740000  0.40460000  1.0 -0.0123385447
C  C2  1  0.71940000  0.14260000  0.59540000  1.0 -0.0123385447
C  C3  1  0.27660000  0.98340000  0.43090000  1.0 -0.0923951973
C  C4  1  0.72340000  0.01660000  0.56910000  1.0 -0.0923951973
C  C5  1  0.17030000  0.09770000  0.41120000  1.0 -0.0123385447
C  C6  1  0.82970000  0.90230000  0.58880000  1.0 -0.0123385447
C  C7  1  0.06590000  0.08790000  0.36390000  1.0 -0.1416505293
C  C8  1  0.93410000  0.91210000  0.63610000  1.0 -0.1416505293
C  C9  1  0.07440000  0.96360000  0.33420000  1.0 0.0468396548
C  C10  1  0.92560000  0.03640000  0.66580000  1.0 0.0468396548
C  C11  1  0.17890000  0.84660000  0.35410000  1.0 -0.1305258997
C  C12  1  0.82110000  0.15340000  0.64590000  1.0 -0.1305258997
C  C13  1  0.39180000  0.73340000  0.43490000  1.0 0.6541139356
C  C14  1  0.60820000  0.26660000  0.56510000  1.0 0.6541139356
C  C15  1  0.16150000  0.23460000  0.44050000  1.0 0.6047726147
C  C16  1  0.83850000  0.76540000  0.55950000  1.0 0.6047726147
C  C17  1  0.89900000  0.41370000  0.87380000  1.0 -0.0211416498
C  C18  1  0.10100000  0.58630000  0.12620000  1.0 -0.0211416498
C  C19  1  0.77600000  0.43790000  0.96580000  1.0 -0.0923951973
C  C20  1  0.22400000  0.56210000  0.03420000  1.0 -0.0923951973
C  C21  1  0.78180000  0.40490000  0.08690000  1.0 -0.0017557818
C  C22  1  0.21820000  0.59510000  0.91310000  1.0 -0.0017557818
C  C23  1  0.91110000  0.34660000  0.11550000  1.0 -0.1305258997
C  C24  1  0.08890000  0.65340000  0.88450000  1.0 -0.1305258997
C  C25  1  0.03010000  0.32370000  0.02200000  1.0 0.0395461566
C  C26  1  0.96990000  0.67630000  0.97800000  1.0 0.0395461566
C  C27  1  0.02700000  0.35500000  0.90110000  1.0 -0.1416505293
C  C28  1  0.97300000  0.64500000  0.09890000  1.0 -0.1416505293
C  C29  1  0.89390000  0.45060000  0.74350000  1.0 0.612981724
C  C30  1  0.10610000  0.54940000  0.25650000  1.0 0.612981724
C  C31  1  0.65060000  0.42530000  0.18610000  1.0 0.5663252346
C  C32  1  0.34940000  0.57470000  0.81390000  1.0 0.5663252346
N  N1  1  0.96440000  0.95570000  0.28330000  1.0 0.4914558104
N  N2  1  0.03560000  0.04430000  0.71670000  1.0 0.4914558104
N  N3  1  0.16700000  0.26410000  0.05000000  1.0 0.4914558104
N  N4  1  0.83300000  0.73590000  0.95000000  1.0 0.4914558104
O  O1  1  0.39790000  0.62240000  0.40690000  1.0 -0.6789714821
O  O2  1  0.60210000  0.37760000  0.59310000  1.0 -0.6789714821
O  O3  1  0.47160000  0.75110000  0.49050000  1.0 -0.6573190965
O  O4  1  0.52840000  0.24890000  0.50950000  1.0 -0.6573190965
O  O5  1  0.26770000  0.25400000  0.44830000  1.0 -0.6573190965
O  O6  1  0.73230000  0.74600000  0.55170000  1.0 -0.6573190965
O  O7  1  0.04150000  0.32060000  0.45530000  1.0 -0.5287857183
O  O8  1  0.95850000  0.67940000  0.54470000  1.0 -0.5287857183
O  O9  1  0.87970000  0.05940000  0.25800000  1.0 -0.2824829944
O  O10  1  0.12030000  0.94060000  0.74200000  1.0 -0.2824829944
O  O11  1  0.95580000  0.84780000  0.27420000  1.0 -0.2616415747
O  O12  1  0.04420000  0.15220000  0.72580000  1.0 -0.2616415747
O  O13  1  0.00720000  0.43940000  0.66780000  1.0 -0.5055239924
O  O14  1  0.99280000  0.56060000  0.33220000  1.0 -0.5055239924
O  O15  1  0.77910000  0.48840000  0.71720000  1.0 -0.6993703373
O  O16  1  0.22090000  0.51160000  0.28280000  1.0 -0.6993703373
O  O17  1  0.53450000  0.47590000  0.16120000  1.0 -0.6020030506
O  O18  1  0.46550000  0.52410000  0.83880000  1.0 -0.6020030506
O  O19  1  0.66070000  0.38660000  0.29420000  1.0 -0.6512881048
O  O20  1  0.33930000  0.61340000  0.70580000  1.0 -0.6512881048
O  O21  1  0.17180000  0.25200000  0.15560000  1.0 -0.3000198432
O  O22  1  0.82820000  0.74800000  0.84440000  1.0 -0.3000198432
O  O23  1  0.27020000  0.23720000  0.96510000  1.0 -0.2824829944
O  O24  1  0.72980000  0.76280000  0.03490000  1.0 -0.2824829944
