# DDEC6 charges by PACMAN v1.1 (https://github.com/mtap-research/PACMAN-charge/)
data_SABZED_FSR_pacman
_symmetry_space_group_name_H-M   'P 1'
_cell_length_a   10.41400000
_cell_length_b   10.61500000
_cell_length_c   11.31700000
_cell_angle_alpha   83.45000000
_cell_angle_beta   75.04000000
_cell_angle_gamma   69.61000000
_symmetry_Int_Tables_number   1
_chemical_formula_structural   Ho2CuH20C32(NO7)4
_chemical_formula_sum   'Ho2 Cu1 H20 C32 N4 O28'
_cell_volume   1132.49947232
_cell_formula_units_Z   1
loop_
 _symmetry_equiv_pos_site_id
 _symmetry_equiv_pos_as_xyz
  1  'x, y, z'
loop_
 _atom_site_type_symbol
 _atom_site_label
 _atom_site_symmetry_multiplicity
 _atom_site_fract_x
 _atom_site_fract_y
 _atom_site_fract_z
 _atom_site_occupancy
 _atom_site_charge
Ho  Ho1  1  0.58673000  0.59671000  0.63225000  1.0 2.0928447851
Ho  Ho2  1  0.41327000  0.40329000  0.36775000  1.0 2.0928447851
Cu  Cu1  1  0.00000000  0.50000000  0.50000000  1.0 0.9107018717
H  H1  1  0.35460000  0.98270000  0.46270000  1.0 0.1404938855
H  H2  1  0.64540000  0.01730000  0.53730000  1.0 0.1404938855
H  H3  1  0.99550000  0.16290000  0.35220000  1.0 0.1333688208
H  H4  1  0.00450000  0.83710000  0.64780000  1.0 0.1333688208
H  H5  1  0.17620000  0.76100000  0.33660000  1.0 0.1404938855
H  H6  1  0.82380000  0.23900000  0.66340000  1.0 0.1404938855
H  H7  1  0.68400000  0.48440000  0.95070000  1.0 0.1404938855
H  H8  1  0.31600000  0.51560000  0.04930000  1.0 0.1404938855
H  H9  1  0.91650000  0.32760000  0.19940000  1.0 0.1333688208
H  H10  1  0.08350000  0.67240000  0.80060000  1.0 0.1333688208
H  H11  1  0.10720000  0.33880000  0.84320000  1.0 0.1404938855
H  H12  1  0.89280000  0.66120000  0.15680000  1.0 0.1404938855
H  H13  1  0.48710000  0.74900000  0.85660000  1.0 0.42972833
H  H14  1  0.51290000  0.25100000  0.14340000  1.0 0.42972833
H  H15  1  0.42920000  0.84040000  0.75850000  1.0 0.42972833
H  H16  1  0.57080000  0.15960000  0.24150000  1.0 0.42972833
H  H17  1  0.71550000  0.47230000  0.40380000  1.0 0.41275701
H  H18  1  0.28450000  0.52770000  0.59620000  1.0 0.41275701
H  H19  1  0.79340000  0.57020000  0.38640000  1.0 0.41275701
H  H20  1  0.20660000  0.42980000  0.61360000  1.0 0.41275701
C  C1  1  0.28170000  0.85270000  0.40650000  1.0 -0.009917182
C  C2  1  0.71830000  0.14730000  0.59350000  1.0 -0.009917182
C  C3  1  0.28230000  0.97730000  0.43170000  1.0 -0.0991161184
C  C4  1  0.71770000  0.02270000  0.56830000  1.0 -0.0991161184
C  C5  1  0.17580000  0.09420000  0.41090000  1.0 -0.009917182
C  C6  1  0.82420000  0.90580000  0.58910000  1.0 -0.009917182
C  C7  1  0.06910000  0.08590000  0.36410000  1.0 -0.1415633626
C  C8  1  0.93090000  0.91410000  0.63590000  1.0 -0.1415633626
C  C9  1  0.07330000  0.96220000  0.33530000  1.0 0.0552564644
C  C10  1  0.92670000  0.03780000  0.66470000  1.0 0.0540518222
C  C11  1  0.17670000  0.84360000  0.35590000  1.0 -0.1297689967
C  C12  1  0.82330000  0.15640000  0.64410000  1.0 -0.1297689967
C  C13  1  0.39050000  0.72650000  0.43860000  1.0 0.6566922077
C  C14  1  0.60950000  0.27350000  0.56140000  1.0 0.6566922077
C  C15  1  0.17370000  0.23120000  0.43670000  1.0 0.6044726976
C  C16  1  0.82630000  0.76880000  0.56330000  1.0 0.6044726976
C  C17  1  0.89350000  0.41880000  0.87680000  1.0 -0.0201204486
C  C18  1  0.10650000  0.58120000  0.12320000  1.0 -0.0201204486
C  C19  1  0.77130000  0.44450000  0.96980000  1.0 -0.0948104776
C  C20  1  0.22870000  0.55550000  0.03020000  1.0 -0.0991161184
C  C21  1  0.77800000  0.41140000  0.09050000  1.0 -0.009917182
C  C22  1  0.22200000  0.58860000  0.90950000  1.0 -0.009917182
C  C23  1  0.90960000  0.35030000  0.11890000  1.0 -0.1297689967
C  C24  1  0.09040000  0.64970000  0.88110000  1.0 -0.1297689967
C  C25  1  0.02870000  0.32480000  0.02450000  1.0 0.0540518222
C  C26  1  0.97130000  0.67520000  0.97550000  1.0 0.0540518222
C  C27  1  0.02470000  0.35730000  0.90450000  1.0 -0.1415633626
C  C28  1  0.97530000  0.64270000  0.09550000  1.0 -0.1415633626
C  C29  1  0.88720000  0.45590000  0.74670000  1.0 0.6198162445
C  C30  1  0.11280000  0.54410000  0.25330000  1.0 0.6198162445
C  C31  1  0.64640000  0.43200000  0.19010000  1.0 0.5536209949
C  C32  1  0.35360000  0.56800000  0.80990000  1.0 0.5536209949
N  N1  1  0.95790000  0.95670000  0.28570000  1.0 0.4990050503
N  N2  1  0.04210000  0.04330000  0.71430000  1.0 0.4990050503
N  N3  1  0.16790000  0.26210000  0.05290000  1.0 0.4990050503
N  N4  1  0.83210000  0.73790000  0.94710000  1.0 0.4990050503
O  O1  1  0.39600000  0.61610000  0.40550000  1.0 -0.672427415
O  O2  1  0.60400000  0.38390000  0.59450000  1.0 -0.672427415
O  O3  1  0.47140000  0.74080000  0.49800000  1.0 -0.6649433962
O  O4  1  0.52860000  0.25920000  0.50200000  1.0 -0.6649433962
O  O5  1  0.28400000  0.24920000  0.43890000  1.0 -0.6165869824
O  O6  1  0.71600000  0.75080000  0.56110000  1.0 -0.6165869824
O  O7  1  0.05210000  0.31840000  0.45520000  1.0 -0.5401917092
O  O8  1  0.94790000  0.68160000  0.54480000  1.0 -0.5401917092
O  O9  1  0.87230000  0.06250000  0.26180000  1.0 -0.3200666151
O  O10  1  0.12770000  0.93750000  0.73820000  1.0 -0.3200666151
O  O11  1  0.95000000  0.84830000  0.27360000  1.0 -0.2859923832
O  O12  1  0.05000000  0.15170000  0.72640000  1.0 -0.2859923832
O  O13  1  0.00160000  0.44210000  0.67060000  1.0 -0.5153184525
O  O14  1  0.99840000  0.55790000  0.32940000  1.0 -0.5153184525
O  O15  1  0.76990000  0.49650000  0.72000000  1.0 -0.6920255415
O  O16  1  0.23010000  0.50350000  0.28000000  1.0 -0.6920255415
O  O17  1  0.52920000  0.48290000  0.16420000  1.0 -0.5939378134
O  O18  1  0.47080000  0.51710000  0.83580000  1.0 -0.5939378134
O  O19  1  0.65850000  0.39240000  0.29790000  1.0 -0.6474077097
O  O20  1  0.34150000  0.60760000  0.70210000  1.0 -0.6474077097
O  O21  1  0.17390000  0.24660000  0.15990000  1.0 -0.3039748363
O  O22  1  0.82610000  0.75340000  0.84010000  1.0 -0.3061699263
O  O23  1  0.27130000  0.23260000  0.96800000  1.0 -0.3039748363
O  O24  1  0.72870000  0.76740000  0.03200000  1.0 -0.3061699263
O  O25  1  0.50080000  0.76840000  0.77480000  1.0 -0.8130574516
O  O26  1  0.49920000  0.23160000  0.22520000  1.0 -0.8130574516
O  O27  1  0.74480000  0.52510000  0.44000000  1.0 -0.8424814335
O  O28  1  0.25520000  0.47490000  0.56000000  1.0 -0.8424814335
