# DDEC6 charges by PACMAN v1.1 (https://github.com/mtap-research/PACMAN-charge/)
data_SABZON_FSR_pacman
_symmetry_space_group_name_H-M   'P 1'
_cell_length_a   10.46400000
_cell_length_b   10.60700000
_cell_length_c   11.35300000
_cell_angle_alpha   83.08000000
_cell_angle_beta   74.54000000
_cell_angle_gamma   69.67000000
_symmetry_Int_Tables_number   1
_chemical_formula_structural   Gd2CuH20C32(NO7)4
_chemical_formula_sum   'Gd2 Cu1 H20 C32 N4 O28'
_cell_volume   1138.29817606
_cell_formula_units_Z   1
loop_
 _symmetry_equiv_pos_site_id
 _symmetry_equiv_pos_as_xyz
  1  'x, y, z'
loop_
 _atom_site_type_symbol
 _atom_site_label
 _atom_site_symmetry_multiplicity
 _atom_site_fract_x
 _atom_site_fract_y
 _atom_site_fract_z
 _atom_site_occupancy
 _atom_site_charge
Gd  Gd1  1  0.58787000  0.59859000  0.62986000  1.0 2.0576542356
Gd  Gd2  1  0.41213000  0.40141000  0.37014000  1.0 2.0576542356
Cu  Cu1  1  0.00000000  0.50000000  0.50000000  1.0 0.8920708635
H  H1  1  0.35090000  0.98610000  0.46280000  1.0 0.139819
H  H2  1  0.64910000  0.01390000  0.53720000  1.0 0.139819
H  H3  1  0.99320000  0.16370000  0.35220000  1.0 0.1331659073
H  H4  1  0.00680000  0.83630000  0.64780000  1.0 0.1331659073
H  H5  1  0.17930000  0.76270000  0.33250000  1.0 0.139819
H  H6  1  0.82070000  0.23730000  0.66750000  1.0 0.139819
H  H7  1  0.68670000  0.48180000  0.94930000  1.0 0.139819
H  H8  1  0.31330000  0.51820000  0.05070000  1.0 0.139819
H  H9  1  0.91580000  0.32610000  0.19730000  1.0 0.1331659073
H  H10  1  0.08420000  0.67390000  0.80270000  1.0 0.1331659073
H  H11  1  0.10680000  0.33840000  0.84020000  1.0 0.139819
H  H12  1  0.89320000  0.66160000  0.15980000  1.0 0.139819
H  H13  1  0.51240000  0.74070000  0.84300000  1.0 0.4142626264
H  H14  1  0.48760000  0.25930000  0.15700000  1.0 0.4142626264
H  H15  1  0.43120000  0.85940000  0.77710000  1.0 0.4352420905
H  H16  1  0.56880000  0.14060000  0.22290000  1.0 0.4352420905
H  H17  1  0.78340000  0.58310000  0.41300000  1.0 0.3918629625
H  H18  1  0.21660000  0.41690000  0.58700000  1.0 0.3918629625
H  H19  1  0.73060000  0.48020000  0.37950000  1.0 0.4181098082
H  H20  1  0.26940000  0.51980000  0.62050000  1.0 0.4181098082
C  C1  1  0.28200000  0.85350000  0.40410000  1.0 -0.0112415553
C  C2  1  0.71800000  0.14650000  0.59590000  1.0 -0.0112415553
C  C3  1  0.28010000  0.98000000  0.43110000  1.0 -0.099785786
C  C4  1  0.71990000  0.02000000  0.56890000  1.0 -0.099785786
C  C5  1  0.17400000  0.09540000  0.41070000  1.0 -0.0112415553
C  C6  1  0.82600000  0.90460000  0.58930000  1.0 -0.0112415553
C  C7  1  0.06710000  0.08720000  0.36340000  1.0 -0.1410155705
C  C8  1  0.93290000  0.91280000  0.63660000  1.0 -0.1410155705
C  C9  1  0.07420000  0.96220000  0.33380000  1.0 0.0476250612
C  C10  1  0.92580000  0.03780000  0.66620000  1.0 0.0476250612
C  C11  1  0.17830000  0.84530000  0.35310000  1.0 -0.1286426334
C  C12  1  0.82170000  0.15470000  0.64690000  1.0 -0.1286426334
C  C13  1  0.39240000  0.72950000  0.43490000  1.0 0.6487681606
C  C14  1  0.60760000  0.27050000  0.56510000  1.0 0.6487681606
C  C15  1  0.16850000  0.23190000  0.43890000  1.0 0.6030973235
C  C16  1  0.83150000  0.76810000  0.56110000  1.0 0.6030973235
C  C17  1  0.89620000  0.41590000  0.87560000  1.0 -0.0157652878
C  C18  1  0.10380000  0.58410000  0.12440000  1.0 -0.0157652878
C  C19  1  0.77340000  0.44160000  0.96820000  1.0 -0.099785786
C  C20  1  0.22660000  0.55840000  0.03180000  1.0 -0.099785786
C  C21  1  0.78030000  0.40710000  0.08880000  1.0 -0.0023010835
C  C22  1  0.21970000  0.59290000  0.91120000  1.0 -0.0023010835
C  C23  1  0.91000000  0.34850000  0.11670000  1.0 -0.1286426334
C  C24  1  0.09000000  0.65150000  0.88330000  1.0 -0.1286426334
C  C25  1  0.03080000  0.32370000  0.02270000  1.0 0.0476250612
C  C26  1  0.96920000  0.67630000  0.97730000  1.0 0.0476250612
C  C27  1  0.02490000  0.35640000  0.90230000  1.0 -0.1410155705
C  C28  1  0.97510000  0.64360000  0.09770000  1.0 -0.1410155705
C  C29  1  0.88930000  0.45380000  0.74550000  1.0 0.6156740525
C  C30  1  0.11070000  0.54620000  0.25450000  1.0 0.6156740525
C  C31  1  0.64710000  0.42730000  0.18870000  1.0 0.5496030786
C  C32  1  0.35290000  0.57270000  0.81130000  1.0 0.5496030786
N  N1  1  0.96180000  0.95620000  0.28310000  1.0 0.4930797705
N  N2  1  0.03820000  0.04380000  0.71690000  1.0 0.4930797705
N  N3  1  0.16810000  0.26240000  0.05040000  1.0 0.4930797705
N  N4  1  0.83190000  0.73760000  0.94960000  1.0 0.4930797705
O  O1  1  0.39670000  0.61890000  0.40440000  1.0 -0.6564450524
O  O2  1  0.60330000  0.38110000  0.59560000  1.0 -0.6564450524
O  O3  1  0.47250000  0.74500000  0.49230000  1.0 -0.6469753346
O  O4  1  0.52750000  0.25500000  0.50770000  1.0 -0.6469753346
O  O5  1  0.27690000  0.25060000  0.44540000  1.0 -0.632951971
O  O6  1  0.72310000  0.74940000  0.55460000  1.0 -0.632951971
O  O7  1  0.04660000  0.31960000  0.45420000  1.0 -0.5386222265
O  O8  1  0.95340000  0.68040000  0.54580000  1.0 -0.5386222265
O  O9  1  0.87900000  0.06010000  0.25760000  1.0 -0.3021124563
O  O10  1  0.12100000  0.93990000  0.74240000  1.0 -0.3021124563
O  O11  1  0.95190000  0.84860000  0.27360000  1.0 -0.2793677262
O  O12  1  0.04810000  0.15140000  0.72640000  1.0 -0.2793677262
O  O13  1  0.00460000  0.44010000  0.66900000  1.0 -0.5163182876
O  O14  1  0.99540000  0.55990000  0.33100000  1.0 -0.5163182876
O  O15  1  0.77410000  0.49450000  0.71940000  1.0 -0.672350075
O  O16  1  0.22590000  0.50550000  0.28060000  1.0 -0.672350075
O  O17  1  0.53200000  0.47570000  0.16380000  1.0 -0.5805812142
O  O18  1  0.46800000  0.52430000  0.83620000  1.0 -0.5805812142
O  O19  1  0.65950000  0.38830000  0.29710000  1.0 -0.6431209109
O  O20  1  0.34050000  0.61170000  0.70290000  1.0 -0.6431209109
O  O21  1  0.17500000  0.25110000  0.15630000  1.0 -0.305591182
O  O22  1  0.82500000  0.74890000  0.84370000  1.0 -0.305591182
O  O23  1  0.27070000  0.23230000  0.96520000  1.0 -0.3021124563
O  O24  1  0.72930000  0.76770000  0.03480000  1.0 -0.305591182
O  O25  1  0.50040000  0.77900000  0.76770000  1.0 -0.8103653452
O  O26  1  0.49960000  0.22100000  0.23230000  1.0 -0.8103653452
O  O27  1  0.74540000  0.52140000  0.43490000  1.0 -0.8192361853
O  O28  1  0.25460000  0.47860000  0.56510000  1.0 -0.8192361853
