# DDEC6 charges by PACMAN v1.1 (https://github.com/mtap-research/PACMAN-charge/)
data_SADVEB_FSR_pacman
_symmetry_space_group_name_H-M   'P 1'
_cell_length_a   12.92240000
_cell_length_b   13.33430000
_cell_length_c   13.50540000
_cell_angle_alpha   111.40300000
_cell_angle_beta   88.57500000
_cell_angle_gamma   100.42900000
_symmetry_Int_Tables_number   1
_chemical_formula_structural   UH3(C4O3)2
_chemical_formula_sum   'U8 H24 C64 O48'
_cell_volume   2128.69449071
_cell_formula_units_Z   8
loop_
 _symmetry_equiv_pos_site_id
 _symmetry_equiv_pos_as_xyz
  1  'x, y, z'
loop_
 _atom_site_type_symbol
 _atom_site_label
 _atom_site_symmetry_multiplicity
 _atom_site_fract_x
 _atom_site_fract_y
 _atom_site_fract_z
 _atom_site_occupancy
 _atom_site_charge
U  U1  1  0.81733000  0.79878000  0.61855000  1.0 2.4566201731
U  U2  1  0.18267000  0.20122000  0.38145000  1.0 2.4566201731
U  U3  1  0.80938000  0.29586000  0.60615000  1.0 2.4429869219
U  U4  1  0.19062000  0.70414000  0.39385000  1.0 2.4429869219
U  U5  1  0.49043000  0.77492000  0.01242000  1.0 1.1744001671
U  U6  1  0.50957000  0.22508000  0.98758000  1.0 1.1971429153
U  U7  1  0.50580000  0.72810000  0.99170000  1.0 1.0631163879
U  U8  1  0.49420000  0.27190000  0.00830000  1.0 1.0430506035
H  H1  1  0.80370000  0.14050000  0.11050000  1.0 0.1190634198
H  H2  1  0.19630000  0.85950000  0.88950000  1.0 0.1190634198
H  H3  1  0.92660000  0.05430000  0.14590000  1.0 0.1564142122
H  H4  1  0.07340000  0.94570000  0.85410000  1.0 0.1564142122
H  H5  1  0.81620000  0.78430000  0.89390000  1.0 0.1416533808
H  H6  1  0.18380000  0.21570000  0.10610000  1.0 0.1416533808
H  H7  1  0.12710000  0.90450000  0.15120000  1.0 0.1475393771
H  H8  1  0.87290000  0.09550000  0.84880000  1.0 0.1475393771
H  H9  1  0.83890000  0.83570000  0.34150000  1.0 0.1475393771
H  H10  1  0.16110000  0.16430000  0.65850000  1.0 0.1475393771
H  H11  1  0.81390000  0.82690000  0.17050000  1.0 0.1416533808
H  H12  1  0.18610000  0.17310000  0.82950000  1.0 0.1416533808
H  H13  1  0.75480000  0.64620000  0.09320000  1.0 0.1093404158
H  H14  1  0.24520000  0.35380000  0.90680000  1.0 0.1093404158
H  H15  1  0.89220000  0.58130000  0.13880000  1.0 0.1475393771
H  H16  1  0.10780000  0.41870000  0.86120000  1.0 0.1475393771
H  H17  1  0.80740000  0.29680000  0.89080000  1.0 0.1475393771
H  H18  1  0.19260000  0.70320000  0.10920000  1.0 0.1475393771
H  H19  1  0.11380000  0.42000000  0.14420000  1.0 0.1416533808
H  H20  1  0.88620000  0.58000000  0.85580000  1.0 0.1416533808
H  H21  1  0.82890000  0.34390000  0.33460000  1.0 0.1475393771
H  H22  1  0.17110000  0.65610000  0.66540000  1.0 0.1475393771
H  H23  1  0.80090000  0.35580000  0.16910000  1.0 0.1416533808
H  H24  1  0.19910000  0.64420000  0.83090000  1.0 0.1416533808
C  C1  1  0.65540000  0.83880000  0.83080000  1.0 0.6644992395
C  C2  1  0.34460000  0.16120000  0.16920000  1.0 0.6644992395
C  C3  1  0.73620000  0.90700000  0.91730000  1.0 -0.0751761482
C  C4  1  0.26380000  0.09300000  0.08270000  1.0 -0.0751761482
C  C5  1  0.72990000  0.01300000  0.98290000  1.0 -0.0275626597
C  C6  1  0.27010000  0.98700000  0.01710000  1.0 -0.0275626597
C  C7  1  0.80500000  0.06800000  0.06780000  1.0 -0.0605155514
C  C8  1  0.19500000  0.93200000  0.93220000  1.0 -0.0605155514
C  C9  1  0.87860000  0.01780000  0.08840000  1.0 -0.1723605678
C  C10  1  0.12140000  0.98220000  0.91160000  1.0 -0.1723605678
C  C11  1  0.88160000  0.91180000  0.02320000  1.0 0.2400036021
C  C12  1  0.11840000  0.08820000  0.97680000  1.0 0.2400036021
C  C13  1  0.81220000  0.85570000  0.93760000  1.0 -0.1940741636
C  C14  1  0.18780000  0.14430000  0.06240000  1.0 -0.1940741636
C  C15  1  0.97080000  0.86390000  0.14620000  1.0 0.2574961498
C  C16  1  0.02920000  0.13610000  0.85380000  1.0 0.2574961498
C  C17  1  0.06980000  0.88910000  0.18960000  1.0 -0.181940718
C  C18  1  0.93020000  0.11090000  0.81040000  1.0 -0.181940718
C  C19  1  0.08550000  0.89170000  0.29390000  1.0 -0.0504594822
C  C20  1  0.91450000  0.10830000  0.70610000  1.0 -0.0504594822
C  C21  1  0.99670000  0.86610000  0.34790000  1.0 -0.0605155514
C  C22  1  0.00330000  0.13390000  0.65210000  1.0 -0.0605155514
C  C23  1  0.89710000  0.84660000  0.30230000  1.0 -0.0605155514
C  C24  1  0.10290000  0.15340000  0.69770000  1.0 -0.0605155514
C  C25  1  0.88130000  0.84280000  0.20140000  1.0 -0.1996836648
C  C26  1  0.11870000  0.15720000  0.79860000  1.0 -0.1996836648
C  C27  1  0.19420000  0.93140000  0.34010000  1.0 0.6506199106
C  C28  1  0.80580000  0.06860000  0.65990000  1.0 0.6506199106
C  C29  1  0.00650000  0.85970000  0.45620000  1.0 0.6506199106
C  C30  1  0.99350000  0.14030000  0.54380000  1.0 0.6506199106
C  C31  1  0.64120000  0.32810000  0.81290000  1.0 0.6668788656
C  C32  1  0.35880000  0.67190000  0.18710000  1.0 0.6668788656
C  C33  1  0.71540000  0.40670000  0.90340000  1.0 -0.0387375592
C  C34  1  0.28460000  0.59330000  0.09660000  1.0 -0.0387375592
C  C35  1  0.69590000  0.51160000  0.96370000  1.0 -0.0605155514
C  C36  1  0.30410000  0.48840000  0.03630000  1.0 -0.0605155514
C  C37  1  0.76520000  0.57590000  0.05240000  1.0 -0.0504594822
C  C38  1  0.23480000  0.42410000  0.94760000  1.0 -0.0504594822
C  C39  1  0.84740000  0.53760000  0.08020000  1.0 -0.1940741636
C  C40  1  0.15260000  0.46240000  0.91980000  1.0 -0.1940741636
C  C41  1  0.86260000  0.43290000  0.01950000  1.0 0.2725673183
C  C42  1  0.13740000  0.56710000  0.98050000  1.0 0.2725673183
C  C43  1  0.79650000  0.36710000  0.93090000  1.0 -0.1996836648
C  C44  1  0.20350000  0.63290000  0.06910000  1.0 -0.1996836648
C  C45  1  0.61080000  0.55770000  0.93320000  1.0 0.474274592
C  C46  1  0.38920000  0.44230000  0.06680000  1.0 0.4785611792
C  C47  1  0.95790000  0.38770000  0.14250000  1.0 0.2574961498
C  C48  1  0.04210000  0.61230000  0.85750000  1.0 0.2574961498
C  C49  1  0.05670000  0.40420000  0.18280000  1.0 -0.181940718
C  C50  1  0.94330000  0.59580000  0.81720000  1.0 -0.181940718
C  C51  1  0.07420000  0.39760000  0.28140000  1.0 -0.0387375592
C  C52  1  0.92580000  0.60240000  0.71860000  1.0 -0.0387375592
C  C53  1  0.98700000  0.37330000  0.33820000  1.0 -0.0689398185
C  C54  1  0.01300000  0.62670000  0.66180000  1.0 -0.0689398185
C  C55  1  0.88640000  0.35870000  0.29600000  1.0 -0.0605155514
C  C56  1  0.11360000  0.64130000  0.70400000  1.0 -0.0605155514
C  C57  1  0.86860000  0.36550000  0.19710000  1.0 -0.1996836648
C  C58  1  0.13140000  0.63450000  0.80290000  1.0 -0.1996836648
C  C59  1  0.99680000  0.36010000  0.44280000  1.0 0.6506199106
C  C60  1  0.00320000  0.63990000  0.55720000  1.0 0.6506199106
C  C61  1  0.18420000  0.42700000  0.32580000  1.0 0.6506199106
C  C62  1  0.81580000  0.57300000  0.67420000  1.0 0.6506199106
C  C63  1  0.64650000  0.07430000  0.97200000  1.0 0.5575387045
C  C64  1  0.35350000  0.92570000  0.02800000  1.0 0.5575387045
O  O1  1  0.72350000  0.73560000  0.51160000  1.0 -0.5867046402
O  O2  1  0.27650000  0.26440000  0.48840000  1.0 -0.5867046402
O  O3  1  0.91170000  0.85920000  0.72510000  1.0 -0.6697701053
O  O4  1  0.08830000  0.14080000  0.27490000  1.0 -0.6697701053
O  O5  1  0.71500000  0.24220000  0.49880000  1.0 -0.5867046402
O  O6  1  0.28500000  0.75780000  0.50120000  1.0 -0.5867046402
O  O7  1  0.90230000  0.34680000  0.71320000  1.0 -0.6697701053
O  O8  1  0.09770000  0.65320000  0.28680000  1.0 -0.6697701053
O  O9  1  0.58830000  0.87810000  0.09670000  1.0 -0.5633933381
O  O10  1  0.41170000  0.12190000  0.90330000  1.0 -0.5633933381
O  O11  1  0.39300000  0.66820000  0.92780000  1.0 -0.4289210871
O  O12  1  0.60700000  0.33180000  0.07220000  1.0 -0.4289210871
O  O13  1  0.57150000  0.78910000  0.85410000  1.0 -0.5742031967
O  O14  1  0.42850000  0.21090000  0.14590000  1.0 -0.5812204318
O  O15  1  0.67340000  0.82660000  0.73540000  1.0 -0.5391103313
O  O16  1  0.32660000  0.17340000  0.26460000  1.0 -0.5391103313
O  O17  1  0.59110000  0.10770000  0.05260000  1.0 -0.5192339854
O  O18  1  0.40890000  0.89230000  0.94740000  1.0 -0.5192339854
O  O19  1  0.63840000  0.09730000  0.89390000  1.0 -0.4595007286
O  O20  1  0.36160000  0.90270000  0.10610000  1.0 -0.4595007286
O  O21  1  0.92610000  0.87360000  0.51200000  1.0 -0.613123788
O  O22  1  0.07390000  0.12640000  0.48800000  1.0 -0.613123788
O  O23  1  0.08870000  0.83870000  0.48510000  1.0 -0.5867046402
O  O24  1  0.91130000  0.16130000  0.51490000  1.0 -0.5867046402
O  O25  1  0.24820000  0.86510000  0.35260000  1.0 -0.5742031967
O  O26  1  0.75180000  0.13490000  0.64740000  1.0 -0.5742031967
O  O27  1  0.23390000  0.03020000  0.36240000  1.0 -0.5459046498
O  O28  1  0.76610000  0.96980000  0.63760000  1.0 -0.5459046498
O  O29  1  0.96010000  0.85790000  0.04150000  1.0 -0.2189172195
O  O30  1  0.03990000  0.14210000  0.95850000  1.0 -0.2259374992
O  O31  1  0.56400000  0.26870000  0.83600000  1.0 -0.5812204318
O  O32  1  0.43600000  0.73130000  0.16400000  1.0 -0.5812204318
O  O33  1  0.66370000  0.31560000  0.71930000  1.0 -0.5127537088
O  O34  1  0.33630000  0.68440000  0.28070000  1.0 -0.5192339854
O  O35  1  0.60140000  0.65500000  0.99360000  1.0 -0.4595007286
O  O36  1  0.39860000  0.34500000  0.00640000  1.0 -0.4595007286
O  O37  1  0.55290000  0.50170000  0.85350000  1.0 -0.4187920527
O  O38  1  0.44710000  0.49830000  0.14650000  1.0 -0.4187920527
O  O39  1  0.92170000  0.37250000  0.50080000  1.0 -0.5633933381
O  O40  1  0.07830000  0.62750000  0.49920000  1.0 -0.5633933381
O  O41  1  0.08090000  0.33540000  0.46740000  1.0 -0.6200593547
O  O42  1  0.91910000  0.66460000  0.53260000  1.0 -0.6200593547
O  O43  1  0.23460000  0.35220000  0.32290000  1.0 -0.5867046402
O  O44  1  0.76540000  0.64780000  0.67710000  1.0 -0.5867046402
O  O45  1  0.22850000  0.52510000  0.35750000  1.0 -0.5391103313
O  O46  1  0.77150000  0.47490000  0.64250000  1.0 -0.5391103313
O  O47  1  0.94740000  0.39050000  0.04090000  1.0 -0.2189172195
O  O48  1  0.05260000  0.60950000  0.95910000  1.0 -0.2189172195
