# DDEC6 charges by PACMAN v1.1 (https://github.com/mtap-research/PACMAN-charge/)
data_SAGGEQ_ASR_pacman
_symmetry_space_group_name_H-M   'P 1'
_cell_length_a   11.42630000
_cell_length_b   11.64290000
_cell_length_c   11.74370000
_cell_angle_alpha   100.71900000
_cell_angle_beta   118.09600000
_cell_angle_gamma   87.07100000
_symmetry_Int_Tables_number   1
_chemical_formula_structural   NdH9(C3O)6
_chemical_formula_sum   'Nd2 H18 C36 O12'
_cell_volume   1352.97214738
_cell_formula_units_Z   2
loop_
 _symmetry_equiv_pos_site_id
 _symmetry_equiv_pos_as_xyz
  1  'x, y, z'
loop_
 _atom_site_type_symbol
 _atom_site_label
 _atom_site_symmetry_multiplicity
 _atom_site_fract_x
 _atom_site_fract_y
 _atom_site_fract_z
 _atom_site_occupancy
 _atom_site_charge
Nd  Nd1  1  0.30250000  0.62240000  0.59590000  1.0 2.0318818045
Nd  Nd2  1  0.46330000  0.85120000  0.94700000  1.0 2.047805543
H  H1  1  0.60260000  0.23230000  0.92670000  1.0 0.1211702479
H  H2  1  0.57550000  0.42010000  0.87610000  1.0 0.1293149953
H  H3  1  0.28180000  0.57510000  0.00540000  1.0 0.1293149953
H  H4  1  0.16280000  0.52020000  0.09540000  1.0 0.1211702479
H  H5  1  0.12230000  0.31670000  0.04490000  1.0 0.1211702479
H  H6  1  0.26510000  0.18790000  0.02680000  1.0 0.1293149953
H  H7  1  0.19160000  0.25640000  0.66570000  1.0 0.1104171229
H  H8  1  0.16990000  0.05510000  0.66270000  1.0 0.1211702479
H  H9  1  0.50710000  0.89220000  0.55960000  1.0 0.1211702479
H  H10  1  0.64970000  0.97410000  0.50380000  1.0 0.1104171229
H  H11  1  0.63100000  0.15450000  0.44440000  1.0 0.1211702479
H  H12  1  0.52990000  0.28120000  0.53960000  1.0 0.1211702479
H  H13  1  0.80520000  0.90930000  0.84600000  1.0 0.1211702479
H  H14  1  0.01020000  0.90800000  0.84990000  1.0 0.1293149953
H  H15  1  0.07130000  0.50700000  0.72140000  1.0 0.1033332077
H  H16  1  0.95740000  0.32850000  0.68980000  1.0 0.1104171229
H  H17  1  0.76240000  0.33270000  0.69430000  1.0 0.1033332077
H  H18  1  0.66820000  0.51090000  0.72700000  1.0 0.1104171229
C  C1  1  0.45100000  0.09600000  0.93800000  1.0 0.5527501655
C  C2  1  0.43800000  0.22910000  0.94910000  1.0 -0.0339681591
C  C3  1  0.53400000  0.27700000  0.92800000  1.0 -0.1418752121
C  C4  1  0.52620000  0.39260000  0.91100000  1.0 -0.0968450579
C  C5  1  0.45300000  0.45800000  0.94100000  1.0 -0.0475194725
C  C6  1  0.36600000  0.41700000  0.98000000  1.0 0.0398870548
C  C7  1  0.28070000  0.49760000  0.01500000  1.0 -0.1690615165
C  C8  1  0.20500000  0.46800000  0.05800000  1.0 -0.0802867311
C  C9  1  0.19400000  0.34500000  0.04100000  1.0 -0.1296772445
C  C10  1  0.26900000  0.26560000  0.01900000  1.0 -0.1175795766
C  C11  1  0.36100000  0.31200000  0.98300000  1.0 0.0252478262
C  C12  1  0.45700000  0.59600000  0.92500000  1.0 0.588882382
C  C13  1  0.32200000  0.37610000  0.58700000  1.0 0.5212281299
C  C14  1  0.31800000  0.24530000  0.59200000  1.0 -0.0475194725
C  C15  1  0.24020000  0.20380000  0.63680000  1.0 -0.1296772445
C  C16  1  0.23100000  0.08200000  0.64100000  1.0 -0.0688613589
C  C17  1  0.31900000  0.99900000  0.60900000  1.0 -0.1480438682
C  C18  1  0.41300000  0.04100000  0.57100000  1.0 0.0850927112
C  C19  1  0.50100000  0.97000000  0.55000000  1.0 -0.1690615165
C  C20  1  0.58600000  0.02200000  0.51200000  1.0 -0.1175795766
C  C21  1  0.58600000  0.13200000  0.48600000  1.0 -0.1175795766
C  C22  1  0.51200000  0.20200000  0.52900000  1.0 -0.1690615165
C  C23  1  0.41700000  0.17780000  0.56100000  1.0 0.0696132732
C  C24  1  0.30300000  0.87900000  0.59300000  1.0 0.5679081631
C  C25  1  0.64200000  0.73200000  0.78300000  1.0 0.579761858
C  C26  1  0.75930000  0.73650000  0.77530000  1.0 -0.1480438682
C  C27  1  0.83610000  0.83970000  0.81860000  1.0 -0.0802867311
C  C28  1  0.95890000  0.83890000  0.82100000  1.0 -0.1296772445
C  C29  1  0.00490000  0.73490000  0.78000000  1.0 -0.0633202242
C  C30  1  0.92820000  0.63170000  0.73660000  1.0 0.0502269668
C  C31  1  0.80540000  0.63240000  0.73430000  1.0 0.0763752339
C  C32  1  0.98920000  0.50960000  0.72000000  1.0 -0.0968450579
C  C33  1  0.92040000  0.39980000  0.70240000  1.0 -0.1175795766
C  C34  1  0.80570000  0.40230000  0.70440000  1.0 -0.1081810268
C  C35  1  0.74710000  0.51270000  0.72240000  1.0 -0.1296772445
C  C36  1  0.14670000  0.73090000  0.78400000  1.0 0.6437891675
O  O1  1  0.34600000  0.04040000  0.92800000  1.0 -0.6855761456
O  O2  1  0.55290000  0.04410000  0.95060000  1.0 -0.6107409048
O  O3  1  0.42150000  0.62760000  0.82880000  1.0 -0.5487514483
O  O4  1  0.49290000  0.66150000  0.03300000  1.0 -0.5322087157
O  O5  1  0.41220000  0.43020000  0.59480000  1.0 -0.5322087157
O  O6  1  0.23240000  0.42390000  0.59900000  1.0 -0.5353013324
O  O7  1  0.25290000  0.80580000  0.49480000  1.0 -0.5220796513
O  O8  1  0.34010000  0.84920000  0.70810000  1.0 -0.7632861781
O  O9  1  0.63180000  0.79000000  0.87150000  1.0 -0.5487514483
O  O10  1  0.53520000  0.68800000  0.67180000  1.0 -0.7200222062
O  O11  1  0.23850000  0.79250000  0.87800000  1.0 -0.6213965463
O  O12  1  0.14910000  0.67590000  0.67600000  1.0 -0.737275784
