# DDEC6 charges by PACMAN v1.1 (https://github.com/mtap-research/PACMAN-charge/)
data_SAJHUJ_FSR_pacman
_symmetry_space_group_name_H-M   'P 1'
_cell_length_a   21.91770000
_cell_length_b   21.91770000
_cell_length_c   12.23510000
_cell_angle_alpha   90.00000000
_cell_angle_beta   90.00000000
_cell_angle_gamma   120.00000000
_symmetry_Int_Tables_number   1
_chemical_formula_structural   Mn2Cr2FeH30C48(N2O3)8
_chemical_formula_sum   'Mn6 Cr6 Fe3 H90 C144 N48 O72'
_cell_volume   5090.12105945
_cell_formula_units_Z   3
loop_
 _symmetry_equiv_pos_site_id
 _symmetry_equiv_pos_as_xyz
  1  'x, y, z'
loop_
 _atom_site_type_symbol
 _atom_site_label
 _atom_site_symmetry_multiplicity
 _atom_site_fract_x
 _atom_site_fract_y
 _atom_site_fract_z
 _atom_site_occupancy
 _atom_site_charge
Mn  Mn1  1  0.32517000  0.57269000  0.09640000  1.0 0.898162498
Mn  Mn2  1  0.42731000  0.75248000  0.42973000  1.0 0.898162498
Mn  Mn3  1  0.24752000  0.67483000  0.76307000  1.0 0.898162498
Mn  Mn4  1  0.75248000  0.42731000  0.57027000  1.0 0.8930547971
Mn  Mn5  1  0.67483000  0.24752000  0.23693000  1.0 0.898162498
Mn  Mn6  1  0.57269000  0.32517000  0.90360000  1.0 0.8930547971
Cr  Cr1  1  0.34138000  0.34138000  0.00000000  1.0 1.3158597984
Cr  Cr2  1  0.65862000  0.00000000  0.33333333  1.0 1.3158597984
Cr  Cr3  1  0.00000000  0.65862000  0.66666667  1.0 1.3158597984
Cr  Cr4  1  0.09387000  0.09387000  0.00000000  1.0 1.1807232339
Cr  Cr5  1  0.90613000  0.00000000  0.33333333  1.0 1.1807232339
Cr  Cr6  1  0.00000000  0.90613000  0.66666667  1.0 1.1724609572
Fe  Fe1  1  0.00000000  0.36822000  0.66666667  1.0 0.3736922382
Fe  Fe2  1  0.36822000  0.00000000  0.33333333  1.0 0.3736922382
Fe  Fe3  1  0.63178000  0.63178000  0.00000000  1.0 0.3736922382
H  H1  1  0.88700000  0.22330000  0.77117000  1.0 0.0980087152
H  H2  1  0.11300000  0.33630000  0.56217000  1.0 0.0980087152
H  H3  1  0.10750000  0.29580000  0.92797000  1.0 0.11723256
H  H4  1  0.89250000  0.18830000  0.40537000  1.0 0.11723256
H  H5  1  0.89850000  0.15550000  0.90867000  1.0 0.1127049427
H  H6  1  0.10150000  0.25700000  0.42467000  1.0 0.1127049427
H  H7  1  0.91370000  0.41390000  0.53197000  1.0 0.3298127441
H  H8  1  0.08630000  0.50020000  0.80137000  1.0 0.3298127441
H  H9  1  0.91760000  0.45690000  0.43157000  1.0 0.336931004
H  H10  1  0.08240000  0.53930000  0.90177000  1.0 0.336931004
H  H11  1  0.24800000  0.52720000  0.59617000  1.0 0.1457361567
H  H12  1  0.75200000  0.27920000  0.73717000  1.0 0.1457361567
H  H13  1  0.20960000  0.39650000  0.84787000  1.0 0.126900267
H  H14  1  0.79040000  0.18690000  0.48547000  1.0 0.126900267
H  H15  1  0.00880000  0.19180000  0.98707000  1.0 0.0980087152
H  H16  1  0.99120000  0.18300000  0.34627000  1.0 0.0980087152
H  H17  1  0.28820000  0.48840000  0.73687000  1.0 0.126900267
H  H18  1  0.71180000  0.20020000  0.59647000  1.0 0.126900267
H  H19  1  0.12400000  0.58990000  0.25337000  1.0 0.3298127441
H  H20  1  0.87600000  0.46590000  0.07997000  1.0 0.3298127441
H  H21  1  0.19180000  0.59610000  0.29787000  1.0 0.3298127441
H  H22  1  0.80820000  0.40430000  0.03547000  1.0 0.3298127441
H  H23  1  0.12980000  0.33040000  0.98607000  1.0 0.126900267
H  H24  1  0.87020000  0.20060000  0.34727000  1.0 0.126900267
H  H25  1  0.03030000  0.23560000  0.06487000  1.0 0.0942989736
H  H26  1  0.96970000  0.20530000  0.26847000  1.0 0.0942989736
H  H27  1  0.91950000  0.19320000  0.98417000  1.0 0.0980087152
H  H28  1  0.08050000  0.27370000  0.34917000  1.0 0.0942989736
H  H29  1  0.90830000  0.24560000  0.82457000  1.0 0.1127049427
H  H30  1  0.09170000  0.33730000  0.50877000  1.0 0.1127049427
H  H31  1  0.33630000  0.11300000  0.43783000  1.0 0.0980087152
H  H32  1  0.22330000  0.88700000  0.22883000  1.0 0.0980087152
H  H33  1  0.18830000  0.89250000  0.59463000  1.0 0.11723256
H  H34  1  0.29580000  0.10750000  0.07203000  1.0 0.11723256
H  H35  1  0.25700000  0.10150000  0.57533000  1.0 0.1127049427
H  H36  1  0.15550000  0.89850000  0.09133000  1.0 0.1127049427
H  H37  1  0.50020000  0.08630000  0.19863000  1.0 0.3298127441
H  H38  1  0.41390000  0.91370000  0.46803000  1.0 0.3298127441
H  H39  1  0.53930000  0.08240000  0.09823000  1.0 0.336931004
H  H40  1  0.45690000  0.91760000  0.56843000  1.0 0.336931004
H  H41  1  0.27920000  0.75200000  0.26283000  1.0 0.1457361567
H  H42  1  0.52720000  0.24800000  0.40383000  1.0 0.1457361567
H  H43  1  0.18690000  0.79040000  0.51453000  1.0 0.126900267
H  H44  1  0.39650000  0.20960000  0.15213000  1.0 0.126900267
H  H45  1  0.18300000  0.99120000  0.65373000  1.0 0.0980087152
H  H46  1  0.19180000  0.00880000  0.01293000  1.0 0.0980087152
H  H47  1  0.20020000  0.71180000  0.40353000  1.0 0.126900267
H  H48  1  0.48840000  0.28820000  0.26313000  1.0 0.126900267
H  H49  1  0.46590000  0.87600000  0.92003000  1.0 0.3298127441
H  H50  1  0.58990000  0.12400000  0.74663000  1.0 0.3298127441
H  H51  1  0.40430000  0.80820000  0.96453000  1.0 0.3298127441
H  H52  1  0.59610000  0.19180000  0.70213000  1.0 0.3298127441
H  H53  1  0.20060000  0.87020000  0.65273000  1.0 0.126900267
H  H54  1  0.33040000  0.12980000  0.01393000  1.0 0.126900267
H  H55  1  0.20530000  0.96970000  0.73153000  1.0 0.0942989736
H  H56  1  0.23560000  0.03030000  0.93513000  1.0 0.0942989736
H  H57  1  0.27370000  0.08050000  0.65083000  1.0 0.0980087152
H  H58  1  0.19320000  0.91950000  0.01583000  1.0 0.0980087152
H  H59  1  0.33730000  0.09170000  0.49123000  1.0 0.1127049427
H  H60  1  0.24560000  0.90830000  0.17543000  1.0 0.1127049427
H  H61  1  0.77670000  0.66370000  0.10450000  1.0 0.0980087152
H  H62  1  0.66370000  0.77670000  0.89550000  1.0 0.0980087152
H  H63  1  0.70420000  0.81170000  0.26130000  1.0 0.11723256
H  H64  1  0.81170000  0.70420000  0.73870000  1.0 0.11723256
H  H65  1  0.84450000  0.74300000  0.24200000  1.0 0.1127049427
H  H66  1  0.74300000  0.84450000  0.75800000  1.0 0.1127049427
H  H67  1  0.58610000  0.49980000  0.86530000  1.0 0.3298127441
H  H68  1  0.49980000  0.58610000  0.13470000  1.0 0.3298127441
H  H69  1  0.54310000  0.46070000  0.76490000  1.0 0.336931004
H  H70  1  0.46070000  0.54310000  0.23510000  1.0 0.336931004
H  H71  1  0.47280000  0.72080000  0.92950000  1.0 0.1457361567
H  H72  1  0.72080000  0.47280000  0.07050000  1.0 0.1457361567
H  H73  1  0.60350000  0.81310000  0.18120000  1.0 0.126900267
H  H74  1  0.81310000  0.60350000  0.81880000  1.0 0.126900267
H  H75  1  0.80820000  0.81700000  0.32040000  1.0 0.0980087152
H  H76  1  0.81700000  0.80820000  0.67960000  1.0 0.0980087152
H  H77  1  0.51160000  0.79980000  0.07020000  1.0 0.126900267
H  H78  1  0.79980000  0.51160000  0.92980000  1.0 0.126900267
H  H79  1  0.41010000  0.53410000  0.58670000  1.0 0.3298127441
H  H80  1  0.53410000  0.41010000  0.41330000  1.0 0.3298127441
H  H81  1  0.40390000  0.59570000  0.63120000  1.0 0.3298127441
H  H82  1  0.59570000  0.40390000  0.36880000  1.0 0.3298127441
H  H83  1  0.66960000  0.79940000  0.31940000  1.0 0.126900267
H  H84  1  0.79940000  0.66960000  0.68060000  1.0 0.126900267
H  H85  1  0.76440000  0.79470000  0.39820000  1.0 0.0942989736
H  H86  1  0.79470000  0.76440000  0.60180000  1.0 0.0942989736
H  H87  1  0.80680000  0.72630000  0.31750000  1.0 0.0980087152
H  H88  1  0.72630000  0.80680000  0.68250000  1.0 0.0980087152
H  H89  1  0.75440000  0.66270000  0.15790000  1.0 0.1127049427
H  H90  1  0.66270000  0.75440000  0.84210000  1.0 0.1127049427
C  C1  1  0.31460000  0.43890000  0.10600000  1.0 0.4753730435
C  C2  1  0.56110000  0.87570000  0.43933000  1.0 0.4753730435
C  C3  1  0.12430000  0.68540000  0.77267000  1.0 0.4753730435
C  C4  1  0.87570000  0.56110000  0.56067000  1.0 0.4712450756
C  C5  1  0.68540000  0.12430000  0.22733000  1.0 0.4753730435
C  C6  1  0.43890000  0.31460000  0.89400000  1.0 0.4753730435
C  C7  1  0.35190000  0.47320000  0.00030000  1.0 0.4508228175
C  C8  1  0.52680000  0.87870000  0.33363000  1.0 0.4508228175
C  C9  1  0.12130000  0.64810000  0.66697000  1.0 0.4508228175
C  C10  1  0.87870000  0.52680000  0.66637000  1.0 0.4508228175
C  C11  1  0.64810000  0.12130000  0.33303000  1.0 0.4508228175
C  C12  1  0.47320000  0.35190000  0.99970000  1.0 0.4508228175
C  C13  1  0.30920000  0.66280000  0.95440000  1.0 0.4508228175
C  C14  1  0.33720000  0.64640000  0.28773000  1.0 0.4508228175
C  C15  1  0.35360000  0.69080000  0.62107000  1.0 0.4508228175
C  C16  1  0.64640000  0.33720000  0.71227000  1.0 0.4508228175
C  C17  1  0.69080000  0.35360000  0.37893000  1.0 0.4508228175
C  C18  1  0.66280000  0.30920000  0.04560000  1.0 0.4508228175
C  C19  1  0.24320000  0.59040000  0.93500000  1.0 0.4508228175
C  C20  1  0.40960000  0.65280000  0.26833000  1.0 0.4508228175
C  C21  1  0.34720000  0.75680000  0.60167000  1.0 0.4508228175
C  C22  1  0.65280000  0.40960000  0.73167000  1.0 0.4508228175
C  C23  1  0.75680000  0.34720000  0.39833000  1.0 0.4508228175
C  C24  1  0.59040000  0.24320000  0.06500000  1.0 0.4508228175
C  C25  1  0.22960000  0.20090000  0.04480000  1.0 0.4712450756
C  C26  1  0.79910000  0.02870000  0.37813000  1.0 0.4712450756
C  C27  1  0.97130000  0.77040000  0.71147000  1.0 0.4712450756
C  C28  1  0.02870000  0.79910000  0.62187000  1.0 0.4712450756
C  C29  1  0.77040000  0.97130000  0.28853000  1.0 0.4712450756
C  C30  1  0.20090000  0.22960000  0.95520000  1.0 0.4712450756
C  C31  1  0.08280000  0.00000000  0.83333000  1.0 0.4712450756
C  C32  1  0.00000000  0.08280000  0.16667000  1.0 0.4712450756
C  C33  1  0.91720000  0.91720000  0.50000000  1.0 0.4712450756
C  C34  1  0.01230000  0.00000000  0.83333000  1.0 0.4712450756
C  C35  1  0.00000000  0.01230000  0.16667000  1.0 0.4712450756
C  C36  1  0.98770000  0.98770000  0.50000000  1.0 0.4712450756
C  C37  1  0.05600000  0.32140000  0.81447000  1.0 0.11723256
C  C38  1  0.94400000  0.26540000  0.51887000  1.0 0.11723256
C  C39  1  0.93170000  0.23800000  0.80297000  1.0 -0.0716077349
C  C40  1  0.06830000  0.30630000  0.53037000  1.0 -0.0716077349
C  C41  1  0.00590000  0.46960000  0.47607000  1.0 0.5680758196
C  C42  1  0.99410000  0.46370000  0.85727000  1.0 0.5680758196
C  C43  1  0.10750000  0.48200000  0.54017000  1.0 0.3103502828
C  C44  1  0.89250000  0.37450000  0.79317000  1.0 0.3103502828
C  C45  1  0.14340000  0.46480000  0.62857000  1.0 0.1561905358
C  C46  1  0.85660000  0.32140000  0.70477000  1.0 0.1561905358
C  C47  1  0.12010000  0.38580000  0.77467000  1.0 0.0836345256
C  C48  1  0.87990000  0.26570000  0.55867000  1.0 0.0836345256
C  C49  1  0.06280000  0.28110000  0.89617000  1.0 -0.0427574486
C  C50  1  0.93720000  0.21830000  0.43717000  1.0 -0.0427574486
C  C51  1  0.93850000  0.19770000  0.88467000  1.0 -0.0976998818
C  C52  1  0.06150000  0.25920000  0.44867000  1.0 -0.0976998818
C  C53  1  0.21530000  0.49160000  0.64387000  1.0 -0.1635157453
C  C54  1  0.78470000  0.27630000  0.68947000  1.0 -0.1635157453
C  C55  1  0.19290000  0.41420000  0.79167000  1.0 -0.2061572484
C  C56  1  0.80710000  0.22130000  0.54167000  1.0 -0.2061572484
C  C57  1  0.00410000  0.21930000  0.93127000  1.0 -0.0427574486
C  C58  1  0.99590000  0.21520000  0.40207000  1.0 -0.0427574486
C  C59  1  0.10970000  0.53710000  0.38857000  1.0 0.5798287728
C  C60  1  0.89030000  0.42740000  0.94477000  1.0 0.5798287728
C  C61  1  0.23890000  0.46780000  0.72567000  1.0 -0.0248344273
C  C62  1  0.76110000  0.22890000  0.60767000  1.0 -0.0256224702
C  C63  1  0.07810000  0.34430000  0.85867000  1.0 0.0291952465
C  C64  1  0.92190000  0.26620000  0.47467000  1.0 0.0291952465
C  C65  1  0.08480000  0.31320000  0.95367000  1.0 -0.0976998818
C  C66  1  0.91520000  0.22840000  0.37967000  1.0 -0.0976998818
C  C67  1  0.02580000  0.25700000  0.99967000  1.0 -0.0776359041
C  C68  1  0.97420000  0.23120000  0.33367000  1.0 -0.0776359041
C  C69  1  0.95990000  0.23170000  0.95267000  1.0 -0.0612171887
C  C70  1  0.04010000  0.27180000  0.38067000  1.0 -0.0612171887
C  C71  1  0.95320000  0.26280000  0.85767000  1.0 0.0291952465
C  C72  1  0.04680000  0.30960000  0.47567000  1.0 0.0291952465
C  C73  1  0.26540000  0.94400000  0.48113000  1.0 0.11723256
C  C74  1  0.32140000  0.05600000  0.18553000  1.0 0.11723256
C  C75  1  0.30630000  0.06830000  0.46963000  1.0 -0.0716077349
C  C76  1  0.23800000  0.93170000  0.19703000  1.0 -0.0716077349
C  C77  1  0.46370000  0.99410000  0.14273000  1.0 0.5680758196
C  C78  1  0.46960000  0.00590000  0.52393000  1.0 0.5680758196
C  C79  1  0.37450000  0.89250000  0.20683000  1.0 0.3103502828
C  C80  1  0.48200000  0.10750000  0.45983000  1.0 0.3103502828
C  C81  1  0.32140000  0.85660000  0.29523000  1.0 0.1561905358
C  C82  1  0.46480000  0.14340000  0.37143000  1.0 0.1561905358
C  C83  1  0.26570000  0.87990000  0.44133000  1.0 0.0836345256
C  C84  1  0.38580000  0.12010000  0.22533000  1.0 0.0836345256
C  C85  1  0.21830000  0.93720000  0.56283000  1.0 -0.0427574486
C  C86  1  0.28110000  0.06280000  0.10383000  1.0 -0.0427574486
C  C87  1  0.25920000  0.06150000  0.55133000  1.0 -0.0976998818
C  C88  1  0.19770000  0.93850000  0.11533000  1.0 -0.0976998818
C  C89  1  0.27630000  0.78470000  0.31053000  1.0 -0.1635157453
C  C90  1  0.49160000  0.21530000  0.35613000  1.0 -0.1635157453
C  C91  1  0.22130000  0.80710000  0.45833000  1.0 -0.2061572484
C  C92  1  0.41420000  0.19290000  0.20833000  1.0 -0.2061572484
C  C93  1  0.21520000  0.99590000  0.59793000  1.0 -0.0427574486
C  C94  1  0.21930000  0.00410000  0.06873000  1.0 -0.0427574486
C  C95  1  0.42740000  0.89030000  0.05523000  1.0 0.5798287728
C  C96  1  0.53710000  0.10970000  0.61143000  1.0 0.5798287728
C  C97  1  0.22890000  0.76110000  0.39233000  1.0 -0.0248344273
C  C98  1  0.46780000  0.23890000  0.27433000  1.0 -0.0256224702
C  C99  1  0.26620000  0.92190000  0.52533000  1.0 0.0291952465
C  C100  1  0.34430000  0.07810000  0.14133000  1.0 0.0291952465
C  C101  1  0.22840000  0.91520000  0.62033000  1.0 -0.0976998818
C  C102  1  0.31320000  0.08480000  0.04633000  1.0 -0.0976998818
C  C103  1  0.23120000  0.97420000  0.66633000  1.0 -0.0776359041
C  C104  1  0.25700000  0.02580000  0.00033000  1.0 -0.0776359041
C  C105  1  0.27180000  0.04010000  0.61933000  1.0 -0.0612171887
C  C106  1  0.23170000  0.95990000  0.04733000  1.0 -0.0612171887
C  C107  1  0.30960000  0.04680000  0.52433000  1.0 0.0291952465
C  C108  1  0.26280000  0.95320000  0.14233000  1.0 0.0291952465
C  C109  1  0.67860000  0.73460000  0.14780000  1.0 0.11723256
C  C110  1  0.73460000  0.67860000  0.85220000  1.0 0.11723256
C  C111  1  0.76200000  0.69370000  0.13630000  1.0 -0.0716077349
C  C112  1  0.69370000  0.76200000  0.86370000  1.0 -0.0716077349
C  C113  1  0.53040000  0.53630000  0.80940000  1.0 0.5680758196
C  C114  1  0.53630000  0.53040000  0.19060000  1.0 0.5680758196
C  C115  1  0.51800000  0.62550000  0.87350000  1.0 0.3103502828
C  C116  1  0.62550000  0.51800000  0.12650000  1.0 0.3103502828
C  C117  1  0.53520000  0.67860000  0.96190000  1.0 0.1561905358
C  C118  1  0.67860000  0.53520000  0.03810000  1.0 0.1561905358
C  C119  1  0.61420000  0.73430000  0.10800000  1.0 0.0836345256
C  C120  1  0.73430000  0.61420000  0.89200000  1.0 0.0836345256
C  C121  1  0.71890000  0.78170000  0.22950000  1.0 -0.0427574486
C  C122  1  0.78170000  0.71890000  0.77050000  1.0 -0.0427574486
C  C123  1  0.80230000  0.74080000  0.21800000  1.0 -0.0976998818
C  C124  1  0.74080000  0.80230000  0.78200000  1.0 -0.0976998818
C  C125  1  0.50840000  0.72370000  0.97720000  1.0 -0.1635157453
C  C126  1  0.72370000  0.50840000  0.02280000  1.0 -0.1635157453
C  C127  1  0.58580000  0.77870000  0.12500000  1.0 -0.2061572484
C  C128  1  0.77870000  0.58580000  0.87500000  1.0 -0.2061572484
C  C129  1  0.78070000  0.78480000  0.26460000  1.0 -0.0427574486
C  C130  1  0.78480000  0.78070000  0.73540000  1.0 -0.0427574486
C  C131  1  0.46290000  0.57260000  0.72190000  1.0 0.5798287728
C  C132  1  0.57260000  0.46290000  0.27810000  1.0 0.5798287728
C  C133  1  0.53220000  0.77110000  0.05900000  1.0 -0.0248344273
C  C134  1  0.77110000  0.53220000  0.94100000  1.0 -0.0256224702
C  C135  1  0.65570000  0.73380000  0.19200000  1.0 0.0291952465
C  C136  1  0.73380000  0.65570000  0.80800000  1.0 0.0291952465
C  C137  1  0.68680000  0.77160000  0.28700000  1.0 -0.0976998818
C  C138  1  0.77160000  0.68680000  0.71300000  1.0 -0.0976998818
C  C139  1  0.74300000  0.76880000  0.33300000  1.0 -0.0776359041
C  C140  1  0.76880000  0.74300000  0.66700000  1.0 -0.0776359041
C  C141  1  0.76830000  0.72820000  0.28600000  1.0 -0.0612171887
C  C142  1  0.72820000  0.76830000  0.71400000  1.0 -0.0612171887
C  C143  1  0.73720000  0.69040000  0.19100000  1.0 0.0291952465
C  C144  1  0.69040000  0.73720000  0.80900000  1.0 0.0291952465
N  N1  1  0.99040000  0.29980000  0.76787000  1.0 -0.0612171887
N  N2  1  0.00960000  0.30940000  0.56547000  1.0 -0.0612171887
N  N3  1  0.03740000  0.44950000  0.55137000  1.0 -0.4495843636
N  N4  1  0.96260000  0.41210000  0.78197000  1.0 -0.4495843636
N  N5  1  0.09980000  0.41560000  0.69397000  1.0 -0.2744680208
N  N6  1  0.90020000  0.31580000  0.63937000  1.0 -0.2753125888
N  N7  1  0.04100000  0.51430000  0.38977000  1.0 -0.501320018
N  N8  1  0.95900000  0.47330000  0.94357000  1.0 -0.501320018
N  N9  1  0.93860000  0.44410000  0.48037000  1.0 -0.5508630635
N  N10  1  0.06140000  0.50550000  0.85297000  1.0 -0.5508630635
N  N11  1  0.14800000  0.52380000  0.46177000  1.0 -0.4495843636
N  N12  1  0.85200000  0.37580000  0.87157000  1.0 -0.4495843636
N  N13  1  0.14610000  0.57930000  0.30327000  1.0 -0.5869076412
N  N14  1  0.85390000  0.43320000  0.03007000  1.0 -0.5869076412
N  N15  1  0.01240000  0.31920000  0.81057000  1.0 0.0398661359
N  N16  1  0.98760000  0.30680000  0.52277000  1.0 0.0398661359
N  N17  1  0.30940000  0.00960000  0.43453000  1.0 -0.0612171887
N  N18  1  0.29980000  0.99040000  0.23213000  1.0 -0.0612171887
N  N19  1  0.41210000  0.96260000  0.21803000  1.0 -0.4495843636
N  N20  1  0.44950000  0.03740000  0.44863000  1.0 -0.4495843636
N  N21  1  0.31580000  0.90020000  0.36063000  1.0 -0.2753125888
N  N22  1  0.41560000  0.09980000  0.30603000  1.0 -0.2753125888
N  N23  1  0.47330000  0.95900000  0.05643000  1.0 -0.501320018
N  N24  1  0.51430000  0.04100000  0.61023000  1.0 -0.501320018
N  N25  1  0.50550000  0.06140000  0.14703000  1.0 -0.5508630635
N  N26  1  0.44410000  0.93860000  0.51963000  1.0 -0.5508630635
N  N27  1  0.37580000  0.85200000  0.12843000  1.0 -0.4495843636
N  N28  1  0.52380000  0.14800000  0.53823000  1.0 -0.4495843636
N  N29  1  0.43320000  0.85390000  0.96993000  1.0 -0.5869076412
N  N30  1  0.57930000  0.14610000  0.69673000  1.0 -0.5869076412
N  N31  1  0.30680000  0.98760000  0.47723000  1.0 0.0398661359
N  N32  1  0.31920000  0.01240000  0.18943000  1.0 0.0398661359
N  N33  1  0.70020000  0.69060000  0.10120000  1.0 -0.0612171887
N  N34  1  0.69060000  0.70020000  0.89880000  1.0 -0.0612171887
N  N35  1  0.55050000  0.58790000  0.88470000  1.0 -0.4495843636
N  N36  1  0.58790000  0.55050000  0.11530000  1.0 -0.4495843636
N  N37  1  0.58440000  0.68420000  0.02730000  1.0 -0.2744680208
N  N38  1  0.68420000  0.58440000  0.97270000  1.0 -0.2744680208
N  N39  1  0.48570000  0.52670000  0.72310000  1.0 -0.501320018
N  N40  1  0.52670000  0.48570000  0.27690000  1.0 -0.501320018
N  N41  1  0.55590000  0.49450000  0.81370000  1.0 -0.5508630635
N  N42  1  0.49450000  0.55590000  0.18630000  1.0 -0.5508630635
N  N43  1  0.47620000  0.62420000  0.79510000  1.0 -0.4495843636
N  N44  1  0.62420000  0.47620000  0.20490000  1.0 -0.4495843636
N  N45  1  0.42070000  0.56680000  0.63660000  1.0 -0.5869076412
N  N46  1  0.56680000  0.42070000  0.36340000  1.0 -0.5869076412
N  N47  1  0.68080000  0.69320000  0.14390000  1.0 0.0398661359
N  N48  1  0.69320000  0.68080000  0.85610000  1.0 0.0398661359
O  O1  1  0.29140000  0.47450000  0.15730000  1.0 -0.4821306479
O  O2  1  0.52550000  0.81690000  0.49063000  1.0 -0.4821306479
O  O3  1  0.18310000  0.70860000  0.82397000  1.0 -0.4821306479
O  O4  1  0.81690000  0.52550000  0.50937000  1.0 -0.4821306479
O  O5  1  0.70860000  0.18310000  0.17603000  1.0 -0.4821306479
O  O6  1  0.47450000  0.29140000  0.84270000  1.0 -0.4821306479
O  O7  1  0.36590000  0.53690000  0.98440000  1.0 -0.4495843636
O  O8  1  0.46310000  0.82900000  0.31773000  1.0 -0.4495843636
O  O9  1  0.17100000  0.63410000  0.65107000  1.0 -0.4495843636
O  O10  1  0.82900000  0.46310000  0.68227000  1.0 -0.4495843636
O  O11  1  0.63410000  0.17100000  0.34893000  1.0 -0.4495843636
O  O12  1  0.53690000  0.36590000  0.01560000  1.0 -0.4495843636
O  O13  1  0.30530000  0.37810000  0.12210000  1.0 -0.5179136811
O  O14  1  0.62190000  0.92720000  0.45543000  1.0 -0.5179136811
O  O15  1  0.07280000  0.69470000  0.78877000  1.0 -0.5179136811
O  O16  1  0.92720000  0.62190000  0.54457000  1.0 -0.5179136811
O  O17  1  0.69470000  0.07280000  0.21123000  1.0 -0.5179136811
O  O18  1  0.37810000  0.30530000  0.87790000  1.0 -0.5179136811
O  O19  1  0.37150000  0.43710000  0.94000000  1.0 -0.5293860645
O  O20  1  0.56290000  0.93440000  0.27333000  1.0 -0.5293860645
O  O21  1  0.06560000  0.62850000  0.60667000  1.0 -0.5293860645
O  O22  1  0.93440000  0.56290000  0.72667000  1.0 -0.5293860645
O  O23  1  0.62850000  0.06560000  0.39333000  1.0 -0.5293860645
O  O24  1  0.43710000  0.37150000  0.06000000  1.0 -0.5293860645
O  O25  1  0.35280000  0.66950000  0.02840000  1.0 -0.4634834241
O  O26  1  0.33050000  0.68330000  0.36173000  1.0 -0.4634834241
O  O27  1  0.31670000  0.64720000  0.69507000  1.0 -0.4634834241
O  O28  1  0.68330000  0.33050000  0.63827000  1.0 -0.4634834241
O  O29  1  0.64720000  0.31670000  0.30493000  1.0 -0.4634834241
O  O30  1  0.66950000  0.35280000  0.97160000  1.0 -0.4634834241
O  O31  1  0.23900000  0.54320000  0.99430000  1.0 -0.4398311413
O  O32  1  0.45680000  0.69580000  0.32763000  1.0 -0.4398311413
O  O33  1  0.30420000  0.76100000  0.66097000  1.0 -0.4398311413
O  O34  1  0.69580000  0.45680000  0.67237000  1.0 -0.4398311413
O  O35  1  0.76100000  0.30420000  0.33903000  1.0 -0.4398311413
O  O36  1  0.54320000  0.23900000  0.00570000  1.0 -0.4398311413
O  O37  1  0.31710000  0.71280000  0.89950000  1.0 -0.4398311413
O  O38  1  0.28720000  0.60430000  0.23283000  1.0 -0.4398311413
O  O39  1  0.39570000  0.68290000  0.56617000  1.0 -0.4398311413
O  O40  1  0.60430000  0.28720000  0.76717000  1.0 -0.4398311413
O  O41  1  0.68290000  0.39570000  0.43383000  1.0 -0.4398311413
O  O42  1  0.71280000  0.31710000  0.10050000  1.0 -0.4398311413
O  O43  1  0.20540000  0.58600000  0.85730000  1.0 -0.4495843636
O  O44  1  0.41400000  0.61940000  0.19063000  1.0 -0.4495843636
O  O45  1  0.38060000  0.79460000  0.52397000  1.0 -0.4495843636
O  O46  1  0.61940000  0.41400000  0.80937000  1.0 -0.4495843636
O  O47  1  0.79460000  0.38060000  0.47603000  1.0 -0.4495843636
O  O48  1  0.58600000  0.20540000  0.14270000  1.0 -0.4495843636
O  O49  1  0.29270000  0.24280000  0.07410000  1.0 -0.5293860645
O  O50  1  0.75720000  0.04990000  0.40743000  1.0 -0.5293860645
O  O51  1  0.95010000  0.70730000  0.74077000  1.0 -0.5293860645
O  O52  1  0.04990000  0.75720000  0.59257000  1.0 -0.5293860645
O  O53  1  0.70730000  0.95010000  0.25923000  1.0 -0.5293860645
O  O54  1  0.24280000  0.29270000  0.92590000  1.0 -0.5293860645
O  O55  1  0.18980000  0.14060000  0.07820000  1.0 -0.501320018
O  O56  1  0.85940000  0.04920000  0.41153000  1.0 -0.501320018
O  O57  1  0.95080000  0.81020000  0.74487000  1.0 -0.501320018
O  O58  1  0.04920000  0.85940000  0.58847000  1.0 -0.501320018
O  O59  1  0.81020000  0.95080000  0.25513000  1.0 -0.501320018
O  O60  1  0.14060000  0.18980000  0.92180000  1.0 -0.501320018
O  O61  1  0.12780000  0.04220000  0.89820000  1.0 -0.5144136112
O  O62  1  0.95780000  0.08560000  0.23153000  1.0 -0.5144136112
O  O63  1  0.91440000  0.87220000  0.56487000  1.0 -0.5179136811
O  O64  1  0.08560000  0.95780000  0.76847000  1.0 -0.5144136112
O  O65  1  0.87220000  0.91440000  0.43513000  1.0 -0.5179136811
O  O66  1  0.04220000  0.12780000  0.10180000  1.0 -0.5144136112
O  O67  1  0.00730000  0.04400000  0.89580000  1.0 -0.5179136811
O  O68  1  0.95600000  0.96330000  0.22913000  1.0 -0.5179136811
O  O69  1  0.03670000  0.99270000  0.56247000  1.0 -0.5179136811
O  O70  1  0.96330000  0.95600000  0.77087000  1.0 -0.5179136811
O  O71  1  0.99270000  0.03670000  0.43753000  1.0 -0.5179136811
O  O72  1  0.04400000  0.00730000  0.10420000  1.0 -0.5179136811
