# DDEC6 charges by PACMAN v1.1 (https://github.com/mtap-research/PACMAN-charge/)
data_SALLAT_FSR_pacman
_symmetry_space_group_name_H-M   'P 1'
_cell_length_a   8.84191000
_cell_length_b   8.84191000
_cell_length_c   13.11900000
_cell_angle_alpha   64.24310000
_cell_angle_beta   115.75700000
_cell_angle_gamma   125.00400000
_symmetry_Int_Tables_number   1
_chemical_formula_structural   CdH4C8(N3O)2
_chemical_formula_sum   'Cd2 H8 C16 N12 O4'
_cell_volume   732.39002370
_cell_formula_units_Z   2
loop_
 _symmetry_equiv_pos_site_id
 _symmetry_equiv_pos_as_xyz
  1  'x, y, z'
loop_
 _atom_site_type_symbol
 _atom_site_label
 _atom_site_symmetry_multiplicity
 _atom_site_fract_x
 _atom_site_fract_y
 _atom_site_fract_z
 _atom_site_occupancy
 _atom_site_charge
Cd  Cd1  1  0.57459000  0.57459000  0.75000000  1.0 0.9967059983
Cd  Cd2  1  0.42541000  0.42541000  0.25000000  1.0 0.9967059983
H  H1  1  0.50930000  0.87950000  0.10490000  1.0 0.2993353871
H  H2  1  0.12050000  0.49070000  0.60490000  1.0 0.2993353871
H  H3  1  0.49070000  0.12050000  0.89510000  1.0 0.2993353871
H  H4  1  0.87950000  0.50930000  0.39510000  1.0 0.2993353871
H  H5  1  0.44420000  0.99080000  0.11820000  1.0 0.2806425882
H  H6  1  0.00920000  0.55580000  0.61820000  1.0 0.2806425882
H  H7  1  0.55580000  0.00920000  0.88180000  1.0 0.2806425882
H  H8  1  0.99080000  0.44420000  0.38180000  1.0 0.2806425882
C  C1  1  0.49970000  0.81950000  0.26090000  1.0 0.5334195984
C  C2  1  0.18050000  0.50030000  0.76090000  1.0 0.5334195984
C  C3  1  0.50030000  0.18050000  0.73910000  1.0 0.5334195984
C  C4  1  0.81950000  0.49970000  0.23910000  1.0 0.5334195984
C  C5  1  0.45630000  0.86830000  0.33200000  1.0 -0.307598445
C  C6  1  0.13170000  0.54370000  0.83200000  1.0 -0.307598445
C  C7  1  0.54370000  0.13170000  0.66800000  1.0 -0.307598445
C  C8  1  0.86830000  0.45630000  0.16800000  1.0 -0.307598445
C  C9  1  0.46950000  0.77010000  0.45060000  1.0 0.3436041368
C  C10  1  0.22990000  0.53050000  0.95060000  1.0 0.3436041368
C  C11  1  0.53050000  0.22990000  0.54940000  1.0 0.3436041368
C  C12  1  0.77010000  0.46950000  0.04940000  1.0 0.3436041368
C  C13  1  0.40720000  0.01420000  0.28860000  1.0 0.3258769704
C  C14  1  0.98580000  0.59280000  0.78860000  1.0 0.3258769704
C  C15  1  0.59280000  0.98580000  0.71140000  1.0 0.3258769704
C  C16  1  0.01420000  0.40720000  0.21140000  1.0 0.3258769704
N  N1  1  0.48240000  0.90680000  0.14820000  1.0 -0.6112704831
N  N2  1  0.09320000  0.51760000  0.64820000  1.0 -0.6112704831
N  N3  1  0.51760000  0.09320000  0.85180000  1.0 -0.6112704831
N  N4  1  0.90680000  0.48240000  0.35180000  1.0 -0.6112704831
N  N5  1  0.48110000  0.69170000  0.54770000  1.0 -0.4290266516
N  N6  1  0.30830000  0.51890000  0.04770000  1.0 -0.4290266516
N  N7  1  0.51890000  0.30830000  0.45230000  1.0 -0.4290266516
N  N8  1  0.69170000  0.48110000  0.95230000  1.0 -0.4290266516
N  N9  1  0.36570000  0.13290000  0.25270000  1.0 -0.423358004
N  N10  1  0.86710000  0.63430000  0.75270000  1.0 -0.423358004
N  N11  1  0.63430000  0.86710000  0.74730000  1.0 -0.423358004
N  N12  1  0.13290000  0.36570000  0.24730000  1.0 -0.423358004
O  O1  1  0.55554000  0.69626000  0.30599000  1.0 -0.5099780964
O  O2  1  0.30374000  0.44446000  0.80599000  1.0 -0.5099780964
O  O3  1  0.44446000  0.30374000  0.69401000  1.0 -0.5099780964
O  O4  1  0.69626000  0.55554000  0.19401000  1.0 -0.5099780964
