# DDEC6 charges by PACMAN v1.1 (https://github.com/mtap-research/PACMAN-charge/)
data_SALRON_FSR_pacman
_symmetry_space_group_name_H-M   'P 1'
_cell_length_a   8.71356000
_cell_length_b   8.71356000
_cell_length_c   12.93700000
_cell_angle_alpha   64.79290000
_cell_angle_beta   115.20700000
_cell_angle_gamma   123.88500000
_symmetry_Int_Tables_number   1
_chemical_formula_structural   MnH4C8(N3O)2
_chemical_formula_sum   'Mn2 H8 C16 N12 O4'
_cell_volume   714.18143347
_cell_formula_units_Z   2
loop_
 _symmetry_equiv_pos_site_id
 _symmetry_equiv_pos_as_xyz
  1  'x, y, z'
loop_
 _atom_site_type_symbol
 _atom_site_label
 _atom_site_symmetry_multiplicity
 _atom_site_fract_x
 _atom_site_fract_y
 _atom_site_fract_z
 _atom_site_occupancy
 _atom_site_charge
Mn  Mn1  1  0.92244000  0.92244000  0.25000000  1.0 0.9901919514
Mn  Mn2  1  0.07756000  0.07756000  0.75000000  1.0 0.9901919514
H  H1  1  0.50600000  0.05800000  0.61700000  1.0 0.2926154584
H  H2  1  0.94200000  0.49400000  0.11700000  1.0 0.2926154584
H  H3  1  0.49400000  0.94200000  0.38300000  1.0 0.2926154584
H  H4  1  0.05800000  0.50600000  0.88300000  1.0 0.2926154584
H  H5  1  0.63000000  0.00000000  0.60500000  1.0 0.303895019
H  H6  1  0.00000000  0.37000000  0.10500000  1.0 0.303895019
H  H7  1  0.37000000  0.00000000  0.39500000  1.0 0.303895019
H  H8  1  0.00000000  0.63000000  0.89500000  1.0 0.303895019
C  C1  1  0.69044000  0.01416000  0.75790000  1.0 0.5331498235
C  C2  1  0.98584000  0.30956000  0.25790000  1.0 0.5331498235
C  C3  1  0.30956000  0.98584000  0.24210000  1.0 0.5331498235
C  C4  1  0.01416000  0.69044000  0.74210000  1.0 0.5331498235
C  C5  1  0.63660000  0.04780000  0.83340000  1.0 -0.3132630736
C  C6  1  0.95220000  0.36340000  0.33340000  1.0 -0.3132630736
C  C7  1  0.36340000  0.95220000  0.16660000  1.0 -0.3132630736
C  C8  1  0.04780000  0.63660000  0.66666667  1.0 -0.3132630736
C  C9  1  0.73211000  0.02729000  0.95340000  1.0 0.3335013762
C  C10  1  0.97271000  0.26789000  0.45340000  1.0 0.3335013762
C  C11  1  0.26789000  0.97271000  0.04660000  1.0 0.3335013762
C  C12  1  0.02729000  0.73211000  0.54660000  1.0 0.3335013762
C  C13  1  0.48669000  0.09531000  0.79140000  1.0 0.3182203695
C  C14  1  0.90469000  0.51331000  0.29140000  1.0 0.3182203695
C  C15  1  0.51331000  0.90469000  0.20860000  1.0 0.3182203695
C  C16  1  0.09531000  0.48669000  0.70860000  1.0 0.3182203695
N  N1  1  0.60290000  0.03370000  0.64500000  1.0 -0.6046679914
N  N2  1  0.96630000  0.39710000  0.14500000  1.0 -0.6046679914
N  N3  1  0.39710000  0.96630000  0.35500000  1.0 -0.6046679914
N  N4  1  0.03370000  0.60290000  0.85500000  1.0 -0.6046679914
N  N5  1  0.80851000  0.00989000  0.05180000  1.0 -0.4272912741
N  N6  1  0.99011000  0.19149000  0.55180000  1.0 -0.4272912741
N  N7  1  0.19149000  0.99011000  0.94820000  1.0 -0.4272912741
N  N8  1  0.00989000  0.80851000  0.44820000  1.0 -0.4272912741
N  N9  1  0.36429000  0.13491000  0.75607000  1.0 -0.4190247506
N  N10  1  0.86509000  0.63571000  0.25607000  1.0 -0.4190247506
N  N11  1  0.63571000  0.86509000  0.24393000  1.0 -0.4190247506
N  N12  1  0.13491000  0.36429000  0.74393000  1.0 -0.4190247506
O  O1  1  0.82031000  0.96309000  0.80019000  1.0 -0.5122309327
O  O2  1  0.03691000  0.17969000  0.30019000  1.0 -0.5122309327
O  O3  1  0.17969000  0.03691000  0.19981000  1.0 -0.5122309327
O  O4  1  0.96309000  0.82031000  0.69981000  1.0 -0.5122309327
