# DDEC6 charges by PACMAN v1.1 (https://github.com/mtap-research/PACMAN-charge/)
data_SALSIK_ASR_pacman
_symmetry_space_group_name_H-M   'P 1'
_cell_length_a   12.49220000
_cell_length_b   7.17100000
_cell_length_c   20.53830000
_cell_angle_alpha   90.00000000
_cell_angle_beta   121.09900000
_cell_angle_gamma   90.00000000
_symmetry_Int_Tables_number   1
_chemical_formula_structural   Na2H6(CO)9
_chemical_formula_sum   'Na8 H24 C36 O36'
_cell_volume   1575.42222025
_cell_formula_units_Z   4
loop_
 _symmetry_equiv_pos_site_id
 _symmetry_equiv_pos_as_xyz
  1  'x, y, z'
loop_
 _atom_site_type_symbol
 _atom_site_label
 _atom_site_symmetry_multiplicity
 _atom_site_fract_x
 _atom_site_fract_y
 _atom_site_fract_z
 _atom_site_occupancy
 _atom_site_charge
Na  Na1  1  0.41490000  0.34735000  0.02156000  1.0 0.8397959605
Na  Na2  1  0.50362000  0.06560000  0.23445000  1.0 0.8632982358
Na  Na3  1  0.58510000  0.84735000  0.47844000  1.0 0.8397959605
Na  Na4  1  0.49638000  0.56560000  0.26555000  1.0 0.8632982358
Na  Na5  1  0.58510000  0.65265000  0.97844000  1.0 0.8397959605
Na  Na6  1  0.49638000  0.93440000  0.76555000  1.0 0.8632982358
Na  Na7  1  0.41490000  0.15265000  0.52156000  1.0 0.8397959605
Na  Na8  1  0.50362000  0.43440000  0.73445000  1.0 0.8632982358
H  H1  1  0.02270000  0.20690000  0.15460000  1.0 0.1409611016
H  H2  1  0.29550000  0.33640000  0.11430000  1.0 0.1193806486
H  H3  1  0.94750000  0.24430000  0.94020000  1.0 0.1409611016
H  H4  1  0.13770000  0.35490000  0.86850000  1.0 0.1409611016
H  H5  1  0.02620000  0.41340000  0.87860000  1.0 0.1193806486
H  H6  1  0.05950000  0.20200000  0.88030000  1.0 0.1282834917
H  H7  1  0.97730000  0.70690000  0.34540000  1.0 0.1409611016
H  H8  1  0.70450000  0.83640000  0.38570000  1.0 0.1193806486
H  H9  1  0.05250000  0.74430000  0.55980000  1.0 0.1409611016
H  H10  1  0.86230000  0.85490000  0.63150000  1.0 0.1409611016
H  H11  1  0.97380000  0.91340000  0.62140000  1.0 0.1193806486
H  H12  1  0.94050000  0.70200000  0.61970000  1.0 0.1282834917
H  H13  1  0.97730000  0.79310000  0.84540000  1.0 0.1409611016
H  H14  1  0.70450000  0.66360000  0.88570000  1.0 0.1193806486
H  H15  1  0.05250000  0.75570000  0.05980000  1.0 0.1409611016
H  H16  1  0.86230000  0.64510000  0.13150000  1.0 0.1409611016
H  H17  1  0.97380000  0.58660000  0.12140000  1.0 0.1193806486
H  H18  1  0.94050000  0.79800000  0.11970000  1.0 0.1282834917
H  H19  1  0.02270000  0.29310000  0.65460000  1.0 0.1409611016
H  H20  1  0.29550000  0.16360000  0.61430000  1.0 0.1193806486
H  H21  1  0.94750000  0.25570000  0.44020000  1.0 0.1409611016
H  H22  1  0.13770000  0.14510000  0.36850000  1.0 0.1409611016
H  H23  1  0.02620000  0.08660000  0.37860000  1.0 0.1193806486
H  H24  1  0.05950000  0.29800000  0.38030000  1.0 0.1282834917
C  C1  1  0.26540000  0.28430000  0.23140000  1.0 0.5927913621
C  C2  1  0.17368000  0.27360000  0.14798000  1.0 -0.005563239
C  C3  1  0.04940000  0.22930000  0.12060000  1.0 -0.0921853647
C  C4  1  0.12751000  0.29900000  0.01931000  1.0 0.2227017417
C  C5  1  0.83030000  0.17070000  0.01500000  1.0 0.5244762436
C  C6  1  0.21230000  0.30770000  0.09660000  1.0 -0.1968657128
C  C7  1  0.96507000  0.21830000  0.04367000  1.0 0.0158851397
C  C8  1  0.00410000  0.25260000  0.99230000  1.0 -0.1853720635
C  C9  1  0.09310000  0.32590000  0.89380000  1.0 -0.145746471
C  C10  1  0.73460000  0.78430000  0.26860000  1.0 0.5927913621
C  C11  1  0.82632000  0.77360000  0.35202000  1.0 -0.005563239
C  C12  1  0.95060000  0.72930000  0.37940000  1.0 -0.0921853647
C  C13  1  0.87249000  0.79900000  0.48069000  1.0 0.2227017417
C  C14  1  0.16970000  0.67070000  0.48500000  1.0 0.5244762436
C  C15  1  0.78770000  0.80770000  0.40340000  1.0 -0.1968657128
C  C16  1  0.03493000  0.71830000  0.45633000  1.0 0.0158851397
C  C17  1  0.99590000  0.75260000  0.50770000  1.0 -0.1853720635
C  C18  1  0.90690000  0.82590000  0.60620000  1.0 -0.145746471
C  C19  1  0.73460000  0.71570000  0.76860000  1.0 0.5927913621
C  C20  1  0.82632000  0.72640000  0.85202000  1.0 -0.005563239
C  C21  1  0.95060000  0.77070000  0.87940000  1.0 -0.0921853647
C  C22  1  0.87249000  0.70100000  0.98069000  1.0 0.2227017417
C  C23  1  0.16970000  0.82930000  0.98500000  1.0 0.5244762436
C  C24  1  0.78770000  0.69230000  0.90340000  1.0 -0.1968657128
C  C25  1  0.03493000  0.78170000  0.95633000  1.0 0.0158851397
C  C26  1  0.99590000  0.74740000  0.00770000  1.0 -0.1853720635
C  C27  1  0.90690000  0.67410000  0.10620000  1.0 -0.145746471
C  C28  1  0.26540000  0.21570000  0.73140000  1.0 0.5927913621
C  C29  1  0.17368000  0.22640000  0.64798000  1.0 -0.005563239
C  C30  1  0.04940000  0.27070000  0.62060000  1.0 -0.0921853647
C  C31  1  0.12751000  0.20100000  0.51931000  1.0 0.2227017417
C  C32  1  0.83030000  0.32930000  0.51500000  1.0 0.5244762436
C  C33  1  0.21230000  0.19230000  0.59660000  1.0 -0.1968657128
C  C34  1  0.96507000  0.28170000  0.54367000  1.0 0.0158851397
C  C35  1  0.00410000  0.24740000  0.49230000  1.0 -0.1853720635
C  C36  1  0.09310000  0.17410000  0.39380000  1.0 -0.145746471
O  O1  1  0.22373000  0.28050000  0.27586000  1.0 -0.4466008186
O  O2  1  0.44725000  0.07380000  0.09953000  1.0 -0.3676871672
O  O3  1  0.75357000  0.17390000  0.94439000  1.0 -0.3435396567
O  O4  1  0.17617000  0.33670000  0.97396000  1.0 -0.2163214512
O  O5  1  0.79955000  0.13200000  0.06319000  1.0 -0.4316618606
O  O6  1  0.38097000  0.29300000  0.25416000  1.0 -0.5959798559
O  O7  1  0.36754000  0.60790000  0.93464000  1.0 -0.4466008186
O  O8  1  0.65419000  0.31990000  0.28839000  1.0 -0.2949047848
O  O9  1  0.44930000  0.57630000  0.11810000  1.0 -0.0791559793
O  O10  1  0.77627000  0.78050000  0.22414000  1.0 -0.4466008186
O  O11  1  0.55275000  0.57380000  0.40047000  1.0 -0.3676871672
O  O12  1  0.24643000  0.67390000  0.55561000  1.0 -0.3435396567
O  O13  1  0.82383000  0.83670000  0.52604000  1.0 -0.2163214512
O  O14  1  0.20045000  0.63200000  0.43681000  1.0 -0.4316618606
O  O15  1  0.61903000  0.79300000  0.24584000  1.0 -0.5959798559
O  O16  1  0.63246000  0.10790000  0.56536000  1.0 -0.4466008186
O  O17  1  0.34581000  0.81990000  0.21161000  1.0 -0.296287851
O  O18  1  0.55070000  0.07630000  0.38190000  1.0 -0.0791559793
O  O19  1  0.77627000  0.71950000  0.72414000  1.0 -0.4466008186
O  O20  1  0.55275000  0.92620000  0.90047000  1.0 -0.3676871672
O  O21  1  0.24643000  0.82610000  0.05561000  1.0 -0.3435396567
O  O22  1  0.82383000  0.66330000  0.02604000  1.0 -0.2163214512
O  O23  1  0.20045000  0.86800000  0.93681000  1.0 -0.4316618606
O  O24  1  0.61903000  0.70700000  0.74584000  1.0 -0.5959798559
O  O25  1  0.63246000  0.39210000  0.06536000  1.0 -0.4466008186
O  O26  1  0.34581000  0.68010000  0.71161000  1.0 -0.296287851
O  O27  1  0.55070000  0.42370000  0.88190000  1.0 -0.0791559793
O  O28  1  0.22373000  0.21950000  0.77586000  1.0 -0.4466008186
O  O29  1  0.44725000  0.42620000  0.59953000  1.0 -0.3676871672
O  O30  1  0.75357000  0.32610000  0.44439000  1.0 -0.3435396567
O  O31  1  0.17617000  0.16330000  0.47396000  1.0 -0.2163214512
O  O32  1  0.79955000  0.36800000  0.56319000  1.0 -0.4316618606
O  O33  1  0.38097000  0.20700000  0.75416000  1.0 -0.5959798559
O  O34  1  0.36754000  0.89210000  0.43464000  1.0 -0.4466008186
O  O35  1  0.65419000  0.18010000  0.78839000  1.0 -0.2949047848
O  O36  1  0.44930000  0.92370000  0.61810000  1.0 -0.0791559793
