# DDEC6 charges by PACMAN v1.1 (https://github.com/mtap-research/PACMAN-charge/)
data_SALXEL_ASR_pacman
_symmetry_space_group_name_H-M   'P 1'
_cell_length_a   24.99190000
_cell_length_b   24.99190000
_cell_length_c   24.76880000
_cell_angle_alpha   90.00000000
_cell_angle_beta   90.00000000
_cell_angle_gamma   120.00000000
_symmetry_Int_Tables_number   1
_chemical_formula_structural   Zr3(C6O7)2
_chemical_formula_sum   'Zr36 C144 O168'
_cell_volume   13397.82025459
_cell_formula_units_Z   12
loop_
 _symmetry_equiv_pos_site_id
 _symmetry_equiv_pos_as_xyz
  1  'x, y, z'
loop_
 _atom_site_type_symbol
 _atom_site_label
 _atom_site_symmetry_multiplicity
 _atom_site_fract_x
 _atom_site_fract_y
 _atom_site_fract_z
 _atom_site_occupancy
 _atom_site_charge
Zr  Zr1  1  0.38893000  0.46909000  0.47478000  1.0 2.2701964836
Zr  Zr2  1  0.61107000  0.08016000  0.52522000  1.0 2.2701964836
Zr  Zr3  1  0.61107000  0.53091000  0.97478000  1.0 2.2701964836
Zr  Zr4  1  0.08016000  0.61107000  0.47478000  1.0 2.2701964836
Zr  Zr5  1  0.08016000  0.46909000  0.02522000  1.0 2.2701964836
Zr  Zr6  1  0.53091000  0.61107000  0.02522000  1.0 2.2701964836
Zr  Zr7  1  0.53091000  0.91984000  0.47478000  1.0 2.2701964836
Zr  Zr8  1  0.46909000  0.08016000  0.97478000  1.0 2.2701964836
Zr  Zr9  1  0.46909000  0.38893000  0.52522000  1.0 2.2701964836
Zr  Zr10  1  0.91984000  0.53091000  0.52522000  1.0 2.2701964836
Zr  Zr11  1  0.91984000  0.38893000  0.97478000  1.0 2.2701964836
Zr  Zr12  1  0.38893000  0.91984000  0.02522000  1.0 2.2701964836
Zr  Zr13  1  0.61107000  0.53091000  0.52522000  1.0 2.2701964836
Zr  Zr14  1  0.38893000  0.91984000  0.47478000  1.0 2.2701964836
Zr  Zr15  1  0.38893000  0.46909000  0.02522000  1.0 2.2701964836
Zr  Zr16  1  0.91984000  0.38893000  0.52522000  1.0 2.2701964836
Zr  Zr17  1  0.91984000  0.53091000  0.97478000  1.0 2.2701964836
Zr  Zr18  1  0.46909000  0.38893000  0.97478000  1.0 2.2701964836
Zr  Zr19  1  0.46909000  0.08016000  0.52522000  1.0 2.2701964836
Zr  Zr20  1  0.53091000  0.91984000  0.02522000  1.0 2.2701964836
Zr  Zr21  1  0.53091000  0.61107000  0.47478000  1.0 2.2701964836
Zr  Zr22  1  0.08016000  0.46909000  0.47478000  1.0 2.2701964836
Zr  Zr23  1  0.08016000  0.61107000  0.02522000  1.0 2.2701964836
Zr  Zr24  1  0.61107000  0.08016000  0.97478000  1.0 2.2701964836
Zr  Zr25  1  0.48145000  0.51855000  0.59274000  1.0 2.1485517682
Zr  Zr26  1  0.51856000  0.03711000  0.40726000  1.0 2.1403919519
Zr  Zr27  1  0.51856000  0.48145000  0.09274000  1.0 2.1403919519
Zr  Zr28  1  0.03711000  0.51855000  0.59274000  1.0 2.1485517682
Zr  Zr29  1  0.03711000  0.51855000  0.90726000  1.0 2.1485517682
Zr  Zr30  1  0.48145000  0.51855000  0.90726000  1.0 2.1485517682
Zr  Zr31  1  0.48145000  0.96289000  0.59274000  1.0 2.1403919519
Zr  Zr32  1  0.51856000  0.03711000  0.09274000  1.0 2.1403919519
Zr  Zr33  1  0.51856000  0.48145000  0.40726000  1.0 2.1403919519
Zr  Zr34  1  0.96289000  0.48145000  0.40726000  1.0 2.1403919519
Zr  Zr35  1  0.96289000  0.48145000  0.09274000  1.0 2.1403919519
Zr  Zr36  1  0.48145000  0.96289000  0.90726000  1.0 2.1403919519
C  C1  1  0.33820000  0.48240000  0.58890000  1.0 0.5674146549
C  C2  1  0.66180000  0.14420000  0.41110000  1.0 0.5674146549
C  C3  1  0.66180000  0.51760000  0.08890000  1.0 0.5674146549
C  C4  1  0.14420000  0.66180000  0.58890000  1.0 0.5674146549
C  C5  1  0.14420000  0.48240000  0.91110000  1.0 0.5674146549
C  C6  1  0.51760000  0.66180000  0.91110000  1.0 0.5674146549
C  C7  1  0.51760000  0.85580000  0.58890000  1.0 0.5674146549
C  C8  1  0.48240000  0.14420000  0.08890000  1.0 0.5674146549
C  C9  1  0.48240000  0.33820000  0.41110000  1.0 0.5674146549
C  C10  1  0.85580000  0.51760000  0.41110000  1.0 0.5674146549
C  C11  1  0.85580000  0.33820000  0.08890000  1.0 0.5674146549
C  C12  1  0.33820000  0.85580000  0.91110000  1.0 0.5674146549
C  C13  1  0.66180000  0.51760000  0.41110000  1.0 0.5674146549
C  C14  1  0.33820000  0.85580000  0.58890000  1.0 0.5674146549
C  C15  1  0.33820000  0.48240000  0.91110000  1.0 0.5674146549
C  C16  1  0.85580000  0.33820000  0.41110000  1.0 0.5674146549
C  C17  1  0.85580000  0.51760000  0.08890000  1.0 0.5674146549
C  C18  1  0.48240000  0.33820000  0.08890000  1.0 0.5674146549
C  C19  1  0.48240000  0.14420000  0.41110000  1.0 0.5674146549
C  C20  1  0.51760000  0.85580000  0.91110000  1.0 0.5674146549
C  C21  1  0.51760000  0.66180000  0.58890000  1.0 0.5674146549
C  C22  1  0.14420000  0.48240000  0.58890000  1.0 0.5674146549
C  C23  1  0.14420000  0.66180000  0.91110000  1.0 0.5674146549
C  C24  1  0.66180000  0.14420000  0.08890000  1.0 0.5674146549
C  C25  1  0.29070000  0.49430000  0.61840000  1.0 0.063138216
C  C26  1  0.70930000  0.20360000  0.38160000  1.0 0.063138216
C  C27  1  0.70930000  0.50570000  0.11840000  1.0 0.063138216
C  C28  1  0.20360000  0.70930000  0.61840000  1.0 0.063138216
C  C29  1  0.20360000  0.49430000  0.88160000  1.0 0.063138216
C  C30  1  0.50570000  0.70930000  0.88160000  1.0 0.063138216
C  C31  1  0.50570000  0.79640000  0.61840000  1.0 0.063138216
C  C32  1  0.49430000  0.20360000  0.11840000  1.0 0.063138216
C  C33  1  0.49430000  0.29070000  0.38160000  1.0 0.063138216
C  C34  1  0.79640000  0.50570000  0.38160000  1.0 0.063138216
C  C35  1  0.79640000  0.29070000  0.11840000  1.0 0.063138216
C  C36  1  0.29070000  0.79640000  0.88160000  1.0 0.063138216
C  C37  1  0.70930000  0.50570000  0.38160000  1.0 0.063138216
C  C38  1  0.29070000  0.79640000  0.61840000  1.0 0.063138216
C  C39  1  0.29070000  0.49430000  0.88160000  1.0 0.063138216
C  C40  1  0.79640000  0.29070000  0.38160000  1.0 0.063138216
C  C41  1  0.79640000  0.50570000  0.11840000  1.0 0.063138216
C  C42  1  0.49430000  0.29070000  0.11840000  1.0 0.063138216
C  C43  1  0.49430000  0.20360000  0.38160000  1.0 0.063138216
C  C44  1  0.50570000  0.79640000  0.88160000  1.0 0.063138216
C  C45  1  0.50570000  0.70930000  0.61840000  1.0 0.063138216
C  C46  1  0.20360000  0.49430000  0.61840000  1.0 0.063138216
C  C47  1  0.20360000  0.70930000  0.88160000  1.0 0.063138216
C  C48  1  0.70930000  0.20360000  0.11840000  1.0 0.063138216
C  C49  1  0.29260000  0.52350000  0.66930000  1.0 -0.0973050096
C  C50  1  0.70740000  0.23090000  0.33070000  1.0 -0.0973050096
C  C51  1  0.70740000  0.47650000  0.16930000  1.0 -0.0973050096
C  C52  1  0.23090000  0.70740000  0.66930000  1.0 -0.0973050096
C  C53  1  0.23090000  0.52350000  0.83070000  1.0 -0.0973050096
C  C54  1  0.47650000  0.70740000  0.83070000  1.0 -0.0973050096
C  C55  1  0.47650000  0.76910000  0.66930000  1.0 -0.0973050096
C  C56  1  0.52350000  0.23090000  0.16930000  1.0 -0.0973050096
C  C57  1  0.52350000  0.29260000  0.33070000  1.0 -0.0973050096
C  C58  1  0.76910000  0.47650000  0.33070000  1.0 -0.0973050096
C  C59  1  0.76910000  0.29260000  0.16930000  1.0 -0.0973050096
C  C60  1  0.29260000  0.76910000  0.83070000  1.0 -0.0973050096
C  C61  1  0.70740000  0.47650000  0.33070000  1.0 -0.0973050096
C  C62  1  0.29260000  0.76910000  0.66930000  1.0 -0.0973050096
C  C63  1  0.29260000  0.52350000  0.83070000  1.0 -0.0973050096
C  C64  1  0.76910000  0.29260000  0.33070000  1.0 -0.0973050096
C  C65  1  0.76910000  0.47650000  0.16930000  1.0 -0.0973050096
C  C66  1  0.52350000  0.29260000  0.16930000  1.0 -0.0973050096
C  C67  1  0.52350000  0.23090000  0.33070000  1.0 -0.0973050096
C  C68  1  0.47650000  0.76910000  0.83070000  1.0 -0.0973050096
C  C69  1  0.47650000  0.70740000  0.66930000  1.0 -0.0973050096
C  C70  1  0.23090000  0.52350000  0.66930000  1.0 -0.0973050096
C  C71  1  0.23090000  0.70740000  0.83070000  1.0 -0.0973050096
C  C72  1  0.70740000  0.23090000  0.16930000  1.0 -0.0973050096
C  C73  1  0.39300000  0.43900000  0.34490000  1.0 0.5336042306
C  C74  1  0.60700000  0.04600000  0.65510000  1.0 0.5336042306
C  C75  1  0.60700000  0.56100000  0.84490000  1.0 0.5336042306
C  C76  1  0.04600000  0.60700000  0.34490000  1.0 0.5336042306
C  C77  1  0.04600000  0.43900000  0.15510000  1.0 0.5336042306
C  C78  1  0.56100000  0.60700000  0.15510000  1.0 0.5336042306
C  C79  1  0.56100000  0.95400000  0.34490000  1.0 0.5336042306
C  C80  1  0.43900000  0.04600000  0.84490000  1.0 0.5336042306
C  C81  1  0.43900000  0.39300000  0.65510000  1.0 0.5336042306
C  C82  1  0.95400000  0.56100000  0.65510000  1.0 0.5336042306
C  C83  1  0.95400000  0.39300000  0.84490000  1.0 0.5336042306
C  C84  1  0.39300000  0.95400000  0.15510000  1.0 0.5336042306
C  C85  1  0.60700000  0.56100000  0.65510000  1.0 0.5336042306
C  C86  1  0.39300000  0.95400000  0.34490000  1.0 0.5336042306
C  C87  1  0.39300000  0.43900000  0.15510000  1.0 0.5336042306
C  C88  1  0.95400000  0.39300000  0.65510000  1.0 0.5336042306
C  C89  1  0.95400000  0.56100000  0.84490000  1.0 0.5336042306
C  C90  1  0.43900000  0.39300000  0.84490000  1.0 0.5336042306
C  C91  1  0.43900000  0.04600000  0.65510000  1.0 0.5336042306
C  C92  1  0.56100000  0.95400000  0.15510000  1.0 0.5336042306
C  C93  1  0.56100000  0.60700000  0.34490000  1.0 0.5336042306
C  C94  1  0.04600000  0.43900000  0.34490000  1.0 0.5336042306
C  C95  1  0.04600000  0.60700000  0.15510000  1.0 0.5336042306
C  C96  1  0.60700000  0.04600000  0.84490000  1.0 0.5336042306
C  C97  1  0.34960000  0.41860000  0.29660000  1.0 0.1311575633
C  C98  1  0.65040000  0.06900000  0.70340000  1.0 0.1311575633
C  C99  1  0.65040000  0.58140000  0.79660000  1.0 0.1311575633
C  C100  1  0.06900000  0.65040000  0.29660000  1.0 0.1311575633
C  C101  1  0.06900000  0.41860000  0.20340000  1.0 0.1311575633
C  C102  1  0.58140000  0.65040000  0.20340000  1.0 0.1311575633
C  C103  1  0.58140000  0.93100000  0.29660000  1.0 0.1311575633
C  C104  1  0.41860000  0.06900000  0.79660000  1.0 0.1311575633
C  C105  1  0.41860000  0.34960000  0.70340000  1.0 0.1311575633
C  C106  1  0.93100000  0.58140000  0.70340000  1.0 0.1311575633
C  C107  1  0.93100000  0.34960000  0.79660000  1.0 0.1311575633
C  C108  1  0.34960000  0.93100000  0.20340000  1.0 0.1311575633
C  C109  1  0.65040000  0.58140000  0.70340000  1.0 0.1311575633
C  C110  1  0.34960000  0.93100000  0.29660000  1.0 0.1311575633
C  C111  1  0.34960000  0.41860000  0.20340000  1.0 0.1311575633
C  C112  1  0.93100000  0.34960000  0.70340000  1.0 0.1311575633
C  C113  1  0.93100000  0.58140000  0.79660000  1.0 0.1311575633
C  C114  1  0.41860000  0.34960000  0.79660000  1.0 0.1311575633
C  C115  1  0.41860000  0.06900000  0.70340000  1.0 0.1311575633
C  C116  1  0.58140000  0.93100000  0.20340000  1.0 0.1311575633
C  C117  1  0.58140000  0.65040000  0.29660000  1.0 0.1311575633
C  C118  1  0.06900000  0.41860000  0.29660000  1.0 0.1311575633
C  C119  1  0.06900000  0.65040000  0.20340000  1.0 0.1311575633
C  C120  1  0.65040000  0.06900000  0.79660000  1.0 0.1311575633
C  C121  1  0.29130000  0.41160000  0.27910000  1.0 -0.0872510352
C  C122  1  0.70870000  0.12030000  0.72090000  1.0 -0.0872510352
C  C123  1  0.70870000  0.58840000  0.77910000  1.0 -0.0872510352
C  C124  1  0.12030000  0.70870000  0.27910000  1.0 -0.0872510352
C  C125  1  0.12030000  0.41160000  0.22090000  1.0 -0.0872510352
C  C126  1  0.58840000  0.70870000  0.22090000  1.0 -0.0872510352
C  C127  1  0.58840000  0.87970000  0.27910000  1.0 -0.0872510352
C  C128  1  0.41160000  0.12030000  0.77910000  1.0 -0.0872510352
C  C129  1  0.41160000  0.29130000  0.72090000  1.0 -0.0872510352
C  C130  1  0.87970000  0.58840000  0.72090000  1.0 -0.0872510352
C  C131  1  0.87970000  0.29130000  0.77910000  1.0 -0.0872510352
C  C132  1  0.29130000  0.87970000  0.22090000  1.0 -0.0872510352
C  C133  1  0.70870000  0.58840000  0.72090000  1.0 -0.0872510352
C  C134  1  0.29130000  0.87970000  0.27910000  1.0 -0.0872510352
C  C135  1  0.29130000  0.41160000  0.22090000  1.0 -0.0872510352
C  C136  1  0.87970000  0.29130000  0.72090000  1.0 -0.0872510352
C  C137  1  0.87970000  0.58840000  0.77910000  1.0 -0.0872510352
C  C138  1  0.41160000  0.29130000  0.77910000  1.0 -0.0872510352
C  C139  1  0.41160000  0.12030000  0.72090000  1.0 -0.0872510352
C  C140  1  0.58840000  0.87970000  0.22090000  1.0 -0.0872510352
C  C141  1  0.58840000  0.70870000  0.27910000  1.0 -0.0872510352
C  C142  1  0.12030000  0.41160000  0.27910000  1.0 -0.0872510352
C  C143  1  0.12030000  0.70870000  0.22090000  1.0 -0.0872510352
C  C144  1  0.70870000  0.12030000  0.77910000  1.0 -0.0872510352
O  O1  1  0.43040000  0.44380000  0.54200000  1.0 -0.9758857868
O  O2  1  0.56960000  0.01340000  0.45800000  1.0 -0.9758857868
O  O3  1  0.56960000  0.55620000  0.04200000  1.0 -0.9758857868
O  O4  1  0.01340000  0.56960000  0.54200000  1.0 -0.9758857868
O  O5  1  0.01340000  0.44380000  0.95800000  1.0 -0.9758857868
O  O6  1  0.55620000  0.56960000  0.95800000  1.0 -0.9758857868
O  O7  1  0.55620000  0.98660000  0.54200000  1.0 -0.9758857868
O  O8  1  0.44380000  0.01340000  0.04200000  1.0 -0.9758857868
O  O9  1  0.44380000  0.43040000  0.45800000  1.0 -0.9758857868
O  O10  1  0.98660000  0.55620000  0.45800000  1.0 -0.9758857868
O  O11  1  0.98660000  0.43040000  0.04200000  1.0 -0.9758857868
O  O12  1  0.43040000  0.98660000  0.95800000  1.0 -0.9758857868
O  O13  1  0.56960000  0.55620000  0.45800000  1.0 -0.9758857868
O  O14  1  0.43040000  0.98660000  0.54200000  1.0 -0.9758857868
O  O15  1  0.43040000  0.44380000  0.95800000  1.0 -0.9714131753
O  O16  1  0.98660000  0.43040000  0.45800000  1.0 -0.9758857868
O  O17  1  0.98660000  0.55620000  0.04200000  1.0 -0.9758857868
O  O18  1  0.44380000  0.43040000  0.04200000  1.0 -0.9758857868
O  O19  1  0.44380000  0.01340000  0.45800000  1.0 -0.9758857868
O  O20  1  0.55620000  0.98660000  0.95800000  1.0 -0.9758857868
O  O21  1  0.55620000  0.56960000  0.54200000  1.0 -0.9758857868
O  O22  1  0.01340000  0.44380000  0.54200000  1.0 -0.9758857868
O  O23  1  0.01340000  0.56960000  0.95800000  1.0 -0.9758857868
O  O24  1  0.56960000  0.01340000  0.04200000  1.0 -0.9758857868
O  O25  1  0.46970000  0.53030000  0.43420000  1.0 -0.9714131753
O  O26  1  0.53030000  0.06060000  0.56580000  1.0 -0.9714131753
O  O27  1  0.53030000  0.46970000  0.93420000  1.0 -0.9714131753
O  O28  1  0.06060000  0.53030000  0.43420000  1.0 -0.9714131753
O  O29  1  0.06060000  0.53030000  0.06580000  1.0 -0.9714131753
O  O30  1  0.46970000  0.53030000  0.06580000  1.0 -0.9714131753
O  O31  1  0.46970000  0.93940000  0.43420000  1.0 -0.9714131753
O  O32  1  0.53030000  0.06060000  0.93420000  1.0 -0.9714131753
O  O33  1  0.53030000  0.46970000  0.56580000  1.0 -0.9714131753
O  O34  1  0.93940000  0.46970000  0.56580000  1.0 -0.9714131753
O  O35  1  0.93940000  0.46970000  0.93420000  1.0 -0.9714131753
O  O36  1  0.46970000  0.93940000  0.06580000  1.0 -0.9714131753
O  O37  1  0.45520000  0.54480000  0.51760000  1.0 -0.9955400764
O  O38  1  0.54480000  0.08960000  0.48240000  1.0 -0.9946837365
O  O39  1  0.54480000  0.45520000  0.01760000  1.0 -0.9946837365
O  O40  1  0.08960000  0.54480000  0.51760000  1.0 -0.9955400764
O  O41  1  0.08960000  0.54480000  0.98240000  1.0 -0.9955400764
O  O42  1  0.45520000  0.54480000  0.98240000  1.0 -0.9955400764
O  O43  1  0.45520000  0.91040000  0.51760000  1.0 -0.9955400764
O  O44  1  0.54480000  0.08960000  0.01760000  1.0 -0.9946837365
O  O45  1  0.54480000  0.45520000  0.48240000  1.0 -0.9955400764
O  O46  1  0.91040000  0.45520000  0.48240000  1.0 -0.9955400764
O  O47  1  0.91040000  0.45520000  0.01760000  1.0 -0.9946837365
O  O48  1  0.45520000  0.91040000  0.98240000  1.0 -0.9955400764
O  O49  1  0.33160000  0.46350000  0.53860000  1.0 -0.6495394025
O  O50  1  0.66840000  0.13190000  0.46140000  1.0 -0.6495394025
O  O51  1  0.66840000  0.53650000  0.03860000  1.0 -0.6495394025
O  O52  1  0.13190000  0.66840000  0.53860000  1.0 -0.6495394025
O  O53  1  0.13190000  0.46350000  0.96140000  1.0 -0.6495394025
O  O54  1  0.53650000  0.66840000  0.96140000  1.0 -0.6495394025
O  O55  1  0.53650000  0.86810000  0.53860000  1.0 -0.6495394025
O  O56  1  0.46350000  0.13190000  0.03860000  1.0 -0.6495394025
O  O57  1  0.46350000  0.33160000  0.46140000  1.0 -0.6495394025
O  O58  1  0.86810000  0.53650000  0.46140000  1.0 -0.6495394025
O  O59  1  0.86810000  0.33160000  0.03860000  1.0 -0.6495394025
O  O60  1  0.33160000  0.86810000  0.96140000  1.0 -0.6495394025
O  O61  1  0.66840000  0.53650000  0.46140000  1.0 -0.6495394025
O  O62  1  0.33160000  0.86810000  0.53860000  1.0 -0.6495394025
O  O63  1  0.33160000  0.46350000  0.96140000  1.0 -0.6495394025
O  O64  1  0.86810000  0.33160000  0.46140000  1.0 -0.6495394025
O  O65  1  0.86810000  0.53650000  0.03860000  1.0 -0.6495394025
O  O66  1  0.46350000  0.33160000  0.03860000  1.0 -0.6495394025
O  O67  1  0.46350000  0.13190000  0.46140000  1.0 -0.6495394025
O  O68  1  0.53650000  0.86810000  0.96140000  1.0 -0.6495394025
O  O69  1  0.53650000  0.66840000  0.53860000  1.0 -0.6495394025
O  O70  1  0.13190000  0.46350000  0.53860000  1.0 -0.6495394025
O  O71  1  0.13190000  0.66840000  0.96140000  1.0 -0.6495394025
O  O72  1  0.66840000  0.13190000  0.03860000  1.0 -0.6495394025
O  O73  1  0.39330000  0.50440000  0.60820000  1.0 -0.5833200602
O  O74  1  0.60670000  0.11110000  0.39180000  1.0 -0.5833200602
O  O75  1  0.60670000  0.49560000  0.10820000  1.0 -0.5833200602
O  O76  1  0.11110000  0.60670000  0.60820000  1.0 -0.5833200602
O  O77  1  0.11110000  0.50440000  0.89180000  1.0 -0.5833200602
O  O78  1  0.49560000  0.60670000  0.89180000  1.0 -0.5833200602
O  O79  1  0.49560000  0.88890000  0.60820000  1.0 -0.5833200602
O  O80  1  0.50440000  0.11110000  0.10820000  1.0 -0.5833200602
O  O81  1  0.50440000  0.39330000  0.39180000  1.0 -0.5833200602
O  O82  1  0.88890000  0.49560000  0.39180000  1.0 -0.5833200602
O  O83  1  0.88890000  0.39330000  0.10820000  1.0 -0.5833200602
O  O84  1  0.39330000  0.88890000  0.89180000  1.0 -0.5833200602
O  O85  1  0.60670000  0.49560000  0.39180000  1.0 -0.5833200602
O  O86  1  0.39330000  0.88890000  0.60820000  1.0 -0.5833200602
O  O87  1  0.39330000  0.50440000  0.89180000  1.0 -0.5833200602
O  O88  1  0.88890000  0.39330000  0.39180000  1.0 -0.5833200602
O  O89  1  0.88890000  0.49560000  0.10820000  1.0 -0.5833200602
O  O90  1  0.50440000  0.39330000  0.10820000  1.0 -0.5833200602
O  O91  1  0.50440000  0.11110000  0.39180000  1.0 -0.5833200602
O  O92  1  0.49560000  0.88890000  0.89180000  1.0 -0.5833200602
O  O93  1  0.49560000  0.60670000  0.60820000  1.0 -0.5833200602
O  O94  1  0.11110000  0.50440000  0.60820000  1.0 -0.5833200602
O  O95  1  0.11110000  0.60670000  0.89180000  1.0 -0.5833200602
O  O96  1  0.60670000  0.11110000  0.10820000  1.0 -0.5833200602
O  O97  1  0.23965000  0.47930000  0.58530000  1.0 -0.1896945885
O  O98  1  0.76035000  0.23965000  0.41470000  1.0 -0.1896945885
O  O99  1  0.76035000  0.52070000  0.08530000  1.0 -0.1896945885
O  O100  1  0.23965000  0.76035000  0.58530000  1.0 -0.1896945885
O  O101  1  0.23965000  0.47930000  0.91470000  1.0 -0.1896945885
O  O102  1  0.52070000  0.76035000  0.91470000  1.0 -0.1896945885
O  O103  1  0.52070000  0.76035000  0.58530000  1.0 -0.1896945885
O  O104  1  0.47930000  0.23965000  0.08530000  1.0 -0.1896945885
O  O105  1  0.47930000  0.23965000  0.41470000  1.0 -0.1896945885
O  O106  1  0.76035000  0.52070000  0.41470000  1.0 -0.1896945885
O  O107  1  0.76035000  0.23965000  0.08530000  1.0 -0.1896945885
O  O108  1  0.23965000  0.76035000  0.91470000  1.0 -0.1896945885
O  O109  1  0.36910000  0.43830000  0.39095000  1.0 -0.5611958741
O  O110  1  0.63090000  0.06920000  0.60905000  1.0 -0.5611958741
O  O111  1  0.63090000  0.56170000  0.89095000  1.0 -0.5611958741
O  O112  1  0.06920000  0.63090000  0.39095000  1.0 -0.5611958741
O  O113  1  0.06920000  0.43830000  0.10905000  1.0 -0.5611958741
O  O114  1  0.56170000  0.63090000  0.10905000  1.0 -0.5611958741
O  O115  1  0.56170000  0.93080000  0.39095000  1.0 -0.5611958741
O  O116  1  0.43830000  0.06920000  0.89095000  1.0 -0.5611958741
O  O117  1  0.43830000  0.36910000  0.60905000  1.0 -0.5611958741
O  O118  1  0.93080000  0.56170000  0.60905000  1.0 -0.5611958741
O  O119  1  0.93080000  0.36910000  0.89095000  1.0 -0.5611958741
O  O120  1  0.36910000  0.93080000  0.10905000  1.0 -0.5611958741
O  O121  1  0.63090000  0.56170000  0.60905000  1.0 -0.5611958741
O  O122  1  0.36910000  0.93080000  0.39095000  1.0 -0.5611958741
O  O123  1  0.36910000  0.43830000  0.10905000  1.0 -0.5611958741
O  O124  1  0.93080000  0.36910000  0.60905000  1.0 -0.5611958741
O  O125  1  0.93080000  0.56170000  0.89095000  1.0 -0.5611958741
O  O126  1  0.43830000  0.36910000  0.89095000  1.0 -0.5611958741
O  O127  1  0.43830000  0.06920000  0.60905000  1.0 -0.5611958741
O  O128  1  0.56170000  0.93080000  0.10905000  1.0 -0.5611958741
O  O129  1  0.56170000  0.63090000  0.39095000  1.0 -0.5611958741
O  O130  1  0.06920000  0.43830000  0.39095000  1.0 -0.5611958741
O  O131  1  0.06920000  0.63090000  0.10905000  1.0 -0.5611958741
O  O132  1  0.63090000  0.06920000  0.89095000  1.0 -0.5611958741
O  O133  1  0.44740000  0.44870000  0.35110000  1.0 -0.5175437171
O  O134  1  0.55260000  0.00130000  0.64890000  1.0 -0.5175437171
O  O135  1  0.55260000  0.55130000  0.85110000  1.0 -0.5175437171
O  O136  1  0.00130000  0.55260000  0.35110000  1.0 -0.5175437171
O  O137  1  0.00130000  0.44870000  0.14890000  1.0 -0.5175437171
O  O138  1  0.55130000  0.55260000  0.14890000  1.0 -0.5175437171
O  O139  1  0.55130000  0.99870000  0.35110000  1.0 -0.5175437171
O  O140  1  0.44870000  0.00130000  0.85110000  1.0 -0.5175437171
O  O141  1  0.44870000  0.44740000  0.64890000  1.0 -0.5175437171
O  O142  1  0.99870000  0.55130000  0.64890000  1.0 -0.5175437171
O  O143  1  0.99870000  0.44740000  0.85110000  1.0 -0.5175437171
O  O144  1  0.44740000  0.99870000  0.14890000  1.0 -0.5175437171
O  O145  1  0.55260000  0.55130000  0.64890000  1.0 -0.5175437171
O  O146  1  0.44740000  0.99870000  0.35110000  1.0 -0.5175437171
O  O147  1  0.44740000  0.44870000  0.14890000  1.0 -0.5175437171
O  O148  1  0.99870000  0.44740000  0.64890000  1.0 -0.5175437171
O  O149  1  0.99870000  0.55130000  0.85110000  1.0 -0.5175437171
O  O150  1  0.44870000  0.44740000  0.85110000  1.0 -0.5175437171
O  O151  1  0.44870000  0.00130000  0.64890000  1.0 -0.5175437171
O  O152  1  0.55130000  0.99870000  0.14890000  1.0 -0.5175437171
O  O153  1  0.55130000  0.55260000  0.35110000  1.0 -0.5175437171
O  O154  1  0.00130000  0.44870000  0.35110000  1.0 -0.5175437171
O  O155  1  0.00130000  0.55260000  0.14890000  1.0 -0.5175437171
O  O156  1  0.55260000  0.00130000  0.85110000  1.0 -0.5175437171
O  O157  1  0.37600000  0.41050000  0.25000000  1.0 -0.1737642108
O  O158  1  0.62400000  0.03450000  0.75000000  1.0 -0.1737642108
O  O159  1  0.62400000  0.58950000  0.75000000  1.0 -0.1737642108
O  O160  1  0.03450000  0.62400000  0.25000000  1.0 -0.175555387
O  O161  1  0.03450000  0.41050000  0.25000000  1.0 -0.1737642108
O  O162  1  0.58950000  0.62400000  0.25000000  1.0 -0.1737642108
O  O163  1  0.58950000  0.96550000  0.25000000  1.0 -0.1737642108
O  O164  1  0.41050000  0.03450000  0.75000000  1.0 -0.1737642108
O  O165  1  0.41050000  0.37600000  0.75000000  1.0 -0.1737642108
O  O166  1  0.96550000  0.58950000  0.75000000  1.0 -0.1737642108
O  O167  1  0.96550000  0.37600000  0.75000000  1.0 -0.1737642108
O  O168  1  0.37600000  0.96550000  0.25000000  1.0 -0.175555387
