# DDEC6 charges by PACMAN v1.1 (https://github.com/mtap-research/PACMAN-charge/)
data_SAMVIO_ASR_pacman
_symmetry_space_group_name_H-M   'P 1'
_cell_length_a   11.52330000
_cell_length_b   11.52330000
_cell_length_c   12.85970000
_cell_angle_alpha   90.00000000
_cell_angle_beta   90.00000000
_cell_angle_gamma   93.42140000
_symmetry_Int_Tables_number   1
_chemical_formula_structural   MnH7(C3O2)3
_chemical_formula_sum   'Mn4 H28 C36 O24'
_cell_volume   1704.55021694
_cell_formula_units_Z   4
loop_
 _symmetry_equiv_pos_site_id
 _symmetry_equiv_pos_as_xyz
  1  'x, y, z'
loop_
 _atom_site_type_symbol
 _atom_site_label
 _atom_site_symmetry_multiplicity
 _atom_site_fract_x
 _atom_site_fract_y
 _atom_site_fract_z
 _atom_site_occupancy
 _atom_site_charge
Mn  Mn1  1  0.99204000  0.00796000  0.25000000  1.0 1.1047960156
Mn  Mn2  1  0.00796000  0.99204000  0.75000000  1.0 1.1096888416
Mn  Mn3  1  0.12119000  0.12119000  0.00000000  1.0 1.0456286305
Mn  Mn4  1  0.87881000  0.87881000  0.50000000  1.0 1.0456286305
H  H1  1  0.05140000  0.45460000  0.91180000  1.0 0.1271905014
H  H2  1  0.45460000  0.05140000  0.08820000  1.0 0.1271905014
H  H3  1  0.54540000  0.94860000  0.58820000  1.0 0.1271905014
H  H4  1  0.94860000  0.54540000  0.41180000  1.0 0.1271905014
H  H5  1  0.02570000  0.64370000  0.86130000  1.0 0.1239363187
H  H6  1  0.64370000  0.02570000  0.13870000  1.0 0.1239363187
H  H7  1  0.35630000  0.97430000  0.63870000  1.0 0.1239363187
H  H8  1  0.97430000  0.35630000  0.36130000  1.0 0.1239363187
H  H9  1  0.86460000  0.52640000  0.60350000  1.0 0.1387000465
H  H10  1  0.52640000  0.86460000  0.39650000  1.0 0.1387000465
H  H11  1  0.47360000  0.13540000  0.89650000  1.0 0.1387000465
H  H12  1  0.13540000  0.47360000  0.10350000  1.0 0.1387000465
H  H13  1  0.87160000  0.25860000  0.57900000  1.0 0.4070369833
H  H14  1  0.25860000  0.87160000  0.42100000  1.0 0.4070369833
H  H15  1  0.74140000  0.12840000  0.92100000  1.0 0.4070369833
H  H16  1  0.12840000  0.74140000  0.07900000  1.0 0.4070369833
H  H17  1  0.80060000  0.87360000  0.94820000  1.0 0.0755328172
H  H18  1  0.87360000  0.80060000  0.05180000  1.0 0.0717880386
H  H19  1  0.12640000  0.19940000  0.55180000  1.0 0.0717880386
H  H20  1  0.19940000  0.12640000  0.44820000  1.0 0.0717880386
H  H21  1  0.88980000  0.78440000  0.98460000  1.0 0.0717880386
H  H22  1  0.78440000  0.88980000  0.01540000  1.0 0.0717880386
H  H23  1  0.21560000  0.11020000  0.51540000  1.0 0.0649140858
H  H24  1  0.11020000  0.21560000  0.48460000  1.0 0.0649140858
H  H25  1  0.82100000  0.85320000  0.06720000  1.0 0.0717880386
H  H26  1  0.85320000  0.82100000  0.93280000  1.0 0.0717880386
H  H27  1  0.14680000  0.17900000  0.43280000  1.0 0.0717880386
H  H28  1  0.17900000  0.14680000  0.56720000  1.0 0.0717880386
C  C1  1  0.93580000  0.72840000  0.69010000  1.0 0.5989038655
C  C2  1  0.72840000  0.93580000  0.30990000  1.0 0.5989038655
C  C3  1  0.27160000  0.06420000  0.80990000  1.0 0.5989038655
C  C4  1  0.06420000  0.27160000  0.19010000  1.0 0.5989038655
C  C5  1  0.94710000  0.60570000  0.72560000  1.0 0.0042847248
C  C6  1  0.60570000  0.94710000  0.27440000  1.0 0.0042847248
C  C7  1  0.39430000  0.05290000  0.77440000  1.0 0.0042847248
C  C8  1  0.05290000  0.39430000  0.22560000  1.0 0.0042847248
C  C9  1  0.00600000  0.25580000  0.81640000  1.0 0.5989038655
C  C10  1  0.25580000  0.00600000  0.18360000  1.0 0.5989038655
C  C11  1  0.74420000  0.99400000  0.68360000  1.0 0.5989038655
C  C12  1  0.99400000  0.74420000  0.31640000  1.0 0.5989038655
C  C13  1  0.98200000  0.37840000  0.78510000  1.0 -0.1215143568
C  C14  1  0.37840000  0.98200000  0.21490000  1.0 -0.1215143568
C  C15  1  0.62160000  0.01800000  0.71490000  1.0 -0.1215143568
C  C16  1  0.01800000  0.62160000  0.28510000  1.0 -0.1215143568
C  C17  1  0.01660000  0.46900000  0.84820000  1.0 -0.0940649501
C  C18  1  0.46900000  0.01660000  0.15180000  1.0 -0.0940649501
C  C19  1  0.53100000  0.98340000  0.65180000  1.0 -0.0940649501
C  C20  1  0.98340000  0.53100000  0.34820000  1.0 -0.0940649501
C  C21  1  0.00030000  0.58270000  0.81820000  1.0 -0.1094591329
C  C22  1  0.58270000  0.00030000  0.18180000  1.0 -0.1094591329
C  C23  1  0.41730000  0.99970000  0.68180000  1.0 -0.1094591329
C  C24  1  0.99970000  0.41730000  0.31820000  1.0 -0.1094591329
C  C25  1  0.90640000  0.51200000  0.66350000  1.0 -0.223541542
C  C26  1  0.51200000  0.90640000  0.33650000  1.0 -0.223541542
C  C27  1  0.48800000  0.09360000  0.83650000  1.0 -0.223541542
C  C28  1  0.09360000  0.48800000  0.16350000  1.0 -0.223541542
C  C29  1  0.92680000  0.39880000  0.68910000  1.0 0.3152389311
C  C30  1  0.39880000  0.92680000  0.31090000  1.0 0.3152389311
C  C31  1  0.60120000  0.07320000  0.81090000  1.0 0.3152389311
C  C32  1  0.07320000  0.60120000  0.18910000  1.0 0.3152389311
C  C33  1  0.95270000  0.95270000  0.00000000  1.0 0.6071880096
C  C34  1  0.04730000  0.04730000  0.50000000  1.0 0.6071880096
C  C35  1  0.85730000  0.85730000  0.00000000  1.0 -0.3624448544
C  C36  1  0.14270000  0.14270000  0.50000000  1.0 -0.3624448544
O  O1  1  0.00168000  0.17872000  0.74760000  1.0 -0.539538405
O  O2  1  0.17872000  0.00168000  0.25240000  1.0 -0.539538405
O  O3  1  0.82128000  0.99832000  0.75240000  1.0 -0.539538405
O  O4  1  0.99832000  0.82128000  0.24760000  1.0 -0.539538405
O  O5  1  0.99099000  0.80661000  0.74240000  1.0 -0.5751203067
O  O6  1  0.80661000  0.99099000  0.25760000  1.0 -0.5751203067
O  O7  1  0.19339000  0.00901000  0.75760000  1.0 -0.5743913419
O  O8  1  0.00901000  0.19339000  0.24240000  1.0 -0.5751203067
O  O9  1  0.87320000  0.74420000  0.61210000  1.0 -0.5491398341
O  O10  1  0.74420000  0.87320000  0.38790000  1.0 -0.5491398341
O  O11  1  0.25580000  0.12680000  0.88790000  1.0 -0.5491398341
O  O12  1  0.12680000  0.25580000  0.11210000  1.0 -0.5491398341
O  O13  1  0.02697000  0.23923000  0.91000000  1.0 -0.539538405
O  O14  1  0.23923000  0.02697000  0.09000000  1.0 -0.539538405
O  O15  1  0.76077000  0.97303000  0.59000000  1.0 -0.539538405
O  O16  1  0.97303000  0.76077000  0.41000000  1.0 -0.539538405
O  O17  1  0.89470000  0.31750000  0.62530000  1.0 -0.4342848129
O  O18  1  0.31750000  0.89470000  0.37470000  1.0 -0.4355158872
O  O19  1  0.68250000  0.10530000  0.87470000  1.0 -0.4342848129
O  O20  1  0.10530000  0.68250000  0.12530000  1.0 -0.4342848129
O  O21  1  0.97417000  0.01233000  0.07985000  1.0 -0.539538405
O  O22  1  0.01233000  0.97417000  0.92015000  1.0 -0.539538405
O  O23  1  0.98767000  0.02583000  0.42015000  1.0 -0.539538405
O  O24  1  0.02583000  0.98767000  0.57985000  1.0 -0.539538405
