# DDEC6 charges by PACMAN v1.1 (https://github.com/mtap-research/PACMAN-charge/)
data_SANBAO_FSR_pacman
_symmetry_space_group_name_H-M   'P 1'
_cell_length_a   14.62710000
_cell_length_b   14.62710000
_cell_length_c   14.62710000
_cell_angle_alpha   51.44400000
_cell_angle_beta   51.44400000
_cell_angle_gamma   51.44400000
_symmetry_Int_Tables_number   1
_chemical_formula_structural   Zr3H13C18O31
_chemical_formula_sum   'Zr6 H26 C36 O62'
_cell_volume   1767.06734529
_cell_formula_units_Z   2
loop_
 _symmetry_equiv_pos_site_id
 _symmetry_equiv_pos_as_xyz
  1  'x, y, z'
loop_
 _atom_site_type_symbol
 _atom_site_label
 _atom_site_symmetry_multiplicity
 _atom_site_fract_x
 _atom_site_fract_y
 _atom_site_fract_z
 _atom_site_occupancy
 _atom_site_charge
Zr  Zr1  1  0.13319000  0.85189000  0.12549000  1.0 2.1907865718
Zr  Zr2  1  0.12549000  0.13319000  0.85189000  1.0 2.1907865718
Zr  Zr3  1  0.85189000  0.12549000  0.13319000  1.0 2.1907865718
Zr  Zr4  1  0.86681000  0.14811000  0.87451000  1.0 2.1907865718
Zr  Zr5  1  0.87451000  0.86681000  0.14811000  1.0 2.1907865718
Zr  Zr6  1  0.14811000  0.87451000  0.86681000  1.0 2.1907865718
H  H1  1  0.49446000  0.49686000  0.90136000  1.0 0.2076631501
H  H2  1  0.44982000  0.81167000  0.13807000  1.0 0.1937371358
H  H3  1  0.40380000  0.18111000  0.84339000  1.0 0.1849068716
H  H4  1  0.88860000  0.88480000  0.30570000  1.0 0.4241546755
H  H5  1  0.90136000  0.49446000  0.49686000  1.0 0.2076631501
H  H6  1  0.13807000  0.44982000  0.81167000  1.0 0.1937371358
H  H7  1  0.84339000  0.40380000  0.18111000  1.0 0.1849068716
H  H8  1  0.30570000  0.88860000  0.88480000  1.0 0.4241546755
H  H9  1  0.49686000  0.90136000  0.49446000  1.0 0.2076631501
H  H10  1  0.81167000  0.13807000  0.44982000  1.0 0.1937371358
H  H11  1  0.18111000  0.84339000  0.40380000  1.0 0.1849068716
H  H12  1  0.88480000  0.30570000  0.88860000  1.0 0.4241546755
H  H13  1  0.50554000  0.50314000  0.09864000  1.0 0.2076631501
H  H14  1  0.55018000  0.18833000  0.86193000  1.0 0.1937371358
H  H15  1  0.59620000  0.81889000  0.15661000  1.0 0.1849068716
H  H16  1  0.11140000  0.11520000  0.69430000  1.0 0.4241546755
H  H17  1  0.09864000  0.50554000  0.50314000  1.0 0.2076631501
H  H18  1  0.86193000  0.55018000  0.18833000  1.0 0.1937371358
H  H19  1  0.15661000  0.59620000  0.81889000  1.0 0.1849068716
H  H20  1  0.69430000  0.11140000  0.11520000  1.0 0.4241546755
H  H21  1  0.50314000  0.09864000  0.50554000  1.0 0.2076631501
H  H22  1  0.18833000  0.86193000  0.55018000  1.0 0.1937371358
H  H23  1  0.81889000  0.15661000  0.59620000  1.0 0.1849068716
H  H24  1  0.11520000  0.69430000  0.11140000  1.0 0.4241546755
H  H25  1  0.07577000  0.07577000  0.07577000  1.0 0.3937739446
H  H26  1  0.92423000  0.92423000  0.92423000  1.0 0.3937739446
C  C1  1  0.32799000  0.98593000  0.98265000  1.0 0.6045543268
C  C2  1  0.35197000  0.66527000  0.96397000  1.0 0.6387232259
C  C3  1  0.41801000  0.99330000  0.99173000  1.0 0.0459449711
C  C4  1  0.46575000  0.53253000  0.96295000  1.0 -0.0800114483
C  C5  1  0.47141000  0.89278000  0.07863000  1.0 -0.0310916576
C  C6  1  0.44490000  0.10381000  0.91019000  1.0 -0.0427954058
C  C7  1  0.98265000  0.32799000  0.98593000  1.0 0.6045543268
C  C8  1  0.96397000  0.35197000  0.66527000  1.0 0.6387232259
C  C9  1  0.99173000  0.41801000  0.99330000  1.0 0.0459449711
C  C10  1  0.96295000  0.46575000  0.53253000  1.0 -0.0800114483
C  C11  1  0.07863000  0.47141000  0.89278000  1.0 -0.0310916576
C  C12  1  0.91019000  0.44490000  0.10381000  1.0 -0.0427954058
C  C13  1  0.98593000  0.98265000  0.32799000  1.0 0.6045543268
C  C14  1  0.66527000  0.96397000  0.35197000  1.0 0.6387232259
C  C15  1  0.99330000  0.99173000  0.41801000  1.0 0.0459449711
C  C16  1  0.53253000  0.96295000  0.46575000  1.0 -0.0800114483
C  C17  1  0.89278000  0.07863000  0.47141000  1.0 -0.0310916576
C  C18  1  0.10381000  0.91019000  0.44490000  1.0 -0.0427954058
C  C19  1  0.67201000  0.01407000  0.01735000  1.0 0.6045543268
C  C20  1  0.64803000  0.33473000  0.03603000  1.0 0.6387232259
C  C21  1  0.58199000  0.00670000  0.00827000  1.0 0.0459449711
C  C22  1  0.53425000  0.46747000  0.03705000  1.0 -0.0800114483
C  C23  1  0.52859000  0.10722000  0.92137000  1.0 -0.0310916576
C  C24  1  0.55510000  0.89619000  0.08981000  1.0 -0.0427954058
C  C25  1  0.01735000  0.67201000  0.01407000  1.0 0.6045543268
C  C26  1  0.03603000  0.64803000  0.33473000  1.0 0.6387232259
C  C27  1  0.00827000  0.58199000  0.00670000  1.0 0.0459449711
C  C28  1  0.03705000  0.53425000  0.46747000  1.0 -0.0800114483
C  C29  1  0.92137000  0.52859000  0.10722000  1.0 -0.0310916576
C  C30  1  0.08981000  0.55510000  0.89619000  1.0 -0.0427954058
C  C31  1  0.01407000  0.01735000  0.67201000  1.0 0.6045543268
C  C32  1  0.33473000  0.03603000  0.64803000  1.0 0.6387232259
C  C33  1  0.00670000  0.00827000  0.58199000  1.0 0.0459449711
C  C34  1  0.46747000  0.03705000  0.53425000  1.0 -0.0800114483
C  C35  1  0.10722000  0.92137000  0.52859000  1.0 -0.0310916576
C  C36  1  0.89619000  0.08981000  0.55510000  1.0 -0.0427954058
O  O1  1  0.30525000  0.86308000  0.06122000  1.0 -0.4678716049
O  O2  1  0.91974000  0.91519000  0.21714000  1.0 -0.7983468459
O  O3  1  0.32434000  0.70032000  0.04319000  1.0 -0.4090391036
O  O4  1  0.10111000  0.89459000  0.25710000  1.0 -0.3034086064
O  O5  1  0.11470000  0.69860000  0.27840000  1.0 -0.1304317997
O  O6  1  0.32472000  0.84766000  0.07517000  1.0 -0.4874552673
O  O7  1  0.26572000  0.12754000  0.88573000  1.0 -0.3186613605
O  O8  1  0.93141000  0.92987000  0.19088000  1.0 -0.7594660605
O  O9  1  0.32381000  0.69003000  0.07003000  1.0 -0.4838422523
O  O10  1  0.30004000  0.70890000  0.86193000  1.0 -0.0673632446
O  O11  1  0.06122000  0.30525000  0.86308000  1.0 -0.4678716049
O  O12  1  0.21714000  0.91974000  0.91519000  1.0 -0.7983468459
O  O13  1  0.04319000  0.32434000  0.70032000  1.0 -0.4090391036
O  O14  1  0.25710000  0.10111000  0.89459000  1.0 -0.3034086064
O  O15  1  0.27840000  0.11470000  0.69860000  1.0 -0.1304317997
O  O16  1  0.07517000  0.32472000  0.84766000  1.0 -0.4874552673
O  O17  1  0.88573000  0.26572000  0.12754000  1.0 -0.3186613605
O  O18  1  0.19088000  0.93141000  0.92987000  1.0 -0.7594660605
O  O19  1  0.07003000  0.32381000  0.69003000  1.0 -0.4838422523
O  O20  1  0.86193000  0.30004000  0.70890000  1.0 -0.0673632446
O  O21  1  0.86308000  0.06122000  0.30525000  1.0 -0.4678716049
O  O22  1  0.91519000  0.21714000  0.91974000  1.0 -0.7983468459
O  O23  1  0.70032000  0.04319000  0.32434000  1.0 -0.4090391036
O  O24  1  0.89459000  0.25710000  0.10111000  1.0 -0.3034086064
O  O25  1  0.69860000  0.27840000  0.11470000  1.0 -0.1304317997
O  O26  1  0.84766000  0.07517000  0.32472000  1.0 -0.4874552673
O  O27  1  0.12754000  0.88573000  0.26572000  1.0 -0.3186613605
O  O28  1  0.92987000  0.19088000  0.93141000  1.0 -0.7594660605
O  O29  1  0.69003000  0.07003000  0.32381000  1.0 -0.4838422523
O  O30  1  0.70890000  0.86193000  0.30004000  1.0 -0.0673632446
O  O31  1  0.69475000  0.13692000  0.93878000  1.0 -0.4678716049
O  O32  1  0.08026000  0.08481000  0.78286000  1.0 -0.7983468459
O  O33  1  0.67566000  0.29968000  0.95681000  1.0 -0.4090391036
O  O34  1  0.89889000  0.10541000  0.74290000  1.0 -0.3034086064
O  O35  1  0.88530000  0.30140000  0.72160000  1.0 -0.1304317997
O  O36  1  0.67528000  0.15234000  0.92483000  1.0 -0.4874552673
O  O37  1  0.73428000  0.87246000  0.11427000  1.0 -0.3186613605
O  O38  1  0.06859000  0.07013000  0.80912000  1.0 -0.7594660605
O  O39  1  0.67619000  0.30997000  0.92997000  1.0 -0.4838422523
O  O40  1  0.69996000  0.29110000  0.13807000  1.0 -0.0673632446
O  O41  1  0.93878000  0.69475000  0.13692000  1.0 -0.4678716049
O  O42  1  0.78286000  0.08026000  0.08481000  1.0 -0.7983468459
O  O43  1  0.95681000  0.67566000  0.29968000  1.0 -0.4090391036
O  O44  1  0.74290000  0.89889000  0.10541000  1.0 -0.3034086064
O  O45  1  0.72160000  0.88530000  0.30140000  1.0 -0.1304317997
O  O46  1  0.92483000  0.67528000  0.15234000  1.0 -0.4874552673
O  O47  1  0.11427000  0.73428000  0.87246000  1.0 -0.3186613605
O  O48  1  0.80912000  0.06859000  0.07013000  1.0 -0.7594660605
O  O49  1  0.92997000  0.67619000  0.30997000  1.0 -0.4838422523
O  O50  1  0.13807000  0.69996000  0.29110000  1.0 -0.0673632446
O  O51  1  0.13692000  0.93878000  0.69475000  1.0 -0.4678716049
O  O52  1  0.08481000  0.78286000  0.08026000  1.0 -0.7983468459
O  O53  1  0.29968000  0.95681000  0.67566000  1.0 -0.4090391036
O  O54  1  0.10541000  0.74290000  0.89889000  1.0 -0.3034086064
O  O55  1  0.30140000  0.72160000  0.88530000  1.0 -0.1304317997
O  O56  1  0.15234000  0.92483000  0.67528000  1.0 -0.4874552673
O  O57  1  0.87246000  0.11427000  0.73428000  1.0 -0.3186613605
O  O58  1  0.07013000  0.80912000  0.06859000  1.0 -0.7594660605
O  O59  1  0.30997000  0.92997000  0.67619000  1.0 -0.4838422523
O  O60  1  0.29110000  0.13807000  0.69996000  1.0 -0.0673632446
O  O61  1  0.05017000  0.05017000  0.05017000  1.0 -0.7267387197
O  O62  1  0.94983000  0.94983000  0.94983000  1.0 -0.7249267981
