# DDEC6 charges by PACMAN v1.1 (https://github.com/mtap-research/PACMAN-charge/)
data_SAPJEA_ASR_pacman
_symmetry_space_group_name_H-M   'P 1'
_cell_length_a   22.52200000
_cell_length_b   22.52200000
_cell_length_c   22.52200000
_cell_angle_alpha   92.76850000
_cell_angle_beta   92.76850000
_cell_angle_gamma   154.60800000
_symmetry_Int_Tables_number   1
_chemical_formula_structural   Zn2GaP4H4O12F
_chemical_formula_sum   'Zn16 Ga8 P32 H32 O96 F8'
_cell_volume   4778.97817521
_cell_formula_units_Z   8
loop_
 _symmetry_equiv_pos_site_id
 _symmetry_equiv_pos_as_xyz
  1  'x, y, z'
loop_
 _atom_site_type_symbol
 _atom_site_label
 _atom_site_symmetry_multiplicity
 _atom_site_fract_x
 _atom_site_fract_y
 _atom_site_fract_z
 _atom_site_occupancy
 _atom_site_charge
Zn  Zn1  1  0.60611000  0.33399000  0.83324000  1.0 1.0854479664
Zn  Zn2  1  0.50075000  0.77287000  0.16676000  1.0 1.0836931342
Zn  Zn3  1  0.02287000  0.35611000  0.77212000  1.0 1.0854479664
Zn  Zn4  1  0.58399000  0.25075000  0.22788000  1.0 1.0836931342
Zn  Zn5  1  0.14389000  0.47713000  0.22788000  1.0 1.0854479664
Zn  Zn6  1  0.24925000  0.91601000  0.77212000  1.0 1.0836931342
Zn  Zn7  1  0.72713000  0.99925000  0.83324000  1.0 1.0836931342
Zn  Zn8  1  0.16601000  0.89389000  0.16676000  1.0 1.0836931342
Zn  Zn9  1  0.64389000  0.41601000  0.66676000  1.0 1.0836931342
Zn  Zn10  1  0.74925000  0.97713000  0.33324000  1.0 1.0836931342
Zn  Zn11  1  0.22713000  0.39389000  0.72788000  1.0 1.0854479664
Zn  Zn12  1  0.66601000  0.49925000  0.27212000  1.0 1.0836931342
Zn  Zn13  1  0.10611000  0.27287000  0.27212000  1.0 1.0854479664
Zn  Zn14  1  0.00075000  0.83399000  0.72788000  1.0 1.0854479664
Zn  Zn15  1  0.52287000  0.75075000  0.66676000  1.0 1.0836931342
Zn  Zn16  1  0.08399000  0.85611000  0.33324000  1.0 1.0836931342
Ga  Ga1  1  0.87500000  0.43281000  0.05781000  1.0 1.4195859128
Ga  Ga2  1  0.37500000  0.81719000  0.94219000  1.0 1.4195859128
Ga  Ga3  1  0.06719000  0.62500000  0.94219000  1.0 1.4195859128
Ga  Ga4  1  0.68281000  0.12500000  0.05781000  1.0 1.4195859128
Ga  Ga5  1  0.37500000  0.31719000  0.44219000  1.0 1.4195859128
Ga  Ga6  1  0.87500000  0.93281000  0.55781000  1.0 1.4195859128
Ga  Ga7  1  0.18281000  0.12500000  0.55781000  1.0 1.4195859128
Ga  Ga8  1  0.56719000  0.62500000  0.44219000  1.0 1.4195859128
P  P1  1  0.28698000  0.08381000  0.82079000  1.0 1.3439825965
P  P2  1  0.26302000  0.46619000  0.17921000  1.0 1.3439825965
P  P3  1  0.71619000  0.03698000  0.70317000  1.0 1.3439825965
P  P4  1  0.33381000  0.01302000  0.29683000  1.0 1.3439825965
P  P5  1  0.46302000  0.78381000  0.29683000  1.0 1.3439825965
P  P6  1  0.48698000  0.16619000  0.70317000  1.0 1.3439825965
P  P7  1  0.03381000  0.23698000  0.82079000  1.0 1.3457482451
P  P8  1  0.41619000  0.21302000  0.17921000  1.0 1.3439825965
P  P9  1  0.96302000  0.66619000  0.67921000  1.0 1.3439825965
P  P10  1  0.98698000  0.28381000  0.32079000  1.0 1.3439825965
P  P11  1  0.53381000  0.71302000  0.79683000  1.0 1.3439825965
P  P12  1  0.91619000  0.73698000  0.20317000  1.0 1.3439825965
P  P13  1  0.78698000  0.96619000  0.20317000  1.0 1.3439825965
P  P14  1  0.76302000  0.58381000  0.79683000  1.0 1.3439825965
P  P15  1  0.21619000  0.51302000  0.67921000  1.0 1.3439825965
P  P16  1  0.83381000  0.53698000  0.32079000  1.0 1.3439825965
P  P17  1  0.74677000  0.36942000  0.92951000  1.0 1.2056372457
P  P18  1  0.43991000  0.81726000  0.07049000  1.0 1.2056372457
P  P19  1  0.06726000  0.49677000  0.87735000  1.0 1.2056372457
P  P20  1  0.61942000  0.18991000  0.12265000  1.0 1.2056372457
P  P21  1  0.00323000  0.43274000  0.12265000  1.0 1.2056372457
P  P22  1  0.31009000  0.88058000  0.87735000  1.0 1.2056372457
P  P23  1  0.68274000  0.06009000  0.92951000  1.0 1.2056372457
P  P24  1  0.13058000  0.75323000  0.07049000  1.0 1.2056372457
P  P25  1  0.50323000  0.38058000  0.57049000  1.0 1.2056372457
P  P26  1  0.81009000  0.93274000  0.42951000  1.0 1.2056372457
P  P27  1  0.18274000  0.25323000  0.62265000  1.0 1.2056372457
P  P28  1  0.63058000  0.56009000  0.37735000  1.0 1.2056372457
P  P29  1  0.24677000  0.31726000  0.37735000  1.0 1.2056372457
P  P30  1  0.93991000  0.86942000  0.62265000  1.0 1.2056372457
P  P31  1  0.56726000  0.68991000  0.57049000  1.0 1.2056372457
P  P32  1  0.11942000  0.99677000  0.42951000  1.0 1.2056372457
H  H1  1  0.24050000  0.07030000  0.87080000  1.0 -0.1698360412
H  H2  1  0.19950000  0.36970000  0.12920000  1.0 -0.1698360412
H  H3  1  0.61970000  0.99050000  0.67020000  1.0 -0.1698360412
H  H4  1  0.32030000  0.94950000  0.32980000  1.0 -0.1698360412
H  H5  1  0.50950000  0.88030000  0.32980000  1.0 -0.1698360412
H  H6  1  0.55050000  0.17970000  0.67020000  1.0 -0.1698360412
H  H7  1  0.13030000  0.30050000  0.87080000  1.0 -0.1698360412
H  H8  1  0.42970000  0.25950000  0.12920000  1.0 -0.1698360412
H  H9  1  0.00950000  0.67970000  0.62920000  1.0 -0.1698360412
H  H10  1  0.05050000  0.38030000  0.37080000  1.0 -0.1698360412
H  H11  1  0.63030000  0.75950000  0.82980000  1.0 -0.1698360412
H  H12  1  0.92970000  0.80050000  0.17020000  1.0 -0.1698360412
H  H13  1  0.74050000  0.86970000  0.17020000  1.0 -0.1698360412
H  H14  1  0.69950000  0.57030000  0.82980000  1.0 -0.1698360412
H  H15  1  0.11970000  0.44950000  0.62920000  1.0 -0.1698360412
H  H16  1  0.82030000  0.49050000  0.37080000  1.0 -0.1698360412
H  H17  1  0.67490000  0.25330000  0.91720000  1.0 -0.0538569952
H  H18  1  0.33610000  0.75770000  0.08280000  1.0 -0.0538569952
H  H19  1  0.00770000  0.42490000  0.92160000  1.0 -0.0538569952
H  H20  1  0.50330000  0.08610000  0.07840000  1.0 -0.0538569952
H  H21  1  0.07510000  0.49230000  0.07840000  1.0 -0.0538569952
H  H22  1  0.41390000  0.99670000  0.92160000  1.0 -0.0538569952
H  H23  1  0.74230000  0.16390000  0.91720000  1.0 -0.0538569952
H  H24  1  0.24670000  0.82510000  0.08280000  1.0 -0.0538569952
H  H25  1  0.57510000  0.49670000  0.58280000  1.0 -0.0538569952
H  H26  1  0.91390000  0.99230000  0.41720000  1.0 -0.0538569952
H  H27  1  0.24230000  0.32510000  0.57840000  1.0 -0.0538569952
H  H28  1  0.74670000  0.66390000  0.42160000  1.0 -0.0538569952
H  H29  1  0.17490000  0.25770000  0.42160000  1.0 -0.0538569952
H  H30  1  0.83610000  0.75330000  0.57840000  1.0 -0.0538569952
H  H31  1  0.50770000  0.58610000  0.58280000  1.0 -0.0538569952
H  H32  1  0.00330000  0.92490000  0.41720000  1.0 -0.0538569952
O  O1  1  0.44259000  0.23600000  0.82459000  1.0 -0.681253758
O  O2  1  0.41141000  0.61800000  0.17541000  1.0 -0.681253758
O  O3  1  0.86800000  0.19259000  0.70659000  1.0 -0.681253758
O  O4  1  0.48600000  0.16141000  0.29341000  1.0 -0.681253758
O  O5  1  0.30741000  0.63200000  0.29341000  1.0 -0.681253758
O  O6  1  0.33859000  0.01400000  0.70659000  1.0 -0.681253758
O  O7  1  0.88200000  0.08859000  0.82459000  1.0 -0.681253758
O  O8  1  0.26400000  0.05741000  0.17541000  1.0 -0.681253758
O  O9  1  0.80741000  0.51400000  0.67541000  1.0 -0.681253758
O  O10  1  0.83859000  0.13200000  0.32459000  1.0 -0.681253758
O  O11  1  0.38200000  0.55741000  0.79341000  1.0 -0.681253758
O  O12  1  0.76400000  0.58859000  0.20659000  1.0 -0.681253758
O  O13  1  0.94259000  0.11800000  0.20659000  1.0 -0.681253758
O  O14  1  0.91141000  0.73600000  0.79341000  1.0 -0.681253758
O  O15  1  0.36800000  0.66141000  0.67541000  1.0 -0.681253758
O  O16  1  0.98600000  0.69259000  0.32459000  1.0 -0.681253758
O  O17  1  0.24889000  0.98507000  0.82776000  1.0 -0.7026503689
O  O18  1  0.15731000  0.42113000  0.17224000  1.0 -0.7026503689
O  O19  1  0.67113000  0.99889000  0.76382000  1.0 -0.7026503689
O  O20  1  0.23507000  0.90731000  0.23618000  1.0 -0.7026503689
O  O21  1  0.50111000  0.82887000  0.23618000  1.0 -0.7026503689
O  O22  1  0.59269000  0.26493000  0.76382000  1.0 -0.7026503689
O  O23  1  0.07887000  0.34269000  0.82776000  1.0 -0.7026503689
O  O24  1  0.51493000  0.25111000  0.17224000  1.0 -0.7026503689
O  O25  1  0.00111000  0.76493000  0.67224000  1.0 -0.7026503689
O  O26  1  0.09269000  0.32887000  0.32776000  1.0 -0.7026503689
O  O27  1  0.57887000  0.75111000  0.73618000  1.0 -0.7026503689
O  O28  1  0.01493000  0.84269000  0.26382000  1.0 -0.7026503689
O  O29  1  0.74889000  0.92113000  0.26382000  1.0 -0.7026503689
O  O30  1  0.65731000  0.48507000  0.73618000  1.0 -0.7026503689
O  O31  1  0.17113000  0.40731000  0.67224000  1.0 -0.7026503689
O  O32  1  0.73507000  0.49889000  0.32776000  1.0 -0.7026503689
O  O33  1  0.19975000  0.03137000  0.76332000  1.0 -0.6404740221
O  O34  1  0.26805000  0.43643000  0.23668000  1.0 -0.6404740221
O  O35  1  0.68643000  0.94975000  0.66838000  1.0 -0.6404740221
O  O36  1  0.28137000  0.01805000  0.33162000  1.0 -0.6404740221
O  O37  1  0.55025000  0.81357000  0.33162000  1.0 -0.6404740221
O  O38  1  0.48195000  0.21863000  0.66838000  1.0 -0.6404740221
O  O39  1  0.06357000  0.23195000  0.76332000  1.0 -0.6404740221
O  O40  1  0.46863000  0.30025000  0.23668000  1.0 -0.6404740221
O  O41  1  0.05025000  0.71863000  0.73668000  1.0 -0.6404740221
O  O42  1  0.98195000  0.31357000  0.26332000  1.0 -0.6404740221
O  O43  1  0.56357000  0.80025000  0.83162000  1.0 -0.6404740221
O  O44  1  0.96863000  0.73195000  0.16838000  1.0 -0.6404740221
O  O45  1  0.69975000  0.93643000  0.16838000  1.0 -0.6404740221
O  O46  1  0.76805000  0.53137000  0.83162000  1.0 -0.6404740221
O  O47  1  0.18643000  0.51805000  0.73668000  1.0 -0.6404740221
O  O48  1  0.78137000  0.44975000  0.26332000  1.0 -0.6404740221
O  O49  1  0.76518000  0.38421000  0.99799000  1.0 -0.6094091318
O  O50  1  0.38622000  0.76719000  0.00201000  1.0 -0.6094091318
O  O51  1  0.01719000  0.51518000  0.88097000  1.0 -0.6094091318
O  O52  1  0.63421000  0.13622000  0.11903000  1.0 -0.6094091318
O  O53  1  0.98482000  0.48281000  0.11903000  1.0 -0.6094091318
O  O54  1  0.36378000  0.86579000  0.88097000  1.0 -0.6094091318
O  O55  1  0.73281000  0.11378000  0.99799000  1.0 -0.6094091318
O  O56  1  0.11579000  0.73482000  0.00201000  1.0 -0.6094091318
O  O57  1  0.48482000  0.36579000  0.50201000  1.0 -0.6094091318
O  O58  1  0.86378000  0.98281000  0.49799000  1.0 -0.6094091318
O  O59  1  0.23281000  0.23482000  0.61903000  1.0 -0.6094091318
O  O60  1  0.61579000  0.61378000  0.38097000  1.0 -0.6094091318
O  O61  1  0.26518000  0.26719000  0.38097000  1.0 -0.6094091318
O  O62  1  0.88622000  0.88421000  0.61903000  1.0 -0.6094091318
O  O63  1  0.51719000  0.63622000  0.50201000  1.0 -0.6094091318
O  O64  1  0.13421000  0.01518000  0.49799000  1.0 -0.6094091318
O  O65  1  0.88750000  0.50007000  0.90877000  1.0 -0.615072523
O  O66  1  0.59130000  0.97873000  0.09123000  1.0 -0.615072523
O  O67  1  0.22873000  0.63750000  0.88743000  1.0 -0.615072523
O  O68  1  0.75007000  0.34130000  0.11257000  1.0 -0.615072523
O  O69  1  0.86250000  0.27127000  0.11257000  1.0 -0.615072523
O  O70  1  0.15870000  0.74993000  0.88743000  1.0 -0.615072523
O  O71  1  0.52127000  0.90870000  0.90877000  1.0 -0.615072523
O  O72  1  0.99993000  0.61250000  0.09123000  1.0 -0.615072523
O  O73  1  0.36250000  0.24993000  0.59123000  1.0 -0.615072523
O  O74  1  0.65870000  0.77127000  0.40877000  1.0 -0.615072523
O  O75  1  0.02127000  0.11250000  0.61257000  1.0 -0.615072523
O  O76  1  0.49993000  0.40870000  0.38743000  1.0 -0.615072523
O  O77  1  0.38750000  0.47873000  0.38743000  1.0 -0.615072523
O  O78  1  0.09130000  0.00007000  0.61257000  1.0 -0.615072523
O  O79  1  0.72873000  0.84130000  0.59123000  1.0 -0.615072523
O  O80  1  0.25007000  0.13750000  0.40877000  1.0 -0.615072523
O  O81  1  0.65107000  0.33363000  0.90650000  1.0 -0.5995652533
O  O82  1  0.42713000  0.74457000  0.09350000  1.0 -0.5995652533
O  O83  1  0.99457000  0.40107000  0.81744000  1.0 -0.5995652533
O  O84  1  0.58363000  0.17713000  0.18256000  1.0 -0.5995652533
O  O85  1  0.09893000  0.50543000  0.18256000  1.0 -0.5995652533
O  O86  1  0.32287000  0.91637000  0.81744000  1.0 -0.5995652533
O  O87  1  0.75543000  0.07287000  0.90650000  1.0 -0.5995652533
O  O88  1  0.16637000  0.84893000  0.09350000  1.0 -0.5995652533
O  O89  1  0.59893000  0.41637000  0.59350000  1.0 -0.5995652533
O  O90  1  0.82287000  0.00543000  0.40650000  1.0 -0.5995652533
O  O91  1  0.25543000  0.34893000  0.68256000  1.0 -0.5995652533
O  O92  1  0.66637000  0.57287000  0.31744000  1.0 -0.5995652533
O  O93  1  0.15107000  0.24457000  0.31744000  1.0 -0.5995652533
O  O94  1  0.92713000  0.83363000  0.68256000  1.0 -0.5995652533
O  O95  1  0.49457000  0.67713000  0.59350000  1.0 -0.5995652533
O  O96  1  0.08363000  0.90107000  0.40650000  1.0 -0.5995652533
F  F1  1  0.76149000  0.26149000  0.02298000  1.0 -0.5428091592
F  F2  1  0.23851000  0.73851000  0.97702000  1.0 -0.5428091592
F  F3  1  0.98851000  0.51149000  0.00000000  1.0 -0.545622558
F  F4  1  0.51149000  0.98851000  0.00000000  1.0 -0.545622558
F  F5  1  0.48851000  0.48851000  0.47702000  1.0 -0.5428091592
F  F6  1  0.01149000  0.01149000  0.52298000  1.0 -0.5428091592
F  F7  1  0.26149000  0.23851000  0.50000000  1.0 -0.5428091592
F  F8  1  0.73851000  0.76149000  0.50000000  1.0 -0.5428091592
