# DDEC6 charges by PACMAN v1.1 (https://github.com/mtap-research/PACMAN-charge/)
data_SAQSOU_ASR_pacman
_symmetry_space_group_name_H-M   'P 1'
_cell_length_a   15.44320000
_cell_length_b   15.44320000
_cell_length_c   23.71500000
_cell_angle_alpha   81.78920000
_cell_angle_beta   98.21080000
_cell_angle_gamma   58.81190000
_symmetry_Int_Tables_number   1
_chemical_formula_structural   KCu10B2H42W2C40(S3N10)2
_chemical_formula_sum   'K2 Cu20 B4 H84 W4 C80 S12 N40'
_cell_volume   4629.21781705
_cell_formula_units_Z   2
loop_
 _symmetry_equiv_pos_site_id
 _symmetry_equiv_pos_as_xyz
  1  'x, y, z'
loop_
 _atom_site_type_symbol
 _atom_site_label
 _atom_site_symmetry_multiplicity
 _atom_site_fract_x
 _atom_site_fract_y
 _atom_site_fract_z
 _atom_site_occupancy
 _atom_site_charge
K  K1  1  0.34278000  0.34278000  0.25000000  1.0 0.7410461408
K  K2  1  0.65722000  0.65722000  0.75000000  1.0 0.7340529663
Cu  Cu1  1  0.17833000  0.72167000  0.42278000  1.0 0.3402853859
Cu  Cu2  1  0.72167000  0.17833000  0.07722000  1.0 0.3402853859
Cu  Cu3  1  0.82167000  0.27833000  0.57722000  1.0 0.3402853859
Cu  Cu4  1  0.27833000  0.82167000  0.92278000  1.0 0.3402853859
Cu  Cu5  1  0.08336000  0.60366000  0.39490000  1.0 0.2284804237
Cu  Cu6  1  0.60366000  0.08336000  0.10510000  1.0 0.2284804237
Cu  Cu7  1  0.91664000  0.39634000  0.60510000  1.0 0.2284804237
Cu  Cu8  1  0.39634000  0.91664000  0.89490000  1.0 0.2284804237
Cu  Cu9  1  0.18442000  0.56904000  0.51936000  1.0 0.2072183181
Cu  Cu10  1  0.56904000  0.18442000  0.98064000  1.0 0.2072183181
Cu  Cu11  1  0.81558000  0.43096000  0.48064000  1.0 0.2072183181
Cu  Cu12  1  0.43096000  0.81558000  0.01936000  1.0 0.2072183181
Cu  Cu13  1  0.07038000  0.39196000  0.25836000  1.0 0.4219429855
Cu  Cu14  1  0.39196000  0.07038000  0.24164000  1.0 0.4219429855
Cu  Cu15  1  0.92962000  0.60804000  0.74164000  1.0 0.4219429855
Cu  Cu16  1  0.60804000  0.92962000  0.75836000  1.0 0.4219429855
Cu  Cu17  1  0.46750000  0.73928000  0.36505000  1.0 0.2892545364
Cu  Cu18  1  0.73928000  0.46750000  0.13495000  1.0 0.2892545364
Cu  Cu19  1  0.53250000  0.26072000  0.63495000  1.0 0.2848403853
Cu  Cu20  1  0.26072000  0.53250000  0.86505000  1.0 0.2892545364
B  B1  1  0.77800000  0.94680000  0.47140000  1.0 0.4219429855
B  B2  1  0.94680000  0.77800000  0.02860000  1.0 0.4219429855
B  B3  1  0.22200000  0.05320000  0.52860000  1.0 0.4219429855
B  B4  1  0.05320000  0.22200000  0.97140000  1.0 0.4219429855
H  H1  1  0.89100000  0.15080000  0.39890000  1.0 0.1690659922
H  H2  1  0.15080000  0.89100000  0.10110000  1.0 0.1690659922
H  H3  1  0.10900000  0.84920000  0.60110000  1.0 0.1690659922
H  H4  1  0.84920000  0.10900000  0.89890000  1.0 0.1690659922
H  H5  1  0.08550000  0.91470000  0.38110000  1.0 0.1503790525
H  H6  1  0.91470000  0.08550000  0.11890000  1.0 0.1503790525
H  H7  1  0.91450000  0.08530000  0.61890000  1.0 0.1503790525
H  H8  1  0.08530000  0.91450000  0.88110000  1.0 0.1503790525
H  H9  1  0.07540000  0.01480000  0.39590000  1.0 0.1503790525
H  H10  1  0.01480000  0.07540000  0.10410000  1.0 0.1503790525
H  H11  1  0.92460000  0.98520000  0.60410000  1.0 0.1503790525
H  H12  1  0.98520000  0.92460000  0.89590000  1.0 0.1503790525
H  H13  1  0.12720000  0.91180000  0.44610000  1.0 0.1503790525
H  H14  1  0.91180000  0.12720000  0.05390000  1.0 0.1503790525
H  H15  1  0.87280000  0.08820000  0.55390000  1.0 0.1503790525
H  H16  1  0.08820000  0.87280000  0.94610000  1.0 0.1503790525
H  H17  1  0.91260000  0.76280000  0.66390000  1.0 0.1595342104
H  H18  1  0.76280000  0.91260000  0.83610000  1.0 0.1595342104
H  H19  1  0.08740000  0.23720000  0.33610000  1.0 0.1595342104
H  H20  1  0.23720000  0.08740000  0.16390000  1.0 0.1595342104
H  H21  1  0.69310000  0.18350000  0.46450000  1.0 0.1503790525
H  H22  1  0.18350000  0.69310000  0.03550000  1.0 0.1503790525
H  H23  1  0.30690000  0.81650000  0.53550000  1.0 0.1503790525
H  H24  1  0.81650000  0.30690000  0.96450000  1.0 0.1503790525
H  H25  1  0.69220000  0.24580000  0.40580000  1.0 0.1595342104
H  H26  1  0.24580000  0.69220000  0.09420000  1.0 0.1595342104
H  H27  1  0.30780000  0.75420000  0.59420000  1.0 0.1595342104
H  H28  1  0.75420000  0.30780000  0.90580000  1.0 0.1595342104
H  H29  1  0.64770000  0.17490000  0.40360000  1.0 0.1285681826
H  H30  1  0.17490000  0.64770000  0.09640000  1.0 0.1285681826
H  H31  1  0.35230000  0.82510000  0.59640000  1.0 0.1285681826
H  H32  1  0.82510000  0.35230000  0.90360000  1.0 0.1285681826
H  H33  1  0.88290000  0.62610000  0.37420000  1.0 0.1595342104
H  H34  1  0.62610000  0.88290000  0.12580000  1.0 0.1595342104
H  H35  1  0.11710000  0.37390000  0.62580000  1.0 0.1595342104
H  H36  1  0.37390000  0.11710000  0.87420000  1.0 0.1595342104
H  H37  1  0.79610000  0.69590000  0.31510000  1.0 0.1503790525
H  H38  1  0.69590000  0.79610000  0.18490000  1.0 0.1503790525
H  H39  1  0.20390000  0.30410000  0.68490000  1.0 0.1503790525
H  H40  1  0.30410000  0.20390000  0.81510000  1.0 0.1503790525
H  H41  1  0.89610000  0.70010000  0.32880000  1.0 0.1595342104
H  H42  1  0.70010000  0.89610000  0.17120000  1.0 0.1595342104
H  H43  1  0.10390000  0.29990000  0.67120000  1.0 0.1595342104
H  H44  1  0.29990000  0.10390000  0.82880000  1.0 0.1595342104
H  H45  1  0.13720000  0.63020000  0.62170000  1.0 0.1503790525
H  H46  1  0.63020000  0.13720000  0.87830000  1.0 0.1503790525
H  H47  1  0.86280000  0.36980000  0.37830000  1.0 0.1503790525
H  H48  1  0.36980000  0.86280000  0.12170000  1.0 0.1503790525
H  H49  1  0.07970000  0.59630000  0.65980000  1.0 0.1595342104
H  H50  1  0.59630000  0.07970000  0.84020000  1.0 0.1595342104
H  H51  1  0.92030000  0.40370000  0.34020000  1.0 0.1595342104
H  H52  1  0.40370000  0.92030000  0.15980000  1.0 0.1595342104
H  H53  1  0.08470000  0.57470000  0.59730000  1.0 0.1503790525
H  H54  1  0.57470000  0.08470000  0.90270000  1.0 0.1503790525
H  H55  1  0.91530000  0.42530000  0.40270000  1.0 0.1503790525
H  H56  1  0.42530000  0.91530000  0.09730000  1.0 0.1503790525
H  H57  1  0.63620000  0.84040000  0.33900000  1.0 0.1690659922
H  H58  1  0.84040000  0.63620000  0.16100000  1.0 0.1690659922
H  H59  1  0.36380000  0.15960000  0.66100000  1.0 0.1690659922
H  H60  1  0.15960000  0.36380000  0.83900000  1.0 0.1690659922
H  H61  1  0.66800000  0.95240000  0.57360000  1.0 0.1503790525
H  H62  1  0.95240000  0.66800000  0.92640000  1.0 0.1503790525
H  H63  1  0.33200000  0.04760000  0.42640000  1.0 0.1503790525
H  H64  1  0.04760000  0.33200000  0.07360000  1.0 0.1503790525
H  H65  1  0.72870000  0.94710000  0.63420000  1.0 0.1690659922
H  H66  1  0.94710000  0.72870000  0.86580000  1.0 0.1690659922
H  H67  1  0.27130000  0.05290000  0.36580000  1.0 0.1690659922
H  H68  1  0.05290000  0.27130000  0.13420000  1.0 0.1690659922
H  H69  1  0.71240000  0.02320000  0.57650000  1.0 0.1503790525
H  H70  1  0.02320000  0.71240000  0.92350000  1.0 0.1503790525
H  H71  1  0.28760000  0.97680000  0.42350000  1.0 0.1503790525
H  H72  1  0.97680000  0.28760000  0.07650000  1.0 0.1503790525
H  H73  1  0.50760000  0.98500000  0.39250000  1.0 0.1503790525
H  H74  1  0.98500000  0.50760000  0.10750000  1.0 0.1503790525
H  H75  1  0.49240000  0.01500000  0.60750000  1.0 0.1503790525
H  H76  1  0.01500000  0.49240000  0.89250000  1.0 0.1503790525
H  H77  1  0.56750000  0.99650000  0.44710000  1.0 0.1367081673
H  H78  1  0.99650000  0.56750000  0.05290000  1.0 0.1367081673
H  H79  1  0.43250000  0.00350000  0.55290000  1.0 0.1367081673
H  H80  1  0.00350000  0.43250000  0.94710000  1.0 0.1367081673
H  H81  1  0.54270000  0.06370000  0.38380000  1.0 0.1367081673
H  H82  1  0.06370000  0.54270000  0.11620000  1.0 0.1367081673
H  H83  1  0.45730000  0.93630000  0.61620000  1.0 0.1367081673
H  H84  1  0.93630000  0.45730000  0.88380000  1.0 0.1367081673
W  W1  1  0.01080000  0.74836000  0.45657000  1.0 0.9666964116
W  W2  1  0.74836000  0.01080000  0.04343000  1.0 0.9648728472
W  W3  1  0.98920000  0.25164000  0.54343000  1.0 0.9666964116
W  W4  1  0.25164000  0.98920000  0.95657000  1.0 0.9666964116
C  C1  1  0.31080000  0.44940000  0.56900000  1.0 0.0081603013
C  C2  1  0.44940000  0.31080000  0.93100000  1.0 0.0081603013
C  C3  1  0.68920000  0.55060000  0.43100000  1.0 0.0081603013
C  C4  1  0.55060000  0.68920000  0.06900000  1.0 0.0081603013
C  C5  1  0.35950000  0.72850000  0.38860000  1.0 -0.0567125999
C  C6  1  0.72850000  0.35950000  0.11140000  1.0 -0.0524162064
C  C7  1  0.64050000  0.27150000  0.61140000  1.0 -0.0567125999
C  C8  1  0.27150000  0.64050000  0.88860000  1.0 -0.0567125999
C  C9  1  0.08580000  0.52380000  0.34090000  1.0 0.0195459085
C  C10  1  0.52380000  0.08580000  0.15910000  1.0 0.0195459085
C  C11  1  0.91420000  0.47620000  0.65910000  1.0 0.0195459085
C  C12  1  0.47620000  0.91420000  0.84090000  1.0 0.0195459085
C  C13  1  0.80630000  0.09110000  0.42700000  1.0 0.269778006
C  C14  1  0.09110000  0.80630000  0.07300000  1.0 0.269778006
C  C15  1  0.19370000  0.90890000  0.57300000  1.0 0.269778006
C  C16  1  0.90890000  0.19370000  0.92700000  1.0 0.269778006
C  C17  1  0.86000000  0.43860000  0.18750000  1.0 -0.0712207864
C  C18  1  0.43860000  0.86000000  0.31250000  1.0 -0.0712207864
C  C19  1  0.14000000  0.56140000  0.81250000  1.0 -0.0712207864
C  C20  1  0.56140000  0.14000000  0.68750000  1.0 -0.0712207864
C  C21  1  0.88940000  0.09200000  0.41210000  1.0 -0.3360085237
C  C22  1  0.09200000  0.88940000  0.08790000  1.0 -0.3317661661
C  C23  1  0.11060000  0.90800000  0.58790000  1.0 -0.3317661661
C  C24  1  0.90800000  0.11060000  0.91210000  1.0 -0.3360085237
C  C25  1  0.96990000  0.98850000  0.42100000  1.0 0.2567328242
C  C26  1  0.98850000  0.96990000  0.07900000  1.0 0.2567328242
C  C27  1  0.03010000  0.01150000  0.57900000  1.0 0.2567328242
C  C28  1  0.01150000  0.03010000  0.92100000  1.0 0.2567328242
C  C29  1  0.66400000  0.91180000  0.39850000  1.0 0.2388379116
C  C30  1  0.91180000  0.66400000  0.10150000  1.0 0.2388379116
C  C31  1  0.33600000  0.08820000  0.60150000  1.0 0.2388379116
C  C32  1  0.08820000  0.33600000  0.89850000  1.0 0.2388379116
C  C33  1  0.82500000  0.87180000  0.58380000  1.0 0.2526332912
C  C34  1  0.87180000  0.82500000  0.91620000  1.0 0.2526332912
C  C35  1  0.17500000  0.12820000  0.41620000  1.0 0.2526332912
C  C36  1  0.12820000  0.17500000  0.08380000  1.0 0.2526332912
C  C37  1  0.07360000  0.95440000  0.41000000  1.0 -0.4964271757
C  C38  1  0.95440000  0.07360000  0.09000000  1.0 -0.4964271757
C  C39  1  0.92640000  0.04560000  0.59000000  1.0 -0.4964271757
C  C40  1  0.04560000  0.92640000  0.91000000  1.0 -0.4964271757
C  C41  1  0.97920000  0.72680000  0.59330000  1.0 0.269778006
C  C42  1  0.72680000  0.97920000  0.90670000  1.0 0.269778006
C  C43  1  0.02080000  0.27320000  0.40670000  1.0 0.269778006
C  C44  1  0.27320000  0.02080000  0.09330000  1.0 0.269778006
C  C45  1  0.90680000  0.78240000  0.62390000  1.0 -0.3490385312
C  C46  1  0.78240000  0.90680000  0.87610000  1.0 -0.3490385312
C  C47  1  0.09320000  0.21760000  0.37610000  1.0 -0.3490385312
C  C48  1  0.21760000  0.09320000  0.12390000  1.0 -0.3490385312
C  C49  1  0.79170000  0.77930000  0.37520000  1.0 0.269778006
C  C50  1  0.77930000  0.79170000  0.12480000  1.0 0.269778006
C  C51  1  0.20830000  0.22070000  0.62480000  1.0 0.269778006
C  C52  1  0.22070000  0.20830000  0.87520000  1.0 0.269778006
C  C53  1  0.70030000  0.18190000  0.42500000  1.0 -0.4815207395
C  C54  1  0.18190000  0.70030000  0.07500000  1.0 -0.4815207395
C  C55  1  0.29970000  0.81810000  0.57500000  1.0 -0.4815207395
C  C56  1  0.81810000  0.29970000  0.92500000  1.0 -0.4815207395
C  C57  1  0.84670000  0.69250000  0.34560000  1.0 -0.4667785265
C  C58  1  0.69250000  0.84670000  0.15440000  1.0 -0.4667785265
C  C59  1  0.15330000  0.30750000  0.65440000  1.0 -0.4667785265
C  C60  1  0.30750000  0.15330000  0.84560000  1.0 -0.463923772
C  C61  1  0.19430000  0.26890000  0.25210000  1.0 -0.2878168571
C  C62  1  0.26890000  0.19430000  0.24790000  1.0 -0.2878168571
C  C63  1  0.80570000  0.73110000  0.74790000  1.0 -0.2878168571
C  C64  1  0.73110000  0.80570000  0.75210000  1.0 -0.2878168571
C  C65  1  0.07910000  0.62270000  0.62040000  1.0 -0.4815207395
C  C66  1  0.62270000  0.07910000  0.87960000  1.0 -0.4815207395
C  C67  1  0.92090000  0.37730000  0.37960000  1.0 -0.4815207395
C  C68  1  0.37730000  0.92090000  0.12040000  1.0 -0.4815207395
C  C69  1  0.68530000  0.84350000  0.36480000  1.0 -0.3317661661
C  C70  1  0.84350000  0.68530000  0.13520000  1.0 -0.3317661661
C  C71  1  0.31470000  0.15650000  0.63520000  1.0 -0.3317661661
C  C72  1  0.15650000  0.31470000  0.86480000  1.0 -0.3317661661
C  C73  1  0.72460000  0.95620000  0.59280000  1.0 -0.4815207395
C  C74  1  0.95620000  0.72460000  0.90720000  1.0 -0.4815207395
C  C75  1  0.27540000  0.04380000  0.40720000  1.0 -0.4815207395
C  C76  1  0.04380000  0.27540000  0.09280000  1.0 -0.4815207395
C  C77  1  0.56110000  0.99690000  0.40620000  1.0 -0.4815207395
C  C78  1  0.99690000  0.56110000  0.09380000  1.0 -0.4815207395
C  C79  1  0.43890000  0.00310000  0.59380000  1.0 -0.4815207395
C  C80  1  0.00310000  0.43890000  0.90620000  1.0 -0.4815207395
S  S1  1  0.15828000  0.72528000  0.51295000  1.0 -0.4862224954
S  S2  1  0.72528000  0.15828000  0.98705000  1.0 -0.4862224954
S  S3  1  0.84172000  0.27472000  0.48705000  1.0 -0.4862224954
S  S4  1  0.27472000  0.84172000  0.01295000  1.0 -0.4862224954
S  S5  1  0.02813000  0.77141000  0.36183000  1.0 -0.4815207395
S  S6  1  0.77141000  0.02813000  0.13817000  1.0 -0.4815207395
S  S7  1  0.97187000  0.22859000  0.63817000  1.0 -0.4815207395
S  S8  1  0.22859000  0.97187000  0.86183000  1.0 -0.4815207395
S  S9  1  0.03663000  0.58565000  0.47833000  1.0 -0.4058508697
S  S10  1  0.58565000  0.03663000  0.02167000  1.0 -0.4058508697
S  S11  1  0.96337000  0.41435000  0.52167000  1.0 -0.4058508697
S  S12  1  0.41435000  0.96337000  0.97833000  1.0 -0.4058508697
N  N1  1  0.83890000  0.99010000  0.44600000  1.0 -0.1398647866
N  N2  1  0.99010000  0.83890000  0.05400000  1.0 -0.1398647866
N  N3  1  0.16110000  0.00990000  0.55400000  1.0 -0.1398647866
N  N4  1  0.00990000  0.16110000  0.94600000  1.0 -0.1398647866
N  N5  1  0.83810000  0.80850000  0.41440000  1.0 -0.2166394609
N  N6  1  0.80850000  0.83810000  0.08560000  1.0 -0.2166394609
N  N7  1  0.16190000  0.19150000  0.58560000  1.0 -0.2166394609
N  N8  1  0.19150000  0.16190000  0.91440000  1.0 -0.2166394609
N  N9  1  0.84550000  0.86870000  0.53050000  1.0 -0.1398647866
N  N10  1  0.86870000  0.84550000  0.96950000  1.0 -0.1398647866
N  N11  1  0.15450000  0.13130000  0.46950000  1.0 -0.1398647866
N  N12  1  0.13130000  0.15450000  0.03050000  1.0 -0.1398647866
N  N13  1  0.93880000  0.92420000  0.44220000  1.0 -0.1956504631
N  N14  1  0.92420000  0.93880000  0.05780000  1.0 -0.1956504631
N  N15  1  0.06120000  0.07580000  0.55780000  1.0 -0.1945585805
N  N16  1  0.07580000  0.06120000  0.94220000  1.0 -0.1956504631
N  N17  1  0.29160000  0.72480000  0.40190000  1.0 -0.2878168571
N  N18  1  0.72480000  0.29160000  0.09810000  1.0 -0.2878168571
N  N19  1  0.70840000  0.27520000  0.59810000  1.0 -0.2878168571
N  N20  1  0.27520000  0.70840000  0.90190000  1.0 -0.2878168571
N  N21  1  0.94200000  0.77900000  0.53600000  1.0 -0.2142644274
N  N22  1  0.77900000  0.94200000  0.96400000  1.0 -0.2166394609
N  N23  1  0.05800000  0.22100000  0.46400000  1.0 -0.2142644274
N  N24  1  0.22100000  0.05800000  0.03600000  1.0 -0.2142644274
N  N25  1  0.75640000  0.89140000  0.42880000  1.0 -0.131252912
N  N26  1  0.89140000  0.75640000  0.07120000  1.0 -0.131252912
N  N27  1  0.24360000  0.10860000  0.57120000  1.0 -0.131252912
N  N28  1  0.10860000  0.24360000  0.92880000  1.0 -0.131252912
N  N29  1  0.93760000  0.42080000  0.21580000  1.0 -0.3317661661
N  N30  1  0.42080000  0.93760000  0.28420000  1.0 -0.3317661661
N  N31  1  0.06240000  0.57920000  0.78420000  1.0 -0.3317661661
N  N32  1  0.57920000  0.06240000  0.71580000  1.0 -0.3317661661
N  N33  1  0.39140000  0.38140000  0.59670000  1.0 -0.31572402
N  N34  1  0.38140000  0.39140000  0.90330000  1.0 -0.3140697527
N  N35  1  0.60860000  0.61860000  0.40330000  1.0 -0.3140697527
N  N36  1  0.61860000  0.60860000  0.09670000  1.0 -0.31572402
N  N37  1  0.08030000  0.47610000  0.30790000  1.0 -0.375553419
N  N38  1  0.47610000  0.08030000  0.19210000  1.0 -0.3745464283
N  N39  1  0.91970000  0.52390000  0.69210000  1.0 -0.375553419
N  N40  1  0.52390000  0.91970000  0.80790000  1.0 -0.3745464283
