# DDEC6 charges by PACMAN v1.1 (https://github.com/mtap-research/PACMAN-charge/)
data_SARPIL_ion_pacman
_symmetry_space_group_name_H-M   'P 1'
_cell_length_a   13.34710000
_cell_length_b   13.34710000
_cell_length_c   15.95640000
_cell_angle_alpha   71.59640000
_cell_angle_beta   108.40400000
_cell_angle_gamma   139.21700000
_symmetry_Int_Tables_number   1
_chemical_formula_structural   AgH8C10N8(ClO6)2
_chemical_formula_sum   'Ag2 H16 C20 N16 Cl4 O24'
_cell_volume   1748.25408788
_cell_formula_units_Z   2
loop_
 _symmetry_equiv_pos_site_id
 _symmetry_equiv_pos_as_xyz
  1  'x, y, z'
loop_
 _atom_site_type_symbol
 _atom_site_label
 _atom_site_symmetry_multiplicity
 _atom_site_fract_x
 _atom_site_fract_y
 _atom_site_fract_z
 _atom_site_occupancy
 _atom_site_charge
Ag  Ag1  1  0.50000000  0.00000000  0.00000000  1.0 0.4001358713
Ag  Ag2  1  0.00000000  0.50000000  0.50000000  1.0 0.4001358713
H  H1  1  0.57010000  0.93210000  0.86880000  1.0 0.1334504376
H  H2  1  0.93210000  0.57010000  0.63120000  1.0 0.1334504376
H  H3  1  0.42990000  0.06790000  0.13120000  1.0 0.1334504376
H  H4  1  0.06790000  0.42990000  0.36880000  1.0 0.1334504376
H  H5  1  0.59890000  0.78350000  0.86250000  1.0 0.1682302247
H  H6  1  0.78350000  0.59890000  0.63750000  1.0 0.1682302247
H  H7  1  0.40110000  0.21650000  0.13750000  1.0 0.1682302247
H  H8  1  0.21650000  0.40110000  0.36250000  1.0 0.1682302247
H  H9  1  0.44030000  0.55450000  0.10370000  1.0 0.0907340555
H  H10  1  0.55450000  0.44030000  0.39630000  1.0 0.0907340555
H  H11  1  0.55970000  0.44550000  0.89630000  1.0 0.0907340555
H  H12  1  0.44550000  0.55970000  0.60370000  1.0 0.0907340555
H  H13  1  0.42800000  0.71760000  0.10510000  1.0 0.112505209
H  H14  1  0.71760000  0.42800000  0.39490000  1.0 0.112505209
H  H15  1  0.57200000  0.28240000  0.89490000  1.0 0.112505209
H  H16  1  0.28240000  0.57200000  0.60510000  1.0 0.112505209
C  C1  1  0.54594000  0.85606000  0.91740000  1.0 0.0682445842
C  C2  1  0.85606000  0.54594000  0.58260000  1.0 0.0682445842
C  C3  1  0.45406000  0.14394000  0.08260000  1.0 0.0682445842
C  C4  1  0.14394000  0.45406000  0.41740000  1.0 0.0682445842
C  C5  1  0.56184000  0.76716000  0.91240000  1.0 -0.0545875409
C  C6  1  0.76716000  0.56184000  0.58760000  1.0 -0.0545875409
C  C7  1  0.43816000  0.23284000  0.08760000  1.0 -0.0545875409
C  C8  1  0.23284000  0.43816000  0.41240000  1.0 -0.0545875409
C  C9  1  0.52186000  0.65334000  0.98270000  1.0 0.0811023659
C  C10  1  0.65334000  0.52186000  0.51730000  1.0 0.0811023659
C  C11  1  0.47814000  0.34666000  0.01730000  1.0 0.0811023659
C  C12  1  0.34666000  0.47814000  0.48270000  1.0 0.0811023659
C  C13  1  0.46948000  0.63272000  0.05540000  1.0 -0.1978236173
C  C14  1  0.63272000  0.46948000  0.44460000  1.0 -0.1978236173
C  C15  1  0.53052000  0.36728000  0.94460000  1.0 -0.1978236173
C  C16  1  0.36728000  0.53052000  0.55540000  1.0 -0.1978236173
C  C17  1  0.46144000  0.72936000  0.05500000  1.0 0.0811023659
C  C18  1  0.72936000  0.46144000  0.44500000  1.0 0.0811023659
C  C19  1  0.53856000  0.27064000  0.94500000  1.0 0.0811023659
C  C20  1  0.27064000  0.53856000  0.55500000  1.0 0.0811023659
N  N1  1  0.54206000  0.56414000  0.97698000  1.0 -0.1004711191
N  N2  1  0.56414000  0.54206000  0.52302000  1.0 -0.1004711191
N  N3  1  0.45794000  0.43586000  0.02302000  1.0 -0.1004711191
N  N4  1  0.43586000  0.45794000  0.47698000  1.0 -0.1004711191
N  N5  1  0.49830000  0.84030000  0.98732000  1.0 -0.1433976923
N  N6  1  0.84030000  0.49830000  0.51268000  1.0 -0.1433976923
N  N7  1  0.50170000  0.15970000  0.01268000  1.0 -0.1450259869
N  N8  1  0.15970000  0.50170000  0.48732000  1.0 -0.1450259869
N  N9  1  0.65000000  0.67700000  0.75370000  1.0 0.2238854731
N  N10  1  0.67700000  0.65000000  0.74630000  1.0 0.2238854731
N  N11  1  0.35000000  0.32300000  0.24630000  1.0 0.2238854731
N  N12  1  0.32300000  0.35000000  0.25370000  1.0 0.2238854731
N  N13  1  0.76925000  0.29715000  0.33155000  1.0 0.6884514356
N  N14  1  0.29715000  0.76925000  0.16845000  1.0 0.6884514356
N  N15  1  0.23075000  0.70285000  0.66845000  1.0 0.6884514356
N  N16  1  0.70285000  0.23075000  0.83155000  1.0 0.6884514356
Cl  Cl1  1  0.61270000  0.79370000  0.82040000  1.0 -0.0091181455
Cl  Cl2  1  0.79370000  0.61270000  0.67960000  1.0 -0.0091181455
Cl  Cl3  1  0.38730000  0.20630000  0.17960000  1.0 -0.0091181455
Cl  Cl4  1  0.20630000  0.38730000  0.32040000  1.0 -0.0091181455
O  O1  1  0.53490000  0.65650000  0.74160000  1.0 -0.1004711191
O  O2  1  0.65650000  0.53490000  0.75840000  1.0 -0.1004711191
O  O3  1  0.46510000  0.34350000  0.25840000  1.0 -0.1004711191
O  O4  1  0.34350000  0.46510000  0.24160000  1.0 -0.1004711191
O  O5  1  0.57050000  0.62590000  0.75430000  1.0 0.1682302247
O  O6  1  0.62590000  0.57050000  0.74570000  1.0 0.1682302247
O  O7  1  0.42950000  0.37410000  0.24570000  1.0 0.1682302247
O  O8  1  0.37410000  0.42950000  0.25430000  1.0 0.1682302247
O  O9  1  0.77490000  0.80130000  0.77580000  1.0 -0.021542608
O  O10  1  0.80130000  0.77490000  0.72420000  1.0 -0.021542608
O  O11  1  0.22510000  0.19870000  0.22420000  1.0 -0.021542608
O  O12  1  0.19870000  0.22510000  0.27580000  1.0 -0.021542608
O  O13  1  0.75556000  0.22624000  0.40829000  1.0 -0.4571649864
O  O14  1  0.67211000  0.22449000  0.26744000  1.0 -0.4571649864
O  O15  1  0.88051000  0.44229000  0.31971000  1.0 -0.4747656172
O  O16  1  0.22624000  0.75556000  0.09171000  1.0 -0.4545304512
O  O17  1  0.22449000  0.67211000  0.23256000  1.0 -0.4571649864
O  O18  1  0.44229000  0.88051000  0.18029000  1.0 -0.4747656172
O  O19  1  0.24444000  0.77376000  0.59171000  1.0 -0.4545304512
O  O20  1  0.32789000  0.77551000  0.73256000  1.0 -0.4571649864
O  O21  1  0.11949000  0.55771000  0.68029000  1.0 -0.4747656172
O  O22  1  0.77376000  0.24444000  0.90829000  1.0 -0.4571649864
O  O23  1  0.77551000  0.32789000  0.76744000  1.0 -0.4571649864
O  O24  1  0.55771000  0.11949000  0.81971000  1.0 -0.4747656172
