# DDEC6 charges by PACMAN v1.1 (https://github.com/mtap-research/PACMAN-charge/)
data_SAYKIO_ASR_pacman
_symmetry_space_group_name_H-M   'P 1'
_cell_length_a   18.40660000
_cell_length_b   18.40660000
_cell_length_c   20.42600000
_cell_angle_alpha   66.19280000
_cell_angle_beta   113.80700000
_cell_angle_gamma   150.75800000
_symmetry_Int_Tables_number   1
_chemical_formula_structural   U3H40C52O19
_chemical_formula_sum   'U6 H80 C104 O38'
_cell_volume   3072.39393454
_cell_formula_units_Z   2
loop_
 _symmetry_equiv_pos_site_id
 _symmetry_equiv_pos_as_xyz
  1  'x, y, z'
loop_
 _atom_site_type_symbol
 _atom_site_label
 _atom_site_symmetry_multiplicity
 _atom_site_fract_x
 _atom_site_fract_y
 _atom_site_fract_z
 _atom_site_occupancy
 _atom_site_charge
U  U1  1  0.10348000  0.78182000  0.09426000  1.0 1.6489676663
U  U2  1  0.78182000  0.10348000  0.40574000  1.0 1.6489676663
U  U3  1  0.89652000  0.21818000  0.90574000  1.0 1.6489676663
U  U4  1  0.21818000  0.89652000  0.59426000  1.0 1.6489676663
U  U5  1  0.00000000  0.00000000  0.00000000  1.0 1.5712855288
U  U6  1  0.00000000  0.00000000  0.50000000  1.0 1.5712855288
H  H1  1  0.85140000  0.07780000  0.10530000  1.0 0.0899254378
H  H2  1  0.07780000  0.85140000  0.39470000  1.0 0.0899254378
H  H3  1  0.14860000  0.92220000  0.89470000  1.0 0.0899254378
H  H4  1  0.92220000  0.14860000  0.60530000  1.0 0.0899254378
H  H5  1  0.92910000  0.20230000  0.13760000  1.0 0.0815069777
H  H6  1  0.20230000  0.92910000  0.36240000  1.0 0.0815069777
H  H7  1  0.07090000  0.79770000  0.86240000  1.0 0.0815069777
H  H8  1  0.79770000  0.07090000  0.63760000  1.0 0.0815069777
H  H9  1  0.89010000  0.96230000  0.17570000  1.0 0.0899254378
H  H10  1  0.96230000  0.89010000  0.32430000  1.0 0.0899254378
H  H11  1  0.10990000  0.03770000  0.82430000  1.0 0.0899254378
H  H12  1  0.03770000  0.10990000  0.67570000  1.0 0.0899254378
H  H13  1  0.86930000  0.94570000  0.25060000  1.0 0.0899254378
H  H14  1  0.94570000  0.86930000  0.24940000  1.0 0.0899254378
H  H15  1  0.13070000  0.05430000  0.74940000  1.0 0.0899254378
H  H16  1  0.05430000  0.13070000  0.75060000  1.0 0.0899254378
H  H17  1  0.02210000  0.17350000  0.29660000  1.0 0.0899254378
H  H18  1  0.17350000  0.02210000  0.20340000  1.0 0.0899254378
H  H19  1  0.97790000  0.82650000  0.70340000  1.0 0.0899254378
H  H20  1  0.82650000  0.97790000  0.79660000  1.0 0.0899254378
H  H21  1  0.09140000  0.30840000  0.23900000  1.0 0.0815069777
H  H22  1  0.30840000  0.09140000  0.26100000  1.0 0.0815069777
H  H23  1  0.90860000  0.69160000  0.76100000  1.0 0.0815069777
H  H24  1  0.69160000  0.90860000  0.73900000  1.0 0.0815069777
H  H25  1  0.07210000  0.20470000  0.10240000  1.0 0.0815069777
H  H26  1  0.20470000  0.07210000  0.39760000  1.0 0.0815069777
H  H27  1  0.92790000  0.79530000  0.89760000  1.0 0.0815069777
H  H28  1  0.79530000  0.92790000  0.60240000  1.0 0.0815069777
H  H29  1  0.19480000  0.27540000  0.16910000  1.0 0.1004385815
H  H30  1  0.27540000  0.19480000  0.33090000  1.0 0.1004385815
H  H31  1  0.80520000  0.72460000  0.83090000  1.0 0.1004385815
H  H32  1  0.72460000  0.80520000  0.66910000  1.0 0.1004385815
H  H33  1  0.19750000  0.40730000  0.32550000  1.0 0.1095640605
H  H34  1  0.40730000  0.19750000  0.17450000  1.0 0.1095640605
H  H35  1  0.80250000  0.59270000  0.67450000  1.0 0.1095640605
H  H36  1  0.59270000  0.80250000  0.82550000  1.0 0.1095640605
H  H37  1  0.40500000  0.64100000  0.38350000  1.0 0.1095640605
H  H38  1  0.64100000  0.40500000  0.11650000  1.0 0.1095640605
H  H39  1  0.59500000  0.35900000  0.61650000  1.0 0.1095640605
H  H40  1  0.35900000  0.59500000  0.88350000  1.0 0.1095640605
H  H41  1  0.67510000  0.72730000  0.34930000  1.0 0.1004385815
H  H42  1  0.72730000  0.67510000  0.15070000  1.0 0.1004385815
H  H43  1  0.32490000  0.27270000  0.65070000  1.0 0.1004385815
H  H44  1  0.27270000  0.32490000  0.84930000  1.0 0.1004385815
H  H45  1  0.49650000  0.52690000  0.29190000  1.0 0.1337276508
H  H46  1  0.52690000  0.49650000  0.20810000  1.0 0.1337276508
H  H47  1  0.50350000  0.47310000  0.70810000  1.0 0.1337276508
H  H48  1  0.47310000  0.50350000  0.79190000  1.0 0.1337276508
H  H49  1  0.34590000  0.64470000  0.07670000  1.0 0.1337276508
H  H50  1  0.64470000  0.34590000  0.42330000  1.0 0.1337276508
H  H51  1  0.65410000  0.35530000  0.92330000  1.0 0.1337276508
H  H52  1  0.35530000  0.65410000  0.57670000  1.0 0.1337276508
H  H53  1  0.57170000  0.85790000  0.02970000  1.0 0.1095640605
H  H54  1  0.85790000  0.57170000  0.47030000  1.0 0.1095640605
H  H55  1  0.42830000  0.14210000  0.97030000  1.0 0.1095640605
H  H56  1  0.14210000  0.42830000  0.52970000  1.0 0.1095640605
H  H57  1  0.55150000  0.62430000  0.03110000  1.0 0.1095640605
H  H58  1  0.62430000  0.55150000  0.46890000  1.0 0.1095640605
H  H59  1  0.44850000  0.37570000  0.96890000  1.0 0.1095640605
H  H60  1  0.37570000  0.44850000  0.53110000  1.0 0.1095640605
H  H61  1  0.33150000  0.41310000  0.08110000  1.0 0.1198092141
H  H62  1  0.41310000  0.33150000  0.41890000  1.0 0.1198092141
H  H63  1  0.66850000  0.58690000  0.91890000  1.0 0.1198092141
H  H64  1  0.58690000  0.66850000  0.58110000  1.0 0.1198092141
H  H65  1  0.52370000  0.78330000  0.23160000  1.0 0.1198092141
H  H66  1  0.78330000  0.52370000  0.26840000  1.0 0.1198092141
H  H67  1  0.47630000  0.21670000  0.76840000  1.0 0.1198092141
H  H68  1  0.21670000  0.47630000  0.73160000  1.0 0.1198092141
H  H69  1  0.33490000  0.71370000  0.20370000  1.0 0.1198092141
H  H70  1  0.71370000  0.33490000  0.29630000  1.0 0.1198092141
H  H71  1  0.66510000  0.28630000  0.79630000  1.0 0.1198092141
H  H72  1  0.28630000  0.66510000  0.70370000  1.0 0.1198092141
H  H73  1  0.57760000  0.08140000  0.06780000  1.0 0.1198092141
H  H74  1  0.08140000  0.57760000  0.43220000  1.0 0.1198092141
H  H75  1  0.42240000  0.91860000  0.93220000  1.0 0.1198092141
H  H76  1  0.91860000  0.42240000  0.56780000  1.0 0.1198092141
H  H77  1  0.76710000  0.14950000  0.09170000  1.0 0.1198092141
H  H78  1  0.14950000  0.76710000  0.40830000  1.0 0.1198092141
H  H79  1  0.23290000  0.85050000  0.90830000  1.0 0.1198092141
H  H80  1  0.85050000  0.23290000  0.59170000  1.0 0.1198092141
C  C1  1  0.00810000  0.15430000  0.19280000  1.0 0.0646977105
C  C2  1  0.15430000  0.00810000  0.30720000  1.0 0.0646977105
C  C3  1  0.99190000  0.84570000  0.80720000  1.0 0.0646977105
C  C4  1  0.84570000  0.99190000  0.69280000  1.0 0.0646977105
C  C5  1  0.88730000  0.11410000  0.14980000  1.0 -0.090328639
C  C6  1  0.11410000  0.88730000  0.35020000  1.0 -0.090328639
C  C7  1  0.11270000  0.88590000  0.85020000  1.0 -0.090328639
C  C8  1  0.88590000  0.11270000  0.64980000  1.0 -0.090328639
C  C9  1  0.94130000  0.01370000  0.21700000  1.0 -0.090328639
C  C10  1  0.01370000  0.94130000  0.28300000  1.0 -0.090328639
C  C11  1  0.05870000  0.98630000  0.78300000  1.0 -0.090328639
C  C12  1  0.98630000  0.05870000  0.71700000  1.0 -0.090328639
C  C13  1  0.08090000  0.24230000  0.25620000  1.0 -0.0737319611
C  C14  1  0.24230000  0.08090000  0.24380000  1.0 -0.0737319611
C  C15  1  0.91910000  0.75770000  0.74380000  1.0 -0.0737319611
C  C16  1  0.75770000  0.91910000  0.75620000  1.0 -0.0737319611
C  C17  1  0.12070000  0.25410000  0.14410000  1.0 -0.1185668282
C  C18  1  0.25410000  0.12070000  0.35590000  1.0 -0.1185668282
C  C19  1  0.87930000  0.74590000  0.85590000  1.0 -0.1185668282
C  C20  1  0.74590000  0.87930000  0.64410000  1.0 -0.1185668282
C  C21  1  0.34020000  0.45780000  0.30760000  1.0 0.2128931262
C  C22  1  0.45780000  0.34020000  0.19240000  1.0 0.2128931262
C  C23  1  0.65980000  0.54220000  0.69240000  1.0 0.2128931262
C  C24  1  0.54220000  0.65980000  0.80760000  1.0 0.2128931262
C  C25  1  0.29690000  0.47650000  0.33100000  1.0 -0.2465400569
C  C26  1  0.47650000  0.29690000  0.16900000  1.0 -0.2465400569
C  C27  1  0.70310000  0.52350000  0.66900000  1.0 -0.2465400569
C  C28  1  0.52350000  0.70310000  0.83100000  1.0 -0.2465400569
C  C29  1  0.42230000  0.61770000  0.36610000  1.0 -0.090328639
C  C30  1  0.61770000  0.42230000  0.13390000  1.0 -0.090328639
C  C31  1  0.57770000  0.38230000  0.63390000  1.0 -0.090328639
C  C32  1  0.38230000  0.57770000  0.86610000  1.0 -0.090328639
C  C33  1  0.56510000  0.71010000  0.37080000  1.0 -0.1257353447
C  C34  1  0.71010000  0.56510000  0.12920000  1.0 -0.1257353447
C  C35  1  0.43490000  0.28990000  0.62920000  1.0 -0.1257353447
C  C36  1  0.28990000  0.43490000  0.87080000  1.0 -0.1257353447
C  C37  1  0.57850000  0.66450000  0.34350000  1.0 -0.1185668282
C  C38  1  0.66450000  0.57850000  0.15650000  1.0 -0.1185668282
C  C39  1  0.42150000  0.33550000  0.65650000  1.0 -0.1185668282
C  C40  1  0.33550000  0.42150000  0.84350000  1.0 -0.1185668282
C  C41  1  0.47600000  0.54600000  0.31050000  1.0 -0.1897333495
C  C42  1  0.54600000  0.47600000  0.18950000  1.0 -0.1897333495
C  C43  1  0.52400000  0.45400000  0.68950000  1.0 -0.1897333495
C  C44  1  0.45400000  0.52400000  0.81050000  1.0 -0.1897333495
C  C45  1  0.69450000  0.84710000  0.40380000  1.0 0.5784002074
C  C46  1  0.84710000  0.69450000  0.09620000  1.0 0.5784002074
C  C47  1  0.30550000  0.15290000  0.59620000  1.0 0.5784002074
C  C48  1  0.15290000  0.30550000  0.90380000  1.0 0.5784002074
C  C49  1  0.31840000  0.50840000  0.08800000  1.0 0.2614688255
C  C50  1  0.50840000  0.31840000  0.41200000  1.0 0.2614688255
C  C51  1  0.68160000  0.49160000  0.91200000  1.0 0.2614688255
C  C52  1  0.49160000  0.68160000  0.58800000  1.0 0.2614688255
C  C53  1  0.38930000  0.64090000  0.06940000  1.0 -0.2301619615
C  C54  1  0.64090000  0.38930000  0.43060000  1.0 -0.2301619615
C  C55  1  0.61070000  0.35910000  0.93060000  1.0 -0.2301619615
C  C56  1  0.35910000  0.61070000  0.56940000  1.0 -0.2301619615
C  C57  1  0.52340000  0.76840000  0.04020000  1.0 -0.090328639
C  C58  1  0.76840000  0.52340000  0.45980000  1.0 -0.090328639
C  C59  1  0.47660000  0.23160000  0.95980000  1.0 -0.090328639
C  C60  1  0.23160000  0.47660000  0.54020000  1.0 -0.090328639
C  C61  1  0.58700000  0.76180000  0.02630000  1.0 -0.1185668282
C  C62  1  0.76180000  0.58700000  0.47370000  1.0 -0.1185668282
C  C63  1  0.41300000  0.23820000  0.97370000  1.0 -0.1185668282
C  C64  1  0.23820000  0.41300000  0.52630000  1.0 -0.1185668282
C  C65  1  0.51200000  0.63000000  0.04150000  1.0 -0.080334714
C  C66  1  0.63000000  0.51200000  0.45850000  1.0 -0.080334714
C  C67  1  0.48800000  0.37000000  0.95850000  1.0 -0.080334714
C  C68  1  0.37000000  0.48800000  0.54150000  1.0 -0.080334714
C  C69  1  0.37960000  0.50240000  0.07170000  1.0 -0.2585985943
C  C70  1  0.50240000  0.37960000  0.42830000  1.0 -0.2585985943
C  C71  1  0.62040000  0.49760000  0.92830000  1.0 -0.2585985943
C  C72  1  0.49760000  0.62040000  0.57170000  1.0 -0.2585985943
C  C73  1  0.73150000  0.89770000  0.99950000  1.0 0.5907064506
C  C74  1  0.89770000  0.73150000  0.50050000  1.0 0.5907064506
C  C75  1  0.26850000  0.10230000  0.00050000  1.0 0.5907064506
C  C76  1  0.10230000  0.26850000  0.49950000  1.0 0.5907064506
C  C77  1  0.66420000  0.97400000  0.16650000  1.0 0.2267542236
C  C78  1  0.97400000  0.66420000  0.33350000  1.0 0.2267542236
C  C79  1  0.33580000  0.02600000  0.83350000  1.0 0.2267542236
C  C80  1  0.02600000  0.33580000  0.66650000  1.0 0.2267542236
C  C81  1  0.53550000  0.84490000  0.19820000  1.0 -0.2301619615
C  C82  1  0.84490000  0.53550000  0.30180000  1.0 -0.2301619615
C  C83  1  0.46450000  0.15510000  0.80180000  1.0 -0.2301619615
C  C84  1  0.15510000  0.46450000  0.69820000  1.0 -0.2301619615
C  C85  1  0.42300000  0.80320000  0.18220000  1.0 -0.1072265863
C  C86  1  0.80320000  0.42300000  0.31780000  1.0 -0.1072265863
C  C87  1  0.57700000  0.19680000  0.81780000  1.0 -0.1072265863
C  C88  1  0.19680000  0.57700000  0.68220000  1.0 -0.1072265863
C  C89  1  0.44330000  0.89650000  0.13380000  1.0 -0.0416587609
C  C90  1  0.89650000  0.44330000  0.36620000  1.0 -0.0416587609
C  C91  1  0.55670000  0.10350000  0.86620000  1.0 -0.0416587609
C  C92  1  0.10350000  0.55670000  0.63380000  1.0 -0.0416587609
C  C93  1  0.56700000  0.02060000  0.10130000  1.0 -0.090328639
C  C94  1  0.02060000  0.56700000  0.39870000  1.0 -0.090328639
C  C95  1  0.43300000  0.97940000  0.89870000  1.0 -0.090328639
C  C96  1  0.97940000  0.43300000  0.60130000  1.0 -0.090328639
C  C97  1  0.68220000  0.06360000  0.11570000  1.0 -0.2435200832
C  C98  1  0.06360000  0.68220000  0.38430000  1.0 -0.2435200832
C  C99  1  0.31780000  0.93640000  0.88430000  1.0 -0.2435200832
C  C100  1  0.93640000  0.31780000  0.61570000  1.0 -0.2435200832
C  C101  1  0.32420000  0.85440000  0.12150000  1.0 0.5342482753
C  C102  1  0.85440000  0.32420000  0.37850000  1.0 0.5352132745
C  C103  1  0.67580000  0.14560000  0.87850000  1.0 0.5352132745
C  C104  1  0.14560000  0.67580000  0.62150000  1.0 0.5342482753
O  O1  1  0.77050000  0.00530000  0.18990000  1.0 -0.180884248
O  O2  1  0.00530000  0.77050000  0.31010000  1.0 -0.180884248
O  O3  1  0.22950000  0.99470000  0.81010000  1.0 -0.180884248
O  O4  1  0.99470000  0.22950000  0.68990000  1.0 -0.180884248
O  O5  1  0.05820000  0.05820000  0.25000000  1.0 -0.1897333495
O  O6  1  0.94180000  0.94180000  0.75000000  1.0 -0.1897333495
O  O7  1  0.22330000  0.32470000  0.27510000  1.0 -0.2585985943
O  O8  1  0.32470000  0.22330000  0.22490000  1.0 -0.2585985943
O  O9  1  0.77670000  0.67530000  0.72490000  1.0 -0.2585985943
O  O10  1  0.67530000  0.77670000  0.77510000  1.0 -0.2585985943
O  O11  1  0.19381000  0.39319000  0.12090000  1.0 -0.1897333495
O  O12  1  0.39319000  0.19381000  0.37910000  1.0 -0.1897333495
O  O13  1  0.80619000  0.60681000  0.87910000  1.0 -0.1897333495
O  O14  1  0.60681000  0.80619000  0.62090000  1.0 -0.1897333495
O  O15  1  0.20720000  0.73660000  0.15050000  1.0 -0.5830102734
O  O16  1  0.73660000  0.20720000  0.34950000  1.0 -0.5830102734
O  O17  1  0.79280000  0.26340000  0.84950000  1.0 -0.5830102734
O  O18  1  0.26340000  0.79280000  0.65050000  1.0 -0.5830102734
O  O19  1  0.34380000  0.94340000  0.07980000  1.0 -0.5981610231
O  O20  1  0.94340000  0.34380000  0.42020000  1.0 -0.6063646334
O  O21  1  0.65620000  0.05660000  0.92020000  1.0 -0.6063646334
O  O22  1  0.05660000  0.65620000  0.57980000  1.0 -0.6063646334
O  O23  1  0.78780000  0.88740000  0.99290000  1.0 -0.6432729534
O  O24  1  0.88740000  0.78780000  0.50710000  1.0 -0.6432729534
O  O25  1  0.21220000  0.11260000  0.00710000  1.0 -0.6432729534
O  O26  1  0.11260000  0.21220000  0.49290000  1.0 -0.6432729534
O  O27  1  0.79630000  0.01690000  0.98170000  1.0 -0.5981610231
O  O28  1  0.01690000  0.79630000  0.51830000  1.0 -0.5981610231
O  O29  1  0.20370000  0.98310000  0.01830000  1.0 -0.5981610231
O  O30  1  0.98310000  0.20370000  0.48170000  1.0 -0.5981610231
O  O31  1  0.68530000  0.89830000  0.41830000  1.0 -0.6201666765
O  O32  1  0.89830000  0.68530000  0.08170000  1.0 -0.6201666765
O  O33  1  0.31470000  0.10170000  0.58170000  1.0 -0.6201666765
O  O34  1  0.10170000  0.31470000  0.91830000  1.0 -0.6201666765
O  O35  1  0.81380000  0.91340000  0.41530000  1.0 -0.6063646334
O  O36  1  0.91340000  0.81380000  0.08470000  1.0 -0.6063646334
O  O37  1  0.18620000  0.08660000  0.58470000  1.0 -0.6063646334
O  O38  1  0.08660000  0.18620000  0.91530000  1.0 -0.6063646334
