# DDEC6 charges by PACMAN v1.1 (https://github.com/mtap-research/PACMAN-charge/)
data_SAYWUO_ASR_pacman
_symmetry_space_group_name_H-M   'P 1'
_cell_length_a   16.94370000
_cell_length_b   16.94370000
_cell_length_c   16.94370000
_cell_angle_alpha   60.00000000
_cell_angle_beta   60.00000000
_cell_angle_gamma   60.00000000
_symmetry_Int_Tables_number   1
_chemical_formula_structural   Th3H36C54(N9O8)2
_chemical_formula_sum   'Th6 H72 C108 N36 O32'
_cell_volume   3439.61442964
_cell_formula_units_Z   2
loop_
 _symmetry_equiv_pos_site_id
 _symmetry_equiv_pos_as_xyz
  1  'x, y, z'
loop_
 _atom_site_type_symbol
 _atom_site_label
 _atom_site_symmetry_multiplicity
 _atom_site_fract_x
 _atom_site_fract_y
 _atom_site_fract_z
 _atom_site_occupancy
 _atom_site_charge
Th  Th1  1  0.11554000  0.11554000  0.88446000  1.0 1.6857521542
Th  Th2  1  0.88446000  0.88446000  0.11554000  1.0 1.6838798829
Th  Th3  1  0.88446000  0.11554000  0.11554000  1.0 1.6857521542
Th  Th4  1  0.11554000  0.88446000  0.88446000  1.0 1.6838798829
Th  Th5  1  0.11554000  0.88446000  0.11554000  1.0 1.6857521542
Th  Th6  1  0.88446000  0.11554000  0.88446000  1.0 1.6857521542
H  H1  1  0.11890000  0.38670000  0.61330000  1.0 0.0612127496
H  H2  1  0.11870000  0.52370000  0.47630000  1.0 0.100882261
H  H3  1  0.11990000  0.65170000  0.34830000  1.0 0.0680090746
H  H4  1  0.38670000  0.11890000  0.88110000  1.0 0.0612127496
H  H5  1  0.52370000  0.11870000  0.88130000  1.0 0.100882261
H  H6  1  0.65170000  0.11990000  0.88010000  1.0 0.0680090746
H  H7  1  0.61330000  0.88110000  0.11890000  1.0 0.0612127496
H  H8  1  0.47630000  0.88130000  0.11870000  1.0 0.100882261
H  H9  1  0.34830000  0.88010000  0.11990000  1.0 0.0680090746
H  H10  1  0.88110000  0.61330000  0.38670000  1.0 0.0612127496
H  H11  1  0.88130000  0.47630000  0.52370000  1.0 0.100882261
H  H12  1  0.88010000  0.34830000  0.65170000  1.0 0.0680090746
H  H13  1  0.61330000  0.11890000  0.38670000  1.0 0.0612127496
H  H14  1  0.47630000  0.11870000  0.52370000  1.0 0.100882261
H  H15  1  0.34830000  0.11990000  0.65170000  1.0 0.0680090746
H  H16  1  0.88110000  0.38670000  0.11890000  1.0 0.0612127496
H  H17  1  0.88130000  0.52370000  0.11870000  1.0 0.100882261
H  H18  1  0.88010000  0.65170000  0.11990000  1.0 0.0680090746
H  H19  1  0.11890000  0.61330000  0.88110000  1.0 0.0612127496
H  H20  1  0.11870000  0.47630000  0.88130000  1.0 0.100882261
H  H21  1  0.11990000  0.34830000  0.88010000  1.0 0.0680090746
H  H22  1  0.38670000  0.88110000  0.61330000  1.0 0.0612127496
H  H23  1  0.52370000  0.88130000  0.47630000  1.0 0.100882261
H  H24  1  0.65170000  0.88010000  0.34830000  1.0 0.0680090746
H  H25  1  0.38670000  0.61330000  0.11890000  1.0 0.0612127496
H  H26  1  0.52370000  0.47630000  0.11870000  1.0 0.100882261
H  H27  1  0.65170000  0.34830000  0.11990000  1.0 0.0680090746
H  H28  1  0.11890000  0.88110000  0.38670000  1.0 0.0612127496
H  H29  1  0.11870000  0.88130000  0.52370000  1.0 0.100882261
H  H30  1  0.11990000  0.88010000  0.65170000  1.0 0.0680090746
H  H31  1  0.88110000  0.11890000  0.61330000  1.0 0.0612127496
H  H32  1  0.88130000  0.11870000  0.47630000  1.0 0.100882261
H  H33  1  0.88010000  0.11990000  0.34830000  1.0 0.0680090746
H  H34  1  0.61330000  0.38670000  0.88110000  1.0 0.0612127496
H  H35  1  0.47630000  0.52370000  0.88130000  1.0 0.100882261
H  H36  1  0.34830000  0.65170000  0.88010000  1.0 0.0680090746
H  H37  1  0.88110000  0.61330000  0.11890000  1.0 0.0612127496
H  H38  1  0.88130000  0.47630000  0.11870000  1.0 0.100882261
H  H39  1  0.88010000  0.34830000  0.11990000  1.0 0.0680090746
H  H40  1  0.61330000  0.88110000  0.38670000  1.0 0.0612127496
H  H41  1  0.47630000  0.88130000  0.52370000  1.0 0.100882261
H  H42  1  0.34830000  0.88010000  0.65170000  1.0 0.0680090746
H  H43  1  0.38670000  0.11890000  0.61330000  1.0 0.0612127496
H  H44  1  0.52370000  0.11870000  0.47630000  1.0 0.100882261
H  H45  1  0.65170000  0.11990000  0.34830000  1.0 0.0680090746
H  H46  1  0.11890000  0.38670000  0.88110000  1.0 0.0612127496
H  H47  1  0.11870000  0.52370000  0.88130000  1.0 0.100882261
H  H48  1  0.11990000  0.65170000  0.88010000  1.0 0.0680090746
H  H49  1  0.38670000  0.88110000  0.11890000  1.0 0.0612127496
H  H50  1  0.52370000  0.88130000  0.11870000  1.0 0.100882261
H  H51  1  0.65170000  0.88010000  0.11990000  1.0 0.0680090746
H  H52  1  0.11890000  0.61330000  0.38670000  1.0 0.0612127496
H  H53  1  0.11870000  0.47630000  0.52370000  1.0 0.100882261
H  H54  1  0.11990000  0.34830000  0.65170000  1.0 0.0680090746
H  H55  1  0.88110000  0.38670000  0.61330000  1.0 0.0612127496
H  H56  1  0.88130000  0.52370000  0.47630000  1.0 0.100882261
H  H57  1  0.88010000  0.65170000  0.34830000  1.0 0.0680090746
H  H58  1  0.61330000  0.11890000  0.88110000  1.0 0.0612127496
H  H59  1  0.47630000  0.11870000  0.88130000  1.0 0.100882261
H  H60  1  0.34830000  0.11990000  0.88010000  1.0 0.0680090746
H  H61  1  0.61330000  0.38670000  0.11890000  1.0 0.0612127496
H  H62  1  0.47630000  0.52370000  0.11870000  1.0 0.100882261
H  H63  1  0.34830000  0.65170000  0.11990000  1.0 0.0680090746
H  H64  1  0.88110000  0.11890000  0.38670000  1.0 0.0612127496
H  H65  1  0.88130000  0.11870000  0.52370000  1.0 0.100882261
H  H66  1  0.88010000  0.11990000  0.65170000  1.0 0.0680090746
H  H67  1  0.11890000  0.88110000  0.61330000  1.0 0.0612127496
H  H68  1  0.11870000  0.88130000  0.47630000  1.0 0.100882261
H  H69  1  0.11990000  0.88010000  0.34830000  1.0 0.0680090746
H  H70  1  0.38670000  0.61330000  0.88110000  1.0 0.0612127496
H  H71  1  0.52370000  0.47630000  0.88130000  1.0 0.100882261
H  H72  1  0.65170000  0.34830000  0.88010000  1.0 0.0680090746
C  C1  1  0.06770000  0.66850000  0.33150000  1.0 0.088325582
C  C2  1  0.07130000  0.41410000  0.58590000  1.0 0.0612127496
C  C3  1  0.07130000  0.49610000  0.50390000  1.0 -0.217075691
C  C4  1  0.66850000  0.06770000  0.93230000  1.0 0.088325582
C  C5  1  0.41410000  0.07130000  0.92870000  1.0 0.0612127496
C  C6  1  0.49610000  0.07130000  0.92870000  1.0 -0.217075691
C  C7  1  0.33150000  0.93230000  0.06770000  1.0 0.088325582
C  C8  1  0.58590000  0.92870000  0.07130000  1.0 0.0612127496
C  C9  1  0.50390000  0.92870000  0.07130000  1.0 -0.217075691
C  C10  1  0.93230000  0.33150000  0.66850000  1.0 0.088325582
C  C11  1  0.92870000  0.58590000  0.41410000  1.0 0.0680090746
C  C12  1  0.92870000  0.50390000  0.49610000  1.0 -0.217075691
C  C13  1  0.33150000  0.06770000  0.66850000  1.0 0.088325582
C  C14  1  0.58590000  0.07130000  0.41410000  1.0 0.0612127496
C  C15  1  0.50390000  0.07130000  0.49610000  1.0 -0.217075691
C  C16  1  0.93230000  0.66850000  0.06770000  1.0 0.088325582
C  C17  1  0.92870000  0.41410000  0.07130000  1.0 0.0612127496
C  C18  1  0.92870000  0.49610000  0.07130000  1.0 -0.217075691
C  C19  1  0.06770000  0.33150000  0.93230000  1.0 0.088325582
C  C20  1  0.07130000  0.58590000  0.92870000  1.0 0.0612127496
C  C21  1  0.07130000  0.50390000  0.92870000  1.0 -0.217075691
C  C22  1  0.66850000  0.93230000  0.33150000  1.0 0.088325582
C  C23  1  0.41410000  0.92870000  0.58590000  1.0 0.0612127496
C  C24  1  0.49610000  0.92870000  0.50390000  1.0 -0.217075691
C  C25  1  0.66850000  0.33150000  0.06770000  1.0 0.088325582
C  C26  1  0.41410000  0.58590000  0.07130000  1.0 0.0612127496
C  C27  1  0.49610000  0.50390000  0.07130000  1.0 -0.217075691
C  C28  1  0.06770000  0.93230000  0.66850000  1.0 0.088325582
C  C29  1  0.07130000  0.92870000  0.41410000  1.0 0.0612127496
C  C30  1  0.07130000  0.92870000  0.49610000  1.0 -0.217075691
C  C31  1  0.93230000  0.06770000  0.33150000  1.0 0.088325582
C  C32  1  0.92870000  0.07130000  0.58590000  1.0 0.0612127496
C  C33  1  0.92870000  0.07130000  0.50390000  1.0 -0.217075691
C  C34  1  0.33150000  0.66850000  0.93230000  1.0 0.088325582
C  C35  1  0.58590000  0.41410000  0.92870000  1.0 0.0612127496
C  C36  1  0.50390000  0.49610000  0.92870000  1.0 -0.217075691
C  C37  1  0.93230000  0.33150000  0.06770000  1.0 0.088325582
C  C38  1  0.92870000  0.58590000  0.07130000  1.0 0.0612127496
C  C39  1  0.92870000  0.50390000  0.07130000  1.0 -0.217075691
C  C40  1  0.33150000  0.93230000  0.66850000  1.0 0.088325582
C  C41  1  0.58590000  0.92870000  0.41410000  1.0 0.0612127496
C  C42  1  0.50390000  0.92870000  0.49610000  1.0 -0.217075691
C  C43  1  0.66850000  0.06770000  0.33150000  1.0 0.088325582
C  C44  1  0.41410000  0.07130000  0.58590000  1.0 0.0612127496
C  C45  1  0.49610000  0.07130000  0.50390000  1.0 -0.217075691
C  C46  1  0.06770000  0.66850000  0.93230000  1.0 0.088325582
C  C47  1  0.07130000  0.41410000  0.92870000  1.0 0.0612127496
C  C48  1  0.07130000  0.49610000  0.92870000  1.0 -0.217075691
C  C49  1  0.66850000  0.93230000  0.06770000  1.0 0.088325582
C  C50  1  0.41410000  0.92870000  0.07130000  1.0 0.0612127496
C  C51  1  0.49610000  0.92870000  0.07130000  1.0 -0.217075691
C  C52  1  0.06770000  0.33150000  0.66850000  1.0 0.088325582
C  C53  1  0.07130000  0.58590000  0.41410000  1.0 0.0612127496
C  C54  1  0.07130000  0.50390000  0.49610000  1.0 -0.217075691
C  C55  1  0.93230000  0.66850000  0.33150000  1.0 0.088325582
C  C56  1  0.92870000  0.41410000  0.58590000  1.0 0.0612127496
C  C57  1  0.92870000  0.49610000  0.50390000  1.0 -0.217075691
C  C58  1  0.33150000  0.06770000  0.93230000  1.0 0.088325582
C  C59  1  0.58590000  0.07130000  0.92870000  1.0 0.0612127496
C  C60  1  0.50390000  0.07130000  0.92870000  1.0 -0.217075691
C  C61  1  0.33150000  0.66850000  0.06770000  1.0 0.088325582
C  C62  1  0.58590000  0.41410000  0.07130000  1.0 0.0612127496
C  C63  1  0.50390000  0.49610000  0.07130000  1.0 -0.217075691
C  C64  1  0.93230000  0.06770000  0.66850000  1.0 0.088325582
C  C65  1  0.92870000  0.07130000  0.41410000  1.0 0.0612127496
C  C66  1  0.92870000  0.07130000  0.49610000  1.0 -0.217075691
C  C67  1  0.06770000  0.93230000  0.33150000  1.0 0.088325582
C  C68  1  0.07130000  0.92870000  0.58590000  1.0 0.0612127496
C  C69  1  0.07130000  0.92870000  0.50390000  1.0 -0.217075691
C  C70  1  0.66850000  0.33150000  0.93230000  1.0 0.088325582
C  C71  1  0.41410000  0.58590000  0.92870000  1.0 0.0612127496
C  C72  1  0.49610000  0.50390000  0.92870000  1.0 -0.217075691
C  C73  1  0.00000000  0.28980000  0.71020000  1.0 0.2790781814
C  C74  1  0.00000000  0.53690000  0.46310000  1.0 0.1066686308
C  C75  1  0.00000000  0.37260000  0.62740000  1.0 -0.1894897314
C  C76  1  0.28980000  0.00000000  0.00000000  1.0 0.2790781814
C  C77  1  0.53690000  0.00000000  0.00000000  1.0 0.1066686308
C  C78  1  0.37260000  0.00000000  0.00000000  1.0 -0.1894897314
C  C79  1  0.71020000  0.00000000  0.00000000  1.0 0.2790781814
C  C80  1  0.46310000  0.00000000  0.00000000  1.0 0.1066686308
C  C81  1  0.62740000  0.00000000  0.00000000  1.0 -0.1894897314
C  C82  1  0.00000000  0.71020000  0.28980000  1.0 0.2790781814
C  C83  1  0.00000000  0.46310000  0.53690000  1.0 0.1066686308
C  C84  1  0.00000000  0.62740000  0.37260000  1.0 -0.1894897314
C  C85  1  0.71020000  0.00000000  0.28980000  1.0 0.2790781814
C  C86  1  0.46310000  0.00000000  0.53690000  1.0 0.1066686308
C  C87  1  0.62740000  0.00000000  0.37260000  1.0 -0.1894897314
C  C88  1  0.00000000  0.28980000  0.00000000  1.0 0.2790781814
C  C89  1  0.00000000  0.53690000  0.00000000  1.0 0.1066686308
C  C90  1  0.00000000  0.37260000  0.00000000  1.0 -0.1894897314
C  C91  1  0.00000000  0.71020000  0.00000000  1.0 0.2790781814
C  C92  1  0.00000000  0.46310000  0.00000000  1.0 0.1066686308
C  C93  1  0.00000000  0.62740000  0.00000000  1.0 -0.1894897314
C  C94  1  0.28980000  0.00000000  0.71020000  1.0 0.2790781814
C  C95  1  0.53690000  0.00000000  0.46310000  1.0 0.1066686308
C  C96  1  0.37260000  0.00000000  0.62740000  1.0 -0.1894897314
C  C97  1  0.28980000  0.71020000  0.00000000  1.0 0.2790781814
C  C98  1  0.53690000  0.46310000  0.00000000  1.0 0.1066686308
C  C99  1  0.37260000  0.62740000  0.00000000  1.0 -0.1894897314
C  C100  1  0.00000000  0.00000000  0.28980000  1.0 0.2790781814
C  C101  1  0.00000000  0.00000000  0.53690000  1.0 0.1066686308
C  C102  1  0.00000000  0.00000000  0.37260000  1.0 -0.1894897314
C  C103  1  0.00000000  0.00000000  0.71020000  1.0 0.2790781814
C  C104  1  0.00000000  0.00000000  0.46310000  1.0 0.1066686308
C  C105  1  0.00000000  0.00000000  0.62740000  1.0 -0.1894897314
C  C106  1  0.71020000  0.28980000  0.00000000  1.0 0.2790781814
C  C107  1  0.46310000  0.53690000  0.00000000  1.0 0.1066686308
C  C108  1  0.62740000  0.37260000  0.00000000  1.0 -0.1894897314
N  N1  1  0.04170000  0.74830000  0.25170000  1.0 -0.1660304715
N  N2  1  0.74830000  0.04170000  0.95830000  1.0 -0.1660304715
N  N3  1  0.25170000  0.95830000  0.04170000  1.0 -0.1660304715
N  N4  1  0.95830000  0.25170000  0.74830000  1.0 -0.1660304715
N  N5  1  0.25170000  0.04170000  0.74830000  1.0 -0.1660304715
N  N6  1  0.95830000  0.74830000  0.04170000  1.0 -0.1660304715
N  N7  1  0.04170000  0.25170000  0.95830000  1.0 -0.1660304715
N  N8  1  0.74830000  0.95830000  0.25170000  1.0 -0.1660304715
N  N9  1  0.74830000  0.25170000  0.04170000  1.0 -0.1660304715
N  N10  1  0.04170000  0.95830000  0.74830000  1.0 -0.1660304715
N  N11  1  0.95830000  0.04170000  0.25170000  1.0 -0.1660304715
N  N12  1  0.25170000  0.74830000  0.95830000  1.0 -0.1660304715
N  N13  1  0.95830000  0.25170000  0.04170000  1.0 -0.1660304715
N  N14  1  0.25170000  0.95830000  0.74830000  1.0 -0.1660304715
N  N15  1  0.74830000  0.04170000  0.25170000  1.0 -0.1660304715
N  N16  1  0.04170000  0.74830000  0.95830000  1.0 -0.1660304715
N  N17  1  0.74830000  0.95830000  0.04170000  1.0 -0.1660304715
N  N18  1  0.04170000  0.25170000  0.74830000  1.0 -0.1660304715
N  N19  1  0.95830000  0.74830000  0.25170000  1.0 -0.1660304715
N  N20  1  0.25170000  0.04170000  0.95830000  1.0 -0.1660304715
N  N21  1  0.25170000  0.74830000  0.04170000  1.0 -0.1660304715
N  N22  1  0.95830000  0.04170000  0.74830000  1.0 -0.1660304715
N  N23  1  0.04170000  0.95830000  0.25170000  1.0 -0.1660304715
N  N24  1  0.74830000  0.25170000  0.95830000  1.0 -0.1660304715
N  N25  1  0.00000000  0.61920000  0.38080000  1.0 -0.1660304715
N  N26  1  0.61920000  0.00000000  0.00000000  1.0 -0.1660304715
N  N27  1  0.38080000  0.00000000  0.00000000  1.0 -0.1660304715
N  N28  1  0.00000000  0.38080000  0.61920000  1.0 -0.1660304715
N  N29  1  0.38080000  0.00000000  0.61920000  1.0 -0.1660304715
N  N30  1  0.00000000  0.61920000  0.00000000  1.0 -0.1660304715
N  N31  1  0.00000000  0.38080000  0.00000000  1.0 -0.1660304715
N  N32  1  0.61920000  0.00000000  0.38080000  1.0 -0.1660304715
N  N33  1  0.61920000  0.38080000  0.00000000  1.0 -0.1660304715
N  N34  1  0.00000000  0.00000000  0.61920000  1.0 -0.1660304715
N  N35  1  0.00000000  0.00000000  0.38080000  1.0 -0.1660304715
N  N36  1  0.38080000  0.61920000  0.00000000  1.0 -0.1660304715
O  O1  1  0.05470000  0.05470000  0.83590000  1.0 -0.5558702788
O  O2  1  0.05470000  0.05470000  0.05470000  1.0 -0.5558702788
O  O3  1  0.83590000  0.05470000  0.05470000  1.0 -0.5531792037
O  O4  1  0.05470000  0.83590000  0.05470000  1.0 -0.5531792037
O  O5  1  0.94530000  0.94530000  0.94530000  1.0 -0.5531792037
O  O6  1  0.94530000  0.94530000  0.16410000  1.0 -0.5531792037
O  O7  1  0.16410000  0.94530000  0.94530000  1.0 -0.5558702788
O  O8  1  0.94530000  0.16410000  0.94530000  1.0 -0.5558702788
O  O9  1  0.06440000  0.25420000  0.74580000  1.0 -0.2483731748
O  O10  1  0.25420000  0.06440000  0.93560000  1.0 -0.2483731748
O  O11  1  0.74580000  0.93560000  0.06440000  1.0 -0.2483731748
O  O12  1  0.93560000  0.74580000  0.25420000  1.0 -0.2483731748
O  O13  1  0.74580000  0.06440000  0.25420000  1.0 -0.2483731748
O  O14  1  0.93560000  0.25420000  0.06440000  1.0 -0.2483731748
O  O15  1  0.06440000  0.74580000  0.93560000  1.0 -0.2483731748
O  O16  1  0.25420000  0.93560000  0.74580000  1.0 -0.2483731748
O  O17  1  0.25420000  0.74580000  0.06440000  1.0 -0.2483731748
O  O18  1  0.06440000  0.93560000  0.25420000  1.0 -0.2483731748
O  O19  1  0.93560000  0.06440000  0.74580000  1.0 -0.2483731748
O  O20  1  0.74580000  0.25420000  0.93560000  1.0 -0.2483731748
O  O21  1  0.93560000  0.74580000  0.06440000  1.0 -0.2483731748
O  O22  1  0.74580000  0.93560000  0.25420000  1.0 -0.2483731748
O  O23  1  0.25420000  0.06440000  0.74580000  1.0 -0.2483731748
O  O24  1  0.06440000  0.25420000  0.93560000  1.0 -0.2483731748
O  O25  1  0.25420000  0.93560000  0.06440000  1.0 -0.2483731748
O  O26  1  0.06440000  0.74580000  0.25420000  1.0 -0.2483731748
O  O27  1  0.93560000  0.25420000  0.74580000  1.0 -0.2483731748
O  O28  1  0.74580000  0.06440000  0.93560000  1.0 -0.2483731748
O  O29  1  0.74580000  0.25420000  0.06440000  1.0 -0.2483731748
O  O30  1  0.93560000  0.06440000  0.25420000  1.0 -0.2483731748
O  O31  1  0.06440000  0.93560000  0.74580000  1.0 -0.2483731748
O  O32  1  0.25420000  0.74580000  0.93560000  1.0 -0.2483731748
