# DDEC6 charges by PACMAN v1.1 (https://github.com/mtap-research/PACMAN-charge/)
data_SAZJUB_ASR_pacman
_symmetry_space_group_name_H-M   'P 1'
_cell_length_a   16.57800000
_cell_length_b   20.68200000
_cell_length_c   28.24080000
_cell_angle_alpha   90.00000000
_cell_angle_beta   121.70800000
_cell_angle_gamma   90.00000000
_symmetry_Int_Tables_number   1
_chemical_formula_structural   U3H22C23N3O11
_chemical_formula_sum   'U12 H88 C92 N12 O44'
_cell_volume   8237.53663541
_cell_formula_units_Z   4
loop_
 _symmetry_equiv_pos_site_id
 _symmetry_equiv_pos_as_xyz
  1  'x, y, z'
loop_
 _atom_site_type_symbol
 _atom_site_label
 _atom_site_symmetry_multiplicity
 _atom_site_fract_x
 _atom_site_fract_y
 _atom_site_fract_z
 _atom_site_occupancy
 _atom_site_charge
U  U1  1  0.73463000  0.98045000  0.10309000  1.0 2.3809292811
U  U2  1  0.96382000  0.07808000  0.20691000  1.0 2.241275956
U  U3  1  0.92933000  0.87626000  0.21695000  1.0 2.2989317674
U  U4  1  0.26537000  0.48045000  0.39691000  1.0 2.3872074384
U  U5  1  0.03618000  0.57808000  0.29309000  1.0 2.2624868649
U  U6  1  0.07067000  0.37626000  0.28305000  1.0 2.2989317674
U  U7  1  0.26537000  0.01955000  0.89691000  1.0 2.3809292811
U  U8  1  0.03618000  0.92192000  0.79309000  1.0 2.2478354472
U  U9  1  0.07067000  0.12374000  0.78305000  1.0 2.3064510125
U  U10  1  0.73463000  0.51955000  0.60309000  1.0 2.3985087174
U  U11  1  0.96382000  0.42192000  0.70691000  1.0 2.2478354472
U  U12  1  0.92933000  0.62374000  0.71695000  1.0 2.2989317674
H  H1  1  0.33380000  0.75710000  0.73930000  1.0 0.238674869
H  H2  1  0.34400000  0.88830000  0.53660000  1.0 0.238674869
H  H3  1  0.13140000  0.95120000  0.40440000  1.0 0.1167044489
H  H4  1  0.35960000  0.83710000  0.68140000  1.0 0.0724869511
H  H5  1  0.25550000  0.80710000  0.64420000  1.0 0.0724869511
H  H6  1  0.32540000  0.91380000  0.60980000  1.0 0.0724869511
H  H7  1  0.22110000  0.88450000  0.57200000  1.0 0.0792856776
H  H8  1  0.30100000  0.03070000  0.35970000  1.0 0.1116038385
H  H9  1  0.39130000  0.81010000  0.61360000  1.0 0.0792856776
H  H10  1  0.28640000  0.78090000  0.57620000  1.0 0.089744711
H  H11  1  0.42720000  0.73340000  0.68930000  1.0 0.0724869511
H  H12  1  0.32340000  0.70310000  0.65090000  1.0 0.0724869511
H  H13  1  0.28530000  0.99380000  0.54260000  1.0 0.0980331487
H  H14  1  0.18380000  0.96440000  0.49800000  1.0 0.0980331487
H  H15  1  0.45300000  0.65390000  0.76140000  1.0 0.089744711
H  H16  1  0.34620000  0.62770000  0.72400000  1.0 0.089744711
H  H17  1  0.23240000  0.64530000  0.75280000  1.0 0.1116038385
H  H18  1  0.43010000  0.04150000  0.45330000  1.0 0.0980331487
H  H19  1  0.52670000  0.66820000  0.85520000  1.0 0.1167044489
H  H20  1  0.36380000  0.64520000  0.91900000  1.0 0.0980331487
H  H21  1  0.22320000  0.63850000  0.83110000  1.0 0.1167044489
H  H22  1  0.40650000  0.00970000  0.52220000  1.0 0.0980331487
H  H23  1  0.66620000  0.25710000  0.76070000  1.0 0.238674869
H  H24  1  0.65600000  0.38830000  0.96340000  1.0 0.238674869
H  H25  1  0.86860000  0.45120000  0.09560000  1.0 0.1167044489
H  H26  1  0.64040000  0.33710000  0.81860000  1.0 0.0724869511
H  H27  1  0.74450000  0.30710000  0.85580000  1.0 0.0724869511
H  H28  1  0.67460000  0.41380000  0.89020000  1.0 0.0724869511
H  H29  1  0.77890000  0.38450000  0.92800000  1.0 0.0792856776
H  H30  1  0.69900000  0.53070000  0.14030000  1.0 0.1116038385
H  H31  1  0.60870000  0.31010000  0.88640000  1.0 0.0792856776
H  H32  1  0.71360000  0.28090000  0.92380000  1.0 0.089744711
H  H33  1  0.57280000  0.23340000  0.81070000  1.0 0.0724869511
H  H34  1  0.67660000  0.20310000  0.84910000  1.0 0.0724869511
H  H35  1  0.71470000  0.49380000  0.95740000  1.0 0.0980331487
H  H36  1  0.81620000  0.46440000  0.00200000  1.0 0.0980331487
H  H37  1  0.54700000  0.15390000  0.73860000  1.0 0.089744711
H  H38  1  0.65380000  0.12770000  0.77600000  1.0 0.089744711
H  H39  1  0.76760000  0.14530000  0.74720000  1.0 0.1116038385
H  H40  1  0.56990000  0.54150000  0.04670000  1.0 0.0980331487
H  H41  1  0.47330000  0.16820000  0.64480000  1.0 0.1167044489
H  H42  1  0.63620000  0.14520000  0.58100000  1.0 0.0980331487
H  H43  1  0.77680000  0.13850000  0.66890000  1.0 0.1167044489
H  H44  1  0.59350000  0.50970000  0.97780000  1.0 0.0980331487
H  H45  1  0.66620000  0.24290000  0.26070000  1.0 0.238674869
H  H46  1  0.65600000  0.11170000  0.46340000  1.0 0.238674869
H  H47  1  0.86860000  0.04880000  0.59560000  1.0 0.1167044489
H  H48  1  0.64040000  0.16290000  0.31860000  1.0 0.0724869511
H  H49  1  0.74450000  0.19290000  0.35580000  1.0 0.0724869511
H  H50  1  0.67460000  0.08620000  0.39020000  1.0 0.0724869511
H  H51  1  0.77890000  0.11550000  0.42800000  1.0 0.0792856776
H  H52  1  0.69900000  0.96930000  0.64030000  1.0 0.1116038385
H  H53  1  0.60870000  0.18990000  0.38640000  1.0 0.0792856776
H  H54  1  0.71360000  0.21910000  0.42380000  1.0 0.089744711
H  H55  1  0.57280000  0.26660000  0.31070000  1.0 0.0724869511
H  H56  1  0.67660000  0.29690000  0.34910000  1.0 0.0724869511
H  H57  1  0.71470000  0.00620000  0.45740000  1.0 0.0980331487
H  H58  1  0.81620000  0.03560000  0.50200000  1.0 0.0980331487
H  H59  1  0.54700000  0.34610000  0.23860000  1.0 0.089744711
H  H60  1  0.65380000  0.37230000  0.27600000  1.0 0.089744711
H  H61  1  0.76760000  0.35470000  0.24720000  1.0 0.1116038385
H  H62  1  0.56990000  0.95850000  0.54670000  1.0 0.0980331487
H  H63  1  0.47330000  0.33180000  0.14480000  1.0 0.1167044489
H  H64  1  0.63620000  0.35480000  0.08100000  1.0 0.0980331487
H  H65  1  0.77680000  0.36150000  0.16890000  1.0 0.1167044489
H  H66  1  0.59350000  0.99030000  0.47780000  1.0 0.0980331487
H  H67  1  0.33380000  0.74290000  0.23930000  1.0 0.238674869
H  H68  1  0.34400000  0.61170000  0.03660000  1.0 0.238674869
H  H69  1  0.13140000  0.54880000  0.90440000  1.0 0.1167044489
H  H70  1  0.35960000  0.66290000  0.18140000  1.0 0.0724869511
H  H71  1  0.25550000  0.69290000  0.14420000  1.0 0.0724869511
H  H72  1  0.32540000  0.58620000  0.10980000  1.0 0.0724869511
H  H73  1  0.22110000  0.61550000  0.07200000  1.0 0.0792856776
H  H74  1  0.30100000  0.46930000  0.85970000  1.0 0.1116038385
H  H75  1  0.39130000  0.68990000  0.11360000  1.0 0.0792856776
H  H76  1  0.28640000  0.71910000  0.07620000  1.0 0.089744711
H  H77  1  0.42720000  0.76660000  0.18930000  1.0 0.0724869511
H  H78  1  0.32340000  0.79690000  0.15090000  1.0 0.0724869511
H  H79  1  0.28530000  0.50620000  0.04260000  1.0 0.0980331487
H  H80  1  0.18380000  0.53560000  0.99800000  1.0 0.0980331487
H  H81  1  0.45300000  0.84610000  0.26140000  1.0 0.089744711
H  H82  1  0.34620000  0.87230000  0.22400000  1.0 0.089744711
H  H83  1  0.23240000  0.85470000  0.25280000  1.0 0.1116038385
H  H84  1  0.43010000  0.45850000  0.95330000  1.0 0.0980331487
H  H85  1  0.52670000  0.83180000  0.35520000  1.0 0.1167044489
H  H86  1  0.36380000  0.85480000  0.41900000  1.0 0.0980331487
H  H87  1  0.22320000  0.86150000  0.33110000  1.0 0.1167044489
H  H88  1  0.40650000  0.49030000  0.02220000  1.0 0.0980331487
C  C1  1  0.92460000  0.71750000  0.23180000  1.0 0.5716981786
C  C2  1  0.02580000  0.73910000  0.28650000  1.0 0.5716981786
C  C3  1  0.11610000  0.98080000  0.31160000  1.0 0.6097402918
C  C4  1  0.20070000  0.98990000  0.37190000  1.0 -0.0077092283
C  C5  1  0.18900000  0.97090000  0.41220000  1.0 -0.1875946921
C  C6  1  0.32180000  0.80340000  0.65360000  1.0 -0.2136874039
C  C7  1  0.26590000  0.98080000  0.46820000  1.0 0.0179780453
C  C8  1  0.28710000  0.88110000  0.58080000  1.0 -0.1056577516
C  C9  1  0.29180000  0.01660000  0.38860000  1.0 -0.1285990392
C  C10  1  0.32510000  0.81410000  0.60450000  1.0 -0.2321376268
C  C11  1  0.36030000  0.73700000  0.67890000  1.0 -0.0999313508
C  C12  1  0.25230000  0.96260000  0.51160000  1.0 -0.1590515516
C  C13  1  0.38680000  0.66110000  0.75140000  1.0 -0.1590515516
C  C14  1  0.28690000  0.64780000  0.78920000  1.0 -0.1549383652
C  C15  1  0.37120000  0.02420000  0.44530000  1.0 -0.0804331925
C  C16  1  0.38120000  0.65590000  0.79950000  1.0 0.0123571299
C  C17  1  0.46770000  0.66150000  0.85240000  1.0 -0.2321376268
C  C18  1  0.36920000  0.64840000  0.88720000  1.0 -0.1973581602
C  C19  1  0.28230000  0.64400000  0.83380000  1.0 -0.090161479
C  C20  1  0.35750000  0.00630000  0.48410000  1.0 -0.1590515516
C  C21  1  0.46200000  0.65700000  0.89760000  1.0 0.089744711
C  C22  1  0.49500000  0.96350000  0.99430000  1.0 0.6773855585
C  C23  1  0.55340000  0.66080000  0.95310000  1.0 0.2243741612
C  C24  1  0.07540000  0.21750000  0.26820000  1.0 0.5716981786
C  C25  1  0.97420000  0.23910000  0.21350000  1.0 0.5716981786
C  C26  1  0.88390000  0.48080000  0.18840000  1.0 0.6097402918
C  C27  1  0.79930000  0.48990000  0.12810000  1.0 -0.0077092283
C  C28  1  0.81100000  0.47090000  0.08780000  1.0 -0.1875946921
C  C29  1  0.67820000  0.30340000  0.84640000  1.0 -0.2136874039
C  C30  1  0.73410000  0.48080000  0.03180000  1.0 0.0179780453
C  C31  1  0.71290000  0.38110000  0.91920000  1.0 -0.1056577516
C  C32  1  0.70820000  0.51660000  0.11140000  1.0 -0.1285990392
C  C33  1  0.67490000  0.31410000  0.89550000  1.0 -0.2321376268
C  C34  1  0.63970000  0.23700000  0.82110000  1.0 -0.0999313508
C  C35  1  0.74770000  0.46260000  0.98840000  1.0 -0.1590515516
C  C36  1  0.61320000  0.16110000  0.74860000  1.0 -0.1590515516
C  C37  1  0.71310000  0.14780000  0.71080000  1.0 -0.1590515516
C  C38  1  0.62880000  0.52420000  0.05470000  1.0 -0.0804331925
C  C39  1  0.61880000  0.15590000  0.70050000  1.0 0.0123571299
C  C40  1  0.53230000  0.16150000  0.64760000  1.0 -0.2321376268
C  C41  1  0.63080000  0.14840000  0.61280000  1.0 -0.1973581602
C  C42  1  0.71770000  0.14400000  0.66620000  1.0 -0.090161479
C  C43  1  0.64250000  0.50630000  0.01590000  1.0 -0.1590515516
C  C44  1  0.53800000  0.15700000  0.60240000  1.0 0.089744711
C  C45  1  0.50500000  0.46350000  0.50570000  1.0 0.654047181
C  C46  1  0.44660000  0.16080000  0.54690000  1.0 0.2243741612
C  C47  1  0.07540000  0.28250000  0.76820000  1.0 0.5716981786
C  C48  1  0.97420000  0.26090000  0.71350000  1.0 0.5757560331
C  C49  1  0.88390000  0.01920000  0.68840000  1.0 0.6097402918
C  C50  1  0.79930000  0.01010000  0.62810000  1.0 -0.0077092283
C  C51  1  0.81100000  0.02910000  0.58780000  1.0 -0.1875946921
C  C52  1  0.67820000  0.19660000  0.34640000  1.0 -0.2136874039
C  C53  1  0.73410000  0.01920000  0.53180000  1.0 0.0179780453
C  C54  1  0.71290000  0.11890000  0.41920000  1.0 -0.1056577516
C  C55  1  0.70820000  0.98340000  0.61140000  1.0 -0.1285990392
C  C56  1  0.67490000  0.18590000  0.39550000  1.0 -0.2321376268
C  C57  1  0.63970000  0.26300000  0.32110000  1.0 -0.0999313508
C  C58  1  0.74770000  0.03740000  0.48840000  1.0 -0.1590515516
C  C59  1  0.61320000  0.33890000  0.24860000  1.0 -0.1590515516
C  C60  1  0.71310000  0.35220000  0.21080000  1.0 -0.1590515516
C  C61  1  0.62880000  0.97580000  0.55470000  1.0 -0.0804331925
C  C62  1  0.61880000  0.34410000  0.20050000  1.0 0.0123571299
C  C63  1  0.53230000  0.33850000  0.14760000  1.0 -0.2321376268
C  C64  1  0.63080000  0.35160000  0.11280000  1.0 -0.1973581602
C  C65  1  0.71770000  0.35600000  0.16620000  1.0 -0.090161479
C  C66  1  0.64250000  0.99370000  0.51590000  1.0 -0.1590515516
C  C67  1  0.53800000  0.34300000  0.10240000  1.0 0.089744711
C  C68  1  0.50500000  0.03650000  0.00570000  1.0 0.6683101553
C  C69  1  0.44660000  0.33920000  0.04690000  1.0 0.2243741612
C  C70  1  0.92460000  0.78250000  0.73180000  1.0 0.5716981786
C  C71  1  0.02580000  0.76090000  0.78650000  1.0 0.5757560331
C  C72  1  0.11610000  0.51920000  0.81160000  1.0 0.6097402918
C  C73  1  0.20070000  0.51010000  0.87190000  1.0 -0.0077092283
C  C74  1  0.18900000  0.52910000  0.91220000  1.0 -0.1875946921
C  C75  1  0.32180000  0.69660000  0.15360000  1.0 -0.2136874039
C  C76  1  0.26590000  0.51920000  0.96820000  1.0 0.0179780453
C  C77  1  0.28710000  0.61890000  0.08080000  1.0 -0.1056577516
C  C78  1  0.29180000  0.48340000  0.88860000  1.0 -0.1285990392
C  C79  1  0.32510000  0.68590000  0.10450000  1.0 -0.2321376268
C  C80  1  0.36030000  0.76300000  0.17890000  1.0 -0.0999313508
C  C81  1  0.25230000  0.53740000  0.01160000  1.0 -0.1590515516
C  C82  1  0.38680000  0.83890000  0.25140000  1.0 -0.1590515516
C  C83  1  0.28690000  0.85220000  0.28920000  1.0 -0.1590515516
C  C84  1  0.37120000  0.47580000  0.94530000  1.0 -0.0804331925
C  C85  1  0.38120000  0.84410000  0.29950000  1.0 0.0123571299
C  C86  1  0.46770000  0.83850000  0.35240000  1.0 -0.2321376268
C  C87  1  0.36920000  0.85160000  0.38720000  1.0 -0.1973581602
C  C88  1  0.28230000  0.85600000  0.33380000  1.0 -0.090161479
C  C89  1  0.35750000  0.49370000  0.98410000  1.0 -0.1590515516
C  C90  1  0.46200000  0.84300000  0.39760000  1.0 0.089744711
C  C91  1  0.49500000  0.53650000  0.49430000  1.0 0.654047181
C  C92  1  0.55340000  0.83920000  0.45310000  1.0 0.2243741612
N  N1  1  0.35450000  0.72740000  0.72590000  1.0 -0.3001032692
N  N2  1  0.28870000  0.89590000  0.53280000  1.0 -0.3055888516
N  N3  1  0.61970000  0.66750000  0.99850000  1.0 -0.4059344631
N  N4  1  0.64550000  0.22740000  0.77410000  1.0 -0.3001032692
N  N5  1  0.71130000  0.39590000  0.96720000  1.0 -0.3055888516
N  N6  1  0.38030000  0.16750000  0.50150000  1.0 -0.4048419696
N  N7  1  0.64550000  0.27260000  0.27410000  1.0 -0.3001032692
N  N8  1  0.71130000  0.10410000  0.46720000  1.0 -0.3055888516
N  N9  1  0.38030000  0.33250000  0.00150000  1.0 -0.4059344631
N  N10  1  0.35450000  0.77260000  0.22590000  1.0 -0.3001032692
N  N11  1  0.28870000  0.60410000  0.03280000  1.0 -0.3001032692
N  N12  1  0.61970000  0.83250000  0.49850000  1.0 -0.4059344631
O  O1  1  0.89747000  0.97775000  0.18147000  1.0 -1.3039465648
O  O2  1  0.79417000  0.08577000  0.13027000  1.0 -1.1315544944
O  O3  1  0.78033000  0.87289000  0.12533000  1.0 -1.200031231
O  O4  1  0.57485000  0.93051000  0.02315000  1.0 -0.6685402495
O  O5  1  0.40828000  0.94221000  0.95788000  1.0 -0.6785787743
O  O6  1  0.05328000  0.93600000  0.29888000  1.0 -0.6484245461
O  O7  1  0.04208000  0.79830000  0.29348000  1.0 -0.6414436382
O  O8  1  0.87019000  0.76151000  0.19699000  1.0 -0.6414436382
O  O9  1  0.08190000  0.69453000  0.31920000  1.0 -0.6414436382
O  O10  1  0.90391000  0.65836000  0.22611000  1.0 -0.6484245461
O  O11  1  0.11130000  0.01794000  0.27660000  1.0 -0.5670885098
O  O12  1  0.10253000  0.47775000  0.31853000  1.0 -1.3039465648
O  O13  1  0.20583000  0.58577000  0.36973000  1.0 -1.1511804563
O  O14  1  0.21967000  0.37289000  0.37467000  1.0 -1.1920076114
O  O15  1  0.42515000  0.43051000  0.47685000  1.0 -0.6887131633
O  O16  1  0.59172000  0.44221000  0.54212000  1.0 -0.6988099915
O  O17  1  0.94672000  0.43600000  0.20112000  1.0 -0.6484245461
O  O18  1  0.95792000  0.29830000  0.20652000  1.0 -0.6484245461
O  O19  1  0.12981000  0.26151000  0.30301000  1.0 -0.6484245461
O  O20  1  0.91810000  0.19453000  0.18080000  1.0 -0.6484245461
O  O21  1  0.09609000  0.15836000  0.27389000  1.0 -0.6484245461
O  O22  1  0.88870000  0.51794000  0.22340000  1.0 -0.5670885098
O  O23  1  0.10253000  0.02225000  0.81853000  1.0 -1.3296821815
O  O24  1  0.20583000  0.91423000  0.86973000  1.0 -1.1315544944
O  O25  1  0.21967000  0.12711000  0.87467000  1.0 -1.1805709106
O  O26  1  0.42515000  0.06949000  0.97685000  1.0 -0.6785787743
O  O27  1  0.59172000  0.05779000  0.04212000  1.0 -0.7136989933
O  O28  1  0.94672000  0.06400000  0.70112000  1.0 -0.6484245461
O  O29  1  0.95792000  0.20170000  0.70652000  1.0 -0.6414436382
O  O30  1  0.12981000  0.23849000  0.80301000  1.0 -0.6414436382
O  O31  1  0.91810000  0.30547000  0.68080000  1.0 -0.6414436382
O  O32  1  0.09609000  0.34164000  0.77389000  1.0 -0.6484245461
O  O33  1  0.88870000  0.98206000  0.72340000  1.0 -0.5670885098
O  O34  1  0.89747000  0.52225000  0.68147000  1.0 -1.3132438165
O  O35  1  0.79417000  0.41423000  0.63027000  1.0 -1.143452118
O  O36  1  0.78033000  0.62711000  0.62533000  1.0 -1.1920076114
O  O37  1  0.57485000  0.56949000  0.52315000  1.0 -0.6887131633
O  O38  1  0.40828000  0.55779000  0.45788000  1.0 -0.6887131633
O  O39  1  0.05328000  0.56400000  0.79888000  1.0 -0.6484245461
O  O40  1  0.04208000  0.70170000  0.79348000  1.0 -0.6414436382
O  O41  1  0.87019000  0.73849000  0.69699000  1.0 -0.6414436382
O  O42  1  0.08190000  0.80547000  0.81920000  1.0 -0.6414436382
O  O43  1  0.90391000  0.84164000  0.72611000  1.0 -0.6414436382
O  O44  1  0.11130000  0.48206000  0.77660000  1.0 -0.5670885098
