# DDEC6 charges by PACMAN v1.1 (https://github.com/mtap-research/PACMAN-charge/)
data_SEBFIR_ASR_pacman
_symmetry_space_group_name_H-M   'P 1'
_cell_length_a   6.75390000
_cell_length_b   9.22480000
_cell_length_c   15.76240000
_cell_angle_alpha   90.00000000
_cell_angle_beta   90.00000000
_cell_angle_gamma   90.00000000
_symmetry_Int_Tables_number   1
_chemical_formula_structural   Zn2H7C2SN4O5
_chemical_formula_sum   'Zn8 H28 C8 S4 N16 O20'
_cell_volume   982.05074521
_cell_formula_units_Z   4
loop_
 _symmetry_equiv_pos_site_id
 _symmetry_equiv_pos_as_xyz
  1  'x, y, z'
loop_
 _atom_site_type_symbol
 _atom_site_label
 _atom_site_symmetry_multiplicity
 _atom_site_fract_x
 _atom_site_fract_y
 _atom_site_fract_z
 _atom_site_occupancy
 _atom_site_charge
Zn  Zn1  1  0.25000000  0.20414000  0.84313000  1.0 0.8862223748
Zn  Zn2  1  0.75000000  0.29586000  0.34313000  1.0 0.8839810912
Zn  Zn3  1  0.75000000  0.79586000  0.15687000  1.0 0.8839810912
Zn  Zn4  1  0.25000000  0.70414000  0.65687000  1.0 0.8862223748
Zn  Zn5  1  0.50000000  0.00000000  0.00000000  1.0 0.8634075199
Zn  Zn6  1  0.50000000  0.50000000  0.50000000  1.0 0.8634075199
Zn  Zn7  1  0.00000000  0.00000000  0.00000000  1.0 0.8634075199
Zn  Zn8  1  0.00000000  0.50000000  0.50000000  1.0 0.8634075199
H  H1  1  0.67990000  0.36100000  0.70480000  1.0 0.0680295506
H  H2  1  0.68620000  0.47330000  0.77940000  1.0 0.0842440531
H  H3  1  0.88400000  0.41450000  0.74030000  1.0 0.0680295506
H  H4  1  0.32010000  0.13900000  0.20480000  1.0 0.0680295506
H  H5  1  0.31380000  0.02670000  0.27940000  1.0 0.0842440531
H  H6  1  0.11600000  0.08550000  0.24030000  1.0 0.0680295506
H  H7  1  0.17990000  0.63900000  0.29520000  1.0 0.0680295506
H  H8  1  0.18620000  0.52670000  0.22060000  1.0 0.0842440531
H  H9  1  0.38400000  0.58550000  0.25970000  1.0 0.0680295506
H  H10  1  0.82010000  0.86100000  0.79520000  1.0 0.0680295506
H  H11  1  0.81380000  0.97330000  0.72060000  1.0 0.0842440531
H  H12  1  0.61600000  0.91450000  0.75970000  1.0 0.0680295506
H  H13  1  0.32010000  0.63900000  0.29520000  1.0 0.0680295506
H  H14  1  0.31380000  0.52670000  0.22060000  1.0 0.0842440531
H  H15  1  0.11600000  0.58550000  0.25970000  1.0 0.0680295506
H  H16  1  0.67990000  0.86100000  0.79520000  1.0 0.0680295506
H  H17  1  0.68620000  0.97330000  0.72060000  1.0 0.0842440531
H  H18  1  0.88400000  0.91450000  0.75970000  1.0 0.0680295506
H  H19  1  0.82010000  0.36100000  0.70480000  1.0 0.0680295506
H  H20  1  0.81380000  0.47330000  0.77940000  1.0 0.0842440531
H  H21  1  0.61600000  0.41450000  0.74030000  1.0 0.0680295506
H  H22  1  0.17990000  0.13900000  0.20480000  1.0 0.0680295506
H  H23  1  0.18620000  0.02670000  0.27940000  1.0 0.0842440531
H  H24  1  0.38400000  0.08550000  0.24030000  1.0 0.0680295506
H  H25  1  0.25000000  0.20090000  0.00200000  1.0 0.4152944807
H  H26  1  0.75000000  0.29910000  0.50200000  1.0 0.4152944807
H  H27  1  0.75000000  0.79910000  0.99800000  1.0 0.4148185078
H  H28  1  0.25000000  0.70090000  0.49800000  1.0 0.4152944807
C  C1  1  0.75000000  0.26920000  0.81740000  1.0 0.2955466334
C  C2  1  0.75000000  0.39020000  0.75490000  1.0 -0.3743706918
C  C3  1  0.25000000  0.23080000  0.31740000  1.0 0.2955466334
C  C4  1  0.25000000  0.10980000  0.25490000  1.0 -0.3743706918
C  C5  1  0.25000000  0.73080000  0.18260000  1.0 0.2955466334
C  C6  1  0.25000000  0.60980000  0.24510000  1.0 -0.3743706918
C  C7  1  0.75000000  0.76920000  0.68260000  1.0 0.2945496563
C  C8  1  0.75000000  0.89020000  0.74510000  1.0 -0.3761784013
S  S1  1  0.25000000  0.84735000  0.85206000  1.0 1.2516963208
S  S2  1  0.75000000  0.65265000  0.35206000  1.0 1.2516963208
S  S3  1  0.75000000  0.15265000  0.14794000  1.0 1.2602577333
S  S4  1  0.25000000  0.34735000  0.64794000  1.0 1.2516963208
N  N1  1  0.58770000  0.21030000  0.85126000  1.0 -0.2351678487
N  N2  1  0.65460000  0.11550000  0.90792000  1.0 -0.0499453924
N  N3  1  0.41230000  0.28970000  0.35126000  1.0 -0.2345736052
N  N4  1  0.34540000  0.38450000  0.40792000  1.0 -0.0499453924
N  N5  1  0.08770000  0.78970000  0.14874000  1.0 -0.2345736052
N  N6  1  0.15460000  0.88450000  0.09208000  1.0 -0.0499453924
N  N7  1  0.91230000  0.71030000  0.64874000  1.0 -0.2345736052
N  N8  1  0.84540000  0.61550000  0.59208000  1.0 -0.0499453924
N  N9  1  0.41230000  0.78970000  0.14874000  1.0 -0.2345736052
N  N10  1  0.34540000  0.88450000  0.09208000  1.0 -0.0499453924
N  N11  1  0.58770000  0.71030000  0.64874000  1.0 -0.2345736052
N  N12  1  0.65460000  0.61550000  0.59208000  1.0 -0.0499453924
N  N13  1  0.91230000  0.21030000  0.85126000  1.0 -0.2351678487
N  N14  1  0.84540000  0.11550000  0.90792000  1.0 -0.0499453924
N  N15  1  0.08770000  0.28970000  0.35126000  1.0 -0.2345736052
N  N16  1  0.15460000  0.38450000  0.40792000  1.0 -0.0499453924
O  O1  1  0.42710000  0.83740000  0.90615000  1.0 -0.5974056001
O  O2  1  0.57290000  0.66260000  0.40615000  1.0 -0.5974056001
O  O3  1  0.92710000  0.16260000  0.09385000  1.0 -0.5974056001
O  O4  1  0.07290000  0.33740000  0.59385000  1.0 -0.5974056001
O  O5  1  0.57290000  0.16260000  0.09385000  1.0 -0.5974056001
O  O6  1  0.42710000  0.33740000  0.59385000  1.0 -0.5974056001
O  O7  1  0.07290000  0.83740000  0.90615000  1.0 -0.5974056001
O  O8  1  0.92710000  0.66260000  0.40615000  1.0 -0.5974056001
O  O9  1  0.25000000  0.98720000  0.80550000  1.0 -0.5854736443
O  O10  1  0.25000000  0.12330000  0.96740000  1.0 -0.8580713149
O  O11  1  0.25000000  0.72710000  0.79010000  1.0 -0.5709112163
O  O12  1  0.75000000  0.51280000  0.30550000  1.0 -0.5854736443
O  O13  1  0.75000000  0.37670000  0.46740000  1.0 -0.8580713149
O  O14  1  0.75000000  0.77290000  0.29010000  1.0 -0.5709112163
O  O15  1  0.75000000  0.01280000  0.19450000  1.0 -0.5854736443
O  O16  1  0.75000000  0.87670000  0.03260000  1.0 -0.8580713149
O  O17  1  0.75000000  0.27290000  0.20990000  1.0 -0.5709112163
O  O18  1  0.25000000  0.48720000  0.69450000  1.0 -0.5854736443
O  O19  1  0.25000000  0.62330000  0.53260000  1.0 -0.8580713149
O  O20  1  0.25000000  0.22710000  0.70990000  1.0 -0.5709112163
