# DDEC6 charges by PACMAN v1.1 (https://github.com/mtap-research/PACMAN-charge/)
data_SECHAN_FSR_pacman
_symmetry_space_group_name_H-M   'P 1'
_cell_length_a   11.43920000
_cell_length_b   12.67370000
_cell_length_c   15.91530000
_cell_angle_alpha   90.00000000
_cell_angle_beta   90.00000000
_cell_angle_gamma   90.00000000
_symmetry_Int_Tables_number   1
_chemical_formula_structural   Tb2H14PbC8O23
_chemical_formula_sum   'Tb8 H56 Pb4 C32 O92'
_cell_volume   2307.35227367
_cell_formula_units_Z   4
loop_
 _symmetry_equiv_pos_site_id
 _symmetry_equiv_pos_as_xyz
  1  'x, y, z'
loop_
 _atom_site_type_symbol
 _atom_site_label
 _atom_site_symmetry_multiplicity
 _atom_site_fract_x
 _atom_site_fract_y
 _atom_site_fract_z
 _atom_site_occupancy
 _atom_site_charge
Tb  Tb1  1  0.75000000  0.01610000  0.44000000  1.0 1.9029340041
Tb  Tb2  1  0.75000000  0.51800000  0.42430000  1.0 1.8324407828
Tb  Tb3  1  0.25000000  0.98390000  0.56000000  1.0 1.9029340041
Tb  Tb4  1  0.25000000  0.48200000  0.57570000  1.0 1.8324407828
Tb  Tb5  1  0.25000000  0.51610000  0.06000000  1.0 1.9029340041
Tb  Tb6  1  0.25000000  0.01800000  0.07570000  1.0 1.8324407828
Tb  Tb7  1  0.75000000  0.48390000  0.94000000  1.0 1.9029340041
Tb  Tb8  1  0.75000000  0.98200000  0.92430000  1.0 1.83646505
H  H1  1  0.98130000  0.82770000  0.13200000  1.0 0.1928965442
H  H2  1  0.97300000  0.76310000  0.18640000  1.0 0.2616701569
H  H3  1  0.03870000  0.16910000  0.55020000  1.0 0.2717262345
H  H4  1  0.06620000  0.26600000  0.51450000  1.0 0.2616701569
H  H5  1  0.94670000  0.30480000  0.40420000  1.0 0.2060848908
H  H6  1  0.89550000  0.29090000  0.48240000  1.0 0.2240661481
H  H7  1  0.48130000  0.17230000  0.86800000  1.0 0.1928965442
H  H8  1  0.47300000  0.23690000  0.81360000  1.0 0.2616701569
H  H9  1  0.53870000  0.83090000  0.44980000  1.0 0.2717262345
H  H10  1  0.56620000  0.73400000  0.48550000  1.0 0.2616701569
H  H11  1  0.44670000  0.69520000  0.59580000  1.0 0.2060848908
H  H12  1  0.39550000  0.70910000  0.51760000  1.0 0.2240661481
H  H13  1  0.01870000  0.17230000  0.86800000  1.0 0.1928965442
H  H14  1  0.02700000  0.23690000  0.81360000  1.0 0.2616701569
H  H15  1  0.96130000  0.83090000  0.44980000  1.0 0.2717262345
H  H16  1  0.93380000  0.73400000  0.48550000  1.0 0.2717262345
H  H17  1  0.05330000  0.69520000  0.59580000  1.0 0.2060848908
H  H18  1  0.10450000  0.70910000  0.51760000  1.0 0.2240661481
H  H19  1  0.51870000  0.82770000  0.13200000  1.0 0.1928965442
H  H20  1  0.52700000  0.76310000  0.18640000  1.0 0.2616701569
H  H21  1  0.46130000  0.16910000  0.55020000  1.0 0.2717262345
H  H22  1  0.43380000  0.26600000  0.51450000  1.0 0.2616701569
H  H23  1  0.55330000  0.30480000  0.40420000  1.0 0.2060848908
H  H24  1  0.60450000  0.29090000  0.48240000  1.0 0.2240661481
H  H25  1  0.75000000  0.74440000  0.15470000  1.0 0.1928965442
H  H26  1  0.75000000  0.63490000  0.15760000  1.0 0.3715753672
H  H27  1  0.25000000  0.25560000  0.84530000  1.0 0.1928965442
H  H28  1  0.25000000  0.36510000  0.84240000  1.0 0.3715753672
H  H29  1  0.01870000  0.32770000  0.36800000  1.0 0.1928965442
H  H30  1  0.02700000  0.26310000  0.31360000  1.0 0.2616701569
H  H31  1  0.96130000  0.66910000  0.94980000  1.0 0.2717262345
H  H32  1  0.93380000  0.76600000  0.98550000  1.0 0.2616701569
H  H33  1  0.05330000  0.80480000  0.09580000  1.0 0.2060848908
H  H34  1  0.10450000  0.79090000  0.01760000  1.0 0.2240661481
H  H35  1  0.51870000  0.67230000  0.63200000  1.0 0.1928965442
H  H36  1  0.52700000  0.73690000  0.68640000  1.0 0.2616701569
H  H37  1  0.46130000  0.33090000  0.05020000  1.0 0.2717262345
H  H38  1  0.43380000  0.23400000  0.01450000  1.0 0.2717262345
H  H39  1  0.55330000  0.19520000  0.90420000  1.0 0.2060848908
H  H40  1  0.60450000  0.20910000  0.98240000  1.0 0.2240661481
H  H41  1  0.98130000  0.67230000  0.63200000  1.0 0.1928965442
H  H42  1  0.97300000  0.73690000  0.68640000  1.0 0.2616701569
H  H43  1  0.03870000  0.33090000  0.05020000  1.0 0.2717262345
H  H44  1  0.06620000  0.23400000  0.01450000  1.0 0.2717262345
H  H45  1  0.94670000  0.19520000  0.90420000  1.0 0.2060848908
H  H46  1  0.89550000  0.20910000  0.98240000  1.0 0.2240661481
H  H47  1  0.48130000  0.32770000  0.36800000  1.0 0.1928965442
H  H48  1  0.47300000  0.26310000  0.31360000  1.0 0.2616701569
H  H49  1  0.53870000  0.66910000  0.94980000  1.0 0.2717262345
H  H50  1  0.56620000  0.76600000  0.98550000  1.0 0.2616701569
H  H51  1  0.44670000  0.80480000  0.09580000  1.0 0.2060848908
H  H52  1  0.39550000  0.79090000  0.01760000  1.0 0.2240661481
H  H53  1  0.25000000  0.24440000  0.34530000  1.0 0.1928965442
H  H54  1  0.25000000  0.13490000  0.34240000  1.0 0.3715753672
H  H55  1  0.75000000  0.75560000  0.65470000  1.0 0.1928965442
H  H56  1  0.75000000  0.86510000  0.65760000  1.0 0.3715753672
Pb  Pb1  1  0.75000000  0.87360000  0.17500000  1.0 0.9993312848
Pb  Pb2  1  0.25000000  0.12640000  0.82500000  1.0 0.9993312848
Pb  Pb3  1  0.25000000  0.37360000  0.32500000  1.0 0.9993312848
Pb  Pb4  1  0.75000000  0.62640000  0.67500000  1.0 0.9993312848
C  C1  1  0.97690000  0.02340000  0.54210000  1.0 0.482238241
C  C2  1  0.97520000  0.48030000  0.54230000  1.0 0.4509833812
C  C3  1  0.81720000  0.27450000  0.40740000  1.0 0.1479708762
C  C4  1  0.47690000  0.97660000  0.45790000  1.0 0.482238241
C  C5  1  0.47520000  0.51970000  0.45770000  1.0 0.4509833812
C  C6  1  0.31720000  0.72550000  0.59260000  1.0 0.1479708762
C  C7  1  0.02310000  0.97660000  0.45790000  1.0 0.482238241
C  C8  1  0.02480000  0.51970000  0.45770000  1.0 0.4509833812
C  C9  1  0.18280000  0.72550000  0.59260000  1.0 0.1479708762
C  C10  1  0.52310000  0.02340000  0.54210000  1.0 0.482238241
C  C11  1  0.52480000  0.48030000  0.54230000  1.0 0.4509833812
C  C12  1  0.68280000  0.27450000  0.40740000  1.0 0.1479708762
C  C13  1  0.75000000  0.76980000  0.37610000  1.0 0.5040059132
C  C14  1  0.75000000  0.77330000  0.47300000  1.0 0.4509833812
C  C15  1  0.25000000  0.23020000  0.62390000  1.0 0.5040059132
C  C16  1  0.25000000  0.22670000  0.52700000  1.0 0.4444111578
C  C17  1  0.02310000  0.52340000  0.95790000  1.0 0.482238241
C  C18  1  0.02480000  0.98030000  0.95770000  1.0 0.4509833812
C  C19  1  0.18280000  0.77450000  0.09260000  1.0 0.1479708762
C  C20  1  0.52310000  0.47660000  0.04210000  1.0 0.482238241
C  C21  1  0.52480000  0.01970000  0.04230000  1.0 0.4509833812
C  C22  1  0.68280000  0.22550000  0.90740000  1.0 0.1479708762
C  C23  1  0.97690000  0.47660000  0.04210000  1.0 0.482238241
C  C24  1  0.97520000  0.01970000  0.04230000  1.0 0.4509833812
C  C25  1  0.81720000  0.22550000  0.90740000  1.0 0.1479708762
C  C26  1  0.47690000  0.52340000  0.95790000  1.0 0.482238241
C  C27  1  0.47520000  0.98030000  0.95770000  1.0 0.4509833812
C  C28  1  0.31720000  0.77450000  0.09260000  1.0 0.1479708762
C  C29  1  0.25000000  0.26980000  0.12390000  1.0 0.5040059132
C  C30  1  0.25000000  0.27330000  0.02700000  1.0 0.4444111578
C  C31  1  0.75000000  0.73020000  0.87610000  1.0 0.5040059132
C  C32  1  0.75000000  0.72670000  0.97300000  1.0 0.4444111578
O  O1  1  0.94000000  0.81800000  0.16900000  1.0 -0.5969549227
O  O2  1  0.87320000  0.04690000  0.54560000  1.0 -0.5882019507
O  O3  1  0.86810000  0.49640000  0.55470000  1.0 -0.6142047751
O  O4  1  0.05050000  0.03150000  0.60080000  1.0 -0.5804904359
O  O5  1  0.04470000  0.43480000  0.59130000  1.0 -0.5882019507
O  O6  1  0.86600000  0.36260000  0.40520000  1.0 -0.3919356572
O  O7  1  0.86680000  0.18600000  0.40750000  1.0 -0.3821830298
O  O8  1  0.02200000  0.23300000  0.54400000  1.0 -0.3919356572
O  O9  1  0.95500000  0.28000000  0.45300000  1.0 0.0365808697
O  O10  1  0.44000000  0.18200000  0.83100000  1.0 -0.5969549227
O  O11  1  0.37320000  0.95310000  0.45440000  1.0 -0.5882019507
O  O12  1  0.36810000  0.50360000  0.44530000  1.0 -0.6142047751
O  O13  1  0.55050000  0.96850000  0.39920000  1.0 -0.5804904359
O  O14  1  0.54470000  0.56520000  0.40870000  1.0 -0.5882019507
O  O15  1  0.36600000  0.63740000  0.59480000  1.0 -0.3919356572
O  O16  1  0.36680000  0.81400000  0.59250000  1.0 -0.3821830298
O  O17  1  0.52200000  0.76700000  0.45600000  1.0 -0.3919356572
O  O18  1  0.45500000  0.72000000  0.54700000  1.0 0.0365808697
O  O19  1  0.06000000  0.18200000  0.83100000  1.0 -0.5969549227
O  O20  1  0.12680000  0.95310000  0.45440000  1.0 -0.5882019507
O  O21  1  0.13190000  0.50360000  0.44530000  1.0 -0.6142047751
O  O22  1  0.94950000  0.96850000  0.39920000  1.0 -0.5804904359
O  O23  1  0.95530000  0.56520000  0.40870000  1.0 -0.5882019507
O  O24  1  0.13400000  0.63740000  0.59480000  1.0 -0.3919356572
O  O25  1  0.13320000  0.81400000  0.59250000  1.0 -0.3821830298
O  O26  1  0.97800000  0.76700000  0.45600000  1.0 -0.3919356572
O  O27  1  0.04500000  0.72000000  0.54700000  1.0 0.0365808697
O  O28  1  0.56000000  0.81800000  0.16900000  1.0 -0.5969549227
O  O29  1  0.62680000  0.04690000  0.54560000  1.0 -0.5882019507
O  O30  1  0.63190000  0.49640000  0.55470000  1.0 -0.6142047751
O  O31  1  0.44950000  0.03150000  0.60080000  1.0 -0.5804904359
O  O32  1  0.45530000  0.43480000  0.59130000  1.0 -0.5882019507
O  O33  1  0.63400000  0.36260000  0.40520000  1.0 -0.3919356572
O  O34  1  0.63320000  0.18600000  0.40750000  1.0 -0.3821830298
O  O35  1  0.47800000  0.23300000  0.54400000  1.0 -0.3919356572
O  O36  1  0.54500000  0.28000000  0.45300000  1.0 0.0365808697
O  O37  1  0.75000000  0.85800000  0.33920000  1.0 -0.6296003195
O  O38  1  0.75000000  0.86040000  0.50790000  1.0 -0.6403606641
O  O39  1  0.75000000  0.68230000  0.34270000  1.0 -0.5463906038
O  O40  1  0.75000000  0.68580000  0.50890000  1.0 -0.6142047751
O  O41  1  0.75000000  0.69100000  0.18600000  1.0 -0.6296003195
O  O42  1  0.25000000  0.14200000  0.66080000  1.0 -0.6296003195
O  O43  1  0.25000000  0.13960000  0.49210000  1.0 -0.6403606641
O  O44  1  0.25000000  0.31770000  0.65730000  1.0 -0.5463906038
O  O45  1  0.25000000  0.31420000  0.49110000  1.0 -0.6142047751
O  O46  1  0.25000000  0.30900000  0.81400000  1.0 -0.6296003195
O  O47  1  0.06000000  0.31800000  0.33100000  1.0 -0.5969549227
O  O48  1  0.12680000  0.54690000  0.95440000  1.0 -0.5882019507
O  O49  1  0.13190000  0.99640000  0.94530000  1.0 -0.6142047751
O  O50  1  0.94950000  0.53150000  0.89920000  1.0 -0.5804904359
O  O51  1  0.95530000  0.93480000  0.90870000  1.0 -0.5882019507
O  O52  1  0.13400000  0.86260000  0.09480000  1.0 -0.3919356572
O  O53  1  0.13320000  0.68600000  0.09250000  1.0 -0.3821830298
O  O54  1  0.97800000  0.73300000  0.95600000  1.0 -0.3919356572
O  O55  1  0.04500000  0.78000000  0.04700000  1.0 0.0342052844
O  O56  1  0.56000000  0.68200000  0.66900000  1.0 -0.5969549227
O  O57  1  0.62680000  0.45310000  0.04560000  1.0 -0.5882019507
O  O58  1  0.63190000  0.00360000  0.05470000  1.0 -0.6142047751
O  O59  1  0.44950000  0.46850000  0.10080000  1.0 -0.5804904359
O  O60  1  0.45530000  0.06520000  0.09130000  1.0 -0.5882019507
O  O61  1  0.63400000  0.13740000  0.90520000  1.0 -0.3919356572
O  O62  1  0.63320000  0.31400000  0.90750000  1.0 -0.3821830298
O  O63  1  0.47800000  0.26700000  0.04400000  1.0 -0.3919356572
O  O64  1  0.54500000  0.22000000  0.95300000  1.0 0.0365808697
O  O65  1  0.94000000  0.68200000  0.66900000  1.0 -0.5969549227
O  O66  1  0.87320000  0.45310000  0.04560000  1.0 -0.5882019507
O  O67  1  0.86810000  0.00360000  0.05470000  1.0 -0.6142047751
O  O68  1  0.05050000  0.46850000  0.10080000  1.0 -0.5804904359
O  O69  1  0.04470000  0.06520000  0.09130000  1.0 -0.5882019507
O  O70  1  0.86600000  0.13740000  0.90520000  1.0 -0.3919356572
O  O71  1  0.86680000  0.31400000  0.90750000  1.0 -0.3821830298
O  O72  1  0.02200000  0.26700000  0.04400000  1.0 -0.3919356572
O  O73  1  0.95500000  0.22000000  0.95300000  1.0 0.0365808697
O  O74  1  0.44000000  0.31800000  0.33100000  1.0 -0.5969549227
O  O75  1  0.37320000  0.54690000  0.95440000  1.0 -0.5882019507
O  O76  1  0.36810000  0.99640000  0.94530000  1.0 -0.6142047751
O  O77  1  0.55050000  0.53150000  0.89920000  1.0 -0.5804904359
O  O78  1  0.54470000  0.93480000  0.90870000  1.0 -0.5882019507
O  O79  1  0.36600000  0.86260000  0.09480000  1.0 -0.3919356572
O  O80  1  0.36680000  0.68600000  0.09250000  1.0 -0.3821830298
O  O81  1  0.52200000  0.73300000  0.95600000  1.0 -0.3919356572
O  O82  1  0.45500000  0.78000000  0.04700000  1.0 0.0342052844
O  O83  1  0.25000000  0.35800000  0.16080000  1.0 -0.6296003195
O  O84  1  0.25000000  0.36040000  0.99210000  1.0 -0.6403606641
O  O85  1  0.25000000  0.18230000  0.15730000  1.0 -0.5463906038
O  O86  1  0.25000000  0.18580000  0.99110000  1.0 -0.6142047751
O  O87  1  0.25000000  0.19100000  0.31400000  1.0 -0.6296003195
O  O88  1  0.75000000  0.64200000  0.83920000  1.0 -0.6296003195
O  O89  1  0.75000000  0.63960000  0.00790000  1.0 -0.6403606641
O  O90  1  0.75000000  0.81770000  0.84270000  1.0 -0.5463906038
O  O91  1  0.75000000  0.81420000  0.00890000  1.0 -0.6142047751
O  O92  1  0.75000000  0.80900000  0.68600000  1.0 -0.6296003195
