# DDEC6 charges by PACMAN v1.1 (https://github.com/mtap-research/PACMAN-charge/)
data_SECSUR_FSR_pacman
_symmetry_space_group_name_H-M   'P 1'
_cell_length_a   28.20490000
_cell_length_b   28.20490000
_cell_length_c   28.20490000
_cell_angle_alpha   152.03100000
_cell_angle_beta   116.01100000
_cell_angle_gamma   71.23110000
_symmetry_Int_Tables_number   1
_chemical_formula_structural   ZnCu2H42C78(N4O5)2
_chemical_formula_sum   'Zn2 Cu4 H84 C156 N16 O20'
_cell_volume   9342.00969053
_cell_formula_units_Z   2
loop_
 _symmetry_equiv_pos_site_id
 _symmetry_equiv_pos_as_xyz
  1  'x, y, z'
loop_
 _atom_site_type_symbol
 _atom_site_label
 _atom_site_symmetry_multiplicity
 _atom_site_fract_x
 _atom_site_fract_y
 _atom_site_fract_z
 _atom_site_occupancy
 _atom_site_charge
Zn  Zn1  1  0.00000000  0.50000000  0.00000000  1.0 0.4208429568
Zn  Zn2  1  0.50000000  0.50000000  0.50000000  1.0 0.4208429568
Cu  Cu1  1  0.51627000  0.59581000  0.07954000  1.0 0.9162328653
Cu  Cu2  1  0.98373000  0.06327000  0.07954000  1.0 0.9162328653
Cu  Cu3  1  0.01627000  0.93673000  0.92046000  1.0 0.9162328653
Cu  Cu4  1  0.48373000  0.40419000  0.92046000  1.0 0.9142640047
H  H1  1  0.03690000  0.45500000  0.80030000  1.0 0.1214729326
H  H2  1  0.96070000  0.31400000  0.66010000  1.0 0.1214729326
H  H3  1  0.17420000  0.55520000  0.00360000  1.0 0.1294488521
H  H4  1  0.23570000  0.45950000  0.90760000  1.0 0.1294488521
H  H5  1  0.32200000  0.42880000  0.91120000  1.0 0.1294488521
H  H6  1  0.36530000  0.70660000  0.11930000  1.0 0.1350030713
H  H7  1  0.27720000  0.73550000  0.10970000  1.0 0.1214729326
H  H8  1  0.07660000  0.40810000  0.79390000  1.0 0.1095437082
H  H9  1  0.04160000  0.23660000  0.66460000  1.0 0.1214729326
H  H10  1  0.46310000  0.26340000  0.41810000  1.0 0.1214729326
H  H11  1  0.53930000  0.19940000  0.35330000  1.0 0.1214729326
H  H12  1  0.32580000  0.32940000  0.38100000  1.0 0.1294488521
H  H13  1  0.26430000  0.17190000  0.22380000  1.0 0.1294488521
H  H14  1  0.17800000  0.08920000  0.10680000  1.0 0.1294488521
H  H15  1  0.13470000  0.25400000  0.34130000  1.0 0.1350030713
H  H16  1  0.22280000  0.33250000  0.45830000  1.0 0.1214729326
H  H17  1  0.42340000  0.21730000  0.33150000  1.0 0.1095437082
H  H18  1  0.45840000  0.12300000  0.19500000  1.0 0.1214729326
H  H19  1  0.15470000  0.73660000  0.19970000  1.0 0.1214729326
H  H20  1  0.15390000  0.80060000  0.33990000  1.0 0.1214729326
H  H21  1  0.05160000  0.67060000  0.99640000  1.0 0.1294488521
H  H22  1  0.05190000  0.82810000  0.09240000  1.0 0.1294488521
H  H23  1  0.01760000  0.91080000  0.08880000  1.0 0.1294488521
H  H24  1  0.08730000  0.74600000  0.88070000  1.0 0.1294488521
H  H25  1  0.12580000  0.66750000  0.89030000  1.0 0.1214729326
H  H26  1  0.11420000  0.78270000  0.20610000  1.0 0.1095437082
H  H27  1  0.07200000  0.87700000  0.33540000  1.0 0.1214729326
H  H28  1  0.34530000  0.54500000  0.58190000  1.0 0.1214729326
H  H29  1  0.34610000  0.68600000  0.64670000  1.0 0.1214729326
H  H30  1  0.44840000  0.44480000  0.61900000  1.0 0.1294488521
H  H31  1  0.44810000  0.54050000  0.77620000  1.0 0.1294488521
H  H32  1  0.48240000  0.57120000  0.89320000  1.0 0.1294488521
H  H33  1  0.41270000  0.29340000  0.65870000  1.0 0.1350030713
H  H34  1  0.37420000  0.26450000  0.54170000  1.0 0.1214729326
H  H35  1  0.38580000  0.59190000  0.66850000  1.0 0.1095437082
H  H36  1  0.42800000  0.76340000  0.80500000  1.0 0.1214729326
H  H37  1  0.96310000  0.54500000  0.19970000  1.0 0.1214729326
H  H38  1  0.03930000  0.68600000  0.33990000  1.0 0.1214729326
H  H39  1  0.82580000  0.44480000  0.99640000  1.0 0.1294488521
H  H40  1  0.76430000  0.54050000  0.09240000  1.0 0.1294488521
H  H41  1  0.67800000  0.57120000  0.08880000  1.0 0.1294488521
H  H42  1  0.63470000  0.29340000  0.88070000  1.0 0.1350030713
H  H43  1  0.72280000  0.26450000  0.89030000  1.0 0.1214729326
H  H44  1  0.92340000  0.59190000  0.20610000  1.0 0.1095437082
H  H45  1  0.95840000  0.76340000  0.33540000  1.0 0.1214729326
H  H46  1  0.53690000  0.73660000  0.58190000  1.0 0.1214729326
H  H47  1  0.46070000  0.80060000  0.64670000  1.0 0.1214729326
H  H48  1  0.67420000  0.67060000  0.61900000  1.0 0.1294488521
H  H49  1  0.73570000  0.82810000  0.77620000  1.0 0.1294488521
H  H50  1  0.82200000  0.91080000  0.89320000  1.0 0.1294488521
H  H51  1  0.86530000  0.74600000  0.65870000  1.0 0.1294488521
H  H52  1  0.77720000  0.66750000  0.54170000  1.0 0.1214729326
H  H53  1  0.57660000  0.78270000  0.66850000  1.0 0.1095437082
H  H54  1  0.54160000  0.87700000  0.80500000  1.0 0.1214729326
H  H55  1  0.84530000  0.26340000  0.80030000  1.0 0.1214729326
H  H56  1  0.84610000  0.19940000  0.66010000  1.0 0.1214729326
H  H57  1  0.94840000  0.32940000  0.00360000  1.0 0.1294488521
H  H58  1  0.94810000  0.17190000  0.90760000  1.0 0.1294488521
H  H59  1  0.98240000  0.08920000  0.91120000  1.0 0.1294488521
H  H60  1  0.91270000  0.25400000  0.11930000  1.0 0.1350030713
H  H61  1  0.87420000  0.33250000  0.10970000  1.0 0.1214729326
H  H62  1  0.88580000  0.21730000  0.79390000  1.0 0.1095437082
H  H63  1  0.92800000  0.12300000  0.66460000  1.0 0.1214729326
H  H64  1  0.65470000  0.45500000  0.41810000  1.0 0.1214729326
H  H65  1  0.65390000  0.31400000  0.35330000  1.0 0.1214729326
H  H66  1  0.55160000  0.55520000  0.38100000  1.0 0.1294488521
H  H67  1  0.55190000  0.45950000  0.22380000  1.0 0.1294488521
H  H68  1  0.51760000  0.42880000  0.10680000  1.0 0.1294488521
H  H69  1  0.58730000  0.70660000  0.34130000  1.0 0.1350030713
H  H70  1  0.62580000  0.73550000  0.45830000  1.0 0.1214729326
H  H71  1  0.61420000  0.40810000  0.33150000  1.0 0.1095437082
H  H72  1  0.57200000  0.23660000  0.19500000  1.0 0.1214729326
H  H73  1  0.89990000  0.26810000  0.66800000  1.0 0.1214729326
H  H74  1  0.98250000  0.18840000  0.67090000  1.0 0.1294488521
H  H75  1  0.60010000  0.26810000  0.36820000  1.0 0.1214729326
H  H76  1  0.51750000  0.18840000  0.20590000  1.0 0.1294488521
H  H77  1  0.10010000  0.73190000  0.33200000  1.0 0.1214729326
H  H78  1  0.01750000  0.81160000  0.32910000  1.0 0.1294488521
H  H79  1  0.39990000  0.73190000  0.63180000  1.0 0.1214729326
H  H80  1  0.48250000  0.81160000  0.79410000  1.0 0.1294488521
H  H81  1  0.18870000  0.68870000  0.00000000  1.0 0.1214729326
H  H82  1  0.31130000  0.31130000  0.50000000  1.0 0.1214729326
H  H83  1  0.81130000  0.31130000  0.00000000  1.0 0.1214729326
H  H84  1  0.68870000  0.68870000  0.50000000  1.0 0.1214729326
C  C1  1  0.03530000  0.49260000  0.90550000  1.0 0.1095437082
C  C2  1  0.02130000  0.43920000  0.80890000  1.0 -0.13942991
C  C3  1  0.98001000  0.35931000  0.72970000  1.0 -0.1894158224
C  C4  1  0.97486000  0.36436000  0.78390000  1.0 0.1294488521
C  C5  1  0.15978000  0.58874000  0.00224000  1.0 -0.208712872
C  C6  1  0.19074000  0.61911000  0.00265000  1.0 0.0941592875
C  C7  1  0.24715000  0.60012000  0.00749000  1.0 0.0738346376
C  C8  1  0.26140000  0.50885000  0.94895000  1.0 -0.1522536622
C  C9  1  0.31321000  0.49074000  0.95155000  1.0 -0.0787590617
C  C10  1  0.35195000  0.56290000  0.01291000  1.0 -0.0311857289
C  C11  1  0.33889000  0.65617000  0.07490000  1.0 -0.0787590617
C  C12  1  0.28624000  0.67423000  0.07059000  1.0 -0.1522536622
C  C13  1  0.40804000  0.54144000  0.01190000  1.0 0.5571000986
C  C14  1  0.05600000  0.47450000  0.90690000  1.0 0.096471876
C  C15  1  0.06189000  0.39749000  0.80820000  1.0 -0.1201508318
C  C16  1  0.04193000  0.30153000  0.73480000  1.0 -0.2009274437
C  C17  1  0.02202000  0.33012000  0.79670000  1.0 0.1214729326
C  C18  1  0.46470000  0.37020000  0.45730000  1.0 0.1095437082
C  C19  1  0.47870000  0.28760000  0.41790000  1.0 -0.13942991
C  C20  1  0.51999000  0.24969000  0.37930000  1.0 -0.1894158224
C  C21  1  0.52514000  0.30904000  0.38950000  1.0 0.1294488521
C  C22  1  0.34022000  0.34246000  0.42896000  1.0 -0.208712872
C  C23  1  0.30926000  0.31191000  0.42837000  1.0 0.0941592875
C  C24  1  0.25285000  0.26034000  0.35297000  1.0 0.0738346376
C  C25  1  0.23860000  0.18755000  0.24745000  1.0 -0.1522536622
C  C26  1  0.18679000  0.13834000  0.17753000  1.0 -0.0787590617
C  C27  1  0.14805000  0.16096000  0.21095000  1.0 -0.0311857289
C  C28  1  0.16111000  0.23601000  0.31728000  1.0 -0.0787590617
C  C29  1  0.21376000  0.28435000  0.38799000  1.0 -0.1522536622
C  C30  1  0.09196000  0.10386000  0.13340000  1.0 0.5571000986
C  C31  1  0.44400000  0.35090000  0.41850000  1.0 0.096471876
C  C32  1  0.43811000  0.24631000  0.33560000  1.0 -0.1201508318
C  C33  1  0.45807000  0.19287000  0.25960000  1.0 -0.2009274437
C  C34  1  0.47798000  0.27468000  0.30810000  1.0 0.1214729326
C  C35  1  0.08710000  0.62980000  0.09450000  1.0 0.1095437082
C  C36  1  0.13030000  0.71240000  0.19110000  1.0 -0.13942991
C  C37  1  0.12961000  0.75031000  0.27030000  1.0 -0.1894158224
C  C38  1  0.08046000  0.69096000  0.21610000  1.0 0.1294488521
C  C39  1  0.08650000  0.65754000  0.99776000  1.0 -0.208712872
C  C40  1  0.11646000  0.68809000  0.99735000  1.0 0.0941592875
C  C41  1  0.09263000  0.73966000  0.99251000  1.0 0.0738346376
C  C42  1  0.05990000  0.81245000  0.05105000  1.0 -0.1522536622
C  C43  1  0.03919000  0.86166000  0.04845000  1.0 -0.0787590617
C  C44  1  0.04999000  0.83904000  0.98709000  1.0 -0.0311857289
C  C45  1  0.08127000  0.76399000  0.92510000  1.0 -0.0787590617
C  C46  1  0.10364000  0.71565000  0.92941000  1.0 -0.1522536622
C  C47  1  0.02954000  0.89614000  0.98810000  1.0 0.5571000986
C  C48  1  0.06760000  0.64910000  0.09310000  1.0 0.096471876
C  C49  1  0.08929000  0.75369000  0.19180000  1.0 -0.1201508318
C  C50  1  0.06673000  0.80713000  0.26520000  1.0 -0.2009274437
C  C51  1  0.03342000  0.72532000  0.20330000  1.0 0.1214729326
C  C52  1  0.41290000  0.50740000  0.54270000  1.0 0.1095437082
C  C53  1  0.36970000  0.56080000  0.58210000  1.0 -0.13942991
C  C54  1  0.37039000  0.64069000  0.62070000  1.0 -0.1894158224
C  C55  1  0.41954000  0.63564000  0.61050000  1.0 0.1294488521
C  C56  1  0.41350000  0.41126000  0.57104000  1.0 -0.208712872
C  C57  1  0.38354000  0.38089000  0.57163000  1.0 0.0941592875
C  C58  1  0.40737000  0.39988000  0.64703000  1.0 0.0738346376
C  C59  1  0.44010000  0.49115000  0.75255000  1.0 -0.1522536622
C  C60  1  0.46081000  0.50926000  0.82247000  1.0 -0.0787590617
C  C61  1  0.45001000  0.43710000  0.78905000  1.0 -0.0311857289
C  C62  1  0.41873000  0.34383000  0.68272000  1.0 -0.0787590617
C  C63  1  0.39636000  0.32577000  0.61201000  1.0 -0.1522536622
C  C64  1  0.47046000  0.45856000  0.86660000  1.0 0.5571000986
C  C65  1  0.43240000  0.52550000  0.58150000  1.0 0.096471876
C  C66  1  0.41071000  0.60251000  0.66440000  1.0 -0.1201508318
C  C67  1  0.43327000  0.69847000  0.74040000  1.0 -0.2009274437
C  C68  1  0.46658000  0.66988000  0.69190000  1.0 0.1214729326
C  C69  1  0.96470000  0.50740000  0.09450000  1.0 0.1095437082
C  C70  1  0.97870000  0.56080000  0.19110000  1.0 -0.13942991
C  C71  1  0.01999000  0.64069000  0.27030000  1.0 -0.1894158224
C  C72  1  0.02514000  0.63564000  0.21610000  1.0 0.1294488521
C  C73  1  0.84022000  0.41126000  0.99776000  1.0 -0.208712872
C  C74  1  0.80926000  0.38089000  0.99735000  1.0 0.0941592875
C  C75  1  0.75285000  0.39988000  0.99251000  1.0 0.0738346376
C  C76  1  0.73860000  0.49115000  0.05105000  1.0 -0.1522536622
C  C77  1  0.68679000  0.50926000  0.04845000  1.0 -0.0787590617
C  C78  1  0.64805000  0.43710000  0.98709000  1.0 -0.0311857289
C  C79  1  0.66111000  0.34383000  0.92510000  1.0 -0.0787590617
C  C80  1  0.71376000  0.32577000  0.92941000  1.0 -0.1522536622
C  C81  1  0.59196000  0.45856000  0.98810000  1.0 0.5571000986
C  C82  1  0.94400000  0.52550000  0.09310000  1.0 0.096471876
C  C83  1  0.93811000  0.60251000  0.19180000  1.0 -0.1201508318
C  C84  1  0.95807000  0.69847000  0.26520000  1.0 -0.2009274437
C  C85  1  0.97798000  0.66988000  0.20330000  1.0 0.1214729326
C  C86  1  0.53530000  0.62980000  0.54270000  1.0 0.1095437082
C  C87  1  0.52130000  0.71240000  0.58210000  1.0 -0.13942991
C  C88  1  0.48001000  0.75031000  0.62070000  1.0 -0.1894158224
C  C89  1  0.47486000  0.69096000  0.61050000  1.0 0.1294488521
C  C90  1  0.65978000  0.65754000  0.57104000  1.0 -0.208712872
C  C91  1  0.69074000  0.68809000  0.57163000  1.0 0.0941592875
C  C92  1  0.74715000  0.73966000  0.64703000  1.0 0.0738346376
C  C93  1  0.76140000  0.81245000  0.75255000  1.0 -0.1522536622
C  C94  1  0.81321000  0.86166000  0.82247000  1.0 -0.0787590617
C  C95  1  0.85195000  0.83904000  0.78905000  1.0 -0.0311857289
C  C96  1  0.83889000  0.76399000  0.68272000  1.0 -0.0787590617
C  C97  1  0.78624000  0.71565000  0.61201000  1.0 -0.1522536622
C  C98  1  0.90804000  0.89614000  0.86660000  1.0 0.5571000986
C  C99  1  0.55600000  0.64910000  0.58150000  1.0 0.096471876
C  C100  1  0.56189000  0.75369000  0.66440000  1.0 -0.1201508318
C  C101  1  0.54193000  0.80713000  0.74040000  1.0 -0.2009274437
C  C102  1  0.52202000  0.72532000  0.69190000  1.0 0.1214729326
C  C103  1  0.91290000  0.37020000  0.90550000  1.0 0.1095437082
C  C104  1  0.86970000  0.28760000  0.80890000  1.0 -0.13942991
C  C105  1  0.87039000  0.24969000  0.72970000  1.0 -0.1894158224
C  C106  1  0.91954000  0.30904000  0.78390000  1.0 0.1294488521
C  C107  1  0.91350000  0.34246000  0.00224000  1.0 -0.208712872
C  C108  1  0.88354000  0.31191000  0.00265000  1.0 0.0941592875
C  C109  1  0.90737000  0.26034000  0.00749000  1.0 0.0738346376
C  C110  1  0.94010000  0.18755000  0.94895000  1.0 -0.1522536622
C  C111  1  0.96081000  0.13834000  0.95155000  1.0 -0.0787590617
C  C112  1  0.95001000  0.16096000  0.01291000  1.0 -0.0311857289
C  C113  1  0.91873000  0.23601000  0.07490000  1.0 -0.0787590617
C  C114  1  0.89636000  0.28435000  0.07059000  1.0 -0.1522536622
C  C115  1  0.97046000  0.10386000  0.01190000  1.0 0.5571000986
C  C116  1  0.93240000  0.35090000  0.90690000  1.0 0.096471876
C  C117  1  0.91071000  0.24631000  0.80820000  1.0 -0.1201508318
C  C118  1  0.93327000  0.19287000  0.73480000  1.0 -0.2009274437
C  C119  1  0.96658000  0.27468000  0.79670000  1.0 0.1214729326
C  C120  1  0.58710000  0.49260000  0.45730000  1.0 0.1095437082
C  C121  1  0.63030000  0.43920000  0.41790000  1.0 -0.13942991
C  C122  1  0.62961000  0.35931000  0.37930000  1.0 -0.1894158224
C  C123  1  0.58046000  0.36436000  0.38950000  1.0 0.1294488521
C  C124  1  0.58650000  0.58874000  0.42896000  1.0 -0.208712872
C  C125  1  0.61646000  0.61911000  0.42837000  1.0 0.0941592875
C  C126  1  0.59263000  0.60012000  0.35297000  1.0 0.0738346376
C  C127  1  0.55990000  0.50885000  0.24745000  1.0 -0.1522536622
C  C128  1  0.53919000  0.49074000  0.17753000  1.0 -0.0787590617
C  C129  1  0.54999000  0.56290000  0.21095000  1.0 -0.0311857289
C  C130  1  0.58127000  0.65617000  0.31728000  1.0 -0.0787590617
C  C131  1  0.60364000  0.67423000  0.38799000  1.0 -0.1522536622
C  C132  1  0.52954000  0.54144000  0.13340000  1.0 0.5571000986
C  C133  1  0.56760000  0.47450000  0.41850000  1.0 0.096471876
C  C134  1  0.58929000  0.39749000  0.33560000  1.0 -0.1201508318
C  C135  1  0.56673000  0.30153000  0.25960000  1.0 -0.2009274437
C  C136  1  0.53342000  0.33012000  0.30810000  1.0 0.1214729326
C  C137  1  0.92580000  0.30580000  0.73160000  1.0 -0.22805042
C  C138  1  0.98940000  0.25500000  0.74440000  1.0 -0.22805042
C  C139  1  0.57420000  0.30580000  0.38000000  1.0 -0.22805042
C  C140  1  0.51060000  0.25500000  0.26560000  1.0 -0.22805042
C  C141  1  0.07420000  0.69420000  0.26840000  1.0 -0.22805042
C  C142  1  0.01060000  0.74500000  0.25560000  1.0 -0.22805042
C  C143  1  0.42580000  0.69420000  0.62000000  1.0 -0.22805042
C  C144  1  0.48940000  0.74500000  0.73440000  1.0 -0.22805042
C  C145  1  0.07513000  0.57513000  0.00000000  1.0 -0.1201508318
C  C146  1  0.10811000  0.60811000  0.00000000  1.0 0.0762686991
C  C147  1  0.16847000  0.66847000  0.00000000  1.0 -0.1894158224
C  C148  1  0.42487000  0.42487000  0.50000000  1.0 -0.1201508318
C  C149  1  0.39189000  0.39189000  0.50000000  1.0 0.0738346376
C  C150  1  0.33153000  0.33153000  0.50000000  1.0 -0.1894158224
C  C151  1  0.92487000  0.42487000  0.00000000  1.0 -0.1201508318
C  C152  1  0.89189000  0.39189000  0.00000000  1.0 0.0762686991
C  C153  1  0.83153000  0.33153000  0.00000000  1.0 -0.1894158224
C  C154  1  0.57513000  0.57513000  0.50000000  1.0 -0.1201508318
C  C155  1  0.60811000  0.60811000  0.50000000  1.0 0.0738346376
C  C156  1  0.66847000  0.66847000  0.50000000  1.0 -0.1894158224
N  N1  1  0.00027000  0.45187000  0.88940000  1.0 -0.1029483861
N  N2  1  0.02666000  0.42796000  0.89170000  1.0 -0.0787590617
N  N3  1  0.49973000  0.38913000  0.45160000  1.0 -0.1029483861
N  N4  1  0.47334000  0.36504000  0.40130000  1.0 -0.0731718875
N  N5  1  0.06247000  0.61087000  0.11060000  1.0 -0.105468478
N  N6  1  0.03626000  0.63496000  0.10830000  1.0 -0.0731718875
N  N7  1  0.43753000  0.54813000  0.54840000  1.0 -0.1029483861
N  N8  1  0.46374000  0.57204000  0.59870000  1.0 -0.0731718875
N  N9  1  0.99973000  0.54813000  0.11060000  1.0 -0.1029483861
N  N10  1  0.97334000  0.57204000  0.10830000  1.0 -0.0731718875
N  N11  1  0.50027000  0.61087000  0.54840000  1.0 -0.1029483861
N  N12  1  0.52666000  0.63496000  0.59870000  1.0 -0.0731718875
N  N13  1  0.93753000  0.38913000  0.88940000  1.0 -0.1029483861
N  N14  1  0.96374000  0.36504000  0.89170000  1.0 -0.0787590617
N  N15  1  0.56247000  0.45187000  0.45160000  1.0 -0.1029483861
N  N16  1  0.53626000  0.42796000  0.40130000  1.0 -0.0731718875
O  O1  1  0.44294000  0.61451000  0.07857000  1.0 -0.5115889775
O  O2  1  0.41517000  0.45129000  0.94362000  1.0 -0.5115889775
O  O3  1  0.05706000  0.13563000  0.17157000  1.0 -0.5115889775
O  O4  1  0.08483000  0.02845000  0.03612000  1.0 -0.5115889775
O  O5  1  0.03594000  0.86437000  0.92143000  1.0 -0.5115889775
O  O6  1  0.00767000  0.97155000  0.05638000  1.0 -0.5115889775
O  O7  1  0.46406000  0.38549000  0.82843000  1.0 -0.5161263532
O  O8  1  0.49233000  0.54871000  0.96388000  1.0 -0.5115889775
O  O9  1  0.55706000  0.38549000  0.92143000  1.0 -0.5115889775
O  O10  1  0.58483000  0.54871000  0.05638000  1.0 -0.5115889775
O  O11  1  0.94294000  0.86437000  0.82843000  1.0 -0.5115889775
O  O12  1  0.91517000  0.97155000  0.96388000  1.0 -0.5115889775
O  O13  1  0.96406000  0.13563000  0.07857000  1.0 -0.5115889775
O  O14  1  0.99233000  0.02845000  0.94362000  1.0 -0.5115889775
O  O15  1  0.53594000  0.61451000  0.17157000  1.0 -0.5115889775
O  O16  1  0.50767000  0.45129000  0.03612000  1.0 -0.5115889775
O  O17  1  0.54416000  0.74955000  0.20539000  1.0 -0.2999463043
O  O18  1  0.95584000  0.16123000  0.20539000  1.0 -0.2999463043
O  O19  1  0.04416000  0.83877000  0.79461000  1.0 -0.2999463043
O  O20  1  0.45584000  0.25045000  0.79461000  1.0 -0.2999463043
