# DDEC6 charges by PACMAN v1.1 (https://github.com/mtap-research/PACMAN-charge/)
data_SEFTOO_FSR_pacman
_symmetry_space_group_name_H-M   'P 1'
_cell_length_a   17.03900000
_cell_length_b   17.03900000
_cell_length_c   17.03900000
_cell_angle_alpha   90.00000000
_cell_angle_beta   90.00000000
_cell_angle_gamma   90.00000000
_symmetry_Int_Tables_number   1
_chemical_formula_structural   ZnH12(C2N)4
_chemical_formula_sum   'Zn12 H144 C96 N48'
_cell_volume   4946.89063032
_cell_formula_units_Z   12
loop_
 _symmetry_equiv_pos_site_id
 _symmetry_equiv_pos_as_xyz
  1  'x, y, z'
loop_
 _atom_site_type_symbol
 _atom_site_label
 _atom_site_symmetry_multiplicity
 _atom_site_fract_x
 _atom_site_fract_y
 _atom_site_fract_z
 _atom_site_occupancy
 _atom_site_charge
Zn  Zn1  1  0.75000000  0.00000000  0.50000000  1.0 0.6238645411
Zn  Zn2  1  0.25000000  0.00000000  0.50000000  1.0 0.6547855036
Zn  Zn3  1  0.00000000  0.50000000  0.75000000  1.0 0.6238645411
Zn  Zn4  1  0.00000000  0.50000000  0.25000000  1.0 0.6547855036
Zn  Zn5  1  0.50000000  0.75000000  0.00000000  1.0 0.6238645411
Zn  Zn6  1  0.50000000  0.25000000  0.00000000  1.0 0.6547855036
Zn  Zn7  1  0.00000000  0.75000000  0.50000000  1.0 0.6238645411
Zn  Zn8  1  0.00000000  0.25000000  0.50000000  1.0 0.6547855036
Zn  Zn9  1  0.50000000  0.00000000  0.75000000  1.0 0.6238645411
Zn  Zn10  1  0.50000000  0.00000000  0.25000000  1.0 0.6547855036
Zn  Zn11  1  0.75000000  0.50000000  0.00000000  1.0 0.6238645411
Zn  Zn12  1  0.25000000  0.50000000  0.00000000  1.0 0.6547855036
H  H1  1  0.72250000  0.14150000  0.37820000  1.0 0.1142155227
H  H2  1  0.27750000  0.85850000  0.37820000  1.0 0.1142155227
H  H3  1  0.72250000  0.85850000  0.62180000  1.0 0.1195591301
H  H4  1  0.27750000  0.14150000  0.62180000  1.0 0.1195591301
H  H5  1  0.14150000  0.37820000  0.72250000  1.0 0.1142155227
H  H6  1  0.85850000  0.37820000  0.27750000  1.0 0.1142155227
H  H7  1  0.85850000  0.62180000  0.72250000  1.0 0.1195591301
H  H8  1  0.14150000  0.62180000  0.27750000  1.0 0.1195591301
H  H9  1  0.37820000  0.72250000  0.14150000  1.0 0.1142155227
H  H10  1  0.37820000  0.27750000  0.85850000  1.0 0.1142155227
H  H11  1  0.62180000  0.72250000  0.85850000  1.0 0.1195591301
H  H12  1  0.62180000  0.27750000  0.14150000  1.0 0.1195591301
H  H13  1  0.14150000  0.72250000  0.37820000  1.0 0.1142155227
H  H14  1  0.85850000  0.27750000  0.37820000  1.0 0.1142155227
H  H15  1  0.85850000  0.72250000  0.62180000  1.0 0.1195591301
H  H16  1  0.14150000  0.27750000  0.62180000  1.0 0.1195591301
H  H17  1  0.37820000  0.14150000  0.72250000  1.0 0.1142155227
H  H18  1  0.37820000  0.85850000  0.27750000  1.0 0.1142155227
H  H19  1  0.62180000  0.85850000  0.72250000  1.0 0.1195591301
H  H20  1  0.62180000  0.14150000  0.27750000  1.0 0.1195591301
H  H21  1  0.72250000  0.37820000  0.14150000  1.0 0.1142155227
H  H22  1  0.27750000  0.37820000  0.85850000  1.0 0.1142155227
H  H23  1  0.72250000  0.62180000  0.85850000  1.0 0.1195591301
H  H24  1  0.27750000  0.62180000  0.14150000  1.0 0.1195591301
H  H25  1  0.22250000  0.64150000  0.87820000  1.0 0.1195591301
H  H26  1  0.77750000  0.35850000  0.87820000  1.0 0.1195591301
H  H27  1  0.22250000  0.35850000  0.12180000  1.0 0.1142155227
H  H28  1  0.77750000  0.64150000  0.12180000  1.0 0.1195591301
H  H29  1  0.64150000  0.87820000  0.22250000  1.0 0.1195591301
H  H30  1  0.35850000  0.87820000  0.77750000  1.0 0.1195591301
H  H31  1  0.35850000  0.12180000  0.22250000  1.0 0.1142155227
H  H32  1  0.64150000  0.12180000  0.77750000  1.0 0.1195591301
H  H33  1  0.87820000  0.22250000  0.64150000  1.0 0.1195591301
H  H34  1  0.87820000  0.77750000  0.35850000  1.0 0.1195591301
H  H35  1  0.12180000  0.22250000  0.35850000  1.0 0.1142155227
H  H36  1  0.12180000  0.77750000  0.64150000  1.0 0.1195591301
H  H37  1  0.64150000  0.22250000  0.87820000  1.0 0.1195591301
H  H38  1  0.35850000  0.77750000  0.87820000  1.0 0.1195591301
H  H39  1  0.35850000  0.22250000  0.12180000  1.0 0.1142155227
H  H40  1  0.64150000  0.77750000  0.12180000  1.0 0.1195591301
H  H41  1  0.87820000  0.64150000  0.22250000  1.0 0.1195591301
H  H42  1  0.87820000  0.35850000  0.77750000  1.0 0.1195591301
H  H43  1  0.12180000  0.35850000  0.22250000  1.0 0.1142155227
H  H44  1  0.12180000  0.64150000  0.77750000  1.0 0.1195591301
H  H45  1  0.22250000  0.87820000  0.64150000  1.0 0.1195591301
H  H46  1  0.77750000  0.87820000  0.35850000  1.0 0.1195591301
H  H47  1  0.22250000  0.12180000  0.35850000  1.0 0.1142155227
H  H48  1  0.77750000  0.12180000  0.64150000  1.0 0.1195591301
H  H49  1  0.62190000  0.87360000  0.37890000  1.0 0.1195591301
H  H50  1  0.37810000  0.12640000  0.37890000  1.0 0.151266124
H  H51  1  0.62190000  0.12640000  0.62110000  1.0 0.0856813611
H  H52  1  0.37810000  0.87360000  0.62110000  1.0 0.1195591301
H  H53  1  0.87360000  0.37890000  0.62190000  1.0 0.1195591301
H  H54  1  0.12640000  0.37890000  0.37810000  1.0 0.151266124
H  H55  1  0.12640000  0.62110000  0.62190000  1.0 0.0846088501
H  H56  1  0.87360000  0.62110000  0.37810000  1.0 0.1195591301
H  H57  1  0.37890000  0.62190000  0.87360000  1.0 0.1195591301
H  H58  1  0.37890000  0.37810000  0.12640000  1.0 0.151266124
H  H59  1  0.62110000  0.62190000  0.12640000  1.0 0.0846088501
H  H60  1  0.62110000  0.37810000  0.87360000  1.0 0.1195591301
H  H61  1  0.12190000  0.37360000  0.87890000  1.0 0.1195591301
H  H62  1  0.87810000  0.62640000  0.87890000  1.0 0.0856813611
H  H63  1  0.12190000  0.62640000  0.12110000  1.0 0.151266124
H  H64  1  0.87810000  0.37360000  0.12110000  1.0 0.1195591301
H  H65  1  0.37360000  0.87890000  0.12190000  1.0 0.1195591301
H  H66  1  0.62640000  0.87890000  0.87810000  1.0 0.0856813611
H  H67  1  0.62640000  0.12110000  0.12190000  1.0 0.151266124
H  H68  1  0.37360000  0.12110000  0.87810000  1.0 0.1195591301
H  H69  1  0.87890000  0.12190000  0.37360000  1.0 0.1195591301
H  H70  1  0.87890000  0.87810000  0.62640000  1.0 0.0856813611
H  H71  1  0.12110000  0.12190000  0.62640000  1.0 0.151266124
H  H72  1  0.12110000  0.87810000  0.37360000  1.0 0.1195591301
H  H73  1  0.53890000  0.90970000  0.39560000  1.0 0.1195591301
H  H74  1  0.46110000  0.09030000  0.39560000  1.0 0.144380445
H  H75  1  0.53890000  0.09030000  0.60440000  1.0 0.1265857353
H  H76  1  0.46110000  0.90970000  0.60440000  1.0 0.151266124
H  H77  1  0.90970000  0.39560000  0.53890000  1.0 0.1195591301
H  H78  1  0.09030000  0.39560000  0.46110000  1.0 0.144380445
H  H79  1  0.09030000  0.60440000  0.53890000  1.0 0.1265857353
H  H80  1  0.90970000  0.60440000  0.46110000  1.0 0.151266124
H  H81  1  0.39560000  0.53890000  0.90970000  1.0 0.1195591301
H  H82  1  0.39560000  0.46110000  0.09030000  1.0 0.144380445
H  H83  1  0.60440000  0.53890000  0.09030000  1.0 0.1265857353
H  H84  1  0.60440000  0.46110000  0.90970000  1.0 0.151266124
H  H85  1  0.90970000  0.53890000  0.39560000  1.0 0.1195591301
H  H86  1  0.09030000  0.46110000  0.39560000  1.0 0.144380445
H  H87  1  0.09030000  0.53890000  0.60440000  1.0 0.1265857353
H  H88  1  0.90970000  0.46110000  0.60440000  1.0 0.151266124
H  H89  1  0.39560000  0.90970000  0.53890000  1.0 0.1195591301
H  H90  1  0.39560000  0.09030000  0.46110000  1.0 0.144380445
H  H91  1  0.60440000  0.09030000  0.53890000  1.0 0.1265857353
H  H92  1  0.60440000  0.90970000  0.46110000  1.0 0.151266124
H  H93  1  0.53890000  0.39560000  0.90970000  1.0 0.1195591301
H  H94  1  0.46110000  0.39560000  0.09030000  1.0 0.144380445
H  H95  1  0.53890000  0.60440000  0.09030000  1.0 0.1265857353
H  H96  1  0.46110000  0.60440000  0.90970000  1.0 0.151266124
H  H97  1  0.03890000  0.40970000  0.89560000  1.0 0.151266124
H  H98  1  0.96110000  0.59030000  0.89560000  1.0 0.1265857353
H  H99  1  0.03890000  0.59030000  0.10440000  1.0 0.144380445
H  H100  1  0.96110000  0.40970000  0.10440000  1.0 0.1195591301
H  H101  1  0.40970000  0.89560000  0.03890000  1.0 0.151266124
H  H102  1  0.59030000  0.89560000  0.96110000  1.0 0.1265857353
H  H103  1  0.59030000  0.10440000  0.03890000  1.0 0.144380445
H  H104  1  0.40970000  0.10440000  0.96110000  1.0 0.1195591301
H  H105  1  0.89560000  0.03890000  0.40970000  1.0 0.151266124
H  H106  1  0.89560000  0.96110000  0.59030000  1.0 0.1265857353
H  H107  1  0.10440000  0.03890000  0.59030000  1.0 0.144380445
H  H108  1  0.10440000  0.96110000  0.40970000  1.0 0.1195591301
H  H109  1  0.40970000  0.03890000  0.89560000  1.0 0.151266124
H  H110  1  0.59030000  0.96110000  0.89560000  1.0 0.1265857353
H  H111  1  0.59030000  0.03890000  0.10440000  1.0 0.144380445
H  H112  1  0.40970000  0.96110000  0.10440000  1.0 0.1195591301
H  H113  1  0.89560000  0.40970000  0.03890000  1.0 0.151266124
H  H114  1  0.89560000  0.59030000  0.96110000  1.0 0.1265857353
H  H115  1  0.10440000  0.59030000  0.03890000  1.0 0.144380445
H  H116  1  0.10440000  0.40970000  0.96110000  1.0 0.1195591301
H  H117  1  0.03890000  0.89560000  0.40970000  1.0 0.151266124
H  H118  1  0.96110000  0.89560000  0.59030000  1.0 0.1265857353
H  H119  1  0.03890000  0.10440000  0.59030000  1.0 0.144380445
H  H120  1  0.96110000  0.10440000  0.40970000  1.0 0.1195591301
H  H121  1  0.60340000  0.91010000  0.46130000  1.0 0.151266124
H  H122  1  0.60340000  0.08990000  0.53870000  1.0 0.1265857353
H  H123  1  0.91010000  0.46130000  0.60340000  1.0 0.151266124
H  H124  1  0.08990000  0.53870000  0.60340000  1.0 0.1265857353
H  H125  1  0.46130000  0.60340000  0.91010000  1.0 0.151266124
H  H126  1  0.53870000  0.60340000  0.08990000  1.0 0.1265857353
H  H127  1  0.91010000  0.60340000  0.46130000  1.0 0.151266124
H  H128  1  0.08990000  0.60340000  0.53870000  1.0 0.1265857353
H  H129  1  0.46130000  0.91010000  0.60340000  1.0 0.151266124
H  H130  1  0.53870000  0.08990000  0.60340000  1.0 0.1265857353
H  H131  1  0.60340000  0.46130000  0.91010000  1.0 0.151266124
H  H132  1  0.60340000  0.53870000  0.08990000  1.0 0.1265857353
H  H133  1  0.89660000  0.58990000  0.96130000  1.0 0.1265857353
H  H134  1  0.89660000  0.41010000  0.03870000  1.0 0.151266124
H  H135  1  0.58990000  0.96130000  0.89660000  1.0 0.1265857353
H  H136  1  0.41010000  0.03870000  0.89660000  1.0 0.151266124
H  H137  1  0.96130000  0.89660000  0.58990000  1.0 0.1265857353
H  H138  1  0.03870000  0.89660000  0.41010000  1.0 0.151266124
H  H139  1  0.58990000  0.89660000  0.96130000  1.0 0.1265857353
H  H140  1  0.41010000  0.89660000  0.03870000  1.0 0.151266124
H  H141  1  0.96130000  0.58990000  0.89660000  1.0 0.1265857353
H  H142  1  0.03870000  0.41010000  0.89660000  1.0 0.151266124
H  H143  1  0.89660000  0.96130000  0.58990000  1.0 0.1265857353
H  H144  1  0.89660000  0.03870000  0.41010000  1.0 0.151266124
C  C1  1  0.62272000  0.99360000  0.37730000  1.0 0.356225674
C  C2  1  0.37728000  0.00640000  0.37730000  1.0 0.3710437861
C  C3  1  0.62272000  0.00640000  0.62270000  1.0 0.3231922087
C  C4  1  0.37728000  0.99360000  0.62270000  1.0 0.356225674
C  C5  1  0.99360000  0.37730000  0.62272000  1.0 0.356225674
C  C6  1  0.00640000  0.37730000  0.37728000  1.0 0.3710437861
C  C7  1  0.00640000  0.62270000  0.62272000  1.0 0.3231922087
C  C8  1  0.99360000  0.62270000  0.37728000  1.0 0.356225674
C  C9  1  0.37730000  0.62272000  0.99360000  1.0 0.356225674
C  C10  1  0.37730000  0.37728000  0.00640000  1.0 0.3710437861
C  C11  1  0.62270000  0.62272000  0.00640000  1.0 0.3231922087
C  C12  1  0.62270000  0.37728000  0.99360000  1.0 0.356225674
C  C13  1  0.12272000  0.49360000  0.87730000  1.0 0.3537343042
C  C14  1  0.87728000  0.50640000  0.87730000  1.0 0.3267924385
C  C15  1  0.12272000  0.50640000  0.12270000  1.0 0.3710437861
C  C16  1  0.87728000  0.49360000  0.12270000  1.0 0.3537343042
C  C17  1  0.49360000  0.87730000  0.12272000  1.0 0.3537343042
C  C18  1  0.50640000  0.87730000  0.87728000  1.0 0.3267924385
C  C19  1  0.50640000  0.12270000  0.12272000  1.0 0.3710437861
C  C20  1  0.49360000  0.12270000  0.87728000  1.0 0.3537343042
C  C21  1  0.87730000  0.12272000  0.49360000  1.0 0.3537343042
C  C22  1  0.87730000  0.87728000  0.50640000  1.0 0.3267924385
C  C23  1  0.12270000  0.12272000  0.50640000  1.0 0.3710437861
C  C24  1  0.12270000  0.87728000  0.49360000  1.0 0.3537343042
C  C25  1  0.68680000  0.10120000  0.36910000  1.0 -0.0819495712
C  C26  1  0.31320000  0.89880000  0.36910000  1.0 -0.0819495712
C  C27  1  0.68680000  0.89880000  0.63090000  1.0 -0.0895934936
C  C28  1  0.31320000  0.10120000  0.63090000  1.0 -0.0819495712
C  C29  1  0.10120000  0.36910000  0.68680000  1.0 -0.0819495712
C  C30  1  0.89880000  0.36910000  0.31320000  1.0 -0.0819495712
C  C31  1  0.89880000  0.63090000  0.68680000  1.0 -0.0895934936
C  C32  1  0.10120000  0.63090000  0.31320000  1.0 -0.0819495712
C  C33  1  0.36910000  0.68680000  0.10120000  1.0 -0.0819495712
C  C34  1  0.36910000  0.31320000  0.89880000  1.0 -0.0819495712
C  C35  1  0.63090000  0.68680000  0.89880000  1.0 -0.0895934936
C  C36  1  0.63090000  0.31320000  0.10120000  1.0 -0.0819495712
C  C37  1  0.10120000  0.68680000  0.36910000  1.0 -0.0819495712
C  C38  1  0.89880000  0.31320000  0.36910000  1.0 -0.0819495712
C  C39  1  0.89880000  0.68680000  0.63090000  1.0 -0.0895934936
C  C40  1  0.10120000  0.31320000  0.63090000  1.0 -0.0819495712
C  C41  1  0.36910000  0.10120000  0.68680000  1.0 -0.0819495712
C  C42  1  0.36910000  0.89880000  0.31320000  1.0 -0.0819495712
C  C43  1  0.63090000  0.89880000  0.68680000  1.0 -0.0895934936
C  C44  1  0.63090000  0.10120000  0.31320000  1.0 -0.0819495712
C  C45  1  0.68680000  0.36910000  0.10120000  1.0 -0.0819495712
C  C46  1  0.31320000  0.36910000  0.89880000  1.0 -0.0819495712
C  C47  1  0.68680000  0.63090000  0.89880000  1.0 -0.0895934936
C  C48  1  0.31320000  0.63090000  0.10120000  1.0 -0.0819495712
C  C49  1  0.18680000  0.60120000  0.86910000  1.0 -0.0895934936
C  C50  1  0.81320000  0.39880000  0.86910000  1.0 -0.0895934936
C  C51  1  0.18680000  0.39880000  0.13090000  1.0 -0.0819495712
C  C52  1  0.81320000  0.60120000  0.13090000  1.0 -0.0819495712
C  C53  1  0.60120000  0.86910000  0.18680000  1.0 -0.0819495712
C  C54  1  0.39880000  0.86910000  0.81320000  1.0 -0.0895934936
C  C55  1  0.39880000  0.13090000  0.18680000  1.0 -0.0819495712
C  C56  1  0.60120000  0.13090000  0.81320000  1.0 -0.0819495712
C  C57  1  0.86910000  0.18680000  0.60120000  1.0 -0.0819495712
C  C58  1  0.86910000  0.81320000  0.39880000  1.0 -0.0895934936
C  C59  1  0.13090000  0.18680000  0.39880000  1.0 -0.0819495712
C  C60  1  0.13090000  0.81320000  0.60120000  1.0 -0.0819495712
C  C61  1  0.60120000  0.18680000  0.86910000  1.0 -0.0819495712
C  C62  1  0.39880000  0.81320000  0.86910000  1.0 -0.0895934936
C  C63  1  0.39880000  0.18680000  0.13090000  1.0 -0.0819495712
C  C64  1  0.60120000  0.81320000  0.13090000  1.0 -0.0819495712
C  C65  1  0.86910000  0.60120000  0.18680000  1.0 -0.0819495712
C  C66  1  0.86910000  0.39880000  0.81320000  1.0 -0.0895934936
C  C67  1  0.13090000  0.39880000  0.18680000  1.0 -0.0819495712
C  C68  1  0.13090000  0.60120000  0.81320000  1.0 -0.0819495712
C  C69  1  0.18680000  0.86910000  0.60120000  1.0 -0.0895934936
C  C70  1  0.81320000  0.86910000  0.39880000  1.0 -0.0895934936
C  C71  1  0.18680000  0.13090000  0.39880000  1.0 -0.0819495712
C  C72  1  0.81320000  0.13090000  0.60120000  1.0 -0.0819495712
C  C73  1  0.59410000  0.91450000  0.40590000  1.0 -0.5109265251
C  C74  1  0.40590000  0.08550000  0.40590000  1.0 -0.5440035266
C  C75  1  0.59410000  0.08550000  0.59410000  1.0 -0.4893527531
C  C76  1  0.40590000  0.91450000  0.59410000  1.0 -0.5109265251
C  C77  1  0.91450000  0.40590000  0.59410000  1.0 -0.5109265251
C  C78  1  0.08550000  0.40590000  0.40590000  1.0 -0.5440035266
C  C79  1  0.08550000  0.59410000  0.59410000  1.0 -0.4893527531
C  C80  1  0.91450000  0.59410000  0.40590000  1.0 -0.5109265251
C  C81  1  0.40590000  0.59410000  0.91450000  1.0 -0.5109265251
C  C82  1  0.40590000  0.40590000  0.08550000  1.0 -0.5440035266
C  C83  1  0.59410000  0.59410000  0.08550000  1.0 -0.4893527531
C  C84  1  0.59410000  0.40590000  0.91450000  1.0 -0.5109265251
C  C85  1  0.09410000  0.41450000  0.90590000  1.0 -0.5109265251
C  C86  1  0.90590000  0.58550000  0.90590000  1.0 -0.4893527531
C  C87  1  0.09410000  0.58550000  0.09410000  1.0 -0.5440035266
C  C88  1  0.90590000  0.41450000  0.09410000  1.0 -0.5109265251
C  C89  1  0.41450000  0.90590000  0.09410000  1.0 -0.5109265251
C  C90  1  0.58550000  0.90590000  0.90590000  1.0 -0.4893527531
C  C91  1  0.58550000  0.09410000  0.09410000  1.0 -0.5440035266
C  C92  1  0.41450000  0.09410000  0.90590000  1.0 -0.5109265251
C  C93  1  0.90590000  0.09410000  0.41450000  1.0 -0.5109265251
C  C94  1  0.90590000  0.90590000  0.58550000  1.0 -0.4893527531
C  C95  1  0.09410000  0.09410000  0.58550000  1.0 -0.5440035266
C  C96  1  0.09410000  0.90590000  0.41450000  1.0 -0.5109265251
N  N1  1  0.68257000  0.03167000  0.41058000  1.0 -0.382929734
N  N2  1  0.31743000  0.96833000  0.41058000  1.0 -0.3699306315
N  N3  1  0.68257000  0.96833000  0.58942000  1.0 -0.382929734
N  N4  1  0.31743000  0.03167000  0.58942000  1.0 -0.3699306315
N  N5  1  0.03167000  0.41058000  0.68257000  1.0 -0.382929734
N  N6  1  0.96833000  0.41058000  0.31743000  1.0 -0.3699306315
N  N7  1  0.96833000  0.58942000  0.68257000  1.0 -0.382929734
N  N8  1  0.03167000  0.58942000  0.31743000  1.0 -0.3699306315
N  N9  1  0.41058000  0.68257000  0.03167000  1.0 -0.382929734
N  N10  1  0.41058000  0.31743000  0.96833000  1.0 -0.3699306315
N  N11  1  0.58942000  0.68257000  0.96833000  1.0 -0.382929734
N  N12  1  0.58942000  0.31743000  0.03167000  1.0 -0.3699306315
N  N13  1  0.03167000  0.68257000  0.41058000  1.0 -0.382929734
N  N14  1  0.96833000  0.31743000  0.41058000  1.0 -0.3699306315
N  N15  1  0.96833000  0.68257000  0.58942000  1.0 -0.382929734
N  N16  1  0.03167000  0.31743000  0.58942000  1.0 -0.3699306315
N  N17  1  0.41058000  0.03167000  0.68257000  1.0 -0.382929734
N  N18  1  0.41058000  0.96833000  0.31743000  1.0 -0.3699306315
N  N19  1  0.58942000  0.96833000  0.68257000  1.0 -0.382929734
N  N20  1  0.58942000  0.03167000  0.31743000  1.0 -0.3699306315
N  N21  1  0.68257000  0.41058000  0.03167000  1.0 -0.382929734
N  N22  1  0.31743000  0.41058000  0.96833000  1.0 -0.3699306315
N  N23  1  0.68257000  0.58942000  0.96833000  1.0 -0.382929734
N  N24  1  0.31743000  0.58942000  0.03167000  1.0 -0.3699306315
N  N25  1  0.18257000  0.53167000  0.91058000  1.0 -0.3699306315
N  N26  1  0.81743000  0.46833000  0.91058000  1.0 -0.382929734
N  N27  1  0.18257000  0.46833000  0.08942000  1.0 -0.3699306315
N  N28  1  0.81743000  0.53167000  0.08942000  1.0 -0.382929734
N  N29  1  0.53167000  0.91058000  0.18257000  1.0 -0.3699306315
N  N30  1  0.46833000  0.91058000  0.81743000  1.0 -0.382929734
N  N31  1  0.46833000  0.08942000  0.18257000  1.0 -0.3699306315
N  N32  1  0.53167000  0.08942000  0.81743000  1.0 -0.382929734
N  N33  1  0.91058000  0.18257000  0.53167000  1.0 -0.3699306315
N  N34  1  0.91058000  0.81743000  0.46833000  1.0 -0.382929734
N  N35  1  0.08942000  0.18257000  0.46833000  1.0 -0.3699306315
N  N36  1  0.08942000  0.81743000  0.53167000  1.0 -0.382929734
N  N37  1  0.53167000  0.18257000  0.91058000  1.0 -0.3699306315
N  N38  1  0.46833000  0.81743000  0.91058000  1.0 -0.382929734
N  N39  1  0.46833000  0.18257000  0.08942000  1.0 -0.3699306315
N  N40  1  0.53167000  0.81743000  0.08942000  1.0 -0.382929734
N  N41  1  0.91058000  0.53167000  0.18257000  1.0 -0.3699306315
N  N42  1  0.91058000  0.46833000  0.81743000  1.0 -0.382929734
N  N43  1  0.08942000  0.46833000  0.18257000  1.0 -0.3699306315
N  N44  1  0.08942000  0.53167000  0.81743000  1.0 -0.382929734
N  N45  1  0.18257000  0.91058000  0.53167000  1.0 -0.3699306315
N  N46  1  0.81743000  0.91058000  0.46833000  1.0 -0.382929734
N  N47  1  0.18257000  0.08942000  0.46833000  1.0 -0.3699306315
N  N48  1  0.81743000  0.08942000  0.53167000  1.0 -0.382929734
