# DDEC6 charges by PACMAN v1.1 (https://github.com/mtap-research/PACMAN-charge/)
data_SEFVOQ_ASR_pacman
_symmetry_space_group_name_H-M   'P 1'
_cell_length_a   14.73890000
_cell_length_b   14.73890000
_cell_length_c   14.73890000
_cell_angle_alpha   109.47100000
_cell_angle_beta   109.47100000
_cell_angle_gamma   109.47100000
_symmetry_Int_Tables_number   1
_chemical_formula_structural   ZnH16(CN2)4
_chemical_formula_sum   'Zn6 H96 C24 N48'
_cell_volume   2464.77269221
_cell_formula_units_Z   6
loop_
 _symmetry_equiv_pos_site_id
 _symmetry_equiv_pos_as_xyz
  1  'x, y, z'
loop_
 _atom_site_type_symbol
 _atom_site_label
 _atom_site_symmetry_multiplicity
 _atom_site_fract_x
 _atom_site_fract_y
 _atom_site_fract_z
 _atom_site_occupancy
 _atom_site_charge
Zn  Zn1  1  0.25000000  0.50000000  0.75000000  1.0 0.6269093618
Zn  Zn2  1  0.75000000  0.50000000  0.25000000  1.0 0.6269093618
Zn  Zn3  1  0.75000000  0.25000000  0.50000000  1.0 0.6269093618
Zn  Zn4  1  0.25000000  0.75000000  0.50000000  1.0 0.6269093618
Zn  Zn5  1  0.50000000  0.75000000  0.25000000  1.0 0.6269093618
Zn  Zn6  1  0.50000000  0.25000000  0.75000000  1.0 0.6269093618
H  H1  1  0.09990000  0.51880000  0.85830000  1.0 0.2845357154
H  H2  1  0.66050000  0.24160000  0.14170000  1.0 0.2856953606
H  H3  1  0.33950000  0.48120000  0.58110000  1.0 0.2845357154
H  H4  1  0.90010000  0.75840000  0.41890000  1.0 0.2845357154
H  H5  1  0.85830000  0.09990000  0.51880000  1.0 0.2845357154
H  H6  1  0.14170000  0.66050000  0.24160000  1.0 0.2845357154
H  H7  1  0.58110000  0.33950000  0.48120000  1.0 0.2845357154
H  H8  1  0.41890000  0.90010000  0.75840000  1.0 0.2845357154
H  H9  1  0.51880000  0.85830000  0.09990000  1.0 0.2856953606
H  H10  1  0.24160000  0.14170000  0.66050000  1.0 0.2845357154
H  H11  1  0.48120000  0.58110000  0.33950000  1.0 0.2856953606
H  H12  1  0.75840000  0.41890000  0.90010000  1.0 0.2845357154
H  H13  1  0.51880000  0.09990000  0.85830000  1.0 0.2845357154
H  H14  1  0.24160000  0.66050000  0.14170000  1.0 0.2845357154
H  H15  1  0.48120000  0.33950000  0.58110000  1.0 0.2845357154
H  H16  1  0.75840000  0.90010000  0.41890000  1.0 0.2845357154
H  H17  1  0.09990000  0.85830000  0.51880000  1.0 0.2856953606
H  H18  1  0.66050000  0.14170000  0.24160000  1.0 0.2856953606
H  H19  1  0.33950000  0.58110000  0.48120000  1.0 0.2845357154
H  H20  1  0.90010000  0.41890000  0.75840000  1.0 0.2845357154
H  H21  1  0.85830000  0.51880000  0.09990000  1.0 0.2856953606
H  H22  1  0.14170000  0.24160000  0.66050000  1.0 0.2845357154
H  H23  1  0.58110000  0.48120000  0.33950000  1.0 0.2845357154
H  H24  1  0.41890000  0.75840000  0.90010000  1.0 0.2856953606
H  H25  1  0.00130000  0.24140000  0.49690000  1.0 0.1037936169
H  H26  1  0.74450000  0.50440000  0.50310000  1.0 0.1037936169
H  H27  1  0.25550000  0.75860000  0.75990000  1.0 0.1037936169
H  H28  1  0.99870000  0.49560000  0.24010000  1.0 0.1037936169
H  H29  1  0.49690000  0.00130000  0.24140000  1.0 0.1037936169
H  H30  1  0.50310000  0.74450000  0.50440000  1.0 0.1037936169
H  H31  1  0.75990000  0.25550000  0.75860000  1.0 0.1037936169
H  H32  1  0.24010000  0.99870000  0.49560000  1.0 0.1037936169
H  H33  1  0.24140000  0.49690000  0.00130000  1.0 0.1037936169
H  H34  1  0.50440000  0.50310000  0.74450000  1.0 0.1037936169
H  H35  1  0.75860000  0.75990000  0.25550000  1.0 0.1037936169
H  H36  1  0.49560000  0.24010000  0.99870000  1.0 0.1037936169
H  H37  1  0.24140000  0.00130000  0.49690000  1.0 0.1037936169
H  H38  1  0.50440000  0.74450000  0.50310000  1.0 0.1037936169
H  H39  1  0.75860000  0.25550000  0.75990000  1.0 0.1037936169
H  H40  1  0.49560000  0.99870000  0.24010000  1.0 0.1037936169
H  H41  1  0.00130000  0.49690000  0.24140000  1.0 0.1037936169
H  H42  1  0.74450000  0.50310000  0.50440000  1.0 0.1037936169
H  H43  1  0.25550000  0.75990000  0.75860000  1.0 0.1037936169
H  H44  1  0.99870000  0.24010000  0.49560000  1.0 0.1037936169
H  H45  1  0.49690000  0.24140000  0.00130000  1.0 0.1037936169
H  H46  1  0.50310000  0.50440000  0.74450000  1.0 0.1037936169
H  H47  1  0.75990000  0.75860000  0.25550000  1.0 0.1037936169
H  H48  1  0.24010000  0.49560000  0.99870000  1.0 0.1037936169
H  H49  1  0.93420000  0.29070000  0.44390000  1.0 0.1165541046
H  H50  1  0.84680000  0.49030000  0.55610000  1.0 0.1165541046
H  H51  1  0.15320000  0.70930000  0.64350000  1.0 0.1165541046
H  H52  1  0.06580000  0.50970000  0.35650000  1.0 0.1165541046
H  H53  1  0.44390000  0.93420000  0.29070000  1.0 0.1165541046
H  H54  1  0.55610000  0.84680000  0.49030000  1.0 0.1165541046
H  H55  1  0.64350000  0.15320000  0.70930000  1.0 0.1165541046
H  H56  1  0.35650000  0.06580000  0.50970000  1.0 0.1165541046
H  H57  1  0.29070000  0.44390000  0.93420000  1.0 0.1165541046
H  H58  1  0.49030000  0.55610000  0.84680000  1.0 0.1165541046
H  H59  1  0.70930000  0.64350000  0.15320000  1.0 0.1165541046
H  H60  1  0.50970000  0.35650000  0.06580000  1.0 0.1165541046
H  H61  1  0.29070000  0.93420000  0.44390000  1.0 0.1165541046
H  H62  1  0.49030000  0.84680000  0.55610000  1.0 0.1165541046
H  H63  1  0.70930000  0.15320000  0.64350000  1.0 0.1165541046
H  H64  1  0.50970000  0.06580000  0.35650000  1.0 0.1165541046
H  H65  1  0.93420000  0.44390000  0.29070000  1.0 0.1165541046
H  H66  1  0.84680000  0.55610000  0.49030000  1.0 0.1165541046
H  H67  1  0.15320000  0.64350000  0.70930000  1.0 0.1165541046
H  H68  1  0.06580000  0.35650000  0.50970000  1.0 0.1165541046
H  H69  1  0.44390000  0.29070000  0.93420000  1.0 0.1165541046
H  H70  1  0.55610000  0.49030000  0.84680000  1.0 0.1165541046
H  H71  1  0.64350000  0.70930000  0.15320000  1.0 0.1165541046
H  H72  1  0.35650000  0.50970000  0.06580000  1.0 0.1165541046
H  H73  1  0.06450000  0.35740000  0.50870000  1.0 0.1165541046
H  H74  1  0.84870000  0.55580000  0.49130000  1.0 0.1165541046
H  H75  1  0.15130000  0.64260000  0.70710000  1.0 0.1165541046
H  H76  1  0.93550000  0.44420000  0.29290000  1.0 0.1165541046
H  H77  1  0.50870000  0.06450000  0.35740000  1.0 0.1165541046
H  H78  1  0.49130000  0.84870000  0.55580000  1.0 0.1165541046
H  H79  1  0.70710000  0.15130000  0.64260000  1.0 0.1165541046
H  H80  1  0.29290000  0.93550000  0.44420000  1.0 0.1165541046
H  H81  1  0.35740000  0.50870000  0.06450000  1.0 0.1165541046
H  H82  1  0.55580000  0.49130000  0.84870000  1.0 0.1165541046
H  H83  1  0.64260000  0.70710000  0.15130000  1.0 0.1165541046
H  H84  1  0.44420000  0.29290000  0.93550000  1.0 0.1165541046
H  H85  1  0.35740000  0.06450000  0.50870000  1.0 0.1165541046
H  H86  1  0.55580000  0.84870000  0.49130000  1.0 0.1165541046
H  H87  1  0.64260000  0.15130000  0.70710000  1.0 0.1165541046
H  H88  1  0.44420000  0.93550000  0.29290000  1.0 0.1165541046
H  H89  1  0.06450000  0.50870000  0.35740000  1.0 0.1165541046
H  H90  1  0.84870000  0.49130000  0.55580000  1.0 0.1165541046
H  H91  1  0.15130000  0.70710000  0.64260000  1.0 0.1165541046
H  H92  1  0.93550000  0.29290000  0.44420000  1.0 0.1165541046
H  H93  1  0.50870000  0.35740000  0.06450000  1.0 0.1165541046
H  H94  1  0.49130000  0.55580000  0.84870000  1.0 0.1165541046
H  H95  1  0.70710000  0.64260000  0.15130000  1.0 0.1165541046
H  H96  1  0.29290000  0.44420000  0.93550000  1.0 0.1165541046
C  C1  1  0.00000000  0.36439000  0.61201000  1.0 0.1698494245
C  C2  1  0.75237000  0.38798000  0.38799000  1.0 0.1698494245
C  C3  1  0.24763000  0.63561000  0.63562000  1.0 0.1698494245
C  C4  1  0.00000000  0.61201000  0.36439000  1.0 0.1698494245
C  C5  1  0.61201000  0.00000000  0.36439000  1.0 0.1698494245
C  C6  1  0.38798000  0.75237000  0.38799000  1.0 0.1698494245
C  C7  1  0.63562000  0.24763000  0.63562000  1.0 0.1698494245
C  C8  1  0.36438000  0.00000000  0.61201000  1.0 0.1698494245
C  C9  1  0.36438000  0.61201000  0.00000000  1.0 0.1698494245
C  C10  1  0.38799000  0.38798000  0.75237000  1.0 0.1698494245
C  C11  1  0.63562000  0.63561000  0.24763000  1.0 0.1698494245
C  C12  1  0.61201000  0.36439000  0.00000000  1.0 0.1698494245
C  C13  1  0.00000000  0.30830000  0.50570000  1.0 -0.503489478
C  C14  1  0.80260000  0.49430000  0.49430000  1.0 -0.503489478
C  C15  1  0.19740000  0.69170000  0.69170000  1.0 -0.503489478
C  C16  1  0.00000000  0.50570000  0.30830000  1.0 -0.503489478
C  C17  1  0.50570000  0.00000000  0.30830000  1.0 -0.503489478
C  C18  1  0.49430000  0.80260000  0.49430000  1.0 -0.503489478
C  C19  1  0.69170000  0.19740000  0.69170000  1.0 -0.503489478
C  C20  1  0.30830000  0.00000000  0.50570000  1.0 -0.503489478
C  C21  1  0.30830000  0.50570000  0.00000000  1.0 -0.503489478
C  C22  1  0.49430000  0.49430000  0.80260000  1.0 -0.503489478
C  C23  1  0.69170000  0.69170000  0.19740000  1.0 -0.503489478
C  C24  1  0.50570000  0.30830000  0.00000000  1.0 -0.503489478
N  N1  1  0.09171000  0.43701000  0.70976000  1.0 -0.3527410066
N  N2  1  0.72725000  0.38195000  0.29024000  1.0 -0.3527410066
N  N3  1  0.27275000  0.56299000  0.65470000  1.0 -0.3527410066
N  N4  1  0.90829000  0.61805000  0.34530000  1.0 -0.3527410066
N  N5  1  0.70976000  0.09171000  0.43701000  1.0 -0.3527410066
N  N6  1  0.29024000  0.72725000  0.38195000  1.0 -0.3527410066
N  N7  1  0.65470000  0.27275000  0.56299000  1.0 -0.3527410066
N  N8  1  0.34530000  0.90829000  0.61805000  1.0 -0.3527410066
N  N9  1  0.43701000  0.70976000  0.09171000  1.0 -0.3527410066
N  N10  1  0.38195000  0.29024000  0.72725000  1.0 -0.3527410066
N  N11  1  0.56299000  0.65470000  0.27275000  1.0 -0.3527410066
N  N12  1  0.61805000  0.34530000  0.90829000  1.0 -0.3527410066
N  N13  1  0.43701000  0.09171000  0.70976000  1.0 -0.3527410066
N  N14  1  0.38195000  0.72725000  0.29024000  1.0 -0.3527410066
N  N15  1  0.56299000  0.27275000  0.65470000  1.0 -0.3527410066
N  N16  1  0.61805000  0.90829000  0.34530000  1.0 -0.3527410066
N  N17  1  0.09171000  0.70976000  0.43701000  1.0 -0.3527410066
N  N18  1  0.72725000  0.29024000  0.38195000  1.0 -0.3527410066
N  N19  1  0.27275000  0.65470000  0.56299000  1.0 -0.3527410066
N  N20  1  0.90829000  0.34530000  0.61805000  1.0 -0.3527410066
N  N21  1  0.70976000  0.43701000  0.09171000  1.0 -0.3527410066
N  N22  1  0.29024000  0.38195000  0.72725000  1.0 -0.3527410066
N  N23  1  0.65470000  0.56299000  0.27275000  1.0 -0.3527410066
N  N24  1  0.34530000  0.61805000  0.90829000  1.0 -0.3527410066
N  N25  1  0.05490000  0.46770000  0.78260000  1.0 -0.2589420786
N  N26  1  0.68510000  0.27230000  0.21740000  1.0 -0.2589420786
N  N27  1  0.31490000  0.53230000  0.58720000  1.0 -0.2589420786
N  N28  1  0.94510000  0.72770000  0.41280000  1.0 -0.2589420786
N  N29  1  0.78260000  0.05490000  0.46770000  1.0 -0.2589420786
N  N30  1  0.21740000  0.68510000  0.27230000  1.0 -0.2589420786
N  N31  1  0.58720000  0.31490000  0.53230000  1.0 -0.2589420786
N  N32  1  0.41280000  0.94510000  0.72770000  1.0 -0.2589420786
N  N33  1  0.46770000  0.78260000  0.05490000  1.0 -0.2589420786
N  N34  1  0.27230000  0.21740000  0.68510000  1.0 -0.2589420786
N  N35  1  0.53230000  0.58720000  0.31490000  1.0 -0.2589420786
N  N36  1  0.72770000  0.41280000  0.94510000  1.0 -0.2589420786
N  N37  1  0.46770000  0.05490000  0.78260000  1.0 -0.2589420786
N  N38  1  0.27230000  0.68510000  0.21740000  1.0 -0.2589420786
N  N39  1  0.53230000  0.31490000  0.58720000  1.0 -0.2589420786
N  N40  1  0.72770000  0.94510000  0.41280000  1.0 -0.2589420786
N  N41  1  0.05490000  0.78260000  0.46770000  1.0 -0.2589420786
N  N42  1  0.68510000  0.21740000  0.27230000  1.0 -0.2589420786
N  N43  1  0.31490000  0.58720000  0.53230000  1.0 -0.2589420786
N  N44  1  0.94510000  0.41280000  0.72770000  1.0 -0.2589420786
N  N45  1  0.78260000  0.46770000  0.05490000  1.0 -0.2589420786
N  N46  1  0.21740000  0.27230000  0.68510000  1.0 -0.2589420786
N  N47  1  0.58720000  0.53230000  0.31490000  1.0 -0.2589420786
N  N48  1  0.41280000  0.72770000  0.94510000  1.0 -0.2589420786
