# DDEC6 charges by PACMAN v1.1 (https://github.com/mtap-research/PACMAN-charge/)
data_SEFWIL_ASR_pacman
_symmetry_space_group_name_H-M   'P 1'
_cell_length_a   14.77950000
_cell_length_b   14.77950000
_cell_length_c   14.77950000
_cell_angle_alpha   109.47100000
_cell_angle_beta   109.47100000
_cell_angle_gamma   109.47100000
_symmetry_Int_Tables_number   1
_chemical_formula_structural   ZnH13(CN2)4
_chemical_formula_sum   'Zn6 H78 C24 N48'
_cell_volume   2485.19735310
_cell_formula_units_Z   6
loop_
 _symmetry_equiv_pos_site_id
 _symmetry_equiv_pos_as_xyz
  1  'x, y, z'
loop_
 _atom_site_type_symbol
 _atom_site_label
 _atom_site_symmetry_multiplicity
 _atom_site_fract_x
 _atom_site_fract_y
 _atom_site_fract_z
 _atom_site_occupancy
 _atom_site_charge
Zn  Zn1  1  0.25000000  0.50000000  0.75000000  1.0 0.6009525058
Zn  Zn2  1  0.75000000  0.50000000  0.25000000  1.0 0.6009525058
Zn  Zn3  1  0.75000000  0.25000000  0.50000000  1.0 0.6009525058
Zn  Zn4  1  0.25000000  0.75000000  0.50000000  1.0 0.6009525058
Zn  Zn5  1  0.50000000  0.75000000  0.25000000  1.0 0.6009525058
Zn  Zn6  1  0.50000000  0.25000000  0.75000000  1.0 0.6009525058
H  H1  1  0.10100000  0.52930000  0.85510000  1.0 0.2414500512
H  H2  1  0.67420000  0.24590000  0.14490000  1.0 0.2477740898
H  H3  1  0.32580000  0.47070000  0.57170000  1.0 0.2477740898
H  H4  1  0.89900000  0.75410000  0.42830000  1.0 0.2477740898
H  H5  1  0.85510000  0.10100000  0.52930000  1.0 0.2414500512
H  H6  1  0.14490000  0.67420000  0.24590000  1.0 0.2477740898
H  H7  1  0.57170000  0.32580000  0.47070000  1.0 0.2477740898
H  H8  1  0.42830000  0.89900000  0.75410000  1.0 0.2477740898
H  H9  1  0.52930000  0.85510000  0.10100000  1.0 0.2414500512
H  H10  1  0.24590000  0.14490000  0.67420000  1.0 0.2477740898
H  H11  1  0.47070000  0.57170000  0.32580000  1.0 0.2477740898
H  H12  1  0.75410000  0.42830000  0.89900000  1.0 0.2477740898
H  H13  1  0.52930000  0.10100000  0.85510000  1.0 0.2414500512
H  H14  1  0.24590000  0.67420000  0.14490000  1.0 0.2477740898
H  H15  1  0.47070000  0.32580000  0.57170000  1.0 0.2477740898
H  H16  1  0.75410000  0.89900000  0.42830000  1.0 0.2477740898
H  H17  1  0.10100000  0.85510000  0.52930000  1.0 0.2414500512
H  H18  1  0.67420000  0.14490000  0.24590000  1.0 0.2477740898
H  H19  1  0.32580000  0.57170000  0.47070000  1.0 0.2477740898
H  H20  1  0.89900000  0.42830000  0.75410000  1.0 0.2477740898
H  H21  1  0.85510000  0.52930000  0.10100000  1.0 0.2414500512
H  H22  1  0.14490000  0.24590000  0.67420000  1.0 0.2477740898
H  H23  1  0.57170000  0.47070000  0.32580000  1.0 0.2477740898
H  H24  1  0.42830000  0.75410000  0.89900000  1.0 0.2477740898
H  H25  1  0.00080000  0.23380000  0.50140000  1.0 0.112460762
H  H26  1  0.73240000  0.49940000  0.49860000  1.0 0.0855074249
H  H27  1  0.26760000  0.76620000  0.76700000  1.0 0.0820165696
H  H28  1  0.99920000  0.50060000  0.23300000  1.0 0.112460762
H  H29  1  0.50140000  0.00080000  0.23380000  1.0 0.112460762
H  H30  1  0.49860000  0.73240000  0.49940000  1.0 0.0855074249
H  H31  1  0.76700000  0.26760000  0.76620000  1.0 0.0820165696
H  H32  1  0.23300000  0.99920000  0.50060000  1.0 0.112460762
H  H33  1  0.23380000  0.50140000  0.00080000  1.0 0.112460762
H  H34  1  0.49940000  0.49860000  0.73240000  1.0 0.0855074249
H  H35  1  0.76620000  0.76700000  0.26760000  1.0 0.0820165696
H  H36  1  0.50060000  0.23300000  0.99920000  1.0 0.112460762
H  H37  1  0.06590000  0.35130000  0.51240000  1.0 0.1290240503
H  H38  1  0.83890000  0.55350000  0.48760000  1.0 0.1290240503
H  H39  1  0.16110000  0.64870000  0.71460000  1.0 0.1290240503
H  H40  1  0.93410000  0.44650000  0.28540000  1.0 0.1524746924
H  H41  1  0.51240000  0.06590000  0.35130000  1.0 0.1290240503
H  H42  1  0.48760000  0.83890000  0.55350000  1.0 0.1290240503
H  H43  1  0.71460000  0.16110000  0.64870000  1.0 0.1290240503
H  H44  1  0.28540000  0.93410000  0.44650000  1.0 0.1524746924
H  H45  1  0.35130000  0.51240000  0.06590000  1.0 0.1290240503
H  H46  1  0.55350000  0.48760000  0.83890000  1.0 0.1290240503
H  H47  1  0.64870000  0.71460000  0.16110000  1.0 0.1290240503
H  H48  1  0.44650000  0.28540000  0.93410000  1.0 0.1524746924
H  H49  1  0.35130000  0.06590000  0.51240000  1.0 0.1290240503
H  H50  1  0.55350000  0.83890000  0.48760000  1.0 0.1290240503
H  H51  1  0.64870000  0.16110000  0.71460000  1.0 0.1290240503
H  H52  1  0.44650000  0.93410000  0.28540000  1.0 0.1524746924
H  H53  1  0.06590000  0.51240000  0.35130000  1.0 0.1290240503
H  H54  1  0.83890000  0.48760000  0.55350000  1.0 0.1290240503
H  H55  1  0.16110000  0.71460000  0.64870000  1.0 0.1290240503
H  H56  1  0.93410000  0.28540000  0.44650000  1.0 0.1524746924
H  H57  1  0.51240000  0.35130000  0.06590000  1.0 0.1290240503
H  H58  1  0.48760000  0.55350000  0.83890000  1.0 0.1290240503
H  H59  1  0.71460000  0.64870000  0.16110000  1.0 0.1290240503
H  H60  1  0.28540000  0.44650000  0.93410000  1.0 0.1524746924
H  H61  1  0.93320000  0.28390000  0.44630000  1.0 0.1524746924
H  H62  1  0.83760000  0.48690000  0.55370000  1.0 0.1290240503
H  H63  1  0.16240000  0.71610000  0.64930000  1.0 0.1290240503
H  H64  1  0.44630000  0.93320000  0.28390000  1.0 0.1524746924
H  H65  1  0.55370000  0.83760000  0.48690000  1.0 0.1290240503
H  H66  1  0.64930000  0.16240000  0.71610000  1.0 0.1290240503
H  H67  1  0.28390000  0.44630000  0.93320000  1.0 0.1524746924
H  H68  1  0.48690000  0.55370000  0.83760000  1.0 0.1290240503
H  H69  1  0.71610000  0.64930000  0.16240000  1.0 0.1290240503
H  H70  1  0.28390000  0.93320000  0.44630000  1.0 0.1524746924
H  H71  1  0.48690000  0.83760000  0.55370000  1.0 0.1290240503
H  H72  1  0.71610000  0.16240000  0.64930000  1.0 0.1290240503
H  H73  1  0.93320000  0.44630000  0.28390000  1.0 0.1524746924
H  H74  1  0.83760000  0.55370000  0.48690000  1.0 0.1290240503
H  H75  1  0.16240000  0.64930000  0.71610000  1.0 0.1290240503
H  H76  1  0.44630000  0.28390000  0.93320000  1.0 0.1524746924
H  H77  1  0.55370000  0.48690000  0.83760000  1.0 0.1290240503
H  H78  1  0.64930000  0.71610000  0.16240000  1.0 0.1290240503
C  C1  1  0.00000000  0.35850000  0.61390000  1.0 0.256548767
C  C2  1  0.74460000  0.38610000  0.38610000  1.0 0.2477740898
C  C3  1  0.25540000  0.64150000  0.64150000  1.0 0.2414500512
C  C4  1  0.00000000  0.61390000  0.35850000  1.0 0.256548767
C  C5  1  0.61390000  0.00000000  0.35850000  1.0 0.256548767
C  C6  1  0.38610000  0.74460000  0.38610000  1.0 0.2477740898
C  C7  1  0.64150000  0.25540000  0.64150000  1.0 0.2414500512
C  C8  1  0.35850000  0.00000000  0.61390000  1.0 0.256548767
C  C9  1  0.35850000  0.61390000  0.00000000  1.0 0.256548767
C  C10  1  0.38610000  0.38610000  0.74460000  1.0 0.2477740898
C  C11  1  0.64150000  0.64150000  0.25540000  1.0 0.2414500512
C  C12  1  0.61390000  0.35850000  0.00000000  1.0 0.256548767
C  C13  1  0.00000000  0.30210000  0.50970000  1.0 -0.5030672156
C  C14  1  0.79240000  0.49030000  0.49030000  1.0 -0.4917636219
C  C15  1  0.20760000  0.69790000  0.69790000  1.0 -0.4917636219
C  C16  1  0.00000000  0.50970000  0.30210000  1.0 -0.5030672156
C  C17  1  0.50970000  0.00000000  0.30210000  1.0 -0.5030672156
C  C18  1  0.49030000  0.79240000  0.49030000  1.0 -0.4917636219
C  C19  1  0.69790000  0.20760000  0.69790000  1.0 -0.4917636219
C  C20  1  0.30210000  0.00000000  0.50970000  1.0 -0.5030672156
C  C21  1  0.30210000  0.50970000  0.00000000  1.0 -0.5030672156
C  C22  1  0.49030000  0.49030000  0.79240000  1.0 -0.4917636219
C  C23  1  0.69790000  0.69790000  0.20760000  1.0 -0.4917636219
C  C24  1  0.50970000  0.30210000  0.00000000  1.0 -0.5030672156
N  N1  1  0.09160000  0.43700000  0.70980000  1.0 -0.3130317731
N  N2  1  0.72720000  0.38180000  0.29020000  1.0 -0.3202076309
N  N3  1  0.27280000  0.56300000  0.65460000  1.0 -0.3202076309
N  N4  1  0.90840000  0.61820000  0.34540000  1.0 -0.3202076309
N  N5  1  0.70980000  0.09160000  0.43700000  1.0 -0.3130317731
N  N6  1  0.29020000  0.72720000  0.38180000  1.0 -0.3202076309
N  N7  1  0.65460000  0.27280000  0.56300000  1.0 -0.3202076309
N  N8  1  0.34540000  0.90840000  0.61820000  1.0 -0.3202076309
N  N9  1  0.43700000  0.70980000  0.09160000  1.0 -0.3130317731
N  N10  1  0.38180000  0.29020000  0.72720000  1.0 -0.3202076309
N  N11  1  0.56300000  0.65460000  0.27280000  1.0 -0.3202076309
N  N12  1  0.61820000  0.34540000  0.90840000  1.0 -0.3202076309
N  N13  1  0.43700000  0.09160000  0.70980000  1.0 -0.3130317731
N  N14  1  0.38180000  0.72720000  0.29020000  1.0 -0.3202076309
N  N15  1  0.56300000  0.27280000  0.65460000  1.0 -0.3202076309
N  N16  1  0.61820000  0.90840000  0.34540000  1.0 -0.3202076309
N  N17  1  0.09160000  0.70980000  0.43700000  1.0 -0.3130317731
N  N18  1  0.72720000  0.29020000  0.38180000  1.0 -0.3202076309
N  N19  1  0.27280000  0.65460000  0.56300000  1.0 -0.3202076309
N  N20  1  0.90840000  0.34540000  0.61820000  1.0 -0.3202076309
N  N21  1  0.70980000  0.43700000  0.09160000  1.0 -0.3130317731
N  N22  1  0.29020000  0.38180000  0.72720000  1.0 -0.3202076309
N  N23  1  0.65460000  0.56300000  0.27280000  1.0 -0.3202076309
N  N24  1  0.34540000  0.61820000  0.90840000  1.0 -0.3202076309
N  N25  1  0.05530000  0.47350000  0.77920000  1.0 -0.2490871986
N  N26  1  0.69430000  0.27610000  0.22080000  1.0 -0.2275086222
N  N27  1  0.30570000  0.52650000  0.58180000  1.0 -0.2490871986
N  N28  1  0.94470000  0.72390000  0.41820000  1.0 -0.2390095371
N  N29  1  0.77920000  0.05530000  0.47350000  1.0 -0.2490871986
N  N30  1  0.22080000  0.69430000  0.27610000  1.0 -0.2275086222
N  N31  1  0.58180000  0.30570000  0.52650000  1.0 -0.2490871986
N  N32  1  0.41820000  0.94470000  0.72390000  1.0 -0.2390095371
N  N33  1  0.47350000  0.77920000  0.05530000  1.0 -0.2490871986
N  N34  1  0.27610000  0.22080000  0.69430000  1.0 -0.2275086222
N  N35  1  0.52650000  0.58180000  0.30570000  1.0 -0.2490871986
N  N36  1  0.72390000  0.41820000  0.94470000  1.0 -0.2390095371
N  N37  1  0.47350000  0.05530000  0.77920000  1.0 -0.2490871986
N  N38  1  0.27610000  0.69430000  0.22080000  1.0 -0.2275086222
N  N39  1  0.52650000  0.30570000  0.58180000  1.0 -0.2490871986
N  N40  1  0.72390000  0.94470000  0.41820000  1.0 -0.2390095371
N  N41  1  0.05530000  0.77920000  0.47350000  1.0 -0.2490871986
N  N42  1  0.69430000  0.22080000  0.27610000  1.0 -0.2275086222
N  N43  1  0.30570000  0.58180000  0.52650000  1.0 -0.2490871986
N  N44  1  0.94470000  0.41820000  0.72390000  1.0 -0.2390095371
N  N45  1  0.77920000  0.47350000  0.05530000  1.0 -0.2490871986
N  N46  1  0.22080000  0.27610000  0.69430000  1.0 -0.2275086222
N  N47  1  0.58180000  0.52650000  0.30570000  1.0 -0.2490871986
N  N48  1  0.41820000  0.72390000  0.94470000  1.0 -0.2390095371
