# DDEC6 charges by PACMAN v1.1 (https://github.com/mtap-research/PACMAN-charge/)
data_SEGMEW_FSR_pacman
_symmetry_space_group_name_H-M   'P 1'
_cell_length_a   7.84000000
_cell_length_b   13.86800000
_cell_length_c   26.59100000
_cell_angle_alpha   90.00000000
_cell_angle_beta   90.00000000
_cell_angle_gamma   90.00000000
_symmetry_Int_Tables_number   1
_chemical_formula_structural   CdNiC7N6
_chemical_formula_sum   'Cd8 Ni8 C56 N48'
_cell_volume   2891.10966592
_cell_formula_units_Z   8
loop_
 _symmetry_equiv_pos_site_id
 _symmetry_equiv_pos_as_xyz
  1  'x, y, z'
loop_
 _atom_site_type_symbol
 _atom_site_label
 _atom_site_symmetry_multiplicity
 _atom_site_fract_x
 _atom_site_fract_y
 _atom_site_fract_z
 _atom_site_occupancy
 _atom_site_charge
Cd  Cd1  1  0.62130000  0.67515000  0.50000000  1.0 1.0095505682
Cd  Cd2  1  0.87870000  0.17515000  0.50000000  1.0 1.0095505682
Cd  Cd3  1  0.12130000  0.82485000  0.00000000  1.0 1.0095505682
Cd  Cd4  1  0.37870000  0.32485000  0.00000000  1.0 1.0095505682
Cd  Cd5  1  0.61800000  0.75433000  0.23527000  1.0 1.0226750341
Cd  Cd6  1  0.88200000  0.25433000  0.23527000  1.0 1.0226750341
Cd  Cd7  1  0.11800000  0.74567000  0.73527000  1.0 1.0226750341
Cd  Cd8  1  0.38200000  0.24567000  0.73527000  1.0 1.0226750341
Ni  Ni1  1  0.11080000  0.73270000  0.36814000  1.0 0.0571792019
Ni  Ni2  1  0.38920000  0.23270000  0.36814000  1.0 0.0571792019
Ni  Ni3  1  0.61080000  0.76730000  0.86814000  1.0 0.0513633624
Ni  Ni4  1  0.88920000  0.26730000  0.86814000  1.0 0.0513633624
Ni  Ni5  1  0.00550000  0.46210000  0.61741000  1.0 0.0733883324
Ni  Ni6  1  0.49450000  0.96210000  0.61741000  1.0 0.0733883324
Ni  Ni7  1  0.50550000  0.03790000  0.11741000  1.0 0.07903548
Ni  Ni8  1  0.99450000  0.53790000  0.11741000  1.0 0.0733883324
C  C1  1  0.94000000  0.71100000  0.41590000  1.0 0.2002492241
C  C2  1  0.56000000  0.21100000  0.41590000  1.0 0.2002492241
C  C3  1  0.44000000  0.78900000  0.91590000  1.0 0.2108169076
C  C4  1  0.06000000  0.28900000  0.91590000  1.0 0.2108169076
C  C5  1  0.27400000  0.70900000  0.41590000  1.0 0.1418570716
C  C6  1  0.22600000  0.20900000  0.41590000  1.0 0.1418570716
C  C7  1  0.77400000  0.79100000  0.91590000  1.0 0.1293711125
C  C8  1  0.72600000  0.29100000  0.91590000  1.0 0.1418570716
C  C9  1  0.90700000  0.56700000  0.58500000  1.0 0.1293711125
C  C10  1  0.59300000  0.06700000  0.58500000  1.0 0.1293711125
C  C11  1  0.40700000  0.93300000  0.08500000  1.0 0.1293711125
C  C12  1  0.09300000  0.43300000  0.08500000  1.0 0.1293711125
C  C13  1  0.56400000  0.88100000  0.56560000  1.0 0.1776884762
C  C14  1  0.93600000  0.38100000  0.56560000  1.0 0.1776884762
C  C15  1  0.06400000  0.61900000  0.06560000  1.0 0.1776884762
C  C16  1  0.43600000  0.11900000  0.06560000  1.0 0.1776884762
C  C17  1  0.94300000  0.75400000  0.31870000  1.0 0.2108169076
C  C18  1  0.55700000  0.25400000  0.31870000  1.0 0.2108169076
C  C19  1  0.44300000  0.74600000  0.81870000  1.0 0.2108169076
C  C20  1  0.05700000  0.24600000  0.81870000  1.0 0.2108169076
C  C21  1  0.29000000  0.75800000  0.32120000  1.0 0.1886560395
C  C22  1  0.21000000  0.25800000  0.32120000  1.0 0.1886560395
C  C23  1  0.79000000  0.74200000  0.82120000  1.0 0.1886560395
C  C24  1  0.71000000  0.24200000  0.82120000  1.0 0.1776884762
C  C25  1  0.89500000  0.64600000  0.14880000  1.0 0.1293711125
C  C26  1  0.60500000  0.14600000  0.14880000  1.0 0.1293711125
C  C27  1  0.39500000  0.85400000  0.64880000  1.0 0.1293711125
C  C28  1  0.10500000  0.35400000  0.64880000  1.0 0.1293711125
C  C29  1  0.57300000  0.95800000  0.17070000  1.0 0.2002492241
C  C30  1  0.92700000  0.45800000  0.17070000  1.0 0.2002492241
C  C31  1  0.07300000  0.54200000  0.67070000  1.0 0.2002492241
C  C32  1  0.42700000  0.04200000  0.67070000  1.0 0.2002492241
C  C33  1  0.35700000  0.53800000  0.55400000  1.0 0.1418570716
C  C34  1  0.14300000  0.03800000  0.55400000  1.0 0.1418570716
C  C35  1  0.85700000  0.96200000  0.05400000  1.0 0.1418570716
C  C36  1  0.64300000  0.46200000  0.05400000  1.0 0.1418570716
C  C37  1  0.46500000  0.47700000  0.53600000  1.0 0.1724818055
C  C38  1  0.03500000  0.97700000  0.53600000  1.0 0.1724818055
C  C39  1  0.96500000  0.02300000  0.03600000  1.0 0.1724818055
C  C40  1  0.53500000  0.52300000  0.03600000  1.0 0.1724818055
C  C41  1  0.43200000  0.36900000  0.53280000  1.0 0.1163997338
C  C42  1  0.06800000  0.86900000  0.53280000  1.0 0.1163997338
C  C43  1  0.93200000  0.13100000  0.03280000  1.0 0.1163997338
C  C44  1  0.56800000  0.63100000  0.03280000  1.0 0.1163997338
C  C45  1  0.35700000  0.61800000  0.17600000  1.0 0.1886560395
C  C46  1  0.14300000  0.11800000  0.17600000  1.0 0.1886560395
C  C47  1  0.85700000  0.88200000  0.67600000  1.0 0.1886560395
C  C48  1  0.64300000  0.38200000  0.67600000  1.0 0.1886560395
C  C49  1  0.45600000  0.55400000  0.20500000  1.0 0.2108169076
C  C50  1  0.04400000  0.05400000  0.20500000  1.0 0.2108169076
C  C51  1  0.95600000  0.94600000  0.70500000  1.0 0.2108169076
C  C52  1  0.54400000  0.44600000  0.70500000  1.0 0.2108169076
C  C53  1  0.40200000  0.44900000  0.20400000  1.0 0.07903548
C  C54  1  0.09800000  0.94900000  0.20400000  1.0 0.07903548
C  C55  1  0.90200000  0.05100000  0.70400000  1.0 0.07903548
C  C56  1  0.59800000  0.55100000  0.70400000  1.0 0.07903548
N  N1  1  0.83400000  0.70100000  0.44360000  1.0 -0.4316359046
N  N2  1  0.66600000  0.20100000  0.44360000  1.0 -0.4316359046
N  N3  1  0.33400000  0.79900000  0.94360000  1.0 -0.4316359046
N  N4  1  0.16600000  0.29900000  0.94360000  1.0 -0.4387284401
N  N5  1  0.38300000  0.69400000  0.44430000  1.0 -0.4078547272
N  N6  1  0.11700000  0.19400000  0.44430000  1.0 -0.4078547272
N  N7  1  0.88300000  0.80600000  0.94430000  1.0 -0.3904855105
N  N8  1  0.61700000  0.30600000  0.94430000  1.0 -0.4078547272
N  N9  1  0.83700000  0.63100000  0.56610000  1.0 -0.3785845074
N  N10  1  0.66300000  0.13100000  0.56610000  1.0 -0.3785845074
N  N11  1  0.33700000  0.86900000  0.06610000  1.0 -0.3785845074
N  N12  1  0.16300000  0.36900000  0.06610000  1.0 -0.3785845074
N  N13  1  0.60500000  0.83160000  0.53280000  1.0 -0.4387284401
N  N14  1  0.89500000  0.33160000  0.53280000  1.0 -0.4387284401
N  N15  1  0.10500000  0.66840000  0.03280000  1.0 -0.4387284401
N  N16  1  0.39500000  0.16840000  0.03280000  1.0 -0.4387284401
N  N17  1  0.40500000  0.63900000  0.55930000  1.0 -0.2091914026
N  N18  1  0.09500000  0.13900000  0.55930000  1.0 -0.2091914026
N  N19  1  0.90500000  0.86100000  0.05930000  1.0 -0.2091914026
N  N20  1  0.59500000  0.36100000  0.05930000  1.0 -0.2091914026
N  N21  1  0.59300000  0.50750000  0.49680000  1.0 -0.3236807022
N  N22  1  0.90700000  0.00750000  0.49680000  1.0 -0.3250450823
N  N23  1  0.09300000  0.99250000  0.99680000  1.0 -0.3236807022
N  N24  1  0.40700000  0.49250000  0.99680000  1.0 -0.3250450823
N  N25  1  0.83800000  0.76400000  0.28880000  1.0 -0.4316359046
N  N26  1  0.66200000  0.26400000  0.28880000  1.0 -0.4387284401
N  N27  1  0.33800000  0.73600000  0.78880000  1.0 -0.4387284401
N  N28  1  0.16200000  0.23600000  0.78880000  1.0 -0.4387284401
N  N29  1  0.39500000  0.76900000  0.29250000  1.0 -0.4173359904
N  N30  1  0.10500000  0.26900000  0.29250000  1.0 -0.4173359904
N  N31  1  0.89500000  0.73100000  0.79250000  1.0 -0.4078547272
N  N32  1  0.60500000  0.23100000  0.79250000  1.0 -0.4078547272
N  N33  1  0.82500000  0.70810000  0.16790000  1.0 -0.3736339393
N  N34  1  0.67500000  0.20810000  0.16790000  1.0 -0.3736339393
N  N35  1  0.32500000  0.79190000  0.66790000  1.0 -0.3785845074
N  N36  1  0.17500000  0.29190000  0.66790000  1.0 -0.3785845074
N  N37  1  0.61800000  0.90800000  0.20130000  1.0 -0.4387284401
N  N38  1  0.88200000  0.40800000  0.20130000  1.0 -0.4387284401
N  N39  1  0.11800000  0.59200000  0.70130000  1.0 -0.4387284401
N  N40  1  0.38200000  0.09200000  0.70130000  1.0 -0.4387284401
N  N41  1  0.39500000  0.72300000  0.17600000  1.0 -0.201930854
N  N42  1  0.10500000  0.22300000  0.17600000  1.0 -0.201930854
N  N43  1  0.89500000  0.77700000  0.67600000  1.0 -0.2091914026
N  N44  1  0.60500000  0.27700000  0.67600000  1.0 -0.2091914026
N  N45  1  0.57500000  0.58400000  0.24130000  1.0 -0.3904855105
N  N46  1  0.92500000  0.08400000  0.24130000  1.0 -0.3904855105
N  N47  1  0.07500000  0.91600000  0.74130000  1.0 -0.3904855105
N  N48  1  0.42500000  0.41600000  0.74130000  1.0 -0.3904855105
