# DDEC6 charges by PACMAN v1.1 (https://github.com/mtap-research/PACMAN-charge/)
data_SEGWAF_ion_pacman
_symmetry_space_group_name_H-M   'P 1'
_cell_length_a   13.61300000
_cell_length_b   23.45500000
_cell_length_c   18.85700000
_cell_angle_alpha   90.00000000
_cell_angle_beta   97.16000000
_cell_angle_gamma   90.00000000
_symmetry_Int_Tables_number   1
_chemical_formula_structural   Zn3H33C44N3O14
_chemical_formula_sum   'Zn12 H132 C176 N12 O56'
_cell_volume   5973.95522025
_cell_formula_units_Z   4
loop_
 _symmetry_equiv_pos_site_id
 _symmetry_equiv_pos_as_xyz
  1  'x, y, z'
loop_
 _atom_site_type_symbol
 _atom_site_label
 _atom_site_symmetry_multiplicity
 _atom_site_fract_x
 _atom_site_fract_y
 _atom_site_fract_z
 _atom_site_occupancy
 _atom_site_charge
Zn  Zn1  1  0.67880000  0.42750000  0.34234000  1.0 0.9548575517
Zn  Zn2  1  0.70185000  0.58172000  0.31857000  1.0 0.9336367484
Zn  Zn3  1  0.87423000  0.50249000  0.38982000  1.0 0.9564863976
Zn  Zn4  1  0.67880000  0.07250000  0.84234000  1.0 0.9564863976
Zn  Zn5  1  0.70185000  0.91828000  0.81857000  1.0 0.9336367484
Zn  Zn6  1  0.87423000  0.99751000  0.88982000  1.0 0.9564863976
Zn  Zn7  1  0.32120000  0.92750000  0.15766000  1.0 0.9564863976
Zn  Zn8  1  0.29815000  0.08172000  0.18143000  1.0 0.9336367484
Zn  Zn9  1  0.12577000  0.00249000  0.11018000  1.0 0.9564863976
Zn  Zn10  1  0.32120000  0.57250000  0.65766000  1.0 0.9548575517
Zn  Zn11  1  0.29815000  0.41828000  0.68143000  1.0 0.9336367484
Zn  Zn12  1  0.12577000  0.49751000  0.61018000  1.0 0.9564863976
H  H1  1  0.06530000  0.56640000  0.24400000  1.0 0.1280092968
H  H2  1  0.81270000  0.30990000  0.19890000  1.0 0.1205069453
H  H3  1  0.84180000  0.66700000  0.16140000  1.0 0.1280092968
H  H4  1  0.98620000  0.17100000  0.17520000  1.0 0.1108245885
H  H5  1  0.80090000  0.28060000  0.06410000  1.0 0.1205069453
H  H6  1  0.04210000  0.40060000  0.29230000  1.0 0.1205069453
H  H7  1  0.22300000  0.54740000  0.12760000  1.0 0.1205069453
H  H8  1  0.39150000  0.52940000  0.15720000  1.0 0.1108245885
H  H9  1  0.37960000  0.37160000  0.36060000  1.0 0.1280092968
H  H10  1  0.21500000  0.34360000  0.34630000  1.0 0.1205069453
H  H11  1  0.24240000  0.68030000  0.26130000  1.0 0.1205069453
H  H12  1  0.20280000  0.36850000  0.13540000  1.0 0.1108245885
H  H13  1  0.41010000  0.66190000  0.29280000  1.0 0.1280092968
H  H14  1  0.80910000  0.70140000  0.03490000  1.0 0.1205069453
H  H15  1  0.04120000  0.79520000  0.12200000  1.0 0.1108245885
H  H16  1  0.98700000  0.87080000  0.04990000  1.0 0.1205069453
H  H17  1  0.75430000  0.77740000  0.96420000  1.0 0.1205069453
H  H18  1  0.74090000  0.20720000  0.98820000  1.0 0.1205069453
H  H19  1  0.92870000  0.09800000  0.09890000  1.0 0.1205069453
H  H20  1  0.36680000  0.39670000  0.15060000  1.0 0.1108245885
H  H21  1  0.11500000  0.72400000  0.06800000  1.0 0.269427905
H  H22  1  0.19000000  0.68400000  0.10300000  1.0 0.2649820384
H  H23  1  0.08300000  0.23500000  0.12900000  1.0 0.269427905
H  H24  1  0.16600000  0.27300000  0.15400000  1.0 0.269427905
H  H25  1  0.70300000  0.52100000  0.39900000  1.0 0.3627782699
H  H26  1  0.06530000  0.93360000  0.74400000  1.0 0.1280092968
H  H27  1  0.81270000  0.19010000  0.69890000  1.0 0.1205069453
H  H28  1  0.84180000  0.83300000  0.66140000  1.0 0.1280092968
H  H29  1  0.98620000  0.32900000  0.67520000  1.0 0.1108245885
H  H30  1  0.80090000  0.21940000  0.56410000  1.0 0.1205069453
H  H31  1  0.04210000  0.09940000  0.79230000  1.0 0.1205069453
H  H32  1  0.22300000  0.95260000  0.62760000  1.0 0.1205069453
H  H33  1  0.39150000  0.97060000  0.65720000  1.0 0.1108245885
H  H34  1  0.37960000  0.12840000  0.86060000  1.0 0.1280092968
H  H35  1  0.21500000  0.15640000  0.84630000  1.0 0.1205069453
H  H36  1  0.24240000  0.81970000  0.76130000  1.0 0.1205069453
H  H37  1  0.20280000  0.13150000  0.63540000  1.0 0.1108245885
H  H38  1  0.41010000  0.83810000  0.79280000  1.0 0.1280092968
H  H39  1  0.80910000  0.79860000  0.53490000  1.0 0.1205069453
H  H40  1  0.04120000  0.70480000  0.62200000  1.0 0.1108245885
H  H41  1  0.98700000  0.62920000  0.54990000  1.0 0.1205069453
H  H42  1  0.75430000  0.72260000  0.46420000  1.0 0.1205069453
H  H43  1  0.74090000  0.29280000  0.48820000  1.0 0.1205069453
H  H44  1  0.92870000  0.40200000  0.59890000  1.0 0.1205069453
H  H45  1  0.36680000  0.10330000  0.65060000  1.0 0.1108245885
H  H46  1  0.11500000  0.77600000  0.56800000  1.0 0.269427905
H  H47  1  0.19000000  0.81600000  0.60300000  1.0 0.2649820384
H  H48  1  0.08300000  0.26500000  0.62900000  1.0 0.269427905
H  H49  1  0.16600000  0.22700000  0.65400000  1.0 0.269427905
H  H50  1  0.70300000  0.97900000  0.89900000  1.0 0.3627782699
H  H51  1  0.93470000  0.06640000  0.25600000  1.0 0.1280092968
H  H52  1  0.18730000  0.80990000  0.30110000  1.0 0.1205069453
H  H53  1  0.15820000  0.16700000  0.33860000  1.0 0.1280092968
H  H54  1  0.01380000  0.67100000  0.32480000  1.0 0.1108245885
H  H55  1  0.19910000  0.78060000  0.43590000  1.0 0.1205069453
H  H56  1  0.95790000  0.90060000  0.20770000  1.0 0.1205069453
H  H57  1  0.77700000  0.04740000  0.37240000  1.0 0.1205069453
H  H58  1  0.60850000  0.02940000  0.34280000  1.0 0.1108245885
H  H59  1  0.62040000  0.87160000  0.13940000  1.0 0.1280092968
H  H60  1  0.78500000  0.84360000  0.15370000  1.0 0.1205069453
H  H61  1  0.75760000  0.18030000  0.23870000  1.0 0.1205069453
H  H62  1  0.79720000  0.86850000  0.36460000  1.0 0.1205069453
H  H63  1  0.58990000  0.16190000  0.20720000  1.0 0.1280092968
H  H64  1  0.19090000  0.20140000  0.46510000  1.0 0.1205069453
H  H65  1  0.95880000  0.29520000  0.37800000  1.0 0.1108245885
H  H66  1  0.01300000  0.37080000  0.45010000  1.0 0.1205069453
H  H67  1  0.24570000  0.27740000  0.53580000  1.0 0.1205069453
H  H68  1  0.25910000  0.70720000  0.51180000  1.0 0.1205069453
H  H69  1  0.07130000  0.59800000  0.40110000  1.0 0.1205069453
H  H70  1  0.63320000  0.89670000  0.34940000  1.0 0.1108245885
H  H71  1  0.88500000  0.22400000  0.43200000  1.0 0.269427905
H  H72  1  0.81000000  0.18400000  0.39700000  1.0 0.269427905
H  H73  1  0.91700000  0.73500000  0.37100000  1.0 0.269427905
H  H74  1  0.83400000  0.77300000  0.34600000  1.0 0.269427905
H  H75  1  0.29700000  0.02100000  0.10100000  1.0 0.3627782699
H  H76  1  0.93470000  0.43360000  0.75600000  1.0 0.1280092968
H  H77  1  0.18730000  0.69010000  0.80110000  1.0 0.1205069453
H  H78  1  0.15820000  0.33300000  0.83860000  1.0 0.1280092968
H  H79  1  0.01380000  0.82900000  0.82480000  1.0 0.1108245885
H  H80  1  0.19910000  0.71940000  0.93590000  1.0 0.1205069453
H  H81  1  0.95790000  0.59940000  0.70770000  1.0 0.1205069453
H  H82  1  0.77700000  0.45260000  0.87240000  1.0 0.1205069453
H  H83  1  0.60850000  0.47060000  0.84280000  1.0 0.1108245885
H  H84  1  0.62040000  0.62840000  0.63940000  1.0 0.1280092968
H  H85  1  0.78500000  0.65640000  0.65370000  1.0 0.1205069453
H  H86  1  0.75760000  0.31970000  0.73870000  1.0 0.1205069453
H  H87  1  0.79720000  0.63150000  0.86460000  1.0 0.1108245885
H  H88  1  0.58990000  0.33810000  0.70720000  1.0 0.1280092968
H  H89  1  0.19090000  0.29860000  0.96510000  1.0 0.1205069453
H  H90  1  0.95880000  0.20480000  0.87800000  1.0 0.1108245885
H  H91  1  0.01300000  0.12920000  0.95010000  1.0 0.1205069453
H  H92  1  0.24570000  0.22260000  0.03580000  1.0 0.1205069453
H  H93  1  0.25910000  0.79280000  0.01180000  1.0 0.1205069453
H  H94  1  0.07130000  0.90200000  0.90110000  1.0 0.1205069453
H  H95  1  0.63320000  0.60330000  0.84940000  1.0 0.1108245885
H  H96  1  0.88500000  0.27600000  0.93200000  1.0 0.269427905
H  H97  1  0.81000000  0.31600000  0.89700000  1.0 0.2649820384
H  H98  1  0.91700000  0.76500000  0.87100000  1.0 0.269427905
H  H99  1  0.83400000  0.72700000  0.84600000  1.0 0.269427905
H  H100  1  0.29700000  0.47900000  0.60100000  1.0 0.3627782699
H  H101  1  0.40120000  0.53620000  0.84670000  1.0 0.2938374814
H  H102  1  0.39490000  0.49560000  0.91210000  1.0 0.269427905
H  H103  1  0.25660000  0.48560000  0.83080000  1.0 0.1402786534
H  H104  1  0.23330000  0.55070000  0.83730000  1.0 0.1402786534
H  H105  1  0.22710000  0.51010000  0.90260000  1.0 0.1280092968
H  H106  1  0.44570000  0.58660000  0.95320000  1.0 0.1280092968
H  H107  1  0.34300000  0.57250000  0.97830000  1.0 0.1205069453
H  H108  1  0.34870000  0.61320000  0.91300000  1.0 0.1402786534
H  H109  1  0.59880000  0.03620000  0.65330000  1.0 0.2938374814
H  H110  1  0.60510000  0.99560000  0.58790000  1.0 0.269427905
H  H111  1  0.74340000  0.98560000  0.66920000  1.0 0.1402786534
H  H112  1  0.76670000  0.05070000  0.66270000  1.0 0.1402786534
H  H113  1  0.77290000  0.01010000  0.59740000  1.0 0.1280092968
H  H114  1  0.55430000  0.08660000  0.54680000  1.0 0.1280092968
H  H115  1  0.65700000  0.07250000  0.52170000  1.0 0.1205069453
H  H116  1  0.65130000  0.11320000  0.58700000  1.0 0.1402786534
H  H117  1  0.59880000  0.46380000  0.15330000  1.0 0.2938374814
H  H118  1  0.60510000  0.50440000  0.08790000  1.0 0.269427905
H  H119  1  0.74340000  0.51440000  0.16920000  1.0 0.1402786534
H  H120  1  0.76670000  0.44930000  0.16270000  1.0 0.1402786534
H  H121  1  0.77290000  0.48990000  0.09740000  1.0 0.1280092968
H  H122  1  0.55430000  0.41340000  0.04680000  1.0 0.1280092968
H  H123  1  0.65700000  0.42750000  0.02170000  1.0 0.1205069453
H  H124  1  0.65130000  0.38680000  0.08700000  1.0 0.1402786534
H  H125  1  0.40120000  0.96380000  0.34670000  1.0 0.2938374814
H  H126  1  0.39490000  0.00440000  0.41210000  1.0 0.269427905
H  H127  1  0.25660000  0.01440000  0.33080000  1.0 0.1402786534
H  H128  1  0.23330000  0.94930000  0.33730000  1.0 0.1402786534
H  H129  1  0.22710000  0.98990000  0.40260000  1.0 0.1280092968
H  H130  1  0.44570000  0.91340000  0.45320000  1.0 0.1280092968
H  H131  1  0.34300000  0.92750000  0.47830000  1.0 0.1205069453
H  H132  1  0.34870000  0.88680000  0.41300000  1.0 0.1402786534
C  C1  1  0.87540000  0.58360000  0.25550000  1.0 0.5695763663
C  C2  1  0.04210000  0.59690000  0.21510000  1.0 -0.1414504768
C  C3  1  0.90240000  0.23450000  0.12600000  1.0 0.0718603617
C  C4  1  0.21530000  0.61450000  0.19280000  1.0 0.0718603617
C  C5  1  0.88060000  0.31630000  0.20670000  1.0 -0.1489189479
C  C6  1  0.90850000  0.65740000  0.16570000  1.0 -0.1489189479
C  C7  1  0.85140000  0.39630000  0.29050000  1.0 0.5610491868
C  C8  1  0.94140000  0.61150000  0.20900000  1.0 -0.0480684347
C  C9  1  0.93830000  0.17870000  0.13680000  1.0 -0.1686043703
C  C10  1  0.82760000  0.24420000  0.07090000  1.0 -0.1686043703
C  C11  1  0.91650000  0.36040000  0.25150000  1.0 -0.0480684347
C  C12  1  0.94290000  0.28150000  0.17320000  1.0 -0.0410099886
C  C13  1  0.04750000  0.29230000  0.18460000  1.0 0.1789818976
C  C14  1  0.01800000  0.37100000  0.26230000  1.0 -0.1414504768
C  C15  1  0.10680000  0.62700000  0.17880000  1.0 -0.0410099886
C  C16  1  0.26030000  0.57030000  0.16110000  1.0 -0.1624609941
C  C17  1  0.36170000  0.55930000  0.17890000  1.0 -0.1015059216
C  C18  1  0.07360000  0.67300000  0.13390000  1.0 0.1789818976
C  C19  1  0.97110000  0.68920000  0.12880000  1.0 -0.0410099886
C  C20  1  0.19070000  0.35320000  0.23910000  1.0 0.0718603617
C  C21  1  0.34410000  0.37120000  0.31510000  1.0 -0.091791231
C  C22  1  0.08350000  0.33820000  0.22920000  1.0 -0.0410099886
C  C23  1  0.24490000  0.35420000  0.30660000  1.0 -0.1414504768
C  C24  1  0.27180000  0.64950000  0.24110000  1.0 -0.1489189479
C  C25  1  0.23770000  0.36910000  0.18100000  1.0 -0.1624609941
C  C26  1  0.37270000  0.63870000  0.25970000  1.0 -0.091791231
C  C27  1  0.41710000  0.59330000  0.22870000  1.0 -0.0278523315
C  C28  1  0.52500000  0.58120000  0.25050000  1.0 0.5610491868
C  C29  1  0.93370000  0.73860000  0.08510000  1.0 0.0758980506
C  C30  1  0.84570000  0.73500000  0.03760000  1.0 -0.1624609941
C  C31  1  0.98450000  0.79110000  0.08940000  1.0 -0.1686043703
C  C32  1  0.95170000  0.83670000  0.04630000  1.0 -0.1015059216
C  C33  1  0.86640000  0.83220000  0.99740000  1.0 -0.0553115074
C  C34  1  0.83510000  0.87970000  0.94700000  1.0 0.5610491868
C  C35  1  0.81290000  0.78070000  0.99500000  1.0 -0.11851265
C  C36  1  0.79160000  0.19990000  0.02490000  1.0 -0.1103980871
C  C37  1  0.90340000  0.13460000  0.09110000  1.0 -0.1015059216
C  C38  1  0.83080000  0.14490000  0.03370000  1.0 -0.0410099886
C  C39  1  0.80000000  0.09970000  0.97930000  1.0 0.5695763663
C  C40  1  0.38970000  0.38710000  0.25740000  1.0 -0.0240706655
C  C41  1  0.33650000  0.38600000  0.19020000  1.0 -0.1103980871
C  C42  1  0.49760000  0.40430000  0.26460000  1.0 0.5695763663
C  C43  1  0.87540000  0.91640000  0.75550000  1.0 0.5695763663
C  C44  1  0.04210000  0.90310000  0.71510000  1.0 -0.1414504768
C  C45  1  0.90240000  0.26550000  0.62600000  1.0 0.0718603617
C  C46  1  0.21530000  0.88550000  0.69280000  1.0 0.0718603617
C  C47  1  0.88060000  0.18370000  0.70670000  1.0 -0.1489189479
C  C48  1  0.90850000  0.84260000  0.66570000  1.0 -0.1489189479
C  C49  1  0.85140000  0.10370000  0.79050000  1.0 0.5610491868
C  C50  1  0.94140000  0.88850000  0.70900000  1.0 -0.0480684347
C  C51  1  0.93830000  0.32130000  0.63680000  1.0 -0.1686043703
C  C52  1  0.82760000  0.25580000  0.57090000  1.0 -0.1686043703
C  C53  1  0.91650000  0.13960000  0.75150000  1.0 -0.0480684347
C  C54  1  0.94290000  0.21850000  0.67320000  1.0 -0.0410099886
C  C55  1  0.04750000  0.20770000  0.68460000  1.0 0.1789818976
C  C56  1  0.01800000  0.12900000  0.76230000  1.0 -0.1414504768
C  C57  1  0.10680000  0.87300000  0.67880000  1.0 -0.0410099886
C  C58  1  0.26030000  0.92970000  0.66110000  1.0 -0.1624609941
C  C59  1  0.36170000  0.94070000  0.67890000  1.0 -0.1015059216
C  C60  1  0.07360000  0.82700000  0.63390000  1.0 0.1789818976
C  C61  1  0.97110000  0.81080000  0.62880000  1.0 -0.0410099886
C  C62  1  0.19070000  0.14680000  0.73910000  1.0 0.0718603617
C  C63  1  0.34410000  0.12880000  0.81510000  1.0 -0.091791231
C  C64  1  0.08350000  0.16180000  0.72920000  1.0 -0.0410099886
C  C65  1  0.24490000  0.14580000  0.80660000  1.0 -0.1414504768
C  C66  1  0.27180000  0.85050000  0.74110000  1.0 -0.1489189479
C  C67  1  0.23770000  0.13090000  0.68100000  1.0 -0.1624609941
C  C68  1  0.37270000  0.86130000  0.75970000  1.0 -0.091791231
C  C69  1  0.41710000  0.90670000  0.72870000  1.0 -0.0278523315
C  C70  1  0.52500000  0.91880000  0.75050000  1.0 0.5610491868
C  C71  1  0.93370000  0.76140000  0.58510000  1.0 0.0758980506
C  C72  1  0.84570000  0.76500000  0.53760000  1.0 -0.1624609941
C  C73  1  0.98450000  0.70890000  0.58940000  1.0 -0.1686043703
C  C74  1  0.95170000  0.66330000  0.54630000  1.0 -0.1015059216
C  C75  1  0.86640000  0.66780000  0.49740000  1.0 -0.0553115074
C  C76  1  0.83510000  0.62030000  0.44700000  1.0 0.5610491868
C  C77  1  0.81290000  0.71930000  0.49500000  1.0 -0.11851265
C  C78  1  0.79160000  0.30010000  0.52490000  1.0 -0.1103980871
C  C79  1  0.90340000  0.36540000  0.59110000  1.0 -0.1015059216
C  C80  1  0.83080000  0.35510000  0.53370000  1.0 -0.0410099886
C  C81  1  0.80000000  0.40030000  0.47930000  1.0 0.5695763663
C  C82  1  0.38970000  0.11290000  0.75740000  1.0 -0.0240706655
C  C83  1  0.33650000  0.11400000  0.69020000  1.0 -0.1103980871
C  C84  1  0.49760000  0.09570000  0.76460000  1.0 0.5695763663
C  C85  1  0.12460000  0.08360000  0.24450000  1.0 0.5695763663
C  C86  1  0.95790000  0.09690000  0.28490000  1.0 -0.1414504768
C  C87  1  0.09760000  0.73450000  0.37400000  1.0 0.0718603617
C  C88  1  0.78470000  0.11450000  0.30720000  1.0 0.0718603617
C  C89  1  0.11940000  0.81630000  0.29330000  1.0 -0.1489189479
C  C90  1  0.09150000  0.15740000  0.33430000  1.0 -0.1414504768
C  C91  1  0.14860000  0.89630000  0.20950000  1.0 0.5610491868
C  C92  1  0.05860000  0.11150000  0.29100000  1.0 -0.0480684347
C  C93  1  0.06170000  0.67870000  0.36320000  1.0 -0.1686043703
C  C94  1  0.17240000  0.74420000  0.42910000  1.0 -0.1686043703
C  C95  1  0.08350000  0.86040000  0.24850000  1.0 -0.0480684347
C  C96  1  0.05710000  0.78150000  0.32680000  1.0 -0.0410099886
C  C97  1  0.95250000  0.79230000  0.31540000  1.0 0.1789818976
C  C98  1  0.98200000  0.87100000  0.23770000  1.0 -0.1414504768
C  C99  1  0.89320000  0.12700000  0.32120000  1.0 -0.0410099886
C  C100  1  0.73970000  0.07030000  0.33890000  1.0 -0.1624609941
C  C101  1  0.63830000  0.05930000  0.32110000  1.0 -0.1015059216
C  C102  1  0.92640000  0.17300000  0.36610000  1.0 0.1789818976
C  C103  1  0.02890000  0.18920000  0.37120000  1.0 -0.0410099886
C  C104  1  0.80930000  0.85320000  0.26090000  1.0 0.0718603617
C  C105  1  0.65590000  0.87120000  0.18490000  1.0 -0.091791231
C  C106  1  0.91650000  0.83820000  0.27080000  1.0 -0.0410099886
C  C107  1  0.75510000  0.85420000  0.19340000  1.0 -0.1414504768
C  C108  1  0.72820000  0.14950000  0.25890000  1.0 -0.1489189479
C  C109  1  0.76230000  0.86910000  0.31900000  1.0 -0.1624609941
C  C110  1  0.62730000  0.13870000  0.24030000  1.0 -0.091791231
C  C111  1  0.58290000  0.09330000  0.27130000  1.0 -0.0278523315
C  C112  1  0.47500000  0.08120000  0.24950000  1.0 0.5610491868
C  C113  1  0.06630000  0.23860000  0.41490000  1.0 0.0758980506
C  C114  1  0.15430000  0.23500000  0.46240000  1.0 -0.1624609941
C  C115  1  0.01550000  0.29110000  0.41060000  1.0 -0.1686043703
C  C116  1  0.04830000  0.33670000  0.45370000  1.0 -0.1015059216
C  C117  1  0.13360000  0.33220000  0.50260000  1.0 -0.0553115074
C  C118  1  0.16490000  0.37970000  0.55300000  1.0 0.5610491868
C  C119  1  0.18710000  0.28070000  0.50500000  1.0 -0.11851265
C  C120  1  0.20840000  0.69990000  0.47510000  1.0 -0.1103980871
C  C121  1  0.09660000  0.63460000  0.40890000  1.0 -0.1015059216
C  C122  1  0.16920000  0.64490000  0.46630000  1.0 -0.0410099886
C  C123  1  0.20000000  0.59970000  0.52070000  1.0 0.5695763663
C  C124  1  0.61030000  0.88710000  0.24260000  1.0 -0.0240706655
C  C125  1  0.66350000  0.88600000  0.30980000  1.0 -0.1103980871
C  C126  1  0.50240000  0.90430000  0.23540000  1.0 0.5695763663
C  C127  1  0.12460000  0.41640000  0.74450000  1.0 0.5695763663
C  C128  1  0.95790000  0.40310000  0.78490000  1.0 -0.1414504768
C  C129  1  0.09760000  0.76550000  0.87400000  1.0 0.0718603617
C  C130  1  0.78470000  0.38550000  0.80720000  1.0 0.0718603617
C  C131  1  0.11940000  0.68370000  0.79330000  1.0 -0.1489189479
C  C132  1  0.09150000  0.34260000  0.83430000  1.0 -0.1489189479
C  C133  1  0.14860000  0.60370000  0.70950000  1.0 0.5610491868
C  C134  1  0.05860000  0.38850000  0.79100000  1.0 -0.0480684347
C  C135  1  0.06170000  0.82130000  0.86320000  1.0 -0.1686043703
C  C136  1  0.17240000  0.75580000  0.92910000  1.0 -0.1686043703
C  C137  1  0.08350000  0.63960000  0.74850000  1.0 -0.0480684347
C  C138  1  0.05710000  0.71850000  0.82680000  1.0 -0.0410099886
C  C139  1  0.95250000  0.70770000  0.81540000  1.0 0.1789818976
C  C140  1  0.98200000  0.62900000  0.73770000  1.0 -0.1414504768
C  C141  1  0.89320000  0.37300000  0.82120000  1.0 -0.0410099886
C  C142  1  0.73970000  0.42970000  0.83890000  1.0 -0.1624609941
C  C143  1  0.63830000  0.44070000  0.82110000  1.0 -0.1015059216
C  C144  1  0.92640000  0.32700000  0.86610000  1.0 0.1789818976
C  C145  1  0.02890000  0.31080000  0.87120000  1.0 -0.0410099886
C  C146  1  0.80930000  0.64680000  0.76090000  1.0 0.0718603617
C  C147  1  0.65590000  0.62880000  0.68490000  1.0 -0.091791231
C  C148  1  0.91650000  0.66180000  0.77080000  1.0 -0.0410099886
C  C149  1  0.75510000  0.64580000  0.69340000  1.0 -0.1414504768
C  C150  1  0.72820000  0.35050000  0.75890000  1.0 -0.1489189479
C  C151  1  0.76230000  0.63090000  0.81900000  1.0 -0.1624609941
C  C152  1  0.62730000  0.36130000  0.74030000  1.0 -0.091791231
C  C153  1  0.58290000  0.40670000  0.77130000  1.0 -0.0278523315
C  C154  1  0.47500000  0.41880000  0.74950000  1.0 0.5610491868
C  C155  1  0.06630000  0.26140000  0.91490000  1.0 0.0758980506
C  C156  1  0.15430000  0.26500000  0.96240000  1.0 -0.1624609941
C  C157  1  0.01550000  0.20890000  0.91060000  1.0 -0.1686043703
C  C158  1  0.04830000  0.16330000  0.95370000  1.0 -0.1015059216
C  C159  1  0.13360000  0.16780000  0.00260000  1.0 -0.0553115074
C  C160  1  0.16490000  0.12030000  0.05300000  1.0 0.5610491868
C  C161  1  0.18710000  0.21930000  0.00500000  1.0 -0.11851265
C  C162  1  0.20840000  0.80010000  0.97510000  1.0 -0.11851265
C  C163  1  0.09660000  0.86540000  0.90890000  1.0 -0.1015059216
C  C164  1  0.16920000  0.85510000  0.96630000  1.0 -0.0410099886
C  C165  1  0.20000000  0.90030000  0.02070000  1.0 0.5695763663
C  C166  1  0.61030000  0.61290000  0.74260000  1.0 -0.0240706655
C  C167  1  0.66350000  0.61400000  0.80980000  1.0 -0.1103980871
C  C168  1  0.50240000  0.59570000  0.73540000  1.0 0.5695763663
C  C169  1  0.26180000  0.51790000  0.86240000  1.0 -0.2940977577
C  C170  1  0.37680000  0.58000000  0.93760000  1.0 -0.2839803014
C  C171  1  0.73820000  0.01790000  0.63760000  1.0 -0.2940977577
C  C172  1  0.62320000  0.08000000  0.56240000  1.0 -0.2839803014
C  C173  1  0.73820000  0.48210000  0.13760000  1.0 -0.2940977577
C  C174  1  0.62320000  0.42000000  0.06240000  1.0 -0.2839803014
C  C175  1  0.26180000  0.98210000  0.36240000  1.0 -0.2940977577
C  C176  1  0.37680000  0.92000000  0.43760000  1.0 -0.2839803014
N  N1  1  0.13800000  0.70130000  0.09760000  1.0 -0.5204752996
N  N2  1  0.11110000  0.25960000  0.15250000  1.0 -0.5050820474
N  N3  1  0.13800000  0.79870000  0.59760000  1.0 -0.5204752996
N  N4  1  0.11110000  0.24040000  0.65250000  1.0 -0.5050820474
N  N5  1  0.86200000  0.20130000  0.40240000  1.0 -0.5204752996
N  N6  1  0.88890000  0.75960000  0.34750000  1.0 -0.5050820474
N  N7  1  0.86200000  0.29870000  0.90240000  1.0 -0.5204752996
N  N8  1  0.88890000  0.74040000  0.84750000  1.0 -0.504841632
N  N9  1  0.36590000  0.52890000  0.88730000  1.0 -0.11851265
N  N10  1  0.63410000  0.02890000  0.61270000  1.0 -0.11851265
N  N11  1  0.63410000  0.47110000  0.11270000  1.0 -0.11851265
N  N12  1  0.36590000  0.97110000  0.38730000  1.0 -0.11851265
O  O1  1  0.75810000  0.39091000  0.27480000  1.0 -0.5509009424
O  O2  1  0.72200000  0.50613000  0.36536000  1.0 -0.8287468169
O  O3  1  0.89210000  0.42821000  0.33770000  1.0 -0.5389806654
O  O4  1  0.02750000  0.49177000  0.42480000  1.0 0.1108245885
O  O5  1  0.91150000  0.54993000  0.30340000  1.0 -0.5612284493
O  O6  1  0.78380000  0.59695000  0.24380000  1.0 -0.5509009424
O  O7  1  0.56770000  0.61120000  0.30250000  1.0 -0.5389806654
O  O8  1  0.56770000  0.54420000  0.22070000  1.0 -0.5612284493
O  O9  1  0.87890000  0.92705000  0.95686000  1.0 -0.5204752996
O  O10  1  0.76840000  0.86763000  0.89620000  1.0 -0.5612284493
O  O11  1  0.85010000  0.05414000  0.98130000  1.0 -0.5204752996
O  O12  1  0.72600000  0.11116000  0.93440000  1.0 -0.5612284493
O  O13  1  0.53950000  0.41080000  0.32820000  1.0 -0.5389806654
O  O14  1  0.53820000  0.41020000  0.21100000  1.0 -0.5389806654
O  O15  1  0.75810000  0.10909000  0.77480000  1.0 -0.5509009424
O  O16  1  0.72200000  0.99387000  0.86536000  1.0 -0.8287468169
O  O17  1  0.89210000  0.07179000  0.83770000  1.0 -0.5389806654
O  O18  1  0.02750000  0.00823000  0.92480000  1.0 0.1108245885
O  O19  1  0.91150000  0.95007000  0.80340000  1.0 -0.5612284493
O  O20  1  0.78380000  0.90305000  0.74380000  1.0 -0.5509009424
O  O21  1  0.56770000  0.88880000  0.80250000  1.0 -0.5389806654
O  O22  1  0.56770000  0.95580000  0.72070000  1.0 -0.5612284493
O  O23  1  0.87890000  0.57295000  0.45686000  1.0 -0.5204752996
O  O24  1  0.76840000  0.63237000  0.39620000  1.0 -0.5612284493
O  O25  1  0.85010000  0.44586000  0.48130000  1.0 -0.5204752996
O  O26  1  0.72600000  0.38884000  0.43440000  1.0 -0.5612284493
O  O27  1  0.53950000  0.08920000  0.82820000  1.0 -0.5389806654
O  O28  1  0.53820000  0.08980000  0.71100000  1.0 -0.5389806654
O  O29  1  0.24190000  0.89091000  0.22520000  1.0 -0.5509009424
O  O30  1  0.27800000  0.00613000  0.13464000  1.0 -0.8287468169
O  O31  1  0.10790000  0.92821000  0.16230000  1.0 -0.5389806654
O  O32  1  0.97250000  0.99177000  0.07520000  1.0 0.1205069453
O  O33  1  0.08850000  0.04993000  0.19660000  1.0 -0.5612284493
O  O34  1  0.21620000  0.09695000  0.25620000  1.0 -0.5509009424
O  O35  1  0.43230000  0.11120000  0.19750000  1.0 -0.5389806654
O  O36  1  0.43230000  0.04420000  0.27930000  1.0 -0.5612284493
O  O37  1  0.12110000  0.42705000  0.54314000  1.0 -0.5204752996
O  O38  1  0.23160000  0.36763000  0.60380000  1.0 -0.5612284493
O  O39  1  0.14990000  0.55414000  0.51870000  1.0 -0.5204752996
O  O40  1  0.27400000  0.61116000  0.56560000  1.0 -0.5612284493
O  O41  1  0.46050000  0.91080000  0.17180000  1.0 -0.5389806654
O  O42  1  0.46180000  0.91020000  0.28900000  1.0 -0.5389806654
O  O43  1  0.24190000  0.60909000  0.72520000  1.0 -0.5509009424
O  O44  1  0.27800000  0.49387000  0.63464000  1.0 -0.8287468169
O  O45  1  0.10790000  0.57179000  0.66230000  1.0 -0.5389806654
O  O46  1  0.97250000  0.50823000  0.57520000  1.0 0.1205069453
O  O47  1  0.08850000  0.45007000  0.69660000  1.0 -0.5612284493
O  O48  1  0.21620000  0.40305000  0.75620000  1.0 -0.5509009424
O  O49  1  0.43230000  0.38880000  0.69750000  1.0 -0.5389806654
O  O50  1  0.43230000  0.45580000  0.77930000  1.0 -0.5612284493
O  O51  1  0.12110000  0.07295000  0.04314000  1.0 -0.5204752996
O  O52  1  0.23160000  0.13237000  0.10380000  1.0 -0.5612284493
O  O53  1  0.14990000  0.94586000  0.01870000  1.0 -0.5204752996
O  O54  1  0.27400000  0.88884000  0.06560000  1.0 -0.5612284493
O  O55  1  0.46050000  0.58920000  0.67180000  1.0 -0.5389806654
O  O56  1  0.46180000  0.58980000  0.78900000  1.0 -0.5389806654
