# DDEC6 charges by PACMAN v1.1 (https://github.com/mtap-research/PACMAN-charge/)
data_SEHMIC_FSR_pacman
_symmetry_space_group_name_H-M   'P 1'
_cell_length_a   12.37680000
_cell_length_b   13.14380000
_cell_length_c   14.30780000
_cell_angle_alpha   98.46800000
_cell_angle_beta   102.14000000
_cell_angle_gamma   89.42600000
_symmetry_Int_Tables_number   1
_chemical_formula_structural   Yb2H22Ru2C24(N6O5)3
_chemical_formula_sum   'Yb4 H44 Ru4 C48 N36 O30'
_cell_volume   2250.17936770
_cell_formula_units_Z   2
loop_
 _symmetry_equiv_pos_site_id
 _symmetry_equiv_pos_as_xyz
  1  'x, y, z'
loop_
 _atom_site_type_symbol
 _atom_site_label
 _atom_site_symmetry_multiplicity
 _atom_site_fract_x
 _atom_site_fract_y
 _atom_site_fract_z
 _atom_site_occupancy
 _atom_site_charge
Yb  Yb1  1  0.32198000  0.13654000  0.66556000  1.0 1.8897018884
Yb  Yb2  1  0.67802000  0.86346000  0.33444000  1.0 1.8897018884
Yb  Yb3  1  0.60198000  0.59044000  0.77536000  1.0 1.9987138961
Yb  Yb4  1  0.39802000  0.40956000  0.22464000  1.0 1.9987138961
H  H1  1  0.17880000  0.12640000  0.50410000  1.0 0.2620430146
H  H2  1  0.82120000  0.87360000  0.49590000  1.0 0.2620430146
H  H3  1  0.23330000  0.16510000  0.44450000  1.0 0.3574707279
H  H4  1  0.76670000  0.83490000  0.55550000  1.0 0.3574707279
H  H5  1  0.24720000  0.61450000  0.62800000  1.0 0.1228696337
H  H6  1  0.75280000  0.38550000  0.37200000  1.0 0.1228696337
H  H7  1  0.50950000  0.09510000  0.78670000  1.0 0.3425627654
H  H8  1  0.49050000  0.90490000  0.21330000  1.0 0.3425627654
H  H9  1  0.51040000  0.99640000  0.74760000  1.0 0.3886415218
H  H10  1  0.48960000  0.00360000  0.25240000  1.0 0.3886415218
H  H11  1  0.07190000  0.57200000  0.64840000  1.0 0.1597208896
H  H12  1  0.92810000  0.42800000  0.35160000  1.0 0.1597208896
H  H13  1  0.45090000  0.30880000  0.74600000  1.0 0.3574707279
H  H14  1  0.54910000  0.69120000  0.25400000  1.0 0.3574707279
H  H15  1  0.40730000  0.29460000  0.82160000  1.0 0.3425627654
H  H16  1  0.59270000  0.70540000  0.17840000  1.0 0.3425627654
H  H17  1  0.91720000  0.62740000  0.54720000  1.0 0.1089056828
H  H18  1  0.08280000  0.37260000  0.45280000  1.0 0.1089056828
H  H19  1  0.73120000  0.75660000  0.85070000  1.0 0.3260779237
H  H20  1  0.26880000  0.24340000  0.14930000  1.0 0.3218131517
H  H21  1  0.69850000  0.75170000  0.93340000  1.0 0.3524183189
H  H22  1  0.30150000  0.24830000  0.06660000  1.0 0.3524183189
H  H23  1  0.31000000  0.82980000  0.28230000  1.0 0.1340280716
H  H24  1  0.69000000  0.17020000  0.71770000  1.0 0.1340280716
H  H25  1  0.41510000  0.47510000  0.65990000  1.0 0.3574707279
H  H26  1  0.58490000  0.52490000  0.34010000  1.0 0.3574707279
H  H27  1  0.38070000  0.47800000  0.74330000  1.0 0.3574707279
H  H28  1  0.61930000  0.52200000  0.25670000  1.0 0.3524183189
H  H29  1  0.15810000  0.88270000  0.17360000  1.0 0.1597208896
H  H30  1  0.84190000  0.11730000  0.82640000  1.0 0.1597208896
H  H31  1  0.98520000  0.85610000  0.19420000  1.0 0.1023235531
H  H32  1  0.01480000  0.14390000  0.80580000  1.0 0.1023235531
H  H33  1  0.86740000  0.42410000  0.90060000  1.0 0.1402396892
H  H34  1  0.13260000  0.57590000  0.09940000  1.0 0.1340280716
H  H35  1  0.04890000  0.41490000  0.87430000  1.0 0.1597208896
H  H36  1  0.95110000  0.58510000  0.12570000  1.0 0.1597208896
H  H37  1  0.17350000  0.31020000  0.97020000  1.0 0.1023235531
H  H38  1  0.82650000  0.68980000  0.02980000  1.0 0.1023235531
H  H39  1  0.72150000  0.20220000  0.20990000  1.0 0.1340280716
H  H40  1  0.27850000  0.79780000  0.79010000  1.0 0.1340280716
H  H41  1  0.84310000  0.10350000  0.30400000  1.0 0.1402396892
H  H42  1  0.15690000  0.89650000  0.69600000  1.0 0.1402396892
H  H43  1  0.01560000  0.08570000  0.28400000  1.0 0.0913511012
H  H44  1  0.98440000  0.91430000  0.71600000  1.0 0.0913511012
Ru  Ru1  1  0.34105000  0.74043000  0.48300000  1.0 0.1597208896
Ru  Ru2  1  0.65895000  0.25957000  0.51700000  1.0 0.1746322815
Ru  Ru3  1  0.73597000  0.33754000  0.04309000  1.0 0.2620430146
Ru  Ru4  1  0.26403000  0.66246000  0.95691000  1.0 0.2350370889
C  C1  1  0.18310000  0.63500000  0.58620000  1.0 0.0798567091
C  C2  1  0.81690000  0.36500000  0.41380000  1.0 0.0798567091
C  C3  1  0.08010000  0.61000000  0.59870000  1.0 -0.1599649931
C  C4  1  0.91990000  0.39000000  0.40130000  1.0 -0.1599649931
C  C5  1  0.98860000  0.64170000  0.53720000  1.0 0.1228696337
C  C6  1  0.01140000  0.35830000  0.46280000  1.0 0.1228696337
C  C7  1  0.09850000  0.71240000  0.45540000  1.0 0.2620430146
C  C8  1  0.90150000  0.28760000  0.54460000  1.0 0.2620430146
C  C9  1  0.23700000  0.82040000  0.29120000  1.0 0.0913511012
C  C10  1  0.76300000  0.17960000  0.70880000  1.0 0.0913511012
C  C11  1  0.14720000  0.85090000  0.22650000  1.0 -0.1653161789
C  C12  1  0.85280000  0.14910000  0.77350000  1.0 -0.1599649931
C  C13  1  0.04640000  0.83540000  0.23910000  1.0 0.0913511012
C  C14  1  0.95360000  0.16460000  0.76090000  1.0 0.0913511012
C  C15  1  0.11470000  0.76240000  0.37310000  1.0 0.2701151376
C  C16  1  0.88530000  0.23760000  0.62690000  1.0 0.2701151376
C  C17  1  0.92050000  0.38480000  0.93730000  1.0 0.1089056828
C  C18  1  0.07950000  0.61520000  0.06270000  1.0 0.1089056828
C  C19  1  0.02630000  0.38000000  0.92090000  1.0 -0.1885547633
C  C20  1  0.97370000  0.62000000  0.07910000  1.0 -0.1885547633
C  C21  1  0.10010000  0.31790000  0.98000000  1.0 0.1402396892
C  C22  1  0.89990000  0.68210000  0.02000000  1.0 0.1402396892
C  C23  1  0.96920000  0.28150000  0.05530000  1.0 0.2701151376
C  C24  1  0.03080000  0.71850000  0.94470000  1.0 0.2701151376
C  C25  1  0.79570000  0.19550000  0.20200000  1.0 0.0913511012
C  C26  1  0.20430000  0.80450000  0.79800000  1.0 0.0913511012
C  C27  1  0.86710000  0.13670000  0.25710000  1.0 -0.1599649931
C  C28  1  0.13290000  0.86330000  0.74290000  1.0 -0.1599649931
C  C29  1  0.96720000  0.12670000  0.24500000  1.0 0.0798567091
C  C30  1  0.03280000  0.87330000  0.75500000  1.0 0.0798567091
C  C31  1  0.93310000  0.22970000  0.12840000  1.0 0.2859884952
C  C32  1  0.06690000  0.77030000  0.87160000  1.0 0.2859884952
C  C33  1  0.32470000  0.88320000  0.55370000  1.0 0.060411011
C  C34  1  0.67530000  0.11680000  0.44630000  1.0 0.060411011
C  C35  1  0.44350000  0.70610000  0.59810000  1.0 0.0531859626
C  C36  1  0.55650000  0.29390000  0.40190000  1.0 0.0531859626
C  C37  1  0.52960000  0.21060000  0.55980000  1.0 0.0913511012
C  C38  1  0.47040000  0.78940000  0.44020000  1.0 0.0913511012
C  C39  1  0.36220000  0.60190000  0.40720000  1.0 0.060411011
C  C40  1  0.63780000  0.39810000  0.59280000  1.0 0.060411011
C  C41  1  0.68210000  0.20960000  0.94680000  1.0 -0.0486820186
C  C42  1  0.31790000  0.79040000  0.05320000  1.0 -0.0486820186
C  C43  1  0.66630000  0.42480000  0.94680000  1.0 0.0671668468
C  C44  1  0.33370000  0.57520000  0.05320000  1.0 0.0671668468
C  C45  1  0.39790000  0.66220000  0.90580000  1.0 0.0913511012
C  C46  1  0.60210000  0.33780000  0.09420000  1.0 0.0798567091
C  C47  1  0.77470000  0.46350000  0.14590000  1.0 -0.0334353417
C  C48  1  0.22530000  0.53650000  0.85410000  1.0 -0.0334353417
N  N1  1  0.19380000  0.68870000  0.51430000  1.0 -0.208659564
N  N2  1  0.80620000  0.31130000  0.48570000  1.0 -0.208659564
N  N3  1  0.99690000  0.69120000  0.46470000  1.0 -0.2886676486
N  N4  1  0.00310000  0.30880000  0.53530000  1.0 -0.2886676486
N  N5  1  0.21990000  0.77730000  0.36680000  1.0 -0.208659564
N  N6  1  0.78010000  0.22270000  0.63320000  1.0 -0.208659564
N  N7  1  0.02750000  0.79120000  0.31340000  1.0 -0.2765924777
N  N8  1  0.97250000  0.20880000  0.68660000  1.0 -0.2765924777
N  N9  1  0.89060000  0.33540000  0.00370000  1.0 -0.208659564
N  N10  1  0.10940000  0.66460000  0.99630000  1.0 -0.208659564
N  N11  1  0.07260000  0.27250000  0.04480000  1.0 -0.2444210942
N  N12  1  0.92740000  0.72750000  0.95520000  1.0 -0.2444210942
N  N13  1  0.83050000  0.24410000  0.13650000  1.0 -0.2031459953
N  N14  1  0.16950000  0.75590000  0.86350000  1.0 -0.2031459953
N  N15  1  0.00670000  0.17180000  0.17920000  1.0 -0.2650612737
N  N16  1  0.99330000  0.82820000  0.82080000  1.0 -0.2650612737
N  N17  1  0.31730000  0.96720000  0.59110000  1.0 -0.5309347059
N  N18  1  0.68270000  0.03280000  0.40890000  1.0 -0.5309347059
N  N19  1  0.50430000  0.68900000  0.66620000  1.0 -0.5382909621
N  N20  1  0.49570000  0.31100000  0.33380000  1.0 -0.5382909621
N  N21  1  0.45570000  0.18500000  0.58790000  1.0 -0.5309347059
N  N22  1  0.54430000  0.81500000  0.41210000  1.0 -0.5309347059
N  N23  1  0.37910000  0.52680000  0.36080000  1.0 -0.5021312878
N  N24  1  0.62090000  0.47320000  0.63920000  1.0 -0.5021312878
N  N25  1  0.64840000  0.13590000  0.89380000  1.0 -0.3698167349
N  N26  1  0.35160000  0.86410000  0.10620000  1.0 -0.3698167349
N  N27  1  0.63160000  0.47520000  0.88900000  1.0 -0.5021312878
N  N28  1  0.36840000  0.52480000  0.11100000  1.0 -0.5021312878
N  N29  1  0.47590000  0.65320000  0.87250000  1.0 -0.5120818163
N  N30  1  0.52410000  0.34680000  0.12750000  1.0 -0.5120818163
N  N31  1  0.78200000  0.53530000  0.20660000  1.0 -0.3830138887
N  N32  1  0.21800000  0.46470000  0.79340000  1.0 -0.3830138887
N  N33  1  0.82020000  0.60190000  0.74340000  1.0 0.7131983494
N  N34  1  0.17980000  0.39810000  0.25660000  1.0 0.7131983494
N  N35  1  0.04720000  0.03710000  0.55940000  1.0 0.3260779237
N  N36  1  0.95280000  0.96290000  0.44060000  1.0 0.3218131517
O  O1  1  0.24250000  0.15050000  0.50250000  1.0 -0.7578007823
O  O2  1  0.75750000  0.84950000  0.49750000  1.0 -0.7578007823
O  O3  1  0.48010000  0.05270000  0.73780000  1.0 -0.7578007823
O  O4  1  0.51990000  0.94730000  0.26220000  1.0 -0.7578007823
O  O5  1  0.43010000  0.26400000  0.77450000  1.0 -0.7503900821
O  O6  1  0.56990000  0.73600000  0.22550000  1.0 -0.7503900821
O  O7  1  0.29610000  0.09440000  0.81440000  1.0 -0.1183440383
O  O8  1  0.70390000  0.90560000  0.18560000  1.0 -0.1131163905
O  O9  1  0.20610000  0.26310000  0.70080000  1.0 -0.0419029291
O  O10  1  0.79390000  0.73690000  0.29920000  1.0 -0.0334353417
O  O11  1  0.67520000  0.74090000  0.87200000  1.0 -0.7503900821
O  O12  1  0.32480000  0.25910000  0.12800000  1.0 -0.7503900821
O  O13  1  0.43860000  0.48560000  0.72110000  1.0 -0.7578007823
O  O14  1  0.56140000  0.51440000  0.27890000  1.0 -0.7578007823
O  O15  1  0.79120000  0.55170000  0.80630000  1.0 -0.5703812981
O  O16  1  0.20880000  0.44830000  0.19370000  1.0 -0.5703812981
O  O17  1  0.74770000  0.65890000  0.70280000  1.0 -0.5021312878
O  O18  1  0.25230000  0.34110000  0.29720000  1.0 -0.5021312878
O  O19  1  0.91260000  0.59620000  0.72880000  1.0 -0.3698167349
O  O20  1  0.08740000  0.40380000  0.27120000  1.0 -0.3698167349
O  O21  1  0.13270000  0.07190000  0.63540000  1.0 -0.6110196258
O  O22  1  0.86730000  0.92810000  0.36460000  1.0 -0.6110196258
O  O23  1  0.96730000  0.98350000  0.56950000  1.0 -0.0486820186
O  O24  1  0.03270000  0.01650000  0.43050000  1.0 -0.0486820186
O  O25  1  0.03200000  0.06720000  0.48070000  1.0 0.060411011
O  O26  1  0.96800000  0.93280000  0.51930000  1.0 0.060411011
O  O27  1  0.26020000  0.15200000  0.81310000  1.0 -0.2295558224
O  O28  1  0.73980000  0.84800000  0.18690000  1.0 -0.2295558224
O  O29  1  0.21530000  0.28480000  0.66310000  1.0 0.0798567091
O  O30  1  0.78470000  0.71520000  0.33690000  1.0 0.0798567091
