# DDEC6 charges by PACMAN v1.1 (https://github.com/mtap-research/PACMAN-charge/)
data_SEHMUO_ASR_pacman
_symmetry_space_group_name_H-M   'P 1'
_cell_length_a   25.12670000
_cell_length_b   22.15140000
_cell_length_c   13.60620000
_cell_angle_alpha   90.00000000
_cell_angle_beta   90.00000000
_cell_angle_gamma   90.00000000
_symmetry_Int_Tables_number   1
_chemical_formula_structural   Gd3H12Ru4(C4N3)8
_chemical_formula_sum   'Gd12 H48 Ru16 C128 N96'
_cell_volume   7573.09638818
_cell_formula_units_Z   4
loop_
 _symmetry_equiv_pos_site_id
 _symmetry_equiv_pos_as_xyz
  1  'x, y, z'
loop_
 _atom_site_type_symbol
 _atom_site_label
 _atom_site_symmetry_multiplicity
 _atom_site_fract_x
 _atom_site_fract_y
 _atom_site_fract_z
 _atom_site_occupancy
 _atom_site_charge
Gd  Gd1  1  0.97313000  0.68216000  0.98888000  1.0 1.9101503988
Gd  Gd2  1  0.02687000  0.31784000  0.98888000  1.0 1.9101503988
Gd  Gd3  1  0.47313000  0.81784000  0.98888000  1.0 1.9101503988
Gd  Gd4  1  0.52687000  0.18216000  0.98888000  1.0 1.9101503988
Gd  Gd5  1  0.97313000  0.18216000  0.48888000  1.0 1.9101503988
Gd  Gd6  1  0.02687000  0.81784000  0.48888000  1.0 1.9101503988
Gd  Gd7  1  0.47313000  0.31784000  0.48888000  1.0 1.9101503988
Gd  Gd8  1  0.52687000  0.68216000  0.48888000  1.0 1.9101503988
Gd  Gd9  1  0.00000000  0.50000000  0.46528000  1.0 1.6600955029
Gd  Gd10  1  0.50000000  0.00000000  0.46528000  1.0 1.6527925631
Gd  Gd11  1  0.00000000  0.00000000  0.96528000  1.0 1.6527925631
Gd  Gd12  1  0.50000000  0.50000000  0.96528000  1.0 1.6600955029
H  H1  1  0.16649000  0.59062000  0.47326000  1.0 0.106405288
H  H2  1  0.83351000  0.40938000  0.47326000  1.0 0.106405288
H  H3  1  0.66649000  0.90938000  0.47326000  1.0 0.106405288
H  H4  1  0.33351000  0.09062000  0.47326000  1.0 0.106405288
H  H5  1  0.16649000  0.09062000  0.97326000  1.0 0.106405288
H  H6  1  0.83351000  0.90938000  0.97326000  1.0 0.106405288
H  H7  1  0.66649000  0.40938000  0.97326000  1.0 0.106405288
H  H8  1  0.33351000  0.59062000  0.97326000  1.0 0.106405288
H  H9  1  0.25789000  0.57331000  0.54678000  1.0 0.1479556717
H  H10  1  0.74211000  0.42669000  0.54678000  1.0 0.1443969624
H  H11  1  0.75789000  0.92669000  0.54678000  1.0 0.1443969624
H  H12  1  0.24211000  0.07331000  0.54678000  1.0 0.1479556717
H  H13  1  0.25789000  0.07331000  0.04678000  1.0 0.1443969624
H  H14  1  0.74211000  0.92669000  0.04678000  1.0 0.1443969624
H  H15  1  0.75789000  0.42669000  0.04678000  1.0 0.1443969624
H  H16  1  0.24211000  0.57331000  0.04678000  1.0 0.1479556717
H  H17  1  0.33775000  0.61785000  0.46181000  1.0 0.1023740206
H  H18  1  0.66225000  0.38215000  0.46181000  1.0 0.1023740206
H  H19  1  0.83775000  0.88215000  0.46181000  1.0 0.1023740206
H  H20  1  0.16225000  0.11785000  0.46181000  1.0 0.1023740206
H  H21  1  0.33775000  0.11785000  0.96181000  1.0 0.1023740206
H  H22  1  0.66225000  0.88215000  0.96181000  1.0 0.1023740206
H  H23  1  0.83775000  0.38215000  0.96181000  1.0 0.1023740206
H  H24  1  0.16225000  0.61785000  0.96181000  1.0 0.1023740206
H  H25  1  0.14165000  0.73723000  0.06586000  1.0 0.1023740206
H  H26  1  0.85835000  0.26277000  0.06586000  1.0 0.1023740206
H  H27  1  0.64165000  0.76277000  0.06586000  1.0 0.1023740206
H  H28  1  0.35835000  0.23723000  0.06586000  1.0 0.1023740206
H  H29  1  0.14165000  0.23723000  0.56586000  1.0 0.1023740206
H  H30  1  0.85835000  0.76277000  0.56586000  1.0 0.1023740206
H  H31  1  0.64165000  0.26277000  0.56586000  1.0 0.1023740206
H  H32  1  0.35835000  0.73723000  0.56586000  1.0 0.1023740206
H  H33  1  0.22029000  0.78504000  0.98492000  1.0 0.131160132
H  H34  1  0.77971000  0.21496000  0.98492000  1.0 0.131160132
H  H35  1  0.72029000  0.71496000  0.98492000  1.0 0.131160132
H  H36  1  0.27971000  0.28504000  0.98492000  1.0 0.131160132
H  H37  1  0.22029000  0.28504000  0.48492000  1.0 0.131160132
H  H38  1  0.77971000  0.71496000  0.48492000  1.0 0.131160132
H  H39  1  0.72029000  0.21496000  0.48492000  1.0 0.131160132
H  H40  1  0.27971000  0.78504000  0.48492000  1.0 0.131160132
H  H41  1  0.31272000  0.76809000  0.06186000  1.0 0.1023740206
H  H42  1  0.68728000  0.23191000  0.06186000  1.0 0.1023740206
H  H43  1  0.81272000  0.73191000  0.06186000  1.0 0.106405288
H  H44  1  0.18728000  0.26809000  0.06186000  1.0 0.106405288
H  H45  1  0.31272000  0.26809000  0.56186000  1.0 0.106405288
H  H46  1  0.68728000  0.73191000  0.56186000  1.0 0.106405288
H  H47  1  0.81272000  0.23191000  0.56186000  1.0 0.1023740206
H  H48  1  0.18728000  0.76809000  0.56186000  1.0 0.1023740206
Ru  Ru1  1  0.35436000  0.69849000  0.25703000  1.0 0.2423732666
Ru  Ru2  1  0.64564000  0.30151000  0.25703000  1.0 0.2493156024
Ru  Ru3  1  0.85436000  0.80151000  0.25703000  1.0 0.2599231331
Ru  Ru4  1  0.14564000  0.19849000  0.25703000  1.0 0.266551127
Ru  Ru5  1  0.35436000  0.19849000  0.75703000  1.0 0.2599231331
Ru  Ru6  1  0.64564000  0.80151000  0.75703000  1.0 0.2599231331
Ru  Ru7  1  0.85436000  0.30151000  0.75703000  1.0 0.2423732666
Ru  Ru8  1  0.14564000  0.69849000  0.75703000  1.0 0.2423732666
Ru  Ru9  1  0.12582000  0.65106000  0.26680000  1.0 0.2423732666
Ru  Ru10  1  0.87418000  0.34894000  0.26680000  1.0 0.2077134749
Ru  Ru11  1  0.62582000  0.84894000  0.26680000  1.0 0.2303815608
Ru  Ru12  1  0.37418000  0.15106000  0.26680000  1.0 0.2303815608
Ru  Ru13  1  0.12582000  0.15106000  0.76680000  1.0 0.2303815608
Ru  Ru14  1  0.87418000  0.84894000  0.76680000  1.0 0.2249137213
Ru  Ru15  1  0.62582000  0.34894000  0.76680000  1.0 0.2077134749
Ru  Ru16  1  0.37418000  0.65106000  0.76680000  1.0 0.2303815608
C  C1  1  0.24243000  0.66207000  0.31109000  1.0 0.2493156024
C  C2  1  0.75757000  0.33793000  0.31109000  1.0 0.2493156024
C  C3  1  0.74243000  0.83793000  0.31109000  1.0 0.2493156024
C  C4  1  0.25757000  0.16207000  0.31109000  1.0 0.2493156024
C  C5  1  0.24243000  0.16207000  0.81109000  1.0 0.2493156024
C  C6  1  0.75757000  0.83793000  0.81109000  1.0 0.2493156024
C  C7  1  0.74243000  0.33793000  0.81109000  1.0 0.2493156024
C  C8  1  0.25757000  0.66207000  0.81109000  1.0 0.2493156024
C  C9  1  0.20264000  0.60797000  0.43785000  1.0 0.131160132
C  C10  1  0.79736000  0.39203000  0.43785000  1.0 0.131160132
C  C11  1  0.70264000  0.89203000  0.43785000  1.0 0.131160132
C  C12  1  0.29736000  0.10797000  0.43785000  1.0 0.131160132
C  C13  1  0.20264000  0.10797000  0.93785000  1.0 0.131160132
C  C14  1  0.79736000  0.89203000  0.93785000  1.0 0.131160132
C  C15  1  0.70264000  0.39203000  0.93785000  1.0 0.131160132
C  C16  1  0.29736000  0.60797000  0.93785000  1.0 0.131160132
C  C17  1  0.25300000  0.59911000  0.47878000  1.0 -0.1485474907
C  C18  1  0.74700000  0.40089000  0.47878000  1.0 -0.1485474907
C  C19  1  0.75300000  0.90089000  0.47878000  1.0 -0.1485474907
C  C20  1  0.24700000  0.09911000  0.47878000  1.0 -0.1485474907
C  C21  1  0.25300000  0.09911000  0.97878000  1.0 -0.1485474907
C  C22  1  0.74700000  0.90089000  0.97878000  1.0 -0.1485474907
C  C23  1  0.75300000  0.40089000  0.97878000  1.0 -0.1485474907
C  C24  1  0.24700000  0.59911000  0.97878000  1.0 -0.1485474907
C  C25  1  0.29756000  0.62368000  0.43205000  1.0 0.1189795577
C  C26  1  0.70244000  0.37632000  0.43205000  1.0 0.1189795577
C  C27  1  0.79756000  0.87632000  0.43205000  1.0 0.1189795577
C  C28  1  0.20244000  0.12368000  0.43205000  1.0 0.1189795577
C  C29  1  0.29756000  0.12368000  0.93205000  1.0 0.1189795577
C  C30  1  0.70244000  0.87632000  0.93205000  1.0 0.1189795577
C  C31  1  0.79756000  0.37632000  0.93205000  1.0 0.1189795577
C  C32  1  0.20244000  0.62368000  0.93205000  1.0 0.1189795577
C  C33  1  0.23655000  0.69520000  0.21998000  1.0 0.2493156024
C  C34  1  0.76345000  0.30480000  0.21998000  1.0 0.2493156024
C  C35  1  0.73655000  0.80480000  0.21998000  1.0 0.2493156024
C  C36  1  0.26345000  0.19520000  0.21998000  1.0 0.2493156024
C  C37  1  0.23655000  0.19520000  0.71998000  1.0 0.2493156024
C  C38  1  0.76345000  0.80480000  0.71998000  1.0 0.2493156024
C  C39  1  0.73655000  0.30480000  0.71998000  1.0 0.2493156024
C  C40  1  0.26345000  0.69520000  0.71998000  1.0 0.2493156024
C  C41  1  0.18146000  0.73285000  0.09786000  1.0 0.1189795577
C  C42  1  0.81854000  0.26715000  0.09786000  1.0 0.1189795577
C  C43  1  0.68146000  0.76715000  0.09786000  1.0 0.1189795577
C  C44  1  0.31854000  0.23285000  0.09786000  1.0 0.1189795577
C  C45  1  0.18146000  0.23285000  0.59786000  1.0 0.1189795577
C  C46  1  0.81854000  0.76715000  0.59786000  1.0 0.1189795577
C  C47  1  0.68146000  0.26715000  0.59786000  1.0 0.1189795577
C  C48  1  0.31854000  0.73285000  0.59786000  1.0 0.1189795577
C  C49  1  0.22599000  0.75896000  0.05256000  1.0 -0.1485474907
C  C50  1  0.77401000  0.24104000  0.05256000  1.0 -0.1485474907
C  C51  1  0.72599000  0.74104000  0.05256000  1.0 -0.1485474907
C  C52  1  0.27401000  0.25896000  0.05256000  1.0 -0.1485474907
C  C53  1  0.22599000  0.25896000  0.55256000  1.0 -0.1485474907
C  C54  1  0.77401000  0.74104000  0.55256000  1.0 -0.1485474907
C  C55  1  0.72599000  0.24104000  0.55256000  1.0 -0.1485474907
C  C56  1  0.27401000  0.75896000  0.55256000  1.0 -0.1485474907
C  C57  1  0.27607000  0.75022000  0.09447000  1.0 0.1023740206
C  C58  1  0.72393000  0.24978000  0.09447000  1.0 0.1023740206
C  C59  1  0.77607000  0.74978000  0.09447000  1.0 0.1023740206
C  C60  1  0.22393000  0.25022000  0.09447000  1.0 0.1023740206
C  C61  1  0.27607000  0.25022000  0.59447000  1.0 0.1023740206
C  C62  1  0.72393000  0.74978000  0.59447000  1.0 0.1023740206
C  C63  1  0.77607000  0.24978000  0.59447000  1.0 0.1023740206
C  C64  1  0.22393000  0.75022000  0.59447000  1.0 0.1023740206
C  C65  1  0.34649000  0.77818000  0.33251000  1.0 -0.1387720016
C  C66  1  0.65351000  0.22182000  0.33251000  1.0 -0.1387720016
C  C67  1  0.84649000  0.72182000  0.33251000  1.0 -0.1387720016
C  C68  1  0.15351000  0.27818000  0.33251000  1.0 -0.1387720016
C  C69  1  0.34649000  0.27818000  0.83251000  1.0 -0.1387720016
C  C70  1  0.65351000  0.72182000  0.83251000  1.0 -0.1387720016
C  C71  1  0.84649000  0.22182000  0.83251000  1.0 -0.1387720016
C  C72  1  0.15351000  0.77818000  0.83251000  1.0 -0.1387720016
C  C73  1  0.39928000  0.73971000  0.16469000  1.0 0.2022787084
C  C74  1  0.60072000  0.26029000  0.16469000  1.0 0.2022787084
C  C75  1  0.89928000  0.76029000  0.16469000  1.0 0.2022787084
C  C76  1  0.10072000  0.23971000  0.16469000  1.0 0.2022787084
C  C77  1  0.39928000  0.23971000  0.66469000  1.0 0.2022787084
C  C78  1  0.60072000  0.76029000  0.66469000  1.0 0.2022787084
C  C79  1  0.89928000  0.26029000  0.66469000  1.0 0.2022787084
C  C80  1  0.10072000  0.73971000  0.66469000  1.0 0.2022787084
C  C81  1  0.41617000  0.68079000  0.33613000  1.0 0.1847821226
C  C82  1  0.58383000  0.31921000  0.33613000  1.0 0.1847821226
C  C83  1  0.91617000  0.81921000  0.33613000  1.0 0.1897855749
C  C84  1  0.08383000  0.18079000  0.33613000  1.0 0.1897855749
C  C85  1  0.41617000  0.18079000  0.83613000  1.0 0.1897855749
C  C86  1  0.58383000  0.81921000  0.83613000  1.0 0.1897855749
C  C87  1  0.91617000  0.31921000  0.83613000  1.0 0.1847821226
C  C88  1  0.08383000  0.68079000  0.83613000  1.0 0.1847821226
C  C89  1  0.36314000  0.61815000  0.18217000  1.0 -0.1282217664
C  C90  1  0.63686000  0.38185000  0.18217000  1.0 -0.1387720016
C  C91  1  0.86314000  0.88185000  0.18217000  1.0 -0.1387720016
C  C92  1  0.13686000  0.11815000  0.18217000  1.0 -0.1387720016
C  C93  1  0.36314000  0.11815000  0.68217000  1.0 -0.1387720016
C  C94  1  0.63686000  0.88185000  0.68217000  1.0 -0.1387720016
C  C95  1  0.86314000  0.38185000  0.68217000  1.0 -0.1387720016
C  C96  1  0.13686000  0.61815000  0.68217000  1.0 -0.1282217664
C  C97  1  0.10055000  0.72656000  0.33568000  1.0 0.0760028794
C  C98  1  0.89945000  0.27344000  0.33568000  1.0 0.0760028794
C  C99  1  0.60055000  0.77344000  0.33568000  1.0 0.0760028794
C  C100  1  0.39945000  0.22656000  0.33568000  1.0 0.0760028794
C  C101  1  0.10055000  0.22656000  0.83568000  1.0 0.0760028794
C  C102  1  0.89945000  0.77344000  0.83568000  1.0 0.0760028794
C  C103  1  0.60055000  0.27344000  0.83568000  1.0 0.0760028794
C  C104  1  0.39945000  0.72656000  0.83568000  1.0 0.0760028794
C  C105  1  0.06863000  0.66159000  0.17253000  1.0 0.1479556717
C  C106  1  0.93137000  0.33841000  0.17253000  1.0 0.1443969624
C  C107  1  0.56863000  0.83841000  0.17253000  1.0 0.1479556717
C  C108  1  0.43137000  0.16159000  0.17253000  1.0 0.1443969624
C  C109  1  0.06863000  0.16159000  0.67253000  1.0 0.1443969624
C  C110  1  0.93137000  0.83841000  0.67253000  1.0 0.1479556717
C  C111  1  0.56863000  0.33841000  0.67253000  1.0 0.1443969624
C  C112  1  0.43137000  0.66159000  0.67253000  1.0 0.1479556717
C  C113  1  0.08004000  0.60064000  0.34433000  1.0 0.2493156024
C  C114  1  0.91996000  0.39936000  0.34433000  1.0 0.2599231331
C  C115  1  0.58004000  0.89936000  0.34433000  1.0 0.2493156024
C  C116  1  0.41996000  0.10064000  0.34433000  1.0 0.2599231331
C  C117  1  0.08004000  0.10064000  0.84433000  1.0 0.2599231331
C  C118  1  0.91996000  0.89936000  0.84433000  1.0 0.2493156024
C  C119  1  0.58004000  0.39936000  0.84433000  1.0 0.2599231331
C  C120  1  0.41996000  0.60064000  0.84433000  1.0 0.2493156024
C  C121  1  0.14917000  0.57567000  0.18954000  1.0 -0.1282217664
C  C122  1  0.85083000  0.42433000  0.18954000  1.0 -0.1240650962
C  C123  1  0.64917000  0.92433000  0.18954000  1.0 -0.1240650962
C  C124  1  0.35083000  0.07567000  0.18954000  1.0 -0.1282217664
C  C125  1  0.14917000  0.07567000  0.68954000  1.0 -0.1282217664
C  C126  1  0.85083000  0.92433000  0.68954000  1.0 -0.1240650962
C  C127  1  0.64917000  0.42433000  0.68954000  1.0 -0.1240650962
C  C128  1  0.35083000  0.57567000  0.68954000  1.0 -0.1282217664
N  N1  1  0.19700000  0.63945000  0.35280000  1.0 -0.2109454206
N  N2  1  0.80300000  0.36055000  0.35280000  1.0 -0.2109454206
N  N3  1  0.69700000  0.86055000  0.35280000  1.0 -0.2109454206
N  N4  1  0.30300000  0.13945000  0.35280000  1.0 -0.2109454206
N  N5  1  0.19700000  0.13945000  0.85280000  1.0 -0.2109454206
N  N6  1  0.80300000  0.86055000  0.85280000  1.0 -0.2109454206
N  N7  1  0.69700000  0.36055000  0.85280000  1.0 -0.2109454206
N  N8  1  0.30300000  0.63945000  0.85280000  1.0 -0.2109454206
N  N9  1  0.29292000  0.65605000  0.34743000  1.0 -0.2109454206
N  N10  1  0.70708000  0.34395000  0.34743000  1.0 -0.2109454206
N  N11  1  0.79292000  0.84395000  0.34743000  1.0 -0.2109454206
N  N12  1  0.20708000  0.15605000  0.34743000  1.0 -0.2109454206
N  N13  1  0.29292000  0.15605000  0.84743000  1.0 -0.2109454206
N  N14  1  0.70708000  0.84395000  0.84743000  1.0 -0.2109454206
N  N15  1  0.79292000  0.34395000  0.84743000  1.0 -0.2109454206
N  N16  1  0.20708000  0.65605000  0.84743000  1.0 -0.2109454206
N  N17  1  0.18623000  0.70065000  0.18236000  1.0 -0.2109454206
N  N18  1  0.81377000  0.29935000  0.18236000  1.0 -0.2109454206
N  N19  1  0.68623000  0.79935000  0.18236000  1.0 -0.2109454206
N  N20  1  0.31377000  0.20065000  0.18236000  1.0 -0.2109454206
N  N21  1  0.18623000  0.20065000  0.68236000  1.0 -0.2109454206
N  N22  1  0.81377000  0.79935000  0.68236000  1.0 -0.2109454206
N  N23  1  0.68623000  0.29935000  0.68236000  1.0 -0.2109454206
N  N24  1  0.31377000  0.70065000  0.68236000  1.0 -0.2109454206
N  N25  1  0.28196000  0.71793000  0.17887000  1.0 -0.2016465018
N  N26  1  0.71804000  0.28207000  0.17887000  1.0 -0.2016465018
N  N27  1  0.78196000  0.78207000  0.17887000  1.0 -0.2016465018
N  N28  1  0.21804000  0.21793000  0.17887000  1.0 -0.2016465018
N  N29  1  0.28196000  0.21793000  0.67887000  1.0 -0.2016465018
N  N30  1  0.71804000  0.78207000  0.67887000  1.0 -0.2016465018
N  N31  1  0.78196000  0.28207000  0.67887000  1.0 -0.2016465018
N  N32  1  0.21804000  0.71793000  0.67887000  1.0 -0.2016465018
N  N33  1  0.34220000  0.82371000  0.37751000  1.0 -0.343001044
N  N34  1  0.65780000  0.17629000  0.37751000  1.0 -0.343001044
N  N35  1  0.84220000  0.67629000  0.37751000  1.0 -0.343001044
N  N36  1  0.15780000  0.32371000  0.37751000  1.0 -0.343001044
N  N37  1  0.34220000  0.32371000  0.87751000  1.0 -0.343001044
N  N38  1  0.65780000  0.67629000  0.87751000  1.0 -0.343001044
N  N39  1  0.84220000  0.17629000  0.87751000  1.0 -0.343001044
N  N40  1  0.15780000  0.82371000  0.87751000  1.0 -0.343001044
N  N41  1  0.92486000  0.73277000  0.10512000  1.0 -0.6392499532
N  N42  1  0.07514000  0.26723000  0.10512000  1.0 -0.6392499532
N  N43  1  0.42486000  0.76723000  0.10512000  1.0 -0.6392499532
N  N44  1  0.57514000  0.23277000  0.10512000  1.0 -0.6392499532
N  N45  1  0.92486000  0.23277000  0.60512000  1.0 -0.6392499532
N  N46  1  0.07514000  0.76723000  0.60512000  1.0 -0.6392499532
N  N47  1  0.42486000  0.26723000  0.60512000  1.0 -0.6392499532
N  N48  1  0.57514000  0.73277000  0.60512000  1.0 -0.6392499532
N  N49  1  0.45536000  0.67251000  0.38475000  1.0 -0.6392499532
N  N50  1  0.54464000  0.32749000  0.38475000  1.0 -0.6392499532
N  N51  1  0.95536000  0.82749000  0.38475000  1.0 -0.6392499532
N  N52  1  0.04464000  0.17251000  0.38475000  1.0 -0.6392499532
N  N53  1  0.45536000  0.17251000  0.88475000  1.0 -0.6392499532
N  N54  1  0.54464000  0.82749000  0.88475000  1.0 -0.6392499532
N  N55  1  0.95536000  0.32749000  0.88475000  1.0 -0.6392499532
N  N56  1  0.04464000  0.67251000  0.88475000  1.0 -0.6392499532
N  N57  1  0.36915000  0.57254000  0.13803000  1.0 -0.3809818725
N  N58  1  0.63085000  0.42746000  0.13803000  1.0 -0.3809818725
N  N59  1  0.86915000  0.92746000  0.13803000  1.0 -0.3809818725
N  N60  1  0.13085000  0.07254000  0.13803000  1.0 -0.3809818725
N  N61  1  0.36915000  0.07254000  0.63803000  1.0 -0.3809818725
N  N62  1  0.63085000  0.92746000  0.63803000  1.0 -0.3809818725
N  N63  1  0.86915000  0.42746000  0.63803000  1.0 -0.3809818725
N  N64  1  0.13085000  0.57254000  0.63803000  1.0 -0.3809818725
N  N65  1  0.08135000  0.76980000  0.37388000  1.0 -0.5918788243
N  N66  1  0.91865000  0.23020000  0.37388000  1.0 -0.5918788243
N  N67  1  0.58135000  0.73020000  0.37388000  1.0 -0.6012135963
N  N68  1  0.41865000  0.26980000  0.37388000  1.0 -0.5918788243
N  N69  1  0.08135000  0.26980000  0.87388000  1.0 -0.5918788243
N  N70  1  0.91865000  0.73020000  0.87388000  1.0 -0.5918788243
N  N71  1  0.58135000  0.23020000  0.87388000  1.0 -0.5918788243
N  N72  1  0.41865000  0.76980000  0.87388000  1.0 -0.5918788243
N  N73  1  0.03455000  0.66737000  0.11267000  1.0 -0.6069831351
N  N74  1  0.96545000  0.33263000  0.11267000  1.0 -0.6012135963
N  N75  1  0.53455000  0.83263000  0.11267000  1.0 -0.6069831351
N  N76  1  0.46545000  0.16737000  0.11267000  1.0 -0.6012135963
N  N77  1  0.03455000  0.16737000  0.61267000  1.0 -0.6012135963
N  N78  1  0.96545000  0.83263000  0.61267000  1.0 -0.6069831351
N  N79  1  0.53455000  0.33263000  0.61267000  1.0 -0.6012135963
N  N80  1  0.46545000  0.66737000  0.61267000  1.0 -0.6069831351
N  N81  1  0.05136000  0.56700000  0.38986000  1.0 -0.7067466279
N  N82  1  0.94864000  0.43300000  0.38986000  1.0 -0.7067466279
N  N83  1  0.55136000  0.93300000  0.38986000  1.0 -0.6980531911
N  N84  1  0.44864000  0.06700000  0.38986000  1.0 -0.7067466279
N  N85  1  0.05136000  0.06700000  0.88986000  1.0 -0.7067466279
N  N86  1  0.94864000  0.93300000  0.88986000  1.0 -0.6980531911
N  N87  1  0.55136000  0.43300000  0.88986000  1.0 -0.7067466279
N  N88  1  0.44864000  0.56700000  0.88986000  1.0 -0.7067466279
N  N89  1  0.16352000  0.53390000  0.14283000  1.0 -0.3088393683
N  N90  1  0.83648000  0.46610000  0.14283000  1.0 -0.3088393683
N  N91  1  0.66352000  0.96610000  0.14283000  1.0 -0.3088393683
N  N92  1  0.33648000  0.03390000  0.14283000  1.0 -0.3088393683
N  N93  1  0.16352000  0.03390000  0.64283000  1.0 -0.3088393683
N  N94  1  0.83648000  0.96610000  0.64283000  1.0 -0.3088393683
N  N95  1  0.66352000  0.46610000  0.64283000  1.0 -0.3088393683
N  N96  1  0.33648000  0.53390000  0.64283000  1.0 -0.3088393683
