# DDEC6 charges by PACMAN v1.1 (https://github.com/mtap-research/PACMAN-charge/)
data_SEHMUO_ion_pacman
_symmetry_space_group_name_H-M   'P 1'
_cell_length_a   12.99820000
_cell_length_b   12.99820000
_cell_length_c   25.12670000
_cell_angle_alpha   90.00000000
_cell_angle_beta   90.00000000
_cell_angle_gamma   116.88000000
_symmetry_Int_Tables_number   1
_chemical_formula_structural   Gd3H12Ru4C32(N13O12)2
_chemical_formula_sum   'Gd6 H24 Ru8 C64 N52 O48'
_cell_volume   3786.56159779
_cell_formula_units_Z   2
loop_
 _symmetry_equiv_pos_site_id
 _symmetry_equiv_pos_as_xyz
  1  'x, y, z'
loop_
 _atom_site_type_symbol
 _atom_site_label
 _atom_site_symmetry_multiplicity
 _atom_site_fract_x
 _atom_site_fract_y
 _atom_site_fract_z
 _atom_site_occupancy
 _atom_site_charge
Gd  Gd1  1  0.65404000  0.31138000  0.03291000  1.0 1.7710834034
Gd  Gd2  1  0.31138000  0.65404000  0.96709000  1.0 1.7710834034
Gd  Gd3  1  0.81138000  0.15404000  0.53291000  1.0 1.7710834034
Gd  Gd4  1  0.15404000  0.81138000  0.46709000  1.0 1.7710834034
Gd  Gd5  1  0.98378000  0.98378000  0.00000000  1.0 2.0419541486
Gd  Gd6  1  0.48378000  0.48378000  0.50000000  1.0 2.0419541486
H  H1  1  0.87230000  0.06010000  0.17290000  1.0 0.1684515654
H  H2  1  0.06010000  0.87230000  0.82710000  1.0 0.1684515654
H  H3  1  0.56010000  0.37230000  0.67290000  1.0 0.1684515654
H  H4  1  0.37230000  0.56010000  0.32710000  1.0 0.1684515654
H  H5  1  0.95590000  0.11510000  0.25590000  1.0 0.1982337977
H  H6  1  0.11510000  0.95590000  0.74410000  1.0 0.1982337977
H  H7  1  0.61510000  0.45590000  0.75590000  1.0 0.1982337977
H  H8  1  0.45590000  0.61510000  0.24410000  1.0 0.1982337977
H  H9  1  0.84070000  0.07870000  0.33000000  1.0 0.1684515654
H  H10  1  0.07870000  0.84070000  0.67000000  1.0 0.1684515654
H  H11  1  0.57870000  0.34070000  0.83000000  1.0 0.1684515654
H  H12  1  0.34070000  0.57870000  0.17000000  1.0 0.1684515654
H  H13  1  0.33290000  0.80650000  0.14890000  1.0 0.1617818512
H  H14  1  0.80650000  0.33290000  0.85110000  1.0 0.1617818512
H  H15  1  0.30650000  0.83290000  0.64890000  1.0 0.1617818512
H  H16  1  0.83290000  0.30650000  0.35110000  1.0 0.1617818512
H  H17  1  0.21410000  0.77190000  0.22310000  1.0 0.1914210606
H  H18  1  0.77190000  0.21410000  0.77690000  1.0 0.1914210606
H  H19  1  0.27190000  0.71410000  0.72310000  1.0 0.1914210606
H  H20  1  0.71410000  0.27190000  0.27690000  1.0 0.1914210606
H  H21  1  0.29780000  0.82900000  0.30630000  1.0 0.1514634437
H  H22  1  0.82900000  0.29780000  0.69370000  1.0 0.1514634437
H  H23  1  0.32900000  0.79780000  0.80630000  1.0 0.1514634437
H  H24  1  0.79780000  0.32900000  0.19370000  1.0 0.1514634437
Ru  Ru1  1  0.56027000  0.95765000  0.35137000  1.0 0.2510437855
Ru  Ru2  1  0.95765000  0.56027000  0.64863000  1.0 0.2729111054
Ru  Ru3  1  0.45765000  0.06027000  0.85137000  1.0 0.2729111054
Ru  Ru4  1  0.06027000  0.45765000  0.14863000  1.0 0.2510437855
Ru  Ru5  1  0.60971000  0.91213000  0.12938000  1.0 0.1684515654
Ru  Ru6  1  0.91213000  0.60971000  0.87062000  1.0 0.1684515654
Ru  Ru7  1  0.41213000  0.10971000  0.62938000  1.0 0.1914210606
Ru  Ru8  1  0.10971000  0.41213000  0.37062000  1.0 0.1757159867
C  C1  1  0.64900000  0.97460000  0.24244000  1.0 0.2729111054
C  C2  1  0.97460000  0.64900000  0.75756000  1.0 0.2729111054
C  C3  1  0.47460000  0.14900000  0.74244000  1.0 0.2729111054
C  C4  1  0.14900000  0.47460000  0.25756000  1.0 0.2729111054
C  C5  1  0.82600000  0.04480000  0.20290000  1.0 0.1617818512
C  C6  1  0.04480000  0.82600000  0.79710000  1.0 0.1617818512
C  C7  1  0.54480000  0.32600000  0.70290000  1.0 0.1617818512
C  C8  1  0.32600000  0.54480000  0.29710000  1.0 0.1617818512
C  C9  1  0.87590000  0.07830000  0.25250000  1.0 -0.1106635145
C  C10  1  0.07830000  0.87590000  0.74750000  1.0 -0.1106635145
C  C11  1  0.57830000  0.37590000  0.75250000  1.0 -0.1106635145
C  C12  1  0.37590000  0.57830000  0.24750000  1.0 -0.1106635145
C  C13  1  0.80700000  0.05700000  0.29660000  1.0 0.1290309318
C  C14  1  0.05700000  0.80700000  0.70340000  1.0 0.1290309318
C  C15  1  0.55700000  0.30700000  0.79660000  1.0 0.1290309318
C  C16  1  0.30700000  0.55700000  0.20340000  1.0 0.1290309318
C  C17  1  0.52320000  0.91480000  0.23674000  1.0 0.2729111054
C  C18  1  0.91480000  0.52320000  0.76326000  1.0 0.2729111054
C  C19  1  0.41480000  0.02320000  0.73674000  1.0 0.2729111054
C  C20  1  0.02320000  0.41480000  0.26326000  1.0 0.2729111054
C  C21  1  0.36560000  0.82880000  0.18250000  1.0 0.1514634437
C  C22  1  0.82880000  0.36560000  0.81750000  1.0 0.1514634437
C  C23  1  0.32880000  0.86560000  0.68250000  1.0 0.1514634437
C  C24  1  0.86560000  0.32880000  0.31750000  1.0 0.1514634437
C  C25  1  0.29400000  0.80820000  0.22680000  1.0 -0.1315907836
C  C26  1  0.80820000  0.29400000  0.77320000  1.0 -0.1315907836
C  C27  1  0.30820000  0.79400000  0.72680000  1.0 -0.1315907836
C  C28  1  0.79400000  0.30820000  0.27320000  1.0 -0.1315907836
C  C29  1  0.34440000  0.84300000  0.27630000  1.0 0.1290309318
C  C30  1  0.84300000  0.34440000  0.72370000  1.0 0.1290309318
C  C31  1  0.34300000  0.84440000  0.77630000  1.0 0.1290309318
C  C32  1  0.84440000  0.34300000  0.22370000  1.0 0.1290309318
C  C33  1  0.55280000  0.11100000  0.34470000  1.0 -0.0237979565
C  C34  1  0.11100000  0.55280000  0.65530000  1.0 -0.0237979565
C  C35  1  0.61100000  0.05280000  0.84470000  1.0 -0.0253765434
C  C36  1  0.05280000  0.61100000  0.15530000  1.0 -0.0237979565
C  C37  1  0.92610000  0.40470000  0.10180000  1.0 0.1684515654
C  C38  1  0.40470000  0.92610000  0.89820000  1.0 0.1684515654
C  C39  1  0.90470000  0.42610000  0.60180000  1.0 0.1684515654
C  C40  1  0.42610000  0.90470000  0.39820000  1.0 0.1684515654
C  C41  1  0.51800000  0.16360000  0.91380000  1.0 0.1398815997
C  C42  1  0.16360000  0.51800000  0.08620000  1.0 0.1398815997
C  C43  1  0.66360000  0.01800000  0.41380000  1.0 0.1514634437
C  C44  1  0.01800000  0.66360000  0.58620000  1.0 0.1398815997
C  C45  1  0.56660000  0.80580000  0.35930000  1.0 -0.0417546859
C  C46  1  0.80580000  0.56660000  0.64070000  1.0 -0.0417546859
C  C47  1  0.30580000  0.06660000  0.85930000  1.0 -0.0417546859
C  C48  1  0.06660000  0.30580000  0.14070000  1.0 -0.0417546859
C  C49  1  0.60320000  0.05620000  0.10340000  1.0 0.1229248942
C  C50  1  0.05620000  0.60320000  0.89660000  1.0 0.1229248942
C  C51  1  0.55620000  0.10320000  0.60340000  1.0 0.1229248942
C  C52  1  0.10320000  0.55620000  0.39660000  1.0 0.1229248942
C  C53  1  0.50480000  0.83200000  0.07000000  1.0 0.1398815997
C  C54  1  0.83200000  0.50480000  0.93000000  1.0 0.1398815997
C  C55  1  0.33200000  0.00480000  0.57000000  1.0 0.1398815997
C  C56  1  0.00480000  0.33200000  0.43000000  1.0 0.1398815997
C  C57  1  0.74520000  0.95120000  0.08330000  1.0 0.1617818512
C  C58  1  0.95120000  0.74520000  0.91670000  1.0 0.1684515654
C  C59  1  0.45120000  0.24520000  0.58330000  1.0 0.1684515654
C  C60  1  0.24520000  0.45120000  0.41670000  1.0 0.1617818512
C  C61  1  0.61190000  0.76210000  0.15140000  1.0 -0.0417546859
C  C62  1  0.76210000  0.61190000  0.84860000  1.0 -0.0417546859
C  C63  1  0.26210000  0.11190000  0.65140000  1.0 -0.0460452362
C  C64  1  0.11190000  0.26210000  0.34860000  1.0 -0.0460452362
N  N1  1  0.71090000  0.99050000  0.19797000  1.0 -0.1695581463
N  N2  1  0.99050000  0.71090000  0.80203000  1.0 -0.1695581463
N  N3  1  0.49050000  0.21090000  0.69797000  1.0 -0.1695581463
N  N4  1  0.21090000  0.49050000  0.30203000  1.0 -0.1695581463
N  N5  1  0.69060000  0.00480000  0.29209000  1.0 -0.1695581463
N  N6  1  0.00480000  0.69060000  0.70791000  1.0 -0.1695581463
N  N7  1  0.50480000  0.19060000  0.79209000  1.0 -0.1695581463
N  N8  1  0.19060000  0.50480000  0.20791000  1.0 -0.1695581463
N  N9  1  0.48044000  0.88036000  0.18785000  1.0 -0.1695581463
N  N10  1  0.88036000  0.48044000  0.81215000  1.0 -0.1695581463
N  N11  1  0.38036000  0.98044000  0.68785000  1.0 -0.1695581463
N  N12  1  0.98044000  0.38036000  0.31215000  1.0 -0.1695581463
N  N13  1  0.46098000  0.89742000  0.28168000  1.0 -0.1559797954
N  N14  1  0.89742000  0.46098000  0.71832000  1.0 -0.1559797954
N  N15  1  0.39742000  0.96098000  0.78168000  1.0 -0.1559797954
N  N16  1  0.96098000  0.39742000  0.21832000  1.0 -0.1559797954
N  N17  1  0.54660000  0.19600000  0.34240000  1.0 -0.2475217394
N  N18  1  0.19600000  0.54660000  0.65760000  1.0 -0.2427034887
N  N19  1  0.69600000  0.04660000  0.84240000  1.0 -0.2475217394
N  N20  1  0.04660000  0.69600000  0.15760000  1.0 -0.2427034887
N  N21  1  0.84040000  0.37700000  0.07680000  1.0 -0.47631016
N  N22  1  0.37700000  0.84040000  0.92320000  1.0 -0.47631016
N  N23  1  0.87700000  0.34040000  0.57680000  1.0 -0.4747270085
N  N24  1  0.34040000  0.87700000  0.42320000  1.0 -0.47631016
N  N25  1  0.55460000  0.22160000  0.95080000  1.0 -0.4471265388
N  N26  1  0.22160000  0.55460000  0.04920000  1.0 -0.4397225313
N  N27  1  0.72160000  0.05460000  0.45080000  1.0 -0.4471265388
N  N28  1  0.05460000  0.72160000  0.54920000  1.0 -0.4397225313
N  N29  1  0.57140000  0.71880000  0.36440000  1.0 -0.2427034887
N  N30  1  0.71880000  0.57140000  0.63560000  1.0 -0.2427034887
N  N31  1  0.21880000  0.07140000  0.86440000  1.0 -0.2427034887
N  N32  1  0.07140000  0.21880000  0.13560000  1.0 -0.2427034887
N  N33  1  0.59810000  0.13530000  0.08510000  1.0 -0.4471265388
N  N34  1  0.13530000  0.59810000  0.91490000  1.0 -0.4471265388
N  N35  1  0.63530000  0.09810000  0.58510000  1.0 -0.4471265388
N  N36  1  0.09810000  0.63530000  0.41490000  1.0 -0.4471265388
N  N37  1  0.44510000  0.78710000  0.03450000  1.0 -0.4397225313
N  N38  1  0.78710000  0.44510000  0.96550000  1.0 -0.4397225313
N  N39  1  0.28710000  0.94510000  0.53450000  1.0 -0.4397225313
N  N40  1  0.94510000  0.28710000  0.46550000  1.0 -0.4397225313
N  N41  1  0.82710000  0.97590000  0.05787000  1.0 -0.4747270085
N  N42  1  0.97590000  0.82710000  0.94213000  1.0 -0.4747270085
N  N43  1  0.47590000  0.32710000  0.55787000  1.0 -0.47631016
N  N44  1  0.32710000  0.47590000  0.44213000  1.0 -0.4747270085
N  N45  1  0.61400000  0.67760000  0.16360000  1.0 -0.2833019428
N  N46  1  0.67760000  0.61400000  0.83640000  1.0 -0.2833019428
N  N47  1  0.17760000  0.11400000  0.66360000  1.0 -0.2833019428
N  N48  1  0.11400000  0.17760000  0.33640000  1.0 -0.2833019428
N  N49  1  0.01920000  0.22100000  0.73680000  1.0 0.7607738066
N  N50  1  0.22100000  0.01920000  0.26320000  1.0 0.7669373043
N  N51  1  0.72100000  0.51920000  0.23680000  1.0 0.7607738066
N  N52  1  0.51920000  0.72100000  0.76320000  1.0 0.7607738066
O  O1  1  0.75366000  0.20474000  0.99654000  1.0 -0.2833019428
O  O2  1  0.20474000  0.75366000  0.00346000  1.0 -0.2720406663
O  O3  1  0.70474000  0.25366000  0.49654000  1.0 -0.2720406663
O  O4  1  0.25366000  0.70474000  0.50346000  1.0 -0.2720406663
O  O5  1  0.44950000  0.24310000  0.05100000  1.0 -0.3594327144
O  O6  1  0.24310000  0.44950000  0.94900000  1.0 -0.368105974
O  O7  1  0.74310000  0.94950000  0.55100000  1.0 -0.368105974
O  O8  1  0.94950000  0.74310000  0.44900000  1.0 -0.3594327144
O  O9  1  0.57560000  0.44180000  0.00190000  1.0 -0.1559797954
O  O10  1  0.44180000  0.57560000  0.99810000  1.0 -0.1559797954
O  O11  1  0.94180000  0.07560000  0.50190000  1.0 -0.1559797954
O  O12  1  0.07560000  0.94180000  0.49810000  1.0 -0.1559797954
O  O13  1  0.64140000  0.41080000  0.10700000  1.0 0.2573049665
O  O14  1  0.41080000  0.64140000  0.89300000  1.0 0.2573049665
O  O15  1  0.91080000  0.14140000  0.60700000  1.0 0.2573049665
O  O16  1  0.14140000  0.91080000  0.39300000  1.0 0.2573049665
O  O17  1  0.02860000  0.18520000  0.01600000  1.0 -0.368105974
O  O18  1  0.18520000  0.02860000  0.98400000  1.0 -0.368105974
O  O19  1  0.68520000  0.52860000  0.51600000  1.0 -0.368105974
O  O20  1  0.52860000  0.68520000  0.48400000  1.0 -0.368105974
O  O21  1  0.04257000  0.08523000  0.91737000  1.0 -0.3548230342
O  O22  1  0.08523000  0.04257000  0.08263000  1.0 -0.3594327144
O  O23  1  0.58523000  0.54257000  0.41737000  1.0 -0.3594327144
O  O24  1  0.54257000  0.58523000  0.58263000  1.0 -0.3594327144
O  O25  1  0.81110000  0.91990000  0.94900000  1.0 -0.4617329724
O  O26  1  0.91990000  0.81110000  0.05100000  1.0 -0.4617329724
O  O27  1  0.41990000  0.31110000  0.44900000  1.0 -0.4617329724
O  O28  1  0.31110000  0.41990000  0.55100000  1.0 -0.4617329724
O  O29  1  0.49300000  0.65620000  0.95530000  1.0 -0.0095388423
O  O30  1  0.65620000  0.49300000  0.04470000  1.0 -0.0049343295
O  O31  1  0.15620000  0.99300000  0.45530000  1.0 -0.0095388423
O  O32  1  0.99300000  0.15620000  0.54470000  1.0 -0.0095388423
O  O33  1  0.34030000  0.62310000  0.87020000  1.0 0.1982337977
O  O34  1  0.62310000  0.34030000  0.12980000  1.0 0.1914210606
O  O35  1  0.12310000  0.84030000  0.37020000  1.0 0.1982337977
O  O36  1  0.84030000  0.12310000  0.62980000  1.0 0.1982337977
O  O37  1  0.03390000  0.25910000  0.68490000  1.0 -0.4204831788
O  O38  1  0.92580000  0.11480000  0.73770000  1.0 -0.4204831788
O  O39  1  0.07890000  0.29690000  0.78180000  1.0 -0.4397225313
O  O40  1  0.25910000  0.03390000  0.31510000  1.0 -0.4256717376
O  O41  1  0.11480000  0.92580000  0.26230000  1.0 -0.4204831788
O  O42  1  0.29690000  0.07890000  0.21820000  1.0 -0.4397225313
O  O43  1  0.75910000  0.53390000  0.18490000  1.0 -0.4204831788
O  O44  1  0.61480000  0.42580000  0.23770000  1.0 -0.4204831788
O  O45  1  0.79690000  0.57890000  0.28180000  1.0 -0.4397225313
O  O46  1  0.53390000  0.75910000  0.81510000  1.0 -0.4204831788
O  O47  1  0.42580000  0.61480000  0.76230000  1.0 -0.4204831788
O  O48  1  0.57890000  0.79690000  0.71820000  1.0 -0.4397225313
