# DDEC6 charges by PACMAN v1.1 (https://github.com/mtap-research/PACMAN-charge/)
data_SEHMAU_FSR_pacman
_symmetry_space_group_name_H-M   'P 1'
_cell_length_a   12.39270000
_cell_length_b   13.27520000
_cell_length_c   14.35630000
_cell_angle_alpha   98.97300000
_cell_angle_beta   102.17200000
_cell_angle_gamma   89.56500000
_symmetry_Int_Tables_number   1
_chemical_formula_structural   Er2H22Ru2C24(N6O5)3
_chemical_formula_sum   'Er4 H44 Ru4 C48 N36 O30'
_cell_volume   2279.70154970
_cell_formula_units_Z   2
loop_
 _symmetry_equiv_pos_site_id
 _symmetry_equiv_pos_as_xyz
  1  'x, y, z'
loop_
 _atom_site_type_symbol
 _atom_site_label
 _atom_site_symmetry_multiplicity
 _atom_site_fract_x
 _atom_site_fract_y
 _atom_site_fract_z
 _atom_site_occupancy
 _atom_site_charge
Er  Er1  1  0.31931000  0.13687000  0.66363000  1.0 1.8698264084
Er  Er2  1  0.68069000  0.86313000  0.33637000  1.0 1.8698264084
Er  Er3  1  0.60184000  0.59086000  0.77594000  1.0 1.9953399024
Er  Er4  1  0.39816000  0.40914000  0.22406000  1.0 1.9946801982
H  H1  1  0.17340000  0.12270000  0.50170000  1.0 0.2596831691
H  H2  1  0.82660000  0.87730000  0.49830000  1.0 0.2596831691
H  H3  1  0.22790000  0.16140000  0.44210000  1.0 0.3576313229
H  H4  1  0.77210000  0.83860000  0.55790000  1.0 0.3576313229
H  H5  1  0.24580000  0.61540000  0.62570000  1.0 0.120896865
H  H6  1  0.75420000  0.38460000  0.37430000  1.0 0.120896865
H  H7  1  0.50920000  0.09910000  0.78500000  1.0 0.3430348457
H  H8  1  0.49080000  0.90090000  0.21500000  1.0 0.3515897474
H  H9  1  0.51010000  0.00040000  0.74590000  1.0 0.3893042526
H  H10  1  0.48990000  0.99960000  0.25410000  1.0 0.3893042526
H  H11  1  0.07340000  0.57360000  0.64740000  1.0 0.1602287165
H  H12  1  0.92660000  0.42640000  0.35260000  1.0 0.1602287165
H  H13  1  0.45030000  0.31170000  0.74240000  1.0 0.3576313229
H  H14  1  0.54970000  0.68830000  0.25760000  1.0 0.3576313229
H  H15  1  0.40660000  0.29750000  0.81800000  1.0 0.3430348457
H  H16  1  0.59340000  0.70250000  0.18200000  1.0 0.3430348457
H  H17  1  0.91850000  0.62680000  0.54700000  1.0 0.1073595456
H  H18  1  0.08150000  0.37320000  0.45300000  1.0 0.1073595456
H  H19  1  0.73490000  0.75490000  0.85290000  1.0 0.3324958703
H  H20  1  0.26510000  0.24510000  0.14710000  1.0 0.3324958703
H  H21  1  0.70210000  0.75000000  0.93550000  1.0 0.3515897474
H  H22  1  0.29790000  0.25000000  0.06450000  1.0 0.3515897474
H  H23  1  0.31290000  0.82810000  0.28370000  1.0 0.1334511759
H  H24  1  0.68710000  0.17190000  0.71630000  1.0 0.1334511759
H  H25  1  0.41290000  0.47790000  0.65920000  1.0 0.3576313229
H  H26  1  0.58710000  0.52210000  0.34080000  1.0 0.3576313229
H  H27  1  0.37840000  0.48080000  0.74250000  1.0 0.3515897474
H  H28  1  0.62160000  0.51920000  0.25750000  1.0 0.3515897474
H  H29  1  0.16260000  0.87740000  0.17370000  1.0 0.1602287165
H  H30  1  0.83740000  0.12260000  0.82630000  1.0 0.1602287165
H  H31  1  0.98720000  0.85630000  0.19640000  1.0 0.1022851985
H  H32  1  0.01280000  0.14370000  0.80360000  1.0 0.1022851985
H  H33  1  0.86510000  0.42400000  0.89810000  1.0 0.1334511759
H  H34  1  0.13490000  0.57600000  0.10190000  1.0 0.1334511759
H  H35  1  0.04610000  0.41410000  0.87070000  1.0 0.1602287165
H  H36  1  0.95390000  0.58590000  0.12930000  1.0 0.1602287165
H  H37  1  0.17070000  0.31750000  0.96250000  1.0 0.1022851985
H  H38  1  0.82930000  0.68250000  0.03750000  1.0 0.1022851985
H  H39  1  0.72300000  0.20200000  0.20500000  1.0 0.1334511759
H  H40  1  0.27700000  0.79800000  0.79500000  1.0 0.1334511759
H  H41  1  0.84840000  0.10710000  0.30120000  1.0 0.1395274819
H  H42  1  0.15160000  0.89290000  0.69880000  1.0 0.1395274819
H  H43  1  0.02540000  0.09280000  0.27540000  1.0 0.0901773616
H  H44  1  0.97460000  0.90720000  0.72460000  1.0 0.0901773616
Ru  Ru1  1  0.34237000  0.74017000  0.48399000  1.0 0.1395274819
Ru  Ru2  1  0.65763000  0.25983000  0.51601000  1.0 0.1395274819
Ru  Ru3  1  0.73695000  0.33883000  0.04208000  1.0 0.2189308948
Ru  Ru4  1  0.26305000  0.66117000  0.95792000  1.0 0.2189308948
C  C1  1  0.18200000  0.63570000  0.58410000  1.0 0.0838591795
C  C2  1  0.81800000  0.36430000  0.41590000  1.0 0.0838591795
C  C3  1  0.08080000  0.61080000  0.59760000  1.0 -0.156026622
C  C4  1  0.91920000  0.38920000  0.40240000  1.0 -0.156026622
C  C5  1  0.99000000  0.64090000  0.53710000  1.0 0.1073595456
C  C6  1  0.01000000  0.35910000  0.46290000  1.0 0.1073595456
C  C7  1  0.10030000  0.71110000  0.45410000  1.0 0.2596831691
C  C8  1  0.89970000  0.28890000  0.54590000  1.0 0.2596831691
C  C9  1  0.23970000  0.81860000  0.29190000  1.0 0.0901773616
C  C10  1  0.76030000  0.18140000  0.70810000  1.0 0.0901773616
C  C11  1  0.15110000  0.84780000  0.22710000  1.0 -0.1702801589
C  C12  1  0.84890000  0.15220000  0.77290000  1.0 -0.1702801589
C  C13  1  0.04800000  0.83420000  0.24020000  1.0 0.1022851985
C  C14  1  0.95200000  0.16580000  0.75980000  1.0 0.1022851985
C  C15  1  0.11620000  0.76160000  0.37390000  1.0 0.2596831691
C  C16  1  0.88380000  0.23840000  0.62610000  1.0 0.2596831691
C  C17  1  0.91880000  0.38590000  0.93460000  1.0 0.1073595456
C  C18  1  0.08120000  0.61410000  0.06540000  1.0 0.1073595456
C  C19  1  0.02470000  0.38030000  0.91790000  1.0 -0.1702801589
C  C20  1  0.97530000  0.61970000  0.08210000  1.0 -0.1702801589
C  C21  1  0.09780000  0.32320000  0.97350000  1.0 0.120896865
C  C22  1  0.90220000  0.67680000  0.02650000  1.0 0.120896865
C  C23  1  0.97000000  0.28540000  0.05010000  1.0 0.2685019097
C  C24  1  0.03000000  0.71460000  0.94990000  1.0 0.2685019097
C  C25  1  0.79760000  0.19700000  0.19830000  1.0 0.0838591795
C  C26  1  0.20240000  0.80300000  0.80170000  1.0 0.0838591795
C  C27  1  0.87040000  0.14020000  0.25390000  1.0 -0.1702801589
C  C28  1  0.12960000  0.85980000  0.74610000  1.0 -0.1702801589
C  C29  1  0.97470000  0.13310000  0.23860000  1.0 0.0901773616
C  C30  1  0.02530000  0.86690000  0.76140000  1.0 0.0901773616
C  C31  1  0.93500000  0.23320000  0.12510000  1.0 0.2921829022
C  C32  1  0.06500000  0.76680000  0.87490000  1.0 0.2921829022
C  C33  1  0.32290000  0.88200000  0.55480000  1.0 0.0528027673
C  C34  1  0.67710000  0.11800000  0.44520000  1.0 0.0597688739
C  C35  1  0.44360000  0.70760000  0.59930000  1.0 0.0528027673
C  C36  1  0.55640000  0.29240000  0.40070000  1.0 0.0528027673
C  C37  1  0.52860000  0.21070000  0.55710000  1.0 0.0901773616
C  C38  1  0.47140000  0.78930000  0.44290000  1.0 0.0901773616
C  C39  1  0.36530000  0.60250000  0.40870000  1.0 0.0597688739
C  C40  1  0.63470000  0.39750000  0.59130000  1.0 0.0597688739
C  C41  1  0.68120000  0.21200000  0.94460000  1.0 -0.0412066719
C  C42  1  0.31880000  0.78800000  0.05540000  1.0 -0.045476021
C  C43  1  0.66666667  0.42490000  0.94700000  1.0 0.0663291312
C  C44  1  0.33340000  0.57510000  0.05300000  1.0 0.0663291312
C  C45  1  0.39820000  0.66230000  0.90770000  1.0 0.0901773616
C  C46  1  0.60180000  0.33770000  0.09230000  1.0 0.0901773616
C  C47  1  0.77560000  0.46360000  0.14720000  1.0 -0.0412066719
C  C48  1  0.22440000  0.53640000  0.85280000  1.0 -0.0412066719
N  N1  1  0.19490000  0.68800000  0.51420000  1.0 -0.2080058416
N  N2  1  0.80510000  0.31200000  0.48580000  1.0 -0.2080058416
N  N3  1  0.99930000  0.69000000  0.46410000  1.0 -0.2925324418
N  N4  1  0.00070000  0.31000000  0.53590000  1.0 -0.2925324418
N  N5  1  0.22200000  0.77620000  0.36710000  1.0 -0.2080058416
N  N6  1  0.77800000  0.22380000  0.63290000  1.0 -0.2080058416
N  N7  1  0.02920000  0.79030000  0.31310000  1.0 -0.2788677343
N  N8  1  0.97080000  0.20970000  0.68690000  1.0 -0.2788677343
N  N9  1  0.89200000  0.33770000  0.00180000  1.0 -0.2080058416
N  N10  1  0.10800000  0.66230000  0.99820000  1.0 -0.2080058416
N  N11  1  0.07340000  0.27670000  0.04000000  1.0 -0.2788677343
N  N12  1  0.92660000  0.72330000  0.96000000  1.0 -0.2788677343
N  N13  1  0.83370000  0.24600000  0.13360000  1.0 -0.2080058416
N  N14  1  0.16630000  0.75400000  0.86640000  1.0 -0.2080058416
N  N15  1  0.00920000  0.17990000  0.17470000  1.0 -0.2595438936
N  N16  1  0.99080000  0.82010000  0.82530000  1.0 -0.2595438936
N  N17  1  0.31390000  0.96470000  0.59160000  1.0 -0.5215214469
N  N18  1  0.68610000  0.03530000  0.40840000  1.0 -0.5215214469
N  N19  1  0.50280000  0.69120000  0.66760000  1.0 -0.5330818572
N  N20  1  0.49720000  0.30880000  0.33240000  1.0 -0.5330818572
N  N21  1  0.45270000  0.18480000  0.58320000  1.0 -0.5215214469
N  N22  1  0.54730000  0.81520000  0.41680000  1.0 -0.5215214469
N  N23  1  0.38040000  0.52770000  0.36180000  1.0 -0.5030445137
N  N24  1  0.61960000  0.47230000  0.63820000  1.0 -0.5030445137
N  N25  1  0.64830000  0.13860000  0.89210000  1.0 -0.3667028823
N  N26  1  0.35170000  0.86140000  0.10790000  1.0 -0.3667028823
N  N27  1  0.63130000  0.47540000  0.88990000  1.0 -0.5096051522
N  N28  1  0.36870000  0.52460000  0.11010000  1.0 -0.5096051522
N  N29  1  0.47540000  0.65470000  0.87520000  1.0 -0.5030445137
N  N30  1  0.52460000  0.34530000  0.12480000  1.0 -0.5030445137
N  N31  1  0.78480000  0.53390000  0.20830000  1.0 -0.3851030746
N  N32  1  0.21520000  0.46610000  0.79170000  1.0 -0.3851030746
N  N33  1  0.82070000  0.59930000  0.74150000  1.0 0.7055549941
N  N34  1  0.17930000  0.40070000  0.25850000  1.0 0.7055549941
N  N35  1  0.04550000  0.03530000  0.56520000  1.0 0.2921829022
N  N36  1  0.95450000  0.96470000  0.43480000  1.0 0.2921829022
O  O1  1  0.23710000  0.14680000  0.50010000  1.0 -0.7607748189
O  O2  1  0.76290000  0.85320000  0.49990000  1.0 -0.7607748189
O  O3  1  0.47980000  0.05670000  0.73610000  1.0 -0.7607748189
O  O4  1  0.52020000  0.94330000  0.26390000  1.0 -0.7607748189
O  O5  1  0.42950000  0.26700000  0.77090000  1.0 -0.7493409344
O  O6  1  0.57050000  0.73300000  0.22910000  1.0 -0.7493409344
O  O7  1  0.29500000  0.09860000  0.81640000  1.0 -0.031800227
O  O8  1  0.70500000  0.90140000  0.18360000  1.0 -0.0241515205
O  O9  1  0.19920000  0.26870000  0.70080000  1.0 -0.0079176684
O  O10  1  0.80080000  0.73130000  0.29920000  1.0 0.0016316118
O  O11  1  0.67890000  0.73920000  0.87410000  1.0 -0.7493409344
O  O12  1  0.32110000  0.26080000  0.12590000  1.0 -0.7493409344
O  O13  1  0.43640000  0.48840000  0.72030000  1.0 -0.7607748189
O  O14  1  0.56360000  0.51160000  0.27970000  1.0 -0.7607748189
O  O15  1  0.79350000  0.55180000  0.80530000  1.0 -0.5491587796
O  O16  1  0.20650000  0.44820000  0.19470000  1.0 -0.5491587796
O  O17  1  0.74750000  0.65700000  0.70300000  1.0 -0.5096051522
O  O18  1  0.25250000  0.34300000  0.29700000  1.0 -0.5096051522
O  O19  1  0.91050000  0.59230000  0.72450000  1.0 -0.3569922128
O  O20  1  0.08950000  0.40770000  0.27550000  1.0 -0.3569922128
O  O21  1  0.13140000  0.07110000  0.63740000  1.0 -0.601826308
O  O22  1  0.86860000  0.92890000  0.36260000  1.0 -0.601826308
O  O23  1  0.97320000  0.97800000  0.57750000  1.0 -0.0583832354
O  O24  1  0.02680000  0.02200000  0.42250000  1.0 -0.0583832354
O  O25  1  0.02880000  0.06690000  0.48650000  1.0 0.1395274819
O  O26  1  0.97120000  0.93310000  0.51350000  1.0 0.1395274819
O  O27  1  0.27200000  0.15200000  0.80990000  1.0 -0.2268833571
O  O28  1  0.72800000  0.84800000  0.19010000  1.0 -0.2268833571
O  O29  1  0.21560000  0.28500000  0.65990000  1.0 0.0182473057
O  O30  1  0.78440000  0.71500000  0.34010000  1.0 0.0182473057
