# DDEC6 charges by PACMAN v1.1 (https://github.com/mtap-research/PACMAN-charge/)
data_SEHNEZ_ASR_pacman
_symmetry_space_group_name_H-M   'P 1'
_cell_length_a   24.98560000
_cell_length_b   21.97190000
_cell_length_c   13.48300000
_cell_angle_alpha   90.00000000
_cell_angle_beta   90.00000000
_cell_angle_gamma   90.00000000
_symmetry_Int_Tables_number   1
_chemical_formula_structural   Yb3H12Ru4(C4N3)8
_chemical_formula_sum   'Yb12 H48 Ru16 C128 N96'
_cell_volume   7401.91223386
_cell_formula_units_Z   4
loop_
 _symmetry_equiv_pos_site_id
 _symmetry_equiv_pos_as_xyz
  1  'x, y, z'
loop_
 _atom_site_type_symbol
 _atom_site_label
 _atom_site_symmetry_multiplicity
 _atom_site_fract_x
 _atom_site_fract_y
 _atom_site_fract_z
 _atom_site_occupancy
 _atom_site_charge
Yb  Yb1  1  0.97079000  0.17553000  0.00488000  1.0 1.9483830808
Yb  Yb2  1  0.02921000  0.82447000  0.00488000  1.0 1.9483830808
Yb  Yb3  1  0.47079000  0.32447000  0.00488000  1.0 1.9483830808
Yb  Yb4  1  0.52921000  0.67553000  0.00488000  1.0 1.9483830808
Yb  Yb5  1  0.97079000  0.67553000  0.50488000  1.0 1.9483830808
Yb  Yb6  1  0.02921000  0.32447000  0.50488000  1.0 1.9483830808
Yb  Yb7  1  0.47079000  0.82447000  0.50488000  1.0 1.9483830808
Yb  Yb8  1  0.52921000  0.17553000  0.50488000  1.0 1.9483830808
Yb  Yb9  1  0.00000000  0.50000000  0.98754000  1.0 1.620368409
Yb  Yb10  1  0.50000000  0.00000000  0.98754000  1.0 1.620368409
Yb  Yb11  1  0.00000000  0.00000000  0.48754000  1.0 1.620368409
Yb  Yb12  1  0.50000000  0.50000000  0.48754000  1.0 1.620368409
H  H1  1  0.83369000  0.41038000  0.98994000  1.0 0.0992225528
H  H2  1  0.16631000  0.58962000  0.98994000  1.0 0.0992225528
H  H3  1  0.33369000  0.08962000  0.98994000  1.0 0.0992225528
H  H4  1  0.66631000  0.91038000  0.98994000  1.0 0.0992225528
H  H5  1  0.83369000  0.91038000  0.48994000  1.0 0.0992225528
H  H6  1  0.16631000  0.08962000  0.48994000  1.0 0.0992225528
H  H7  1  0.33369000  0.58962000  0.48994000  1.0 0.0992225528
H  H8  1  0.66631000  0.41038000  0.48994000  1.0 0.0992225528
H  H9  1  0.74131000  0.42807000  0.06727000  1.0 0.1380084735
H  H10  1  0.25869000  0.57193000  0.06727000  1.0 0.1380084735
H  H11  1  0.24131000  0.07193000  0.06727000  1.0 0.1380084735
H  H12  1  0.75869000  0.92807000  0.06727000  1.0 0.1380084735
H  H13  1  0.74131000  0.92807000  0.56727000  1.0 0.1380084735
H  H14  1  0.25869000  0.07193000  0.56727000  1.0 0.1380084735
H  H15  1  0.24131000  0.57193000  0.56727000  1.0 0.1380084735
H  H16  1  0.75869000  0.42807000  0.56727000  1.0 0.1380084735
H  H17  1  0.85932000  0.26234000  0.58224000  1.0 0.0992225528
H  H18  1  0.14068000  0.73766000  0.58224000  1.0 0.0992225528
H  H19  1  0.35932000  0.23766000  0.58224000  1.0 0.0992225528
H  H20  1  0.64068000  0.76234000  0.58224000  1.0 0.0992225528
H  H21  1  0.85932000  0.76234000  0.08224000  1.0 0.0992225528
H  H22  1  0.14068000  0.23766000  0.08224000  1.0 0.0992225528
H  H23  1  0.35932000  0.73766000  0.08224000  1.0 0.0992225528
H  H24  1  0.64068000  0.26234000  0.08224000  1.0 0.0992225528
H  H25  1  0.78016000  0.21361000  0.49724000  1.0 0.1285221876
H  H26  1  0.21984000  0.78639000  0.49724000  1.0 0.1285221876
H  H27  1  0.28016000  0.28639000  0.49724000  1.0 0.1285221876
H  H28  1  0.71984000  0.71361000  0.49724000  1.0 0.1285221876
H  H29  1  0.78016000  0.71361000  0.99724000  1.0 0.1285221876
H  H30  1  0.21984000  0.28639000  0.99724000  1.0 0.1285221876
H  H31  1  0.28016000  0.78639000  0.99724000  1.0 0.1285221876
H  H32  1  0.71984000  0.21361000  0.99724000  1.0 0.1285221876
H  H33  1  0.83849000  0.38104000  0.47975000  1.0 0.0992225528
H  H34  1  0.16151000  0.61896000  0.47975000  1.0 0.0992225528
H  H35  1  0.33849000  0.11896000  0.47975000  1.0 0.0992225528
H  H36  1  0.66151000  0.88104000  0.47975000  1.0 0.0992225528
H  H37  1  0.83849000  0.88104000  0.97975000  1.0 0.0992225528
H  H38  1  0.16151000  0.11896000  0.97975000  1.0 0.0992225528
H  H39  1  0.33849000  0.61896000  0.97975000  1.0 0.0992225528
H  H40  1  0.66151000  0.38104000  0.97975000  1.0 0.0992225528
H  H41  1  0.81294000  0.23098000  0.07692000  1.0 0.0992225528
H  H42  1  0.18706000  0.76902000  0.07692000  1.0 0.0992225528
H  H43  1  0.31294000  0.26902000  0.07692000  1.0 0.0992225528
H  H44  1  0.68706000  0.73098000  0.07692000  1.0 0.0992225528
H  H45  1  0.81294000  0.73098000  0.57692000  1.0 0.0992225528
H  H46  1  0.18706000  0.26902000  0.57692000  1.0 0.0992225528
H  H47  1  0.31294000  0.76902000  0.57692000  1.0 0.0992225528
H  H48  1  0.68706000  0.23098000  0.57692000  1.0 0.0992225528
Ru  Ru1  1  0.87340000  0.34949000  0.78362000  1.0 0.2547379512
Ru  Ru2  1  0.12660000  0.65051000  0.78362000  1.0 0.2565851866
Ru  Ru3  1  0.37340000  0.15051000  0.78362000  1.0 0.2547379512
Ru  Ru4  1  0.62660000  0.84949000  0.78362000  1.0 0.2547379512
Ru  Ru5  1  0.87340000  0.84949000  0.28362000  1.0 0.2565851866
Ru  Ru6  1  0.12660000  0.15051000  0.28362000  1.0 0.2565851866
Ru  Ru7  1  0.37340000  0.65051000  0.28362000  1.0 0.2565851866
Ru  Ru8  1  0.62660000  0.34949000  0.28362000  1.0 0.2565851866
Ru  Ru9  1  0.85273000  0.29910000  0.27692000  1.0 0.2875567255
Ru  Ru10  1  0.14727000  0.70090000  0.27692000  1.0 0.2875567255
Ru  Ru11  1  0.35273000  0.20090000  0.27692000  1.0 0.2875567255
Ru  Ru12  1  0.64727000  0.79910000  0.27692000  1.0 0.2875567255
Ru  Ru13  1  0.85273000  0.79910000  0.77692000  1.0 0.3093842445
Ru  Ru14  1  0.14727000  0.20090000  0.77692000  1.0 0.3093842445
Ru  Ru15  1  0.35273000  0.70090000  0.77692000  1.0 0.3093842445
Ru  Ru16  1  0.64727000  0.29910000  0.77692000  1.0 0.3093842445
C  C1  1  0.75789000  0.33667000  0.82923000  1.0 0.2411606675
C  C2  1  0.24211000  0.66333000  0.82923000  1.0 0.2411606675
C  C3  1  0.25789000  0.16333000  0.82923000  1.0 0.2411606675
C  C4  1  0.74211000  0.83667000  0.82923000  1.0 0.2411606675
C  C5  1  0.75789000  0.83667000  0.32923000  1.0 0.2411606675
C  C6  1  0.24211000  0.16333000  0.32923000  1.0 0.2411606675
C  C7  1  0.25789000  0.66333000  0.32923000  1.0 0.2411606675
C  C8  1  0.74211000  0.33667000  0.32923000  1.0 0.2411606675
C  C9  1  0.79706000  0.39241000  0.95644000  1.0 0.1169895204
C  C10  1  0.20294000  0.60759000  0.95644000  1.0 0.1169895204
C  C11  1  0.29706000  0.10759000  0.95644000  1.0 0.1169895204
C  C12  1  0.70294000  0.89241000  0.95644000  1.0 0.1169895204
C  C13  1  0.79706000  0.89241000  0.45644000  1.0 0.1169895204
C  C14  1  0.20294000  0.10759000  0.45644000  1.0 0.1169895204
C  C15  1  0.29706000  0.60759000  0.45644000  1.0 0.1169895204
C  C16  1  0.70294000  0.39241000  0.45644000  1.0 0.1169895204
C  C17  1  0.74664000  0.40140000  0.99888000  1.0 -0.1591289602
C  C18  1  0.25336000  0.59860000  0.99888000  1.0 -0.1591289602
C  C19  1  0.24664000  0.09860000  0.99888000  1.0 -0.1591289602
C  C20  1  0.75336000  0.90140000  0.99888000  1.0 -0.1591289602
C  C21  1  0.74664000  0.90140000  0.49888000  1.0 -0.1591289602
C  C22  1  0.25336000  0.09860000  0.49888000  1.0 -0.1591289602
C  C23  1  0.24664000  0.59860000  0.49888000  1.0 -0.1591289602
C  C24  1  0.75336000  0.40140000  0.49888000  1.0 -0.1591289602
C  C25  1  0.76397000  0.30327000  0.73707000  1.0 0.2411606675
C  C26  1  0.23603000  0.69673000  0.73707000  1.0 0.2411606675
C  C27  1  0.26397000  0.19673000  0.73707000  1.0 0.2411606675
C  C28  1  0.73603000  0.80327000  0.73707000  1.0 0.2411606675
C  C29  1  0.76397000  0.80327000  0.23707000  1.0 0.2411606675
C  C30  1  0.23603000  0.19673000  0.23707000  1.0 0.2411606675
C  C31  1  0.26397000  0.69673000  0.23707000  1.0 0.2411606675
C  C32  1  0.73603000  0.30327000  0.23707000  1.0 0.2411606675
C  C33  1  0.81899000  0.26591000  0.61339000  1.0 0.1097582849
C  C34  1  0.18101000  0.73409000  0.61339000  1.0 0.1097582849
C  C35  1  0.31899000  0.23409000  0.61339000  1.0 0.1097582849
C  C36  1  0.68101000  0.76591000  0.61339000  1.0 0.1097582849
C  C37  1  0.81899000  0.76591000  0.11339000  1.0 0.1097582849
C  C38  1  0.18101000  0.23409000  0.11339000  1.0 0.1097582849
C  C39  1  0.31899000  0.73409000  0.11339000  1.0 0.1097582849
C  C40  1  0.68101000  0.26591000  0.11339000  1.0 0.1097582849
C  C41  1  0.77454000  0.23956000  0.56647000  1.0 -0.1591289602
C  C42  1  0.22546000  0.76044000  0.56647000  1.0 -0.1591289602
C  C43  1  0.27454000  0.26044000  0.56647000  1.0 -0.1591289602
C  C44  1  0.72546000  0.73956000  0.56647000  1.0 -0.1591289602
C  C45  1  0.77454000  0.73956000  0.06647000  1.0 -0.1591289602
C  C46  1  0.22546000  0.26044000  0.06647000  1.0 -0.1591289602
C  C47  1  0.27454000  0.76044000  0.06647000  1.0 -0.1591289602
C  C48  1  0.72546000  0.23956000  0.06647000  1.0 -0.1591289602
C  C49  1  0.85132000  0.42589000  0.70687000  1.0 -0.1086505079
C  C50  1  0.14868000  0.57411000  0.70687000  1.0 -0.1086505079
C  C51  1  0.35132000  0.07411000  0.70687000  1.0 -0.1086505079
C  C52  1  0.64868000  0.92589000  0.70687000  1.0 -0.1086505079
C  C53  1  0.85132000  0.92589000  0.20687000  1.0 -0.1086505079
C  C54  1  0.14868000  0.07411000  0.20687000  1.0 -0.1086505079
C  C55  1  0.35132000  0.57411000  0.20687000  1.0 -0.1086505079
C  C56  1  0.64868000  0.42589000  0.20687000  1.0 -0.1086505079
C  C57  1  0.91977000  0.39941000  0.86447000  1.0 0.2316840021
C  C58  1  0.08023000  0.60059000  0.86447000  1.0 0.2316840021
C  C59  1  0.41977000  0.10059000  0.86447000  1.0 0.2316840021
C  C60  1  0.58023000  0.89941000  0.86447000  1.0 0.2316840021
C  C61  1  0.91977000  0.89941000  0.36447000  1.0 0.2316840021
C  C62  1  0.08023000  0.10059000  0.36447000  1.0 0.2316840021
C  C63  1  0.41977000  0.60059000  0.36447000  1.0 0.2316840021
C  C64  1  0.58023000  0.39941000  0.36447000  1.0 0.2316840021
C  C65  1  0.93191000  0.33866000  0.68991000  1.0 0.1380084735
C  C66  1  0.06809000  0.66134000  0.68991000  1.0 0.1380084735
C  C67  1  0.43191000  0.16134000  0.68991000  1.0 0.1380084735
C  C68  1  0.56809000  0.83866000  0.68991000  1.0 0.1380084735
C  C69  1  0.93191000  0.83866000  0.18991000  1.0 0.1380084735
C  C70  1  0.06809000  0.16134000  0.18991000  1.0 0.1285221876
C  C71  1  0.43191000  0.66134000  0.18991000  1.0 0.1285221876
C  C72  1  0.56809000  0.33866000  0.18991000  1.0 0.1285221876
C  C73  1  0.89921000  0.27304000  0.85363000  1.0 0.0755779026
C  C74  1  0.10079000  0.72696000  0.85363000  1.0 0.0755779026
C  C75  1  0.39921000  0.22696000  0.85363000  1.0 0.0755779026
C  C76  1  0.60079000  0.77304000  0.85363000  1.0 0.0755779026
C  C77  1  0.89921000  0.77304000  0.35363000  1.0 0.0755779026
C  C78  1  0.10079000  0.22696000  0.35363000  1.0 0.0755779026
C  C79  1  0.39921000  0.72696000  0.35363000  1.0 0.0755779026
C  C80  1  0.60079000  0.27304000  0.35363000  1.0 0.0755779026
C  C81  1  0.79772000  0.37573000  0.45118000  1.0 0.1097582849
C  C82  1  0.20228000  0.62427000  0.45118000  1.0 0.1097582849
C  C83  1  0.29772000  0.12427000  0.45118000  1.0 0.1097582849
C  C84  1  0.70228000  0.87573000  0.45118000  1.0 0.1097582849
C  C85  1  0.79772000  0.87573000  0.95118000  1.0 0.1097582849
C  C86  1  0.20228000  0.12427000  0.95118000  1.0 0.1097582849
C  C87  1  0.29772000  0.62427000  0.95118000  1.0 0.1097582849
C  C88  1  0.70228000  0.37573000  0.95118000  1.0 0.1097582849
C  C89  1  0.77573000  0.24841000  0.10947000  1.0 0.0992225528
C  C90  1  0.22427000  0.75159000  0.10947000  1.0 0.0992225528
C  C91  1  0.27573000  0.25159000  0.10947000  1.0 0.0992225528
C  C92  1  0.72427000  0.74841000  0.10947000  1.0 0.0992225528
C  C93  1  0.77573000  0.74841000  0.60947000  1.0 0.0946859149
C  C94  1  0.22427000  0.25159000  0.60947000  1.0 0.0946859149
C  C95  1  0.27573000  0.75159000  0.60947000  1.0 0.0946859149
C  C96  1  0.72427000  0.24841000  0.60947000  1.0 0.0946859149
C  C97  1  0.86346000  0.37960000  0.20229000  1.0 -0.1086505079
C  C98  1  0.13654000  0.62040000  0.20229000  1.0 -0.1086505079
C  C99  1  0.36346000  0.12040000  0.20229000  1.0 -0.1086505079
C  C100  1  0.63654000  0.87960000  0.20229000  1.0 -0.1086505079
C  C101  1  0.86346000  0.87960000  0.70229000  1.0 -0.1086505079
C  C102  1  0.13654000  0.12040000  0.70229000  1.0 -0.1086505079
C  C103  1  0.36346000  0.62040000  0.70229000  1.0 -0.1086505079
C  C104  1  0.63654000  0.37960000  0.70229000  1.0 -0.1086505079
C  C105  1  0.89876000  0.25677000  0.18324000  1.0 0.1711737691
C  C106  1  0.10124000  0.74323000  0.18324000  1.0 0.1711737691
C  C107  1  0.39876000  0.24323000  0.18324000  1.0 0.1711737691
C  C108  1  0.60124000  0.75677000  0.18324000  1.0 0.1711737691
C  C109  1  0.89876000  0.75677000  0.68324000  1.0 0.1711737691
C  C110  1  0.10124000  0.24323000  0.68324000  1.0 0.1711737691
C  C111  1  0.39876000  0.74323000  0.68324000  1.0 0.1711737691
C  C112  1  0.60124000  0.25677000  0.68324000  1.0 0.1711737691
C  C113  1  0.91553000  0.31883000  0.35701000  1.0 0.1591917714
C  C114  1  0.08447000  0.68117000  0.35701000  1.0 0.1591917714
C  C115  1  0.41553000  0.18117000  0.35701000  1.0 0.1591917714
C  C116  1  0.58447000  0.81883000  0.35701000  1.0 0.1591917714
C  C117  1  0.91553000  0.81883000  0.85701000  1.0 0.1591917714
C  C118  1  0.08447000  0.18117000  0.85701000  1.0 0.1591917714
C  C119  1  0.41553000  0.68117000  0.85701000  1.0 0.1591917714
C  C120  1  0.58447000  0.31883000  0.85701000  1.0 0.1591917714
C  C121  1  0.84595000  0.21779000  0.34955000  1.0 -0.1243007166
C  C122  1  0.15405000  0.78221000  0.34955000  1.0 -0.1243007166
C  C123  1  0.34595000  0.28221000  0.34955000  1.0 -0.1243007166
C  C124  1  0.65405000  0.71779000  0.34955000  1.0 -0.1243007166
C  C125  1  0.84595000  0.71779000  0.84955000  1.0 -0.1243007166
C  C126  1  0.15405000  0.28221000  0.84955000  1.0 -0.1256019072
C  C127  1  0.34595000  0.78221000  0.84955000  1.0 -0.1243007166
C  C128  1  0.65405000  0.21779000  0.84955000  1.0 -0.1243007166
N  N1  1  0.80310000  0.36033000  0.87057000  1.0 -0.2190527869
N  N2  1  0.19690000  0.63967000  0.87057000  1.0 -0.2190527869
N  N3  1  0.30310000  0.13967000  0.87057000  1.0 -0.2190527869
N  N4  1  0.69690000  0.86033000  0.87057000  1.0 -0.2190527869
N  N5  1  0.80310000  0.86033000  0.37057000  1.0 -0.2190527869
N  N6  1  0.19690000  0.13967000  0.37057000  1.0 -0.2190527869
N  N7  1  0.30310000  0.63967000  0.37057000  1.0 -0.2190527869
N  N8  1  0.69690000  0.36033000  0.37057000  1.0 -0.2190527869
N  N9  1  0.81436000  0.29840000  0.69907000  1.0 -0.2278176434
N  N10  1  0.18564000  0.70160000  0.69907000  1.0 -0.2278176434
N  N11  1  0.31436000  0.20160000  0.69907000  1.0 -0.2278176434
N  N12  1  0.68564000  0.79840000  0.69907000  1.0 -0.2278176434
N  N13  1  0.81436000  0.79840000  0.19907000  1.0 -0.2278176434
N  N14  1  0.18564000  0.20160000  0.19907000  1.0 -0.2278176434
N  N15  1  0.31436000  0.70160000  0.19907000  1.0 -0.2278176434
N  N16  1  0.68564000  0.29840000  0.19907000  1.0 -0.2278176434
N  N17  1  0.83576000  0.46813000  0.66062000  1.0 -0.3273553671
N  N18  1  0.16424000  0.53187000  0.66062000  1.0 -0.3273553671
N  N19  1  0.33576000  0.03187000  0.66062000  1.0 -0.3273553671
N  N20  1  0.66424000  0.96813000  0.66062000  1.0 -0.3273553671
N  N21  1  0.83576000  0.96813000  0.16062000  1.0 -0.3273553671
N  N22  1  0.16424000  0.03187000  0.16062000  1.0 -0.3273553671
N  N23  1  0.33576000  0.53187000  0.16062000  1.0 -0.3273553671
N  N24  1  0.66424000  0.46813000  0.16062000  1.0 -0.3273553671
N  N25  1  0.94739000  0.43144000  0.91423000  1.0 -0.6605349453
N  N26  1  0.05261000  0.56856000  0.91423000  1.0 -0.6605349453
N  N27  1  0.44739000  0.06856000  0.91423000  1.0 -0.6605349453
N  N28  1  0.55261000  0.93144000  0.91423000  1.0 -0.6605349453
N  N29  1  0.94739000  0.93144000  0.41423000  1.0 -0.6605349453
N  N30  1  0.05261000  0.06856000  0.41423000  1.0 -0.6605349453
N  N31  1  0.44739000  0.56856000  0.41423000  1.0 -0.6605349453
N  N32  1  0.55261000  0.43144000  0.41423000  1.0 -0.6605349453
N  N33  1  0.03442000  0.16899000  0.12943000  1.0 -0.6023527803
N  N34  1  0.96558000  0.83101000  0.12943000  1.0 -0.6023527803
N  N35  1  0.53442000  0.33101000  0.12943000  1.0 -0.6023527803
N  N36  1  0.46558000  0.66899000  0.12943000  1.0 -0.6023527803
N  N37  1  0.03442000  0.66899000  0.62943000  1.0 -0.6023527803
N  N38  1  0.96558000  0.33101000  0.62943000  1.0 -0.6023527803
N  N39  1  0.53442000  0.83101000  0.62943000  1.0 -0.6023527803
N  N40  1  0.46558000  0.16899000  0.62943000  1.0 -0.6023527803
N  N41  1  0.91606000  0.22848000  0.89195000  1.0 -0.5830425244
N  N42  1  0.08394000  0.77152000  0.89195000  1.0 -0.5830425244
N  N43  1  0.41606000  0.27152000  0.89195000  1.0 -0.5830425244
N  N44  1  0.58394000  0.72848000  0.89195000  1.0 -0.5830425244
N  N45  1  0.91606000  0.72848000  0.39195000  1.0 -0.5830425244
N  N46  1  0.08394000  0.27152000  0.39195000  1.0 -0.5850843908
N  N47  1  0.41606000  0.77152000  0.39195000  1.0 -0.5850843908
N  N48  1  0.58394000  0.22848000  0.39195000  1.0 -0.5830425244
N  N49  1  0.79260000  0.34247000  0.36637000  1.0 -0.2278176434
N  N50  1  0.20740000  0.65753000  0.36637000  1.0 -0.2278176434
N  N51  1  0.29260000  0.15753000  0.36637000  1.0 -0.2278176434
N  N52  1  0.70740000  0.84247000  0.36637000  1.0 -0.2278176434
N  N53  1  0.79260000  0.84247000  0.86637000  1.0 -0.2278176434
N  N54  1  0.20740000  0.15753000  0.86637000  1.0 -0.2278176434
N  N55  1  0.29260000  0.65753000  0.86637000  1.0 -0.2278176434
N  N56  1  0.70740000  0.34247000  0.86637000  1.0 -0.2278176434
N  N57  1  0.78144000  0.28025000  0.19569000  1.0 -0.2190527869
N  N58  1  0.21856000  0.71975000  0.19569000  1.0 -0.2190527869
N  N59  1  0.28144000  0.21975000  0.19569000  1.0 -0.2190527869
N  N60  1  0.71856000  0.78025000  0.19569000  1.0 -0.2190527869
N  N61  1  0.78144000  0.78025000  0.69569000  1.0 -0.2190527869
N  N62  1  0.21856000  0.21975000  0.69569000  1.0 -0.2190527869
N  N63  1  0.28144000  0.71975000  0.69569000  1.0 -0.2190527869
N  N64  1  0.71856000  0.28025000  0.69569000  1.0 -0.2190527869
N  N65  1  0.86925000  0.42619000  0.15938000  1.0 -0.370424402
N  N66  1  0.13075000  0.57381000  0.15938000  1.0 -0.370424402
N  N67  1  0.36925000  0.07381000  0.15938000  1.0 -0.370424402
N  N68  1  0.63075000  0.92619000  0.15938000  1.0 -0.370424402
N  N69  1  0.86925000  0.92619000  0.65938000  1.0 -0.370424402
N  N70  1  0.13075000  0.07381000  0.65938000  1.0 -0.370424402
N  N71  1  0.36925000  0.57381000  0.65938000  1.0 -0.370424402
N  N72  1  0.63075000  0.42619000  0.65938000  1.0 -0.370424402
N  N73  1  0.92288000  0.22903000  0.12283000  1.0 -0.6115997895
N  N74  1  0.07712000  0.77097000  0.12283000  1.0 -0.6115997895
N  N75  1  0.42288000  0.27097000  0.12283000  1.0 -0.6115997895
N  N76  1  0.57712000  0.72903000  0.12283000  1.0 -0.6115997895
N  N77  1  0.92288000  0.72903000  0.62283000  1.0 -0.6115997895
N  N78  1  0.07712000  0.27097000  0.62283000  1.0 -0.6162564279
N  N79  1  0.42288000  0.77097000  0.62283000  1.0 -0.6162564279
N  N80  1  0.57712000  0.22903000  0.62283000  1.0 -0.6115997895
N  N81  1  0.04602000  0.16872000  0.90422000  1.0 -0.6115997895
N  N82  1  0.95398000  0.83128000  0.90422000  1.0 -0.6115997895
N  N83  1  0.54602000  0.33128000  0.90422000  1.0 -0.6115997895
N  N84  1  0.45398000  0.66872000  0.90422000  1.0 -0.6115997895
N  N85  1  0.04602000  0.66872000  0.40422000  1.0 -0.6115997895
N  N86  1  0.95398000  0.33128000  0.40422000  1.0 -0.6115997895
N  N87  1  0.54602000  0.83128000  0.40422000  1.0 -0.6115997895
N  N88  1  0.45398000  0.16872000  0.40422000  1.0 -0.6115997895
N  N89  1  0.84143000  0.17077000  0.39178000  1.0 -0.3418639498
N  N90  1  0.15857000  0.82923000  0.39178000  1.0 -0.3418639498
N  N91  1  0.34143000  0.32923000  0.39178000  1.0 -0.3418639498
N  N92  1  0.65857000  0.67077000  0.39178000  1.0 -0.3418639498
N  N93  1  0.84143000  0.67077000  0.89178000  1.0 -0.3418639498
N  N94  1  0.15857000  0.32923000  0.89178000  1.0 -0.3418639498
N  N95  1  0.34143000  0.82923000  0.89178000  1.0 -0.3418639498
N  N96  1  0.65857000  0.17077000  0.89178000  1.0 -0.3418639498
