# DDEC6 charges by PACMAN v1.1 (https://github.com/mtap-research/PACMAN-charge/)
data_SEHNEZ_ion_pacman
_symmetry_space_group_name_H-M   'P 1'
_cell_length_a   12.88950000
_cell_length_b   12.88950000
_cell_length_c   24.98560000
_cell_angle_alpha   90.00000000
_cell_angle_beta   90.00000000
_cell_angle_gamma   116.92900000
_symmetry_Int_Tables_number   1
_chemical_formula_structural   Yb3H12Ru4C32(N13O12)2
_chemical_formula_sum   'Yb6 H24 Ru8 C64 N52 O48'
_cell_volume   3700.97882718
_cell_formula_units_Z   2
loop_
 _symmetry_equiv_pos_site_id
 _symmetry_equiv_pos_as_xyz
  1  'x, y, z'
loop_
 _atom_site_type_symbol
 _atom_site_label
 _atom_site_symmetry_multiplicity
 _atom_site_fract_x
 _atom_site_fract_y
 _atom_site_fract_z
 _atom_site_occupancy
 _atom_site_charge
Yb  Yb1  1  0.17288000  0.82884000  0.03149000  1.0 1.8332214873
Yb  Yb2  1  0.82884000  0.17288000  0.96851000  1.0 1.8332214873
Yb  Yb3  1  0.32884000  0.67288000  0.53149000  1.0 1.8332214873
Yb  Yb4  1  0.67288000  0.32884000  0.46851000  1.0 1.8332214873
Yb  Yb5  1  0.50063000  0.50063000  0.00000000  1.0 2.1134623508
Yb  Yb6  1  0.00063000  0.00063000  0.50000000  1.0 2.115158699
H  H1  1  0.57780000  0.39300000  0.82720000  1.0 0.1705551714
H  H2  1  0.39300000  0.57780000  0.17280000  1.0 0.1705551714
H  H3  1  0.89300000  0.07780000  0.32720000  1.0 0.1705551714
H  H4  1  0.07780000  0.89300000  0.67280000  1.0 0.1705551714
H  H5  1  0.63370000  0.47790000  0.74330000  1.0 0.1980753462
H  H6  1  0.47790000  0.63370000  0.25670000  1.0 0.1980753462
H  H7  1  0.97790000  0.13370000  0.24330000  1.0 0.1980753462
H  H8  1  0.13370000  0.97790000  0.75670000  1.0 0.1980753462
H  H9  1  0.32200000  0.84660000  0.85200000  1.0 0.1625575717
H  H10  1  0.84660000  0.32200000  0.14800000  1.0 0.1625575717
H  H11  1  0.34660000  0.82200000  0.35200000  1.0 0.1625575717
H  H12  1  0.82200000  0.34660000  0.64800000  1.0 0.1625575717
H  H13  1  0.28800000  0.72640000  0.77800000  1.0 0.1904167193
H  H14  1  0.72640000  0.28800000  0.22200000  1.0 0.1904167193
H  H15  1  0.22640000  0.78800000  0.27800000  1.0 0.1904167193
H  H16  1  0.78800000  0.22640000  0.72200000  1.0 0.1904167193
H  H17  1  0.59820000  0.35920000  0.66810000  1.0 0.1705551714
H  H18  1  0.35920000  0.59820000  0.33190000  1.0 0.1705551714
H  H19  1  0.85920000  0.09820000  0.16810000  1.0 0.1705551714
H  H20  1  0.09820000  0.85920000  0.83190000  1.0 0.1705551714
H  H21  1  0.34440000  0.81120000  0.69320000  1.0 0.1535630023
H  H22  1  0.81120000  0.34440000  0.30680000  1.0 0.1535630023
H  H23  1  0.31120000  0.84440000  0.19320000  1.0 0.1535630023
H  H24  1  0.84440000  0.31120000  0.80680000  1.0 0.1535630023
Ru  Ru1  1  0.43120000  0.12760000  0.87128000  1.0 0.1904167193
Ru  Ru2  1  0.12760000  0.43120000  0.12872000  1.0 0.1904167193
Ru  Ru3  1  0.62760000  0.93120000  0.37128000  1.0 0.1904167193
Ru  Ru4  1  0.93120000  0.62760000  0.62872000  1.0 0.1904167193
Ru  Ru5  1  0.47806000  0.07556000  0.64833000  1.0 0.239400025
Ru  Ru6  1  0.07556000  0.47806000  0.35167000  1.0 0.239400025
Ru  Ru7  1  0.57556000  0.97806000  0.14833000  1.0 0.239400025
Ru  Ru8  1  0.97806000  0.57556000  0.85167000  1.0 0.239400025
C  C1  1  0.49420000  0.16640000  0.75754000  1.0 0.2868626486
C  C2  1  0.16640000  0.49420000  0.24246000  1.0 0.2868626486
C  C3  1  0.66640000  0.99420000  0.25754000  1.0 0.2868626486
C  C4  1  0.99420000  0.66640000  0.74246000  1.0 0.2868626486
C  C5  1  0.56300000  0.34500000  0.79650000  1.0 0.1535630023
C  C6  1  0.34500000  0.56300000  0.20350000  1.0 0.1535630023
C  C7  1  0.84500000  0.06300000  0.29650000  1.0 0.1535630023
C  C8  1  0.06300000  0.84500000  0.70350000  1.0 0.1535630023
C  C9  1  0.59680000  0.39560000  0.74698000  1.0 -0.1114928317
C  C10  1  0.39560000  0.59680000  0.25302000  1.0 -0.1114928317
C  C11  1  0.89560000  0.09680000  0.24698000  1.0 -0.1114928317
C  C12  1  0.09680000  0.89560000  0.75302000  1.0 -0.1114928317
C  C13  1  0.43400000  0.03840000  0.76376000  1.0 0.2750500362
C  C14  1  0.03840000  0.43400000  0.23624000  1.0 0.2750500362
C  C15  1  0.53840000  0.93400000  0.26376000  1.0 0.2750500362
C  C16  1  0.93400000  0.53840000  0.73624000  1.0 0.2745642881
C  C17  1  0.34620000  0.88040000  0.81760000  1.0 0.1535630023
C  C18  1  0.88040000  0.34620000  0.18240000  1.0 0.1535630023
C  C19  1  0.38040000  0.84620000  0.31760000  1.0 0.1535630023
C  C20  1  0.84620000  0.38040000  0.68240000  1.0 0.1535630023
C  C21  1  0.32530000  0.80870000  0.77400000  1.0 -0.1300441142
C  C22  1  0.80870000  0.32530000  0.22600000  1.0 -0.1300441142
C  C23  1  0.30870000  0.82530000  0.27400000  1.0 -0.1300441142
C  C24  1  0.82530000  0.30870000  0.72600000  1.0 -0.1300441142
C  C25  1  0.27990000  0.13070000  0.84920000  1.0 -0.0446635713
C  C26  1  0.13070000  0.27990000  0.15080000  1.0 -0.0446635713
C  C27  1  0.63070000  0.77990000  0.34920000  1.0 -0.0446635713
C  C28  1  0.77990000  0.63070000  0.65080000  1.0 -0.0446635713
C  C29  1  0.46950000  0.26490000  0.91770000  1.0 0.1824506852
C  C30  1  0.26490000  0.46950000  0.08230000  1.0 0.1824506852
C  C31  1  0.76490000  0.96950000  0.41770000  1.0 0.1824506852
C  C32  1  0.96950000  0.76490000  0.58230000  1.0 0.1824506852
C  C33  1  0.34950000  0.02130000  0.93090000  1.0 0.1406847793
C  C34  1  0.02130000  0.34950000  0.06910000  1.0 0.1406847793
C  C35  1  0.52130000  0.84950000  0.43090000  1.0 0.1406847793
C  C36  1  0.84950000  0.52130000  0.56910000  1.0 0.1406847793
C  C37  1  0.57820000  0.12400000  0.89770000  1.0 0.1297420166
C  C38  1  0.12400000  0.57820000  0.10230000  1.0 0.1297420166
C  C39  1  0.62400000  0.07820000  0.39770000  1.0 0.1297420166
C  C40  1  0.07820000  0.62400000  0.60230000  1.0 0.1297420166
C  C41  1  0.57610000  0.32510000  0.70260000  1.0 0.1297420166
C  C42  1  0.32510000  0.57610000  0.29740000  1.0 0.1297420166
C  C43  1  0.82510000  0.07610000  0.20260000  1.0 0.1297420166
C  C44  1  0.07610000  0.82510000  0.79740000  1.0 0.1297420166
C  C45  1  0.36010000  0.85930000  0.72400000  1.0 0.1406847793
C  C46  1  0.85930000  0.36010000  0.27600000  1.0 0.1406847793
C  C47  1  0.35930000  0.86010000  0.22400000  1.0 0.1406847793
C  C48  1  0.86010000  0.35930000  0.77600000  1.0 0.1406847793
C  C49  1  0.32440000  0.08220000  0.63927000  1.0 -0.026523395
C  C50  1  0.08220000  0.32440000  0.36073000  1.0 -0.026523395
C  C51  1  0.58220000  0.82440000  0.13927000  1.0 -0.026523395
C  C52  1  0.82440000  0.58220000  0.86073000  1.0 -0.026523395
C  C53  1  0.43850000  0.92550000  0.10140000  1.0 0.1705551714
C  C54  1  0.92550000  0.43850000  0.89860000  1.0 0.1705551714
C  C55  1  0.42550000  0.93850000  0.60140000  1.0 0.1705551714
C  C56  1  0.93850000  0.42550000  0.39860000  1.0 0.1705551714
C  C57  1  0.04070000  0.67970000  0.91500000  1.0 0.1625575717
C  C58  1  0.67970000  0.04070000  0.08500000  1.0 0.1625575717
C  C59  1  0.17970000  0.54070000  0.41500000  1.0 0.1625575717
C  C60  1  0.54070000  0.17970000  0.58500000  1.0 0.1625575717
C  C61  1  0.63200000  0.06680000  0.65560000  1.0 -0.0146379028
C  C62  1  0.06680000  0.63200000  0.34440000  1.0 -0.0146379028
C  C63  1  0.56680000  0.13200000  0.15560000  1.0 -0.0146379028
C  C64  1  0.13200000  0.56680000  0.84440000  1.0 -0.0146379028
N  N1  1  0.50916000  0.22824000  0.80226000  1.0 -0.1706178733
N  N2  1  0.22824000  0.50916000  0.19774000  1.0 -0.1706178733
N  N3  1  0.72824000  0.00916000  0.30226000  1.0 -0.1706178733
N  N4  1  0.00916000  0.72824000  0.69774000  1.0 -0.1706178733
N  N5  1  0.39952000  0.99588000  0.81306000  1.0 -0.1706178733
N  N6  1  0.99588000  0.39952000  0.18694000  1.0 -0.1706178733
N  N7  1  0.49588000  0.89952000  0.31306000  1.0 -0.1706178733
N  N8  1  0.89952000  0.49588000  0.68694000  1.0 -0.1706178733
N  N9  1  0.19480000  0.13340000  0.83710000  1.0 -0.2739343051
N  N10  1  0.13340000  0.19480000  0.16290000  1.0 -0.2739343051
N  N11  1  0.63340000  0.69480000  0.33710000  1.0 -0.2739343051
N  N12  1  0.69480000  0.63340000  0.66290000  1.0 -0.2739343051
N  N13  1  0.49260000  0.34680000  0.94328000  1.0 -0.4796677857
N  N14  1  0.34680000  0.49260000  0.05672000  1.0 -0.4796677857
N  N15  1  0.84680000  0.99260000  0.44328000  1.0 -0.4796677857
N  N16  1  0.99260000  0.84680000  0.55672000  1.0 -0.4796677857
N  N17  1  0.30270000  0.95990000  0.96649000  1.0 -0.4593842645
N  N18  1  0.95990000  0.30270000  0.03351000  1.0 -0.4593842645
N  N19  1  0.45990000  0.80270000  0.46649000  1.0 -0.4593842645
N  N20  1  0.80270000  0.45990000  0.53351000  1.0 -0.4593842645
N  N21  1  0.65900000  0.12300000  0.91630000  1.0 -0.4544591983
N  N22  1  0.12300000  0.65900000  0.08370000  1.0 -0.4593842645
N  N23  1  0.62300000  0.15900000  0.41630000  1.0 -0.4593842645
N  N24  1  0.15900000  0.62300000  0.58370000  1.0 -0.4593842645
N  N25  1  0.52449000  0.20751000  0.70772000  1.0 -0.1795001035
N  N26  1  0.20751000  0.52449000  0.29228000  1.0 -0.1795001035
N  N27  1  0.70751000  0.02449000  0.20772000  1.0 -0.1795001035
N  N28  1  0.02449000  0.70751000  0.79228000  1.0 -0.1795001035
N  N29  1  0.41605000  0.97595000  0.71855000  1.0 -0.1576581378
N  N30  1  0.97595000  0.41605000  0.28145000  1.0 -0.1576581378
N  N31  1  0.47595000  0.91605000  0.21855000  1.0 -0.1576581378
N  N32  1  0.91605000  0.47595000  0.78145000  1.0 -0.1576581378
N  N33  1  0.23860000  0.08840000  0.63410000  1.0 -0.2290826668
N  N34  1  0.08840000  0.23860000  0.36590000  1.0 -0.2290826668
N  N35  1  0.58840000  0.73860000  0.13410000  1.0 -0.2290826668
N  N36  1  0.73860000  0.58840000  0.86590000  1.0 -0.2290826668
N  N37  1  0.35300000  0.89820000  0.07640000  1.0 -0.4857240696
N  N38  1  0.89820000  0.35300000  0.92360000  1.0 -0.4796677857
N  N39  1  0.39820000  0.85300000  0.57640000  1.0 -0.4796677857
N  N40  1  0.85300000  0.39820000  0.42360000  1.0 -0.4857240696
N  N41  1  0.07900000  0.73760000  0.95140000  1.0 -0.4593842645
N  N42  1  0.73760000  0.07900000  0.04860000  1.0 -0.4593842645
N  N43  1  0.23760000  0.57900000  0.45140000  1.0 -0.4593842645
N  N44  1  0.57900000  0.23760000  0.54860000  1.0 -0.4593842645
N  N45  1  0.71670000  0.05950000  0.65810000  1.0 -0.2290826668
N  N46  1  0.05950000  0.71670000  0.34190000  1.0 -0.2290826668
N  N47  1  0.55950000  0.21670000  0.15810000  1.0 -0.2290826668
N  N48  1  0.21670000  0.55950000  0.84190000  1.0 -0.2290826668
N  N49  1  0.53710000  0.73550000  0.73120000  1.0 0.7609463553
N  N50  1  0.73550000  0.53710000  0.26880000  1.0 0.7609463553
N  N51  1  0.23550000  0.03710000  0.23120000  1.0 0.7609463553
N  N52  1  0.03710000  0.23550000  0.76880000  1.0 0.7609463553
O  O1  1  0.27686000  0.72774000  0.99781000  1.0 -0.3176325191
O  O2  1  0.72774000  0.27686000  0.00219000  1.0 -0.3176325191
O  O3  1  0.22774000  0.77686000  0.49781000  1.0 -0.3176325191
O  O4  1  0.77686000  0.22774000  0.50219000  1.0 -0.3176325191
O  O5  1  0.97240000  0.75840000  0.04740000  1.0 -0.4593842645
O  O6  1  0.75840000  0.97240000  0.95260000  1.0 -0.4593842645
O  O7  1  0.25840000  0.47240000  0.54740000  1.0 -0.4593842645
O  O8  1  0.47240000  0.25840000  0.45260000  1.0 -0.4593842645
O  O9  1  0.15680000  0.92360000  0.10500000  1.0 0.2605505917
O  O10  1  0.92360000  0.15680000  0.89500000  1.0 0.2605505917
O  O11  1  0.42360000  0.65680000  0.60500000  1.0 0.2605505917
O  O12  1  0.65680000  0.42360000  0.39500000  1.0 0.2605505917
O  O13  1  0.09300000  0.95360000  0.00280000  1.0 -0.0863604203
O  O14  1  0.95360000  0.09300000  0.99720000  1.0 -0.084494852
O  O15  1  0.45360000  0.59300000  0.50280000  1.0 -0.0863604203
O  O16  1  0.59300000  0.45360000  0.49720000  1.0 -0.0863604203
O  O17  1  0.33250000  0.43850000  0.94958000  1.0 -0.5096965809
O  O18  1  0.43850000  0.33250000  0.05042000  1.0 -0.5096965809
O  O19  1  0.93850000  0.83250000  0.44958000  1.0 -0.5096965809
O  O20  1  0.83250000  0.93850000  0.55042000  1.0 -0.5096965809
O  O21  1  0.56112000  0.60008000  0.91937000  1.0 -0.4136200924
O  O22  1  0.60008000  0.56112000  0.08063000  1.0 -0.4136200924
O  O23  1  0.10008000  0.06112000  0.41937000  1.0 -0.4189316312
O  O24  1  0.06112000  0.10008000  0.58063000  1.0 -0.4189316312
O  O25  1  0.69625000  0.54215000  0.98549000  1.0 -0.4348447104
O  O26  1  0.54215000  0.69625000  0.01451000  1.0 -0.4409207866
O  O27  1  0.04215000  0.19625000  0.48549000  1.0 -0.4409207866
O  O28  1  0.19625000  0.04215000  0.51451000  1.0 -0.4409207866
O  O29  1  0.85840000  0.13400000  0.87540000  1.0 0.2075473438
O  O30  1  0.13400000  0.85840000  0.12460000  1.0 0.2075473438
O  O31  1  0.63400000  0.35840000  0.37540000  1.0 0.2075473438
O  O32  1  0.35840000  0.63400000  0.62460000  1.0 0.2075473438
O  O33  1  0.00640000  0.16940000  0.95920000  1.0 0.0430161134
O  O34  1  0.16940000  0.00640000  0.04080000  1.0 0.0430161134
O  O35  1  0.66940000  0.50640000  0.45920000  1.0 0.0430161134
O  O36  1  0.50640000  0.66940000  0.54080000  1.0 0.0430161134
O  O37  1  0.59970000  0.81630000  0.77870000  1.0 -0.4409207866
O  O38  1  0.44650000  0.62670000  0.73690000  1.0 -0.4189316312
O  O39  1  0.56320000  0.77860000  0.68140000  1.0 -0.3980330308
O  O40  1  0.81630000  0.59970000  0.22130000  1.0 -0.4409207866
O  O41  1  0.62670000  0.44650000  0.26310000  1.0 -0.4189316312
O  O42  1  0.77860000  0.56320000  0.31860000  1.0 -0.3980330308
O  O43  1  0.31630000  0.09970000  0.27870000  1.0 -0.4409207866
O  O44  1  0.12670000  0.94650000  0.23690000  1.0 -0.4189316312
O  O45  1  0.27860000  0.06320000  0.18140000  1.0 -0.3980330308
O  O46  1  0.09970000  0.31630000  0.72130000  1.0 -0.4409207866
O  O47  1  0.94650000  0.12670000  0.76310000  1.0 -0.4189316312
O  O48  1  0.06320000  0.27860000  0.81860000  1.0 -0.3980330308
