# DDEC6 charges by PACMAN v1.1 (https://github.com/mtap-research/PACMAN-charge/)
data_SEHNID_ion_pacman
_symmetry_space_group_name_H-M   'P 1'
_cell_length_a   13.02330000
_cell_length_b   13.02330000
_cell_length_c   25.16000000
_cell_angle_alpha   90.00000000
_cell_angle_beta   90.00000000
_cell_angle_gamma   116.92900000
_symmetry_Int_Tables_number   1
_chemical_formula_structural   Eu3H12Ru4C32(N13O11)2
_chemical_formula_sum   'Eu6 H24 Ru8 C64 N52 O44'
_cell_volume   3804.58597403
_cell_formula_units_Z   2
loop_
 _symmetry_equiv_pos_site_id
 _symmetry_equiv_pos_as_xyz
  1  'x, y, z'
loop_
 _atom_site_type_symbol
 _atom_site_label
 _atom_site_symmetry_multiplicity
 _atom_site_fract_x
 _atom_site_fract_y
 _atom_site_fract_z
 _atom_site_occupancy
 _atom_site_charge
Eu  Eu1  1  0.31112000  0.65402000  0.96695000  1.0 1.9876164853
Eu  Eu2  1  0.65402000  0.31112000  0.03305000  1.0 1.9876164853
Eu  Eu3  1  0.15402000  0.81112000  0.46695000  1.0 1.9848037421
Eu  Eu4  1  0.81112000  0.15402000  0.53305000  1.0 1.9876164853
Eu  Eu5  1  0.98389000  0.98389000  0.00000000  1.0 2.1439941585
Eu  Eu6  1  0.48389000  0.48389000  0.50000000  1.0 2.1491158664
H  H1  1  0.05980000  0.87240000  0.82680000  1.0 0.1800499009
H  H2  1  0.87240000  0.05980000  0.17320000  1.0 0.1800499009
H  H3  1  0.37240000  0.55980000  0.32680000  1.0 0.1800499009
H  H4  1  0.55980000  0.37240000  0.67320000  1.0 0.1800499009
H  H5  1  0.11670000  0.95630000  0.74440000  1.0 0.2084330678
H  H6  1  0.95630000  0.11670000  0.25560000  1.0 0.2084330678
H  H7  1  0.45630000  0.61670000  0.24440000  1.0 0.2084330678
H  H8  1  0.61670000  0.45630000  0.75560000  1.0 0.2084330678
H  H9  1  0.08020000  0.84040000  0.67030000  1.0 0.1800499009
H  H10  1  0.84040000  0.08020000  0.32970000  1.0 0.1800499009
H  H11  1  0.34040000  0.58020000  0.17030000  1.0 0.1800499009
H  H12  1  0.58020000  0.34040000  0.82970000  1.0 0.1800499009
H  H13  1  0.80710000  0.33350000  0.85040000  1.0 0.1723213513
H  H14  1  0.33350000  0.80710000  0.14960000  1.0 0.1723213513
H  H15  1  0.83350000  0.30710000  0.35040000  1.0 0.1723213513
H  H16  1  0.30710000  0.83350000  0.64960000  1.0 0.1723213513
H  H17  1  0.77390000  0.21530000  0.77740000  1.0 0.2016440838
H  H18  1  0.21530000  0.77390000  0.22260000  1.0 0.2016440838
H  H19  1  0.71530000  0.27390000  0.27740000  1.0 0.2016440838
H  H20  1  0.27390000  0.71530000  0.72260000  1.0 0.2016440838
H  H21  1  0.83040000  0.29920000  0.69390000  1.0 0.1723213513
H  H22  1  0.29920000  0.83040000  0.30610000  1.0 0.1723213513
H  H23  1  0.79920000  0.33040000  0.19390000  1.0 0.1723213513
H  H24  1  0.33040000  0.79920000  0.80610000  1.0 0.1723213513
Ru  Ru1  1  0.95776000  0.56058000  0.64885000  1.0 0.2557559371
Ru  Ru2  1  0.56058000  0.95776000  0.35115000  1.0 0.2540908366
Ru  Ru3  1  0.06058000  0.45776000  0.14885000  1.0 0.2540908366
Ru  Ru4  1  0.45776000  0.06058000  0.85115000  1.0 0.2557559371
Ru  Ru5  1  0.91205000  0.60975000  0.87055000  1.0 0.1723213513
Ru  Ru6  1  0.60975000  0.91205000  0.12945000  1.0 0.1723213513
Ru  Ru7  1  0.10975000  0.41205000  0.37055000  1.0 0.1723213513
Ru  Ru8  1  0.41205000  0.10975000  0.62945000  1.0 0.1723213513
C  C1  1  0.97380000  0.65000000  0.75780000  1.0 0.2896657049
C  C2  1  0.65000000  0.97380000  0.24220000  1.0 0.2896657049
C  C3  1  0.15000000  0.47380000  0.25780000  1.0 0.2896657049
C  C4  1  0.47380000  0.15000000  0.74220000  1.0 0.2896657049
C  C5  1  0.04500000  0.82600000  0.79680000  1.0 0.1591425411
C  C6  1  0.82600000  0.04500000  0.20320000  1.0 0.1591425411
C  C7  1  0.32600000  0.54500000  0.29680000  1.0 0.1591425411
C  C8  1  0.54500000  0.32600000  0.70320000  1.0 0.1591425411
C  C9  1  0.07940000  0.87660000  0.74780000  1.0 -0.0999999508
C  C10  1  0.87660000  0.07940000  0.25220000  1.0 -0.0999999508
C  C11  1  0.37660000  0.57940000  0.24780000  1.0 -0.0999999508
C  C12  1  0.57940000  0.37660000  0.75220000  1.0 -0.0999999508
C  C13  1  0.05780000  0.80700000  0.70370000  1.0 0.1377493119
C  C14  1  0.80700000  0.05780000  0.29630000  1.0 0.1377493119
C  C15  1  0.30700000  0.55780000  0.20370000  1.0 0.1377493119
C  C16  1  0.55780000  0.30700000  0.79630000  1.0 0.1377493119
C  C17  1  0.91490000  0.52350000  0.76350000  1.0 0.2814768426
C  C18  1  0.52350000  0.91490000  0.23650000  1.0 0.2814768426
C  C19  1  0.02350000  0.41490000  0.26350000  1.0 0.2814768426
C  C20  1  0.41490000  0.02350000  0.73650000  1.0 0.2814768426
C  C21  1  0.82970000  0.36610000  0.81690000  1.0 0.1591425411
C  C22  1  0.36610000  0.82970000  0.18310000  1.0 0.1591425411
C  C23  1  0.86610000  0.32970000  0.31690000  1.0 0.1591425411
C  C24  1  0.32970000  0.86610000  0.68310000  1.0 0.1591425411
C  C25  1  0.80960000  0.29500000  0.77350000  1.0 -0.1255566717
C  C26  1  0.29500000  0.80960000  0.22650000  1.0 -0.1255566717
C  C27  1  0.79500000  0.30960000  0.27350000  1.0 -0.1255566717
C  C28  1  0.30960000  0.79500000  0.72650000  1.0 -0.1255566717
C  C29  1  0.84420000  0.34560000  0.72380000  1.0 0.1500362813
C  C30  1  0.34560000  0.84420000  0.27620000  1.0 0.1500362813
C  C31  1  0.84560000  0.34420000  0.22380000  1.0 0.1500362813
C  C32  1  0.34420000  0.84560000  0.77620000  1.0 0.1500362813
C  C33  1  0.11140000  0.55260000  0.65530000  1.0 -0.0045225459
C  C34  1  0.55260000  0.11140000  0.34470000  1.0 -0.0045225459
C  C35  1  0.05260000  0.61140000  0.15530000  1.0 -0.0045225459
C  C36  1  0.61140000  0.05260000  0.84470000  1.0 -0.0045225459
C  C37  1  0.40470000  0.92510000  0.89800000  1.0 0.1800499009
C  C38  1  0.92510000  0.40470000  0.10200000  1.0 0.190600872
C  C39  1  0.42510000  0.90470000  0.39800000  1.0 0.1800499009
C  C40  1  0.90470000  0.42510000  0.60200000  1.0 0.1800499009
C  C41  1  0.16390000  0.51850000  0.08640000  1.0 0.1800499009
C  C42  1  0.51850000  0.16390000  0.91360000  1.0 0.1723213513
C  C43  1  0.01850000  0.66390000  0.58640000  1.0 0.1723213513
C  C44  1  0.66390000  0.01850000  0.41360000  1.0 0.1723213513
C  C45  1  0.80590000  0.56670000  0.64110000  1.0 -0.027325723
C  C46  1  0.56670000  0.80590000  0.35890000  1.0 -0.027325723
C  C47  1  0.06670000  0.30590000  0.14110000  1.0 -0.027325723
C  C48  1  0.30590000  0.06670000  0.85890000  1.0 -0.027325723
C  C49  1  0.05580000  0.60340000  0.89630000  1.0 0.1377493119
C  C50  1  0.60340000  0.05580000  0.10370000  1.0 0.1377493119
C  C51  1  0.10340000  0.55580000  0.39630000  1.0 0.1377493119
C  C52  1  0.55580000  0.10340000  0.60370000  1.0 0.1377493119
C  C53  1  0.83190000  0.50450000  0.93000000  1.0 0.1591425411
C  C54  1  0.50450000  0.83190000  0.07000000  1.0 0.1591425411
C  C55  1  0.00450000  0.33190000  0.43000000  1.0 0.1591425411
C  C56  1  0.33190000  0.00450000  0.57000000  1.0 0.1591425411
C  C57  1  0.95160000  0.74560000  0.91660000  1.0 0.190600872
C  C58  1  0.74560000  0.95160000  0.08340000  1.0 0.190600872
C  C59  1  0.24560000  0.45160000  0.41660000  1.0 0.190600872
C  C60  1  0.45160000  0.24560000  0.58340000  1.0 0.190600872
C  C61  1  0.76120000  0.61040000  0.84900000  1.0 -0.0236058753
C  C62  1  0.61040000  0.76120000  0.15100000  1.0 -0.0236058753
C  C63  1  0.11040000  0.26120000  0.34900000  1.0 -0.0236058753
C  C64  1  0.26120000  0.11040000  0.65100000  1.0 -0.0236058753
N  N1  1  0.99020000  0.71080000  0.80229000  1.0 -0.1584833968
N  N2  1  0.71080000  0.99020000  0.19771000  1.0 -0.1584833968
N  N3  1  0.21080000  0.49020000  0.30229000  1.0 -0.1584833968
N  N4  1  0.49020000  0.21080000  0.69771000  1.0 -0.1584833968
N  N5  1  0.00450000  0.69050000  0.70818000  1.0 -0.1655986101
N  N6  1  0.69050000  0.00450000  0.29182000  1.0 -0.1655986101
N  N7  1  0.19050000  0.50450000  0.20818000  1.0 -0.1655986101
N  N8  1  0.50450000  0.19050000  0.79182000  1.0 -0.1655986101
N  N9  1  0.88070000  0.48010000  0.81222000  1.0 -0.1584833968
N  N10  1  0.48010000  0.88070000  0.18778000  1.0 -0.1584833968
N  N11  1  0.98010000  0.38070000  0.31222000  1.0 -0.1584833968
N  N12  1  0.38070000  0.98010000  0.68778000  1.0 -0.1584833968
N  N13  1  0.89780000  0.46160000  0.71834000  1.0 -0.1479430288
N  N14  1  0.46160000  0.89780000  0.28166000  1.0 -0.1479430288
N  N15  1  0.96160000  0.39780000  0.21834000  1.0 -0.1479430288
N  N16  1  0.39780000  0.96160000  0.78166000  1.0 -0.1479430288
N  N17  1  0.19530000  0.54650000  0.65850000  1.0 -0.237094009
N  N18  1  0.54650000  0.19530000  0.34150000  1.0 -0.237094009
N  N19  1  0.04650000  0.69530000  0.15850000  1.0 -0.237094009
N  N20  1  0.69530000  0.04650000  0.84150000  1.0 -0.237094009
N  N21  1  0.37700000  0.84140000  0.92360000  1.0 -0.4673254356
N  N22  1  0.84140000  0.37700000  0.07640000  1.0 -0.4673254356
N  N23  1  0.34140000  0.87700000  0.42360000  1.0 -0.4673254356
N  N24  1  0.87700000  0.34140000  0.57640000  1.0 -0.4673254356
N  N25  1  0.22210000  0.55470000  0.04970000  1.0 -0.4880515725
N  N26  1  0.55470000  0.22210000  0.95030000  1.0 -0.4880515725
N  N27  1  0.05470000  0.72210000  0.54970000  1.0 -0.4880515725
N  N28  1  0.72210000  0.05470000  0.45030000  1.0 -0.4880515725
N  N29  1  0.71890000  0.57130000  0.63630000  1.0 -0.2217968842
N  N30  1  0.57130000  0.71890000  0.36370000  1.0 -0.2217968842
N  N31  1  0.07130000  0.21890000  0.13630000  1.0 -0.2217968842
N  N32  1  0.21890000  0.07130000  0.86370000  1.0 -0.2217968842
N  N33  1  0.13530000  0.59730000  0.91390000  1.0 -0.4510069331
N  N34  1  0.59730000  0.13530000  0.08610000  1.0 -0.4510069331
N  N35  1  0.09730000  0.63530000  0.41390000  1.0 -0.4510069331
N  N36  1  0.63530000  0.09730000  0.58610000  1.0 -0.4510069331
N  N37  1  0.78780000  0.44540000  0.96500000  1.0 -0.4598222166
N  N38  1  0.44540000  0.78780000  0.03500000  1.0 -0.4598222166
N  N39  1  0.94540000  0.28780000  0.46500000  1.0 -0.4598222166
N  N40  1  0.28780000  0.94540000  0.53500000  1.0 -0.4598222166
N  N41  1  0.97590000  0.82690000  0.94210000  1.0 -0.4783606172
N  N42  1  0.82690000  0.97590000  0.05790000  1.0 -0.4783606172
N  N43  1  0.32690000  0.47590000  0.44210000  1.0 -0.4783606172
N  N44  1  0.47590000  0.32690000  0.55790000  1.0 -0.4783606172
N  N45  1  0.67740000  0.61240000  0.83700000  1.0 -0.2777855635
N  N46  1  0.61240000  0.67740000  0.16300000  1.0 -0.2777855635
N  N47  1  0.11240000  0.17740000  0.33700000  1.0 -0.2777855635
N  N48  1  0.17740000  0.11240000  0.66300000  1.0 -0.2777855635
N  N49  1  0.22190000  0.01590000  0.26230000  1.0 0.7575897485
N  N50  1  0.01590000  0.22190000  0.73770000  1.0 0.7575897485
N  N51  1  0.51590000  0.72190000  0.76230000  1.0 0.7575897485
N  N52  1  0.72190000  0.51590000  0.23770000  1.0 0.7575897485
O  O1  1  0.20460000  0.75440000  0.00303000  1.0 -0.3396742881
O  O2  1  0.75440000  0.20460000  0.99697000  1.0 -0.3462623597
O  O3  1  0.25440000  0.70460000  0.50303000  1.0 -0.3396742881
O  O4  1  0.70460000  0.25440000  0.49697000  1.0 -0.3396742881
O  O5  1  0.44070000  0.57730000  0.99890000  1.0 -0.0839596648
O  O6  1  0.57730000  0.44070000  0.00110000  1.0 -0.0839596648
O  O7  1  0.07730000  0.94070000  0.49890000  1.0 -0.0839596648
O  O8  1  0.94070000  0.07730000  0.50110000  1.0 -0.0839596648
O  O9  1  0.24240000  0.44960000  0.94920000  1.0 -0.3396742881
O  O10  1  0.44960000  0.24240000  0.05080000  1.0 -0.3396742881
O  O11  1  0.94960000  0.74240000  0.44920000  1.0 -0.3396742881
O  O12  1  0.74240000  0.94960000  0.55080000  1.0 -0.3396742881
O  O13  1  0.36030000  0.62910000  0.87630000  1.0 -0.2217968842
O  O14  1  0.62910000  0.36030000  0.12370000  1.0 -0.2128650636
O  O15  1  0.12910000  0.86030000  0.37630000  1.0 -0.2128650636
O  O16  1  0.86030000  0.12910000  0.62370000  1.0 -0.2217968842
O  O17  1  0.18710000  0.03150000  0.98370000  1.0 -0.3659876526
O  O18  1  0.03150000  0.18710000  0.01630000  1.0 -0.3659876526
O  O19  1  0.53150000  0.68710000  0.48370000  1.0 -0.364684248
O  O20  1  0.68710000  0.53150000  0.51630000  1.0 -0.364684248
O  O21  1  0.08508000  0.04252000  0.08296000  1.0 -0.3920508116
O  O22  1  0.04252000  0.08508000  0.91704000  1.0 -0.3920508116
O  O23  1  0.54252000  0.58508000  0.58296000  1.0 -0.3953072071
O  O24  1  0.58508000  0.54252000  0.41704000  1.0 -0.3953072071
O  O25  1  0.91780000  0.80960000  0.05150000  1.0 -0.4598222166
O  O26  1  0.80960000  0.91780000  0.94850000  1.0 -0.4598222166
O  O27  1  0.30960000  0.41780000  0.55150000  1.0 -0.4510069331
O  O28  1  0.41780000  0.30960000  0.44850000  1.0 -0.4510069331
O  O29  1  0.65710000  0.49390000  0.04690000  1.0 -0.0915548463
O  O30  1  0.49390000  0.65710000  0.95310000  1.0 -0.0915548463
O  O31  1  0.99390000  0.15710000  0.54690000  1.0 -0.0915548463
O  O32  1  0.15710000  0.99390000  0.45310000  1.0 -0.0915548463
O  O33  1  0.25900000  0.02940000  0.31340000  1.0 -0.3297743067
O  O34  1  0.11320000  0.92040000  0.26120000  1.0 -0.364684248
O  O35  1  0.30050000  0.07950000  0.21730000  1.0 -0.4060004294
O  O36  1  0.02940000  0.25900000  0.68660000  1.0 -0.3297743067
O  O37  1  0.92040000  0.11320000  0.73880000  1.0 -0.364684248
O  O38  1  0.07950000  0.30050000  0.78270000  1.0 -0.4060004294
O  O39  1  0.52940000  0.75900000  0.81340000  1.0 -0.3297743067
O  O40  1  0.42040000  0.61320000  0.76120000  1.0 -0.364684248
O  O41  1  0.57950000  0.80050000  0.71730000  1.0 -0.4060004294
O  O42  1  0.75900000  0.52940000  0.18660000  1.0 -0.3297743067
O  O43  1  0.61320000  0.42040000  0.23880000  1.0 -0.364684248
O  O44  1  0.80050000  0.57950000  0.28270000  1.0 -0.4060004294
