# DDEC6 charges by PACMAN v1.1 (https://github.com/mtap-research/PACMAN-charge/)
data_SEHPIH_FSR_pacman
_symmetry_space_group_name_H-M   'P 1'
_cell_length_a   13.85630000
_cell_length_b   16.79620000
_cell_length_c   17.65240000
_cell_angle_alpha   62.13300000
_cell_angle_beta   70.92900000
_cell_angle_gamma   77.02900000
_symmetry_Int_Tables_number   1
_chemical_formula_structural   Ag2H42C56S2N6O21F8
_chemical_formula_sum   'Ag4 H84 C112 S4 N12 O42 F16'
_cell_volume   3419.86829209
_cell_formula_units_Z   2
loop_
 _symmetry_equiv_pos_site_id
 _symmetry_equiv_pos_as_xyz
  1  'x, y, z'
loop_
 _atom_site_type_symbol
 _atom_site_label
 _atom_site_symmetry_multiplicity
 _atom_site_fract_x
 _atom_site_fract_y
 _atom_site_fract_z
 _atom_site_occupancy
 _atom_site_charge
Ag  Ag1  1  0.95455000  0.28294000  0.69370000  1.0 0.266856976
Ag  Ag2  1  0.04545000  0.71706000  0.30630000  1.0 0.266856976
Ag  Ag3  1  0.59515000  0.69140000  0.80706000  1.0 0.3124599085
Ag  Ag4  1  0.40485000  0.30860000  0.19294000  1.0 0.3124599085
H  H1  1  0.92260000  0.33160000  0.85630000  1.0 0.1016345774
H  H2  1  0.89660000  0.45350000  0.88880000  1.0 0.1302789138
H  H3  1  0.86300000  0.61670000  0.64160000  1.0 0.1194575521
H  H4  1  0.89320000  0.49110000  0.61440000  1.0 0.0806301265
H  H5  1  0.93670000  0.72360000  0.83960000  1.0 0.1194575521
H  H6  1  0.81380000  0.73180000  0.86320000  1.0 0.1016345774
H  H7  1  0.97970000  0.18190000  0.57730000  1.0 0.1016345774
H  H8  1  0.96000000  0.19610000  0.44670000  1.0 0.1373035853
H  H9  1  0.85310000  0.45700000  0.39000000  1.0 0.1194575521
H  H10  1  0.86810000  0.43290000  0.52610000  1.0 0.0806301265
H  H11  1  0.92180000  0.40730000  0.15160000  1.0 0.1016345774
H  H12  1  0.79980000  0.41980000  0.18840000  1.0 0.1194575521
H  H13  1  0.80670000  0.14610000  0.84790000  1.0 0.1104542592
H  H14  1  0.79570000  0.00340000  0.96410000  1.0 0.1373035853
H  H15  1  0.10300000  0.96230000  0.88870000  1.0 0.1373035853
H  H16  1  0.10480000  0.10420000  0.77230000  1.0 0.0883933685
H  H17  1  0.89160000  0.74820000  0.16350000  1.0 0.0883933685
H  H18  1  0.77120000  0.76130000  0.17130000  1.0 0.1016345774
H  H19  1  0.85110000  0.58660000  0.21120000  1.0 0.1194575521
H  H20  1  0.88260000  0.52290000  0.00990000  1.0 0.1194575521
H  H21  1  0.85960000  0.78410000  0.96450000  1.0 0.1104542592
H  H22  1  0.07740000  0.66840000  0.14370000  1.0 0.1016345774
H  H23  1  0.10340000  0.54650000  0.11120000  1.0 0.1302789138
H  H24  1  0.13700000  0.38330000  0.35840000  1.0 0.1194575521
H  H25  1  0.10680000  0.50890000  0.38560000  1.0 0.0806301265
H  H26  1  0.06330000  0.27640000  0.16040000  1.0 0.1194575521
H  H27  1  0.18620000  0.26820000  0.13680000  1.0 0.1016345774
H  H28  1  0.02030000  0.81810000  0.42270000  1.0 0.1016345774
H  H29  1  0.04000000  0.80390000  0.55330000  1.0 0.1373035853
H  H30  1  0.14690000  0.54300000  0.61000000  1.0 0.1194575521
H  H31  1  0.13190000  0.56710000  0.47390000  1.0 0.0806301265
H  H32  1  0.07820000  0.59270000  0.84840000  1.0 0.1016345774
H  H33  1  0.20020000  0.58020000  0.81160000  1.0 0.1194575521
H  H34  1  0.19330000  0.85390000  0.15210000  1.0 0.1104542592
H  H35  1  0.20430000  0.99660000  0.03590000  1.0 0.1373035853
H  H36  1  0.89700000  0.03770000  0.11130000  1.0 0.1373035853
H  H37  1  0.89520000  0.89580000  0.22770000  1.0 0.0883933685
H  H38  1  0.10840000  0.25180000  0.83650000  1.0 0.0883933685
H  H39  1  0.22880000  0.23870000  0.82870000  1.0 0.1016345774
H  H40  1  0.14890000  0.41340000  0.78880000  1.0 0.1194575521
H  H41  1  0.11740000  0.47710000  0.99010000  1.0 0.1194575521
H  H42  1  0.14040000  0.21590000  0.03550000  1.0 0.1104542592
H  H43  1  0.63410000  0.47410000  0.89750000  1.0 0.1104542592
H  H44  1  0.66160000  0.34790000  0.86980000  1.0 0.1373035853
H  H45  1  0.62170000  0.51340000  0.62490000  1.0 0.1104542592
H  H46  1  0.59730000  0.63310000  0.65910000  1.0 0.0806301265
H  H47  1  0.70920000  0.24320000  0.63540000  1.0 0.1016345774
H  H48  1  0.58670000  0.24480000  0.67050000  1.0 0.1104542592
H  H49  1  0.58980000  0.80780000  0.91020000  1.0 0.1016345774
H  H50  1  0.58710000  0.79050000  0.04880000  1.0 0.1302789138
H  H51  1  0.62610000  0.52030000  0.12980000  1.0 0.1302789138
H  H52  1  0.62820000  0.54430000  0.98900000  1.0 0.1104542592
H  H53  1  0.67070000  0.56660000  0.33640000  1.0 0.0883933685
H  H54  1  0.54820000  0.56690000  0.36510000  1.0 0.0883933685
H  H55  1  0.49130000  0.88460000  0.70930000  1.0 0.1104542592
H  H56  1  0.52110000  0.02110000  0.58510000  1.0 0.1194575521
H  H57  1  0.76840000  0.89420000  0.47590000  1.0 0.1194575521
H  H58  1  0.73590000  0.76460000  0.60490000  1.0 0.0883933685
H  H59  1  0.71590000  0.21680000  0.33940000  1.0 0.1104542592
H  H60  1  0.59640000  0.23900000  0.34160000  1.0 0.1016345774
H  H61  1  0.62350000  0.39610000  0.30370000  1.0 0.1302789138
H  H62  1  0.62270000  0.45100000  0.50420000  1.0 0.1104542592
H  H63  1  0.64980000  0.19250000  0.54040000  1.0 0.1104542592
H  H64  1  0.36590000  0.52590000  0.10250000  1.0 0.1104542592
H  H65  1  0.33840000  0.65210000  0.13020000  1.0 0.1373035853
H  H66  1  0.37830000  0.48660000  0.37510000  1.0 0.1104542592
H  H67  1  0.40270000  0.36690000  0.34090000  1.0 0.0806301265
H  H68  1  0.29080000  0.75680000  0.36460000  1.0 0.1016345774
H  H69  1  0.41330000  0.75520000  0.32950000  1.0 0.1104542592
H  H70  1  0.41020000  0.19220000  0.08980000  1.0 0.1016345774
H  H71  1  0.41290000  0.20950000  0.95120000  1.0 0.1302789138
H  H72  1  0.37390000  0.47970000  0.87020000  1.0 0.1302789138
H  H73  1  0.37180000  0.45570000  0.01100000  1.0 0.1104542592
H  H74  1  0.32930000  0.43340000  0.66360000  1.0 0.0883933685
H  H75  1  0.45180000  0.43310000  0.63490000  1.0 0.0883933685
H  H76  1  0.50870000  0.11540000  0.29070000  1.0 0.1104542592
H  H77  1  0.47890000  0.97890000  0.41490000  1.0 0.1194575521
H  H78  1  0.23160000  0.10580000  0.52410000  1.0 0.1194575521
H  H79  1  0.26410000  0.23540000  0.39510000  1.0 0.0883933685
H  H80  1  0.28410000  0.78320000  0.66060000  1.0 0.1104542592
H  H81  1  0.40360000  0.76100000  0.65840000  1.0 0.1016345774
H  H82  1  0.37650000  0.60390000  0.69630000  1.0 0.1302789138
H  H83  1  0.37730000  0.54900000  0.49580000  1.0 0.1104542592
H  H84  1  0.35020000  0.80750000  0.45960000  1.0 0.1104542592
C  C1  1  0.91120000  0.39040000  0.81190000  1.0 0.0694756075
C  C2  1  0.89530000  0.46250000  0.83180000  1.0 -0.1582973052
C  C3  1  0.87730000  0.54850000  0.76850000  1.0 0.0026642494
C  C4  1  0.87590000  0.55860000  0.68640000  1.0 -0.1724907531
C  C5  1  0.89350000  0.48350000  0.67110000  1.0 0.035006106
C  C6  1  0.86360000  0.63180000  0.78260000  1.0 0.4839893954
C  C7  1  0.87510000  0.69030000  0.87740000  1.0 -0.0782560531
C  C8  1  0.95220000  0.23830000  0.53930000  1.0 0.0598349359
C  C9  1  0.94180000  0.24630000  0.46130000  1.0 -0.1425231619
C  C10  1  0.90430000  0.32860000  0.40410000  1.0 0.0109516053
C  C11  1  0.87800000  0.39930000  0.42820000  1.0 -0.1582973052
C  C12  1  0.88840000  0.38450000  0.50890000  1.0 0.0499268612
C  C13  1  0.89280000  0.33750000  0.31890000  1.0 0.4918996022
C  C14  1  0.86560000  0.44090000  0.17940000  1.0 -0.0782560531
C  C15  1  0.86790000  0.10780000  0.85590000  1.0 0.0806301265
C  C16  1  0.86070000  0.02330000  0.92610000  1.0 -0.1582973052
C  C17  1  0.94830000  0.96860000  0.94000000  1.0 0.0026642494
C  C18  1  0.04080000  0.99920000  0.88140000  1.0 -0.1582973052
C  C19  1  0.04100000  0.08360000  0.81250000  1.0 0.0598349359
C  C20  1  0.94730000  0.87650000  0.01660000  1.0 0.5006507945
C  C21  1  0.84000000  0.76390000  0.12980000  1.0 -0.0870494152
C  C22  1  0.85390000  0.69580000  0.09320000  1.0 0.1104542592
C  C23  1  0.85640000  0.60480000  0.15040000  1.0 -0.2110454394
C  C24  1  0.86660000  0.54000000  0.12030000  1.0 0.1104542592
C  C25  1  0.87440000  0.56720000  0.03110000  1.0 -0.2110454394
C  C26  1  0.87030000  0.65760000  0.97330000  1.0 0.1104542592
C  C27  1  0.86110000  0.72180000  0.00430000  1.0 -0.2178371757
C  C28  1  0.33040000  0.28290000  0.57690000  1.0 0.2933818178
C  C29  1  0.08880000  0.60960000  0.18810000  1.0 0.0694756075
C  C30  1  0.10470000  0.53750000  0.16820000  1.0 -0.1582973052
C  C31  1  0.12270000  0.45150000  0.23150000  1.0 0.0026642494
C  C32  1  0.12410000  0.44140000  0.31360000  1.0 -0.1724907531
C  C33  1  0.10650000  0.51650000  0.32890000  1.0 0.0347046146
C  C34  1  0.13640000  0.36820000  0.21740000  1.0 0.4839893954
C  C35  1  0.12490000  0.30970000  0.12260000  1.0 -0.0782560531
C  C36  1  0.04780000  0.76170000  0.46070000  1.0 0.0598349359
C  C37  1  0.05820000  0.75370000  0.53870000  1.0 -0.1425231619
C  C38  1  0.09570000  0.67140000  0.59590000  1.0 0.0109516053
C  C39  1  0.12200000  0.60070000  0.57180000  1.0 -0.1582973052
C  C40  1  0.11160000  0.61550000  0.49110000  1.0 0.0499268612
C  C41  1  0.10720000  0.66250000  0.68110000  1.0 0.4918996022
C  C42  1  0.13440000  0.55910000  0.82060000  1.0 -0.0782560531
C  C43  1  0.13210000  0.89220000  0.14410000  1.0 0.0806301265
C  C44  1  0.13930000  0.97670000  0.07390000  1.0 -0.1582973052
C  C45  1  0.05170000  0.03140000  0.06000000  1.0 0.0026642494
C  C46  1  0.95920000  0.00080000  0.11860000  1.0 -0.1582973052
C  C47  1  0.95900000  0.91640000  0.18750000  1.0 0.0598349359
C  C48  1  0.05270000  0.12350000  0.98340000  1.0 0.5006507945
C  C49  1  0.16000000  0.23610000  0.87020000  1.0 -0.0870494152
C  C50  1  0.14610000  0.30420000  0.90680000  1.0 0.1104542592
C  C51  1  0.14360000  0.39520000  0.84960000  1.0 -0.2110454394
C  C52  1  0.13340000  0.46000000  0.87970000  1.0 0.1104542592
C  C53  1  0.12560000  0.43280000  0.96890000  1.0 -0.2110454394
C  C54  1  0.12970000  0.34240000  0.02670000  1.0 0.1104542592
C  C55  1  0.13890000  0.27820000  0.99570000  1.0 -0.2178371757
C  C56  1  0.66960000  0.71710000  0.42310000  1.0 0.2933818178
C  C57  1  0.63170000  0.48180000  0.84130000  1.0 0.0694756075
C  C58  1  0.64790000  0.40620000  0.82560000  1.0 -0.1476663946
C  C59  1  0.64370000  0.41740000  0.74330000  1.0 0.0026642494
C  C60  1  0.62460000  0.50350000  0.68170000  1.0 -0.1724907531
C  C61  1  0.61010000  0.57420000  0.70280000  1.0 0.0499268612
C  C62  1  0.65790000  0.33520000  0.72690000  1.0 0.5006507945
C  C63  1  0.64440000  0.28200000  0.62880000  1.0 -0.0694544314
C  C64  1  0.59730000  0.74850000  0.95530000  1.0 0.0598349359
C  C65  1  0.59530000  0.73880000  0.03790000  1.0 -0.1582973052
C  C66  1  0.60550000  0.65290000  0.10460000  1.0 -0.0018762167
C  C67  1  0.61830000  0.58010000  0.08570000  1.0 -0.1425231619
C  C68  1  0.61960000  0.59520000  0.00130000  1.0 0.0694756075
C  C69  1  0.60200000  0.64260000  0.19470000  1.0 0.4918996022
C  C70  1  0.61300000  0.53920000  0.33870000  1.0 -0.0870494152
C  C71  1  0.55010000  0.88750000  0.66190000  1.0 0.0883933685
C  C72  1  0.56670000  0.96890000  0.58790000  1.0 -0.1582973052
C  C73  1  0.65070000  0.97290000  0.51820000  1.0 0.0109516053
C  C74  1  0.71230000  0.89460000  0.52420000  1.0 -0.1724907531
C  C75  1  0.69150000  0.81770000  0.60080000  1.0 0.0499268612
C  C76  1  0.67540000  0.05910000  0.43630000  1.0 0.5006507945
C  C77  1  0.64600000  0.21870000  0.37810000  1.0 -0.0782560531
C  C78  1  0.63640000  0.28340000  0.41730000  1.0 0.1016345774
C  C79  1  0.62680000  0.37580000  0.36290000  1.0 -0.2178371757
C  C80  1  0.62200000  0.43830000  0.39490000  1.0 0.1016345774
C  C81  1  0.62650000  0.40820000  0.48210000  1.0 -0.2290310918
C  C82  1  0.63650000  0.31770000  0.53630000  1.0 0.1016345774
C  C83  1  0.64200000  0.25530000  0.50330000  1.0 -0.2290310918
C  C84  1  0.22070000  0.73580000  0.90760000  1.0 0.467334889
C  C85  1  0.36830000  0.51820000  0.15870000  1.0 0.0694756075
C  C86  1  0.35210000  0.59380000  0.17440000  1.0 -0.1476663946
C  C87  1  0.35630000  0.58260000  0.25670000  1.0 0.0026642494
C  C88  1  0.37540000  0.49650000  0.31830000  1.0 -0.1724907531
C  C89  1  0.38990000  0.42580000  0.29720000  1.0 0.0499268612
C  C90  1  0.34210000  0.66480000  0.27310000  1.0 0.5006507945
C  C91  1  0.35560000  0.71800000  0.37120000  1.0 -0.0694544314
C  C92  1  0.40270000  0.25150000  0.04470000  1.0 0.0598349359
C  C93  1  0.40470000  0.26120000  0.96210000  1.0 -0.1582973052
C  C94  1  0.39450000  0.34710000  0.89540000  1.0 -0.0018762167
C  C95  1  0.38170000  0.41990000  0.91430000  1.0 -0.1425231619
C  C96  1  0.38040000  0.40480000  0.99870000  1.0 0.0694756075
C  C97  1  0.39800000  0.35740000  0.80530000  1.0 0.4918996022
C  C98  1  0.38700000  0.46080000  0.66130000  1.0 -0.0870494152
C  C99  1  0.44990000  0.11250000  0.33810000  1.0 0.0883933685
C  C100  1  0.43330000  0.03110000  0.41210000  1.0 -0.1582973052
C  C101  1  0.34930000  0.02710000  0.48180000  1.0 0.0109516053
C  C102  1  0.28770000  0.10540000  0.47580000  1.0 -0.1724907531
C  C103  1  0.30850000  0.18230000  0.39920000  1.0 0.0499268612
C  C104  1  0.32460000  0.94090000  0.56370000  1.0 0.5006507945
C  C105  1  0.35400000  0.78130000  0.62190000  1.0 -0.0782560531
C  C106  1  0.36360000  0.71660000  0.58270000  1.0 0.1104542592
C  C107  1  0.37320000  0.62420000  0.63710000  1.0 -0.2178371757
C  C108  1  0.37800000  0.56170000  0.60510000  1.0 0.1016345774
C  C109  1  0.37350000  0.59180000  0.51790000  1.0 -0.2290310918
C  C110  1  0.36350000  0.68230000  0.46370000  1.0 0.1016345774
C  C111  1  0.35800000  0.74470000  0.49670000  1.0 -0.2290310918
C  C112  1  0.77930000  0.26420000  0.09240000  1.0 0.467334889
S  S1  1  0.20111000  0.33112000  0.58220000  1.0 0.5092334972
S  S2  1  0.79889000  0.66888000  0.41780000  1.0 0.5006507945
S  S3  1  0.34159000  0.67859000  0.88043000  1.0 0.9671096431
S  S4  1  0.65841000  0.32141000  0.11957000  1.0 0.9671096431
N  N1  1  0.91140000  0.39900000  0.73190000  1.0 -0.2290310918
N  N2  1  0.92580000  0.30550000  0.56470000  1.0 -0.2290310918
N  N3  1  0.95620000  0.13860000  0.79890000  1.0 -0.2027204706
N  N4  1  0.08860000  0.60100000  0.26810000  1.0 -0.2290310918
N  N5  1  0.07420000  0.69450000  0.43530000  1.0 -0.2290310918
N  N6  1  0.04380000  0.86140000  0.20110000  1.0 -0.2027204706
N  N7  1  0.61270000  0.56570000  0.78120000  1.0 -0.2178371757
N  N8  1  0.61270000  0.81280000  0.67000000  1.0 -0.1910569853
N  N9  1  0.60920000  0.67790000  0.93610000  1.0 -0.1910569853
N  N10  1  0.38730000  0.43430000  0.21880000  1.0 -0.2110454394
N  N11  1  0.38730000  0.18720000  0.33000000  1.0 -0.1910569853
N  N12  1  0.39080000  0.32210000  0.06390000  1.0 -0.1910569853
O  O1  1  0.84280000  0.70690000  0.72978000  1.0 -0.4732969775
O  O2  1  0.87910000  0.61342000  0.86022000  1.0 -0.2110454394
O  O3  1  0.89870000  0.27501000  0.30212000  1.0 -0.4322334452
O  O4  1  0.87850000  0.42409000  0.26383000  1.0 -0.2178371757
O  O5  1  0.02200000  0.82978000  0.03525000  1.0 -0.4433705731
O  O6  1  0.85080000  0.85437000  0.06058000  1.0 -0.2178371757
O  O7  1  0.18140000  0.38070000  0.64230000  1.0 -0.2110454394
O  O8  1  0.14580000  0.25070000  0.63490000  1.0 -0.1724907531
O  O9  1  0.18630000  0.38880000  0.50130000  1.0 0.0598349359
O  O10  1  0.23710000  0.41770000  0.54730000  1.0 -0.2110454394
O  O11  1  0.14500000  0.29660000  0.65990000  1.0 0.1016345774
O  O12  1  0.18560000  0.32480000  0.50320000  1.0 -0.1815824412
O  O13  1  0.15720000  0.29310000  0.27022000  1.0 -0.4732969775
O  O14  1  0.12090000  0.38658000  0.13978000  1.0 -0.2110454394
O  O15  1  0.10130000  0.72499000  0.69788000  1.0 -0.4322334452
O  O16  1  0.12150000  0.57591000  0.73617000  1.0 -0.2178371757
O  O17  1  0.97800000  0.17022000  0.96475000  1.0 -0.4433705731
O  O18  1  0.14920000  0.14563000  0.93942000  1.0 -0.2178371757
O  O19  1  0.81860000  0.61930000  0.35770000  1.0 -0.2110454394
O  O20  1  0.85420000  0.74930000  0.36510000  1.0 -0.1815824412
O  O21  1  0.81370000  0.61120000  0.49870000  1.0 0.0499268612
O  O22  1  0.76290000  0.58230000  0.45270000  1.0 -0.2027204706
O  O23  1  0.85500000  0.70340000  0.34010000  1.0 0.0883933685
O  O24  1  0.81440000  0.67520000  0.49680000  1.0 -0.1815824412
O  O25  1  0.67980000  0.25983000  0.77794000  1.0 -0.4776590838
O  O26  1  0.64180000  0.35618000  0.64922000  1.0 -0.2290310918
O  O27  1  0.73370000  0.06220000  0.36740000  1.0 -0.4632358475
O  O28  1  0.62560000  0.12983000  0.44917000  1.0 -0.2443206979
O  O29  1  0.58920000  0.70482000  0.21313000  1.0 -0.4529433026
O  O30  1  0.61441000  0.55622000  0.25001000  1.0 -0.2178371757
O  O31  1  0.40780000  0.75240000  0.83080000  1.0 -0.5653409435
O  O32  1  0.36540000  0.61590000  0.95990000  1.0 -0.5513858868
O  O33  1  0.33010000  0.64250000  0.82610000  1.0 -0.5513858868
O  O34  1  0.32020000  0.74017000  0.22206000  1.0 -0.4776590838
O  O35  1  0.35820000  0.64382000  0.35078000  1.0 -0.2290310918
O  O36  1  0.26630000  0.93780000  0.63260000  1.0 -0.4632358475
O  O37  1  0.37440000  0.87017000  0.55083000  1.0 -0.2443206979
O  O38  1  0.41080000  0.29518000  0.78687000  1.0 -0.4529433026
O  O39  1  0.38559000  0.44378000  0.74999000  1.0 -0.2178371757
O  O40  1  0.59220000  0.24760000  0.16920000  1.0 -0.5653409435
O  O41  1  0.63460000  0.38410000  0.04010000  1.0 -0.5513858868
O  O42  1  0.66990000  0.35750000  0.17390000  1.0 -0.5513858868
F  F1  1  0.35940000  0.24400000  0.52980000  1.0 0.1302789138
F  F2  1  0.38890000  0.36040000  0.53150000  1.0 -0.0648801959
F  F3  1  0.35740000  0.25170000  0.64690000  1.0 -0.0972820929
F  F4  1  0.39170000  0.27680000  0.50790000  1.0 0.1194575521
F  F5  1  0.31660000  0.17600000  0.61310000  1.0 -0.0694544314
F  F6  1  0.64060000  0.75600000  0.47020000  1.0 0.1302789138
F  F7  1  0.61110000  0.63960000  0.46850000  1.0 -0.0648801959
F  F8  1  0.64260000  0.74830000  0.35310000  1.0 -0.0972820929
F  F9  1  0.60830000  0.72320000  0.49210000  1.0 0.1194575521
F  F10  1  0.68340000  0.82400000  0.38690000  1.0 -0.0694544314
F  F11  1  0.19280000  0.80070000  0.84300000  1.0 -0.1476663946
F  F12  1  0.22160000  0.76590000  0.96560000  1.0 -0.1815824412
F  F13  1  0.14830000  0.67750000  0.95310000  1.0 -0.1815824412
F  F14  1  0.80720000  0.19930000  0.15700000  1.0 -0.1476663946
F  F15  1  0.77840000  0.23410000  0.03440000  1.0 -0.1815824412
F  F16  1  0.85170000  0.32250000  0.04690000  1.0 -0.1815824412
