# DDEC6 charges by PACMAN v1.1 (https://github.com/mtap-research/PACMAN-charge/)
data_SEHRIJ_FSR_pacman
_symmetry_space_group_name_H-M   'P 1'
_cell_length_a   14.25780000
_cell_length_b   16.88600000
_cell_length_c   22.82600000
_cell_angle_alpha   76.32900000
_cell_angle_beta   86.76700000
_cell_angle_gamma   76.94300000
_symmetry_Int_Tables_number   1
_chemical_formula_structural   Ag3H63C84S3N9(O3F)10
_chemical_formula_sum   'Ag6 H126 C168 S6 N18 O60 F20'
_cell_volume   5201.74647809
_cell_formula_units_Z   2
loop_
 _symmetry_equiv_pos_site_id
 _symmetry_equiv_pos_as_xyz
  1  'x, y, z'
loop_
 _atom_site_type_symbol
 _atom_site_label
 _atom_site_symmetry_multiplicity
 _atom_site_fract_x
 _atom_site_fract_y
 _atom_site_fract_z
 _atom_site_occupancy
 _atom_site_charge
Ag  Ag1  1  0.84071000  0.73745000  0.45894000  1.0 0.3036681012
Ag  Ag2  1  0.17637000  0.38228000  0.79472000  1.0 0.3162409261
Ag  Ag3  1  0.47063000  0.08614000  0.12088000  1.0 0.2711492822
Ag  Ag4  1  0.15929000  0.26255000  0.54106000  1.0 0.3036681012
Ag  Ag5  1  0.82363000  0.61772000  0.20528000  1.0 0.3162409261
Ag  Ag6  1  0.52937000  0.91386000  0.87912000  1.0 0.2711492822
H  H1  1  0.96220000  0.70420000  0.34340000  1.0 0.1103769121
H  H2  1  0.01160000  0.77070000  0.24970000  1.0 0.1291335401
H  H3  1  0.90760000  0.99200000  0.29570000  1.0 0.137888261
H  H4  1  0.86110000  0.91830000  0.38780000  1.0 0.101690272
H  H5  1  0.00800000  0.96890000  0.08800000  1.0 0.101690272
H  H6  1  0.11640000  0.95230000  0.11120000  1.0 0.0893338082
H  H7  1  0.24060000  0.31380000  0.93660000  1.0 0.0814061295
H  H8  1  0.23890000  0.36060000  0.02490000  1.0 0.1185433407
H  H9  1  0.05340000  0.57160000  0.94360000  1.0 0.1291335401
H  H10  1  0.05170000  0.51520000  0.85990000  1.0 0.1103769121
H  H11  1  0.06840000  0.62490000  0.11060000  1.0 0.101690272
H  H12  1  0.18390000  0.60350000  0.10720000  1.0 0.1103769121
H  H13  1  0.13310000  0.22880000  0.88780000  1.0 0.0893338082
H  H14  1  0.15600000  0.08670000  0.91320000  1.0 0.1185433407
H  H15  1  0.29420000  0.08120000  0.75460000  1.0 0.137888261
H  H16  1  0.26980000  0.22240000  0.73420000  1.0 0.1103769121
H  H17  1  0.16080000  0.84390000  0.88420000  1.0 0.1103769121
H  H18  1  0.26690000  0.82420000  0.91180000  1.0 0.101690272
H  H19  1  0.13060000  0.94530000  0.99790000  1.0 0.1103769121
H  H20  1  0.06840000  0.76010000  0.13180000  1.0 0.1291335401
H  H21  1  0.17950000  0.70980000  0.97400000  1.0 0.1185433407
H  H22  1  0.15510000  0.57380000  0.72130000  1.0 0.1103769121
H  H23  1  0.20980000  0.65400000  0.63590000  1.0 0.137888261
H  H24  1  0.35360000  0.44180000  0.59010000  1.0 0.1291335401
H  H25  1  0.29890000  0.36600000  0.67940000  1.0 0.101690272
H  H26  1  0.34070000  0.65450000  0.43290000  1.0 0.101690272
H  H27  1  0.44790000  0.62980000  0.45970000  1.0 0.1103769121
H  H28  1  0.44350000  0.93500000  0.22950000  1.0 0.101690272
H  H29  1  0.46680000  0.79090000  0.25570000  1.0 0.1291335401
H  H30  1  0.61520000  0.78460000  0.09970000  1.0 0.1103769121
H  H31  1  0.58480000  0.92700000  0.07800000  1.0 0.0814061295
H  H32  1  0.47670000  0.54330000  0.22310000  1.0 0.1185433407
H  H33  1  0.58430000  0.52650000  0.24770000  1.0 0.1103769121
H  H34  1  0.30280000  0.21410000  0.17410000  1.0 0.0893338082
H  H35  1  0.27540000  0.28630000  0.24980000  1.0 0.137888261
H  H36  1  0.53270000  0.16030000  0.32000000  1.0 0.137888261
H  H37  1  0.55470000  0.09080000  0.24210000  1.0 0.1103769121
H  H38  1  0.40130000  0.31130000  0.44040000  1.0 0.1103769121
H  H39  1  0.51610000  0.29460000  0.44380000  1.0 0.1103769121
H  H40  1  0.50410000  0.40660000  0.30700000  1.0 0.1185433407
H  H41  1  0.44960000  0.63780000  0.33990000  1.0 0.1185433407
H  H42  1  0.40220000  0.44170000  0.46970000  1.0 0.1291335401
H  H43  1  0.47800000  0.26350000  0.04380000  1.0 0.101690272
H  H44  1  0.54560000  0.33560000  0.95880000  1.0 0.137888261
H  H45  1  0.67770000  0.11660000  0.92350000  1.0 0.1185433407
H  H46  1  0.61600000  0.04980000  0.01170000  1.0 0.0893338082
H  H47  1  0.67930000  0.31970000  0.76060000  1.0 0.101690272
H  H48  1  0.78600000  0.29600000  0.78800000  1.0 0.1185433407
H  H49  1  0.93200000  0.76250000  0.57300000  1.0 0.1103769121
H  H50  1  0.90270000  0.83070000  0.65180000  1.0 0.137888261
H  H51  1  0.63080000  0.92470000  0.59170000  1.0 0.1291335401
H  H52  1  0.66690000  0.85220000  0.51610000  1.0 0.1103769121
H  H53  1  0.74360000  0.96910000  0.77820000  1.0 0.0893338082
H  H54  1  0.85780000  0.95610000  0.78400000  1.0 0.101690272
H  H55  1  0.79360000  0.58570000  0.56200000  1.0 0.1103769121
H  H56  1  0.81320000  0.44280000  0.58590000  1.0 0.1291335401
H  H57  1  0.94860000  0.43680000  0.42600000  1.0 0.137888261
H  H58  1  0.92730000  0.57850000  0.40680000  1.0 0.1103769121
H  H59  1  0.80460000  0.20340000  0.55370000  1.0 0.1185433407
H  H60  1  0.91450000  0.18020000  0.57550000  1.0 0.1103769121
H  H61  1  0.78080000  0.29790000  0.66750000  1.0 0.1185433407
H  H62  1  0.74650000  0.10380000  0.80480000  1.0 0.1103769121
H  H63  1  0.84480000  0.06190000  0.64280000  1.0 0.1185433407
H  H64  1  0.03780000  0.29580000  0.65660000  1.0 0.1103769121
H  H65  1  0.98840000  0.22930000  0.75030000  1.0 0.1291335401
H  H66  1  0.09240000  0.00800000  0.70430000  1.0 0.137888261
H  H67  1  0.13890000  0.08170000  0.61220000  1.0 0.1103769121
H  H68  1  0.99200000  0.03110000  0.91200000  1.0 0.101690272
H  H69  1  0.88360000  0.04770000  0.88880000  1.0 0.0893338082
H  H70  1  0.75940000  0.68620000  0.06340000  1.0 0.0814061295
H  H71  1  0.76110000  0.63940000  0.97510000  1.0 0.1185433407
H  H72  1  0.94660000  0.42840000  0.05640000  1.0 0.1291335401
H  H73  1  0.94830000  0.48480000  0.14010000  1.0 0.1103769121
H  H74  1  0.93160000  0.37510000  0.88940000  1.0 0.101690272
H  H75  1  0.81610000  0.39650000  0.89280000  1.0 0.1103769121
H  H76  1  0.86690000  0.77120000  0.11220000  1.0 0.0893338082
H  H77  1  0.84400000  0.91330000  0.08680000  1.0 0.1185433407
H  H78  1  0.70580000  0.91880000  0.24540000  1.0 0.137888261
H  H79  1  0.73020000  0.77760000  0.26580000  1.0 0.1103769121
H  H80  1  0.83920000  0.15610000  0.11580000  1.0 0.1103769121
H  H81  1  0.73310000  0.17580000  0.08820000  1.0 0.101690272
H  H82  1  0.86940000  0.05470000  0.00210000  1.0 0.1103769121
H  H83  1  0.93160000  0.23990000  0.86820000  1.0 0.1291335401
H  H84  1  0.82050000  0.29020000  0.02600000  1.0 0.1185433407
H  H85  1  0.84490000  0.42620000  0.27870000  1.0 0.1103769121
H  H86  1  0.79020000  0.34600000  0.36410000  1.0 0.137888261
H  H87  1  0.64640000  0.55820000  0.40990000  1.0 0.1291335401
H  H88  1  0.70110000  0.63400000  0.32060000  1.0 0.101690272
H  H89  1  0.65930000  0.34550000  0.56710000  1.0 0.101690272
H  H90  1  0.55210000  0.37020000  0.54030000  1.0 0.1103769121
H  H91  1  0.55650000  0.06500000  0.77050000  1.0 0.101690272
H  H92  1  0.53320000  0.20910000  0.74430000  1.0 0.1291335401
H  H93  1  0.38480000  0.21540000  0.90030000  1.0 0.1103769121
H  H94  1  0.41520000  0.07300000  0.92200000  1.0 0.0814061295
H  H95  1  0.52330000  0.45670000  0.77690000  1.0 0.1185433407
H  H96  1  0.41570000  0.47350000  0.75230000  1.0 0.1103769121
H  H97  1  0.69720000  0.78590000  0.82590000  1.0 0.0893338082
H  H98  1  0.72460000  0.71370000  0.75020000  1.0 0.137888261
H  H99  1  0.46730000  0.83970000  0.68000000  1.0 0.137888261
H  H100  1  0.44530000  0.90920000  0.75790000  1.0 0.1103769121
H  H101  1  0.59870000  0.68870000  0.55960000  1.0 0.1103769121
H  H102  1  0.48390000  0.70540000  0.55620000  1.0 0.1103769121
H  H103  1  0.49590000  0.59340000  0.69300000  1.0 0.1185433407
H  H104  1  0.55040000  0.36220000  0.66010000  1.0 0.1185433407
H  H105  1  0.59780000  0.55830000  0.53030000  1.0 0.1291335401
H  H106  1  0.52200000  0.73650000  0.95620000  1.0 0.101690272
H  H107  1  0.45440000  0.66440000  0.04120000  1.0 0.137888261
H  H108  1  0.32230000  0.88340000  0.07650000  1.0 0.1185433407
H  H109  1  0.38400000  0.95020000  0.98830000  1.0 0.0893338082
H  H110  1  0.32070000  0.68030000  0.23940000  1.0 0.101690272
H  H111  1  0.21400000  0.70400000  0.21200000  1.0 0.1185433407
H  H112  1  0.06800000  0.23750000  0.42700000  1.0 0.1103769121
H  H113  1  0.09730000  0.16930000  0.34820000  1.0 0.137888261
H  H114  1  0.36920000  0.07530000  0.40830000  1.0 0.1291335401
H  H115  1  0.33310000  0.14780000  0.48390000  1.0 0.1103769121
H  H116  1  0.25640000  0.03090000  0.22180000  1.0 0.0893338082
H  H117  1  0.14220000  0.04390000  0.21600000  1.0 0.101690272
H  H118  1  0.20640000  0.41430000  0.43800000  1.0 0.1103769121
H  H119  1  0.18680000  0.55720000  0.41410000  1.0 0.1291335401
H  H120  1  0.05140000  0.56320000  0.57400000  1.0 0.137888261
H  H121  1  0.07270000  0.42150000  0.59320000  1.0 0.1103769121
H  H122  1  0.19540000  0.79660000  0.44630000  1.0 0.1185433407
H  H123  1  0.08550000  0.81980000  0.42450000  1.0 0.1103769121
H  H124  1  0.21920000  0.70210000  0.33250000  1.0 0.1185433407
H  H125  1  0.25350000  0.89620000  0.19520000  1.0 0.1103769121
H  H126  1  0.15520000  0.93810000  0.35720000  1.0 0.1185433407
C  C1  1  0.95100000  0.76350000  0.33333333  1.0 0.0814061295
C  C2  1  0.98130000  0.80270000  0.27740000  1.0 -0.1372880816
C  C3  1  0.96710000  0.88820000  0.26250000  1.0 -0.0022530585
C  C4  1  0.92000000  0.93270000  0.30460000  1.0 -0.1587973341
C  C5  1  0.89220000  0.88820000  0.35920000  1.0 0.0703663044
C  C6  1  0.99580000  0.93570000  0.20250000  1.0 0.4987460058
C  C7  1  0.06280000  0.92530000  0.10770000  1.0 -0.0795510819
C  C8  1  0.20190000  0.36710000  0.93810000  1.0 0.0703663044
C  C9  1  0.20220000  0.39470000  0.99100000  1.0 -0.1692029398
C  C10  1  0.14760000  0.47300000  0.99270000  1.0 -0.0022530585
C  C11  1  0.09220000  0.51790000  0.94320000  1.0 -0.1502937369
C  C12  1  0.09280000  0.48490000  0.89280000  1.0 0.0814061295
C  C13  1  0.15170000  0.50670000  0.04630000  1.0 0.4987460058
C  C14  1  0.12430000  0.63010000  0.08350000  1.0 -0.0682445592
C  C15  1  0.16650000  0.19810000  0.86020000  1.0 0.058934176
C  C16  1  0.17960000  0.11350000  0.87570000  1.0 -0.1692029398
C  C17  1  0.22750000  0.06660000  0.83650000  1.0 -0.0184136975
C  C18  1  0.26070000  0.11050000  0.78290000  1.0 -0.1372880816
C  C19  1  0.24550000  0.19440000  0.77100000  1.0 0.058934176
C  C20  1  0.24040000  0.97560000  0.84840000  1.0 0.4987460058
C  C21  1  0.20000000  0.85650000  0.91380000  1.0 -0.0682445592
C  C22  1  0.15980000  0.83240000  0.97620000  1.0 0.1103769121
C  C23  1  0.12860000  0.88810000  0.01260000  1.0 -0.2277728377
C  C24  1  0.09420000  0.86130000  0.07050000  1.0 0.101690272
C  C25  1  0.09170000  0.77820000  0.09220000  1.0 -0.2106755469
C  C26  1  0.12300000  0.72070000  0.05670000  1.0 0.1103769121
C  C27  1  0.15740000  0.74860000  0.99860000  1.0 -0.2185707432
C  C28  1  0.19770000  0.54680000  0.69500000  1.0 0.058934176
C  C29  1  0.22840000  0.59480000  0.64370000  1.0 -0.1502937369
C  C30  1  0.28660000  0.55660000  0.60340000  1.0 -0.0084928606
C  C31  1  0.31360000  0.47010000  0.61690000  1.0 -0.1502937369
C  C32  1  0.28100000  0.42530000  0.67050000  1.0 0.0814061295
C  C33  1  0.31920000  0.60920000  0.54720000  1.0 0.4925039232
C  C34  1  0.39240000  0.60720000  0.45240000  1.0 -0.0795510819
C  C35  1  0.47730000  0.90370000  0.20240000  1.0 0.0814061295
C  C36  1  0.49160000  0.81770000  0.21870000  1.0 -0.1502937369
C  C37  1  0.54250000  0.77170000  0.18030000  1.0 -0.0022530585
C  C38  1  0.57840000  0.81430000  0.12680000  1.0 -0.1587973341
C  C39  1  0.55990000  0.89870000  0.11440000  1.0 0.0304127315
C  C40  1  0.55930000  0.67950000  0.19180000  1.0 0.4987460058
C  C41  1  0.51680000  0.55590000  0.25230000  1.0 -0.0795510819
C  C42  1  0.35090000  0.20310000  0.20390000  1.0 0.0703663044
C  C43  1  0.33390000  0.24630000  0.24900000  1.0 -0.1587973341
C  C44  1  0.40180000  0.23120000  0.29280000  1.0 0.0065213999
C  C45  1  0.48440000  0.17270000  0.29010000  1.0 -0.1502937369
C  C46  1  0.49710000  0.13160000  0.24350000  1.0 0.0814061295
C  C47  1  0.38610000  0.27810000  0.34180000  1.0 0.4987460058
C  C48  1  0.46010000  0.31850000  0.41640000  1.0 -0.0795510819
C  C49  1  0.45540000  0.40930000  0.39260000  1.0 0.1103769121
C  C50  1  0.48390000  0.44250000  0.33390000  1.0 -0.2185707432
C  C51  1  0.48300000  0.52600000  0.31450000  1.0 0.1103769121
C  C52  1  0.45130000  0.57980000  0.35330000  1.0 -0.2277728377
C  C53  1  0.42200000  0.54730000  0.41240000  1.0 0.1103769121
C  C54  1  0.42370000  0.46330000  0.43020000  1.0 -0.20123726
C  C55  1  0.52040000  0.23270000  0.01940000  1.0 0.058934176
C  C56  1  0.55960000  0.27620000  0.96830000  1.0 -0.1372880816
C  C57  1  0.61780000  0.23380000  0.93220000  1.0 0.0065213999
C  C58  1  0.63760000  0.14830000  0.94830000  1.0 -0.1587973341
C  C59  1  0.59920000  0.10910000  0.00040000  1.0 0.0449795656
C  C60  1  0.65570000  0.28140000  0.87580000  1.0 0.4987460058
C  C61  1  0.73040000  0.27300000  0.78140000  1.0 -0.0795510819
C  C62  1  0.86980000  0.79610000  0.57670000  1.0 0.0893338082
C  C63  1  0.85320000  0.83690000  0.62390000  1.0 -0.1587973341
C  C64  1  0.76400000  0.88610000  0.62930000  1.0 0.0024709309
C  C65  1  0.69360000  0.89170000  0.58870000  1.0 -0.1587973341
C  C66  1  0.71590000  0.84860000  0.54370000  1.0 0.0703663044
C  C67  1  0.73950000  0.93280000  0.67820000  1.0 0.4987460058
C  C68  1  0.80330000  0.97680000  0.75530000  1.0 -0.0903490662
C  C69  1  0.82570000  0.55490000  0.53410000  1.0 0.0703663044
C  C70  1  0.83670000  0.46990000  0.54850000  1.0 -0.1587973341
C  C71  1  0.88200000  0.42380000  0.50840000  1.0 0.0024709309
C  C72  1  0.91650000  0.46630000  0.45460000  1.0 -0.1502937369
C  C73  1  0.90330000  0.55050000  0.44370000  1.0 0.058934176
C  C74  1  0.89410000  0.33080000  0.51900000  1.0 0.4925039232
C  C75  1  0.84930000  0.21280000  0.58180000  1.0 -0.0795510819
C  C76  1  0.81770000  0.18480000  0.64540000  1.0 0.1185433407
C  C77  1  0.78580000  0.23970000  0.68280000  1.0 -0.2277728377
C  C78  1  0.76060000  0.20910000  0.74340000  1.0 0.1185433407
C  C79  1  0.76500000  0.12420000  0.76440000  1.0 -0.2185707432
C  C80  1  0.79560000  0.06870000  0.72790000  1.0 0.1103769121
C  C81  1  0.82270000  0.09960000  0.66810000  1.0 -0.2277728377
C  C82  1  0.50040000  0.85010000  0.39700000  1.0 0.4452909425
C  C83  1  0.84190000  0.50880000  0.72300000  1.0 0.4790017799
C  C84  1  0.13730000  0.15350000  0.05010000  1.0 0.2391690508
C  C85  1  0.04900000  0.23650000  0.66666667  1.0 0.0814061295
C  C86  1  0.01870000  0.19730000  0.72260000  1.0 -0.1372880816
C  C87  1  0.03290000  0.11180000  0.73750000  1.0 -0.0022530585
C  C88  1  0.08000000  0.06730000  0.69540000  1.0 -0.1587973341
C  C89  1  0.10780000  0.11180000  0.64080000  1.0 0.0703663044
C  C90  1  0.00420000  0.06430000  0.79750000  1.0 0.4987460058
C  C91  1  0.93720000  0.07470000  0.89230000  1.0 -0.0795510819
C  C92  1  0.79810000  0.63290000  0.06190000  1.0 0.0703663044
C  C93  1  0.79780000  0.60530000  0.00900000  1.0 -0.1692029398
C  C94  1  0.85240000  0.52700000  0.00730000  1.0 -0.0022530585
C  C95  1  0.90780000  0.48210000  0.05680000  1.0 -0.1502937369
C  C96  1  0.90720000  0.51510000  0.10720000  1.0 0.0814061295
C  C97  1  0.84830000  0.49330000  0.95370000  1.0 0.4987460058
C  C98  1  0.87570000  0.36990000  0.91650000  1.0 -0.0682445592
C  C99  1  0.83350000  0.80190000  0.13980000  1.0 0.058934176
C  C100  1  0.82040000  0.88650000  0.12430000  1.0 -0.1692029398
C  C101  1  0.77250000  0.93340000  0.16350000  1.0 -0.0184136975
C  C102  1  0.73930000  0.88950000  0.21710000  1.0 -0.1372880816
C  C103  1  0.75450000  0.80560000  0.22900000  1.0 0.058934176
C  C104  1  0.75960000  0.02440000  0.15160000  1.0 0.4987460058
C  C105  1  0.80000000  0.14350000  0.08620000  1.0 -0.0682445592
C  C106  1  0.84020000  0.16760000  0.02380000  1.0 0.1103769121
C  C107  1  0.87140000  0.11190000  0.98740000  1.0 -0.2277728377
C  C108  1  0.90580000  0.13870000  0.92950000  1.0 0.101690272
C  C109  1  0.90830000  0.22180000  0.90780000  1.0 -0.2106755469
C  C110  1  0.87700000  0.27930000  0.94330000  1.0 0.1103769121
C  C111  1  0.84260000  0.25140000  0.00140000  1.0 -0.2185707432
C  C112  1  0.80230000  0.45320000  0.30500000  1.0 0.058934176
C  C113  1  0.77160000  0.40520000  0.35630000  1.0 -0.1502937369
C  C114  1  0.71340000  0.44340000  0.39660000  1.0 -0.0084928606
C  C115  1  0.68640000  0.52990000  0.38310000  1.0 -0.1502937369
C  C116  1  0.71900000  0.57470000  0.32950000  1.0 0.0814061295
C  C117  1  0.68080000  0.39080000  0.45280000  1.0 0.4925039232
C  C118  1  0.60760000  0.39280000  0.54760000  1.0 -0.0795510819
C  C119  1  0.52270000  0.09630000  0.79760000  1.0 0.0814061295
C  C120  1  0.50840000  0.18230000  0.78130000  1.0 -0.1502937369
C  C121  1  0.45750000  0.22830000  0.81970000  1.0 -0.0022530585
C  C122  1  0.42160000  0.18570000  0.87320000  1.0 -0.1587973341
C  C123  1  0.44010000  0.10130000  0.88560000  1.0 0.0304127315
C  C124  1  0.44070000  0.32050000  0.80820000  1.0 0.4987460058
C  C125  1  0.48320000  0.44410000  0.74770000  1.0 -0.0795510819
C  C126  1  0.64910000  0.79690000  0.79610000  1.0 0.0703663044
C  C127  1  0.66610000  0.75370000  0.75100000  1.0 -0.1587973341
C  C128  1  0.59820000  0.76880000  0.70720000  1.0 0.0065213999
C  C129  1  0.51560000  0.82730000  0.70990000  1.0 -0.1502937369
C  C130  1  0.50290000  0.86840000  0.75650000  1.0 0.0814061295
C  C131  1  0.61390000  0.72190000  0.65820000  1.0 0.4987460058
C  C132  1  0.53990000  0.68150000  0.58360000  1.0 -0.0795510819
C  C133  1  0.54460000  0.59070000  0.60740000  1.0 0.1103769121
C  C134  1  0.51610000  0.55750000  0.66610000  1.0 -0.2185707432
C  C135  1  0.51700000  0.47400000  0.68550000  1.0 0.1103769121
C  C136  1  0.54870000  0.42020000  0.64670000  1.0 -0.2277728377
C  C137  1  0.57800000  0.45270000  0.58760000  1.0 0.1103769121
C  C138  1  0.57630000  0.53670000  0.56980000  1.0 -0.20123726
C  C139  1  0.47960000  0.76730000  0.98060000  1.0 0.058934176
C  C140  1  0.44040000  0.72380000  0.03170000  1.0 -0.1372880816
C  C141  1  0.38220000  0.76620000  0.06780000  1.0 0.0065213999
C  C142  1  0.36240000  0.85170000  0.05170000  1.0 -0.1587973341
C  C143  1  0.40080000  0.89090000  0.99960000  1.0 0.0457321786
C  C144  1  0.34430000  0.71860000  0.12420000  1.0 0.4987460058
C  C145  1  0.26960000  0.72700000  0.21860000  1.0 -0.0795510819
C  C146  1  0.13020000  0.20390000  0.42330000  1.0 0.0893338082
C  C147  1  0.14680000  0.16310000  0.37610000  1.0 -0.1587973341
C  C148  1  0.23600000  0.11390000  0.37070000  1.0 0.0024709309
C  C149  1  0.30640000  0.10830000  0.41130000  1.0 -0.1587973341
C  C150  1  0.28410000  0.15140000  0.45630000  1.0 0.0703663044
C  C151  1  0.26050000  0.06720000  0.32180000  1.0 0.4987460058
C  C152  1  0.19670000  0.02320000  0.24470000  1.0 -0.0903490662
C  C153  1  0.17430000  0.44510000  0.46590000  1.0 0.0703663044
C  C154  1  0.16330000  0.53010000  0.45150000  1.0 -0.1587973341
C  C155  1  0.11800000  0.57620000  0.49160000  1.0 0.0024709309
C  C156  1  0.08350000  0.53370000  0.54540000  1.0 -0.1502937369
C  C157  1  0.09670000  0.44950000  0.55630000  1.0 0.058934176
C  C158  1  0.10590000  0.66920000  0.48100000  1.0 0.4925039232
C  C159  1  0.15070000  0.78720000  0.41820000  1.0 -0.0795510819
C  C160  1  0.18230000  0.81520000  0.35460000  1.0 0.1185433407
C  C161  1  0.21420000  0.76030000  0.31720000  1.0 -0.2277728377
C  C162  1  0.23940000  0.79090000  0.25660000  1.0 0.1185433407
C  C163  1  0.23500000  0.87580000  0.23560000  1.0 -0.2185707432
C  C164  1  0.20440000  0.93130000  0.27210000  1.0 0.1185433407
C  C165  1  0.17730000  0.90040000  0.33190000  1.0 -0.2277728377
C  C166  1  0.49960000  0.14990000  0.60300000  1.0 0.4452909425
C  C167  1  0.15810000  0.49120000  0.27700000  1.0 0.4790017799
C  C168  1  0.86270000  0.84650000  0.94990000  1.0 0.2346817598
S  S1  1  0.60643000  0.77155000  0.39921000  1.0 0.9729277685
S  S2  1  0.95257000  0.43374000  0.73979000  1.0 0.9729277685
S  S3  1  0.26187000  0.11426000  0.05115000  1.0 0.5514693752
S  S4  1  0.39357000  0.22845000  0.60079000  1.0 0.9729277685
S  S5  1  0.04743000  0.56626000  0.26021000  1.0 0.975178738
S  S6  1  0.73813000  0.88574000  0.94885000  1.0 0.5514693752
N  N1  1  0.90690000  0.80500000  0.37370000  1.0 -0.20123726
N  N2  1  0.15090000  0.41070000  0.88960000  1.0 -0.20123726
N  N3  1  0.19740000  0.24100000  0.80860000  1.0 -0.2106755469
N  N4  1  0.22570000  0.46220000  0.70980000  1.0 -0.1845319524
N  N5  1  0.50840000  0.94480000  0.15060000  1.0 -0.2277728377
N  N6  1  0.43120000  0.14700000  0.20020000  1.0 -0.20123726
N  N7  1  0.53970000  0.14910000  0.03580000  1.0 -0.2185707432
N  N8  1  0.80420000  0.80170000  0.53710000  1.0 -0.1863303437
N  N9  1  0.85830000  0.59720000  0.48180000  1.0 -0.20123726
N  N10  1  0.09310000  0.19500000  0.62630000  1.0 -0.20123726
N  N11  1  0.84910000  0.58930000  0.11040000  1.0 -0.20123726
N  N12  1  0.80260000  0.75900000  0.19140000  1.0 -0.2106755469
N  N13  1  0.77430000  0.53780000  0.29020000  1.0 -0.1845319524
N  N14  1  0.49160000  0.05520000  0.84940000  1.0 -0.2277728377
N  N15  1  0.56880000  0.85300000  0.79980000  1.0 -0.20123726
N  N16  1  0.46030000  0.85090000  0.96420000  1.0 -0.2185707432
N  N17  1  0.19580000  0.19830000  0.46290000  1.0 -0.1863303437
N  N18  1  0.14170000  0.40280000  0.51820000  1.0 -0.20123726
O  O1  1  0.98390000  0.01050000  0.18900000  1.0 -0.4545093581
O  O2  1  0.03450000  0.88470000  0.16669000  1.0 -0.2185707432
O  O3  1  0.18140000  0.46370000  0.09490000  1.0 -0.4591400727
O  O4  1  0.12050000  0.58940000  0.03460000  1.0 -0.2277728377
O  O5  1  0.28330000  0.93270000  0.81600000  1.0 -0.4707442328
O  O6  1  0.19830000  0.94500000  0.89980000  1.0 -0.2106755469
O  O7  1  0.30890000  0.68370000  0.53830000  1.0 -0.4437089567
O  O8  1  0.35830000  0.56310000  0.50870000  1.0 -0.2106755469
O  O9  1  0.61450000  0.63830000  0.16200000  1.0 -0.4823683306
O  O10  1  0.51080000  0.64580000  0.23950000  1.0 -0.20123726
O  O11  1  0.30950000  0.31730000  0.35410000  1.0 -0.4437089567
O  O12  1  0.46860000  0.27220000  0.36910000  1.0 -0.2106755469
O  O13  1  0.65050000  0.35500000  0.86440000  1.0 -0.423269163
O  O14  1  0.69480000  0.23160000  0.83891000  1.0 -0.2106755469
O  O15  1  0.66040000  0.96950000  0.68800000  1.0 -0.4437089567
O  O16  1  0.81760000  0.92850000  0.70980000  1.0 -0.2185707432
O  O17  1  0.93660000  0.29020000  0.48590000  1.0 -0.4707442328
O  O18  1  0.85000000  0.29950000  0.56990000  1.0 -0.20123726
O  O19  1  0.67650000  0.80390000  0.41680000  1.0 -0.5188451812
O  O20  1  0.61000000  0.75600000  0.34310000  1.0 -0.5188451812
O  O21  1  0.58870000  0.70290000  0.44440000  1.0 -0.5366952821
O  O22  1  0.00470000  0.47120000  0.77410000  1.0 -0.554767172
O  O23  1  0.99430000  0.42370000  0.68300000  1.0 -0.5590151593
O  O24  1  0.92160000  0.36240000  0.77620000  1.0 -0.5590151593
O  O25  1  0.29300000  0.12190000  0.99090000  1.0 -0.0022530585
O  O26  1  0.27950000  0.03480000  0.09150000  1.0 -0.0599429624
O  O27  1  0.29240000  0.17110000  0.08160000  1.0 -0.2277728377
O  O28  1  0.30500000  0.16600000  0.00780000  1.0 -0.0903490662
O  O29  1  0.24580000  0.04800000  0.02130000  1.0 -0.246771875
O  O30  1  0.29750000  0.08700000  0.10680000  1.0 0.0304127315
O  O31  1  0.01610000  0.98950000  0.81100000  1.0 -0.4545093581
O  O32  1  0.96550000  0.11530000  0.83331000  1.0 -0.2106755469
O  O33  1  0.81860000  0.53630000  0.90510000  1.0 -0.4591400727
O  O34  1  0.87950000  0.41060000  0.96540000  1.0 -0.2361170455
O  O35  1  0.71670000  0.06730000  0.18400000  1.0 -0.4707442328
O  O36  1  0.80170000  0.05500000  0.10020000  1.0 -0.2185707432
O  O37  1  0.69110000  0.31630000  0.46170000  1.0 -0.4437089567
O  O38  1  0.64170000  0.43690000  0.49130000  1.0 -0.2106755469
O  O39  1  0.38550000  0.36170000  0.83800000  1.0 -0.4823683306
O  O40  1  0.48920000  0.35420000  0.76050000  1.0 -0.20123726
O  O41  1  0.69050000  0.68270000  0.64590000  1.0 -0.4437089567
O  O42  1  0.53140000  0.72780000  0.63090000  1.0 -0.2106755469
O  O43  1  0.34950000  0.64500000  0.13560000  1.0 -0.423269163
O  O44  1  0.30520000  0.76840000  0.16109000  1.0 -0.2106755469
O  O45  1  0.33960000  0.03050000  0.31200000  1.0 -0.4437089567
O  O46  1  0.18240000  0.07150000  0.29020000  1.0 -0.2185707432
O  O47  1  0.06340000  0.70980000  0.51410000  1.0 -0.4707442328
O  O48  1  0.15000000  0.70050000  0.43010000  1.0 -0.20123726
O  O49  1  0.32350000  0.19610000  0.58320000  1.0 -0.5188451812
O  O50  1  0.39000000  0.24400000  0.65690000  1.0 -0.5188451812
O  O51  1  0.41130000  0.29710000  0.55560000  1.0 -0.5366952821
O  O52  1  0.99530000  0.52880000  0.22590000  1.0 -0.5590151593
O  O53  1  0.00570000  0.57630000  0.31700000  1.0 -0.5590151593
O  O54  1  0.07840000  0.63760000  0.22380000  1.0 -0.5590151593
O  O55  1  0.70700000  0.87810000  0.00910000  1.0 -0.0084928606
O  O56  1  0.72050000  0.96520000  0.90850000  1.0 -0.0682445592
O  O57  1  0.70760000  0.82890000  0.91840000  1.0 -0.2277728377
O  O58  1  0.69500000  0.83400000  0.99220000  1.0 -0.0903490662
O  O59  1  0.75420000  0.95200000  0.97870000  1.0 -0.246771875
O  O60  1  0.70250000  0.91300000  0.89320000  1.0 0.0304127315
F  F1  1  0.51490000  0.91830000  0.35940000  1.0 -0.1502937369
F  F2  1  0.48750000  0.87340000  0.44810000  1.0 -0.1692029398
F  F3  1  0.42710000  0.83640000  0.38120000  1.0 -0.1309679329
F  F4  1  0.78400000  0.48740000  0.69060000  1.0 -0.1692029398
F  F5  1  0.79960000  0.53280000  0.76790000  1.0 -0.1502937369
F  F6  1  0.86870000  0.57920000  0.68330000  1.0 -0.2106755469
F  F7  1  0.09230000  0.13700000  0.09760000  1.0 -0.0682445592
F  F8  1  0.10440000  0.22120000  0.01450000  1.0 -0.0333851214
F  F9  1  0.09640000  0.10400000  0.01910000  1.0 -0.1212117925
F  F10  1  0.14090000  0.23560000  0.07840000  1.0 -0.0599429624
F  F11  1  0.48510000  0.08170000  0.64060000  1.0 -0.1502937369
F  F12  1  0.51250000  0.12660000  0.55190000  1.0 -0.1692029398
F  F13  1  0.57290000  0.16360000  0.61880000  1.0 -0.1309679329
F  F14  1  0.21600000  0.51260000  0.30940000  1.0 -0.1692029398
F  F15  1  0.20040000  0.46720000  0.23210000  1.0 -0.1502937369
F  F16  1  0.13130000  0.42080000  0.31670000  1.0 -0.2106755469
F  F17  1  0.90770000  0.86300000  0.90240000  1.0 -0.0682445592
F  F18  1  0.89560000  0.77880000  0.98550000  1.0 -0.0352363318
F  F19  1  0.90360000  0.89600000  0.98090000  1.0 -0.1212117925
F  F20  1  0.85910000  0.76440000  0.92160000  1.0 -0.0599429624
