# DDEC6 charges by PACMAN v1.1 (https://github.com/mtap-research/PACMAN-charge/)
data_SEHVOQ_FSR_pacman
_symmetry_space_group_name_H-M   'P 1'
_cell_length_a   18.10550000
_cell_length_b   17.63290000
_cell_length_c   9.16609000
_cell_angle_alpha   78.01420000
_cell_angle_beta   72.30130000
_cell_angle_gamma   29.68450000
_symmetry_Int_Tables_number   1
_chemical_formula_structural   V5B2(P2O13)2
_chemical_formula_sum   'V10 B4 P8 O52'
_cell_volume   1370.66317866
_cell_formula_units_Z   2
loop_
 _symmetry_equiv_pos_site_id
 _symmetry_equiv_pos_as_xyz
  1  'x, y, z'
loop_
 _atom_site_type_symbol
 _atom_site_label
 _atom_site_symmetry_multiplicity
 _atom_site_fract_x
 _atom_site_fract_y
 _atom_site_fract_z
 _atom_site_occupancy
 _atom_site_charge
V  V1  1  0.10360000  0.17613000  0.49577000  1.0 1.8693121831
V  V2  1  0.22450000  0.49577000  0.17613000  1.0 1.8693121831
V  V3  1  0.75423000  0.02550000  0.14640000  1.0 1.8693121831
V  V4  1  0.07387000  0.14640000  0.02550000  1.0 1.8693121831
V  V5  1  0.38250000  0.83463000  0.53267000  1.0 1.8605597178
V  V6  1  0.25020000  0.53267000  0.83463000  1.0 1.8605597178
V  V7  1  0.71733000  0.99980000  0.86750000  1.0 1.8605597178
V  V8  1  0.41537000  0.86750000  0.99980000  1.0 1.8605597178
V  V9  1  0.59805000  0.40195000  0.40195000  1.0 1.9182167808
V  V10  1  0.84805000  0.65195000  0.65195000  1.0 1.9182167808
B  B1  1  0.29193000  0.04127000  0.71523000  1.0 0.9725836675
B  B2  1  0.95157000  0.71523000  0.04127000  1.0 0.9725836675
B  B3  1  0.53477000  0.29843000  0.95807000  1.0 0.9725836675
B  B4  1  0.20873000  0.95807000  0.29843000  1.0 0.9725836675
P  P1  1  0.90800000  0.23873000  0.38017000  1.0 1.5685677687
P  P2  1  0.47310000  0.38017000  0.23873000  1.0 1.5685677687
P  P3  1  0.86983000  0.77690000  0.34200000  1.0 1.5685677687
P  P4  1  0.01127000  0.34200000  0.77690000  1.0 1.5685677687
P  P5  1  0.59040000  0.75633000  0.65217000  1.0 1.5800709884
P  P6  1  0.00110000  0.65217000  0.75633000  1.0 1.5800709884
P  P7  1  0.59783000  0.24890000  0.65960000  1.0 1.5800709884
P  P8  1  0.49367000  0.65960000  0.24890000  1.0 1.5800709884
O  O1  1  0.13060000  0.22973000  0.36177000  1.0 -0.5308650772
O  O2  1  0.27790000  0.36177000  0.22973000  1.0 -0.5308650772
O  O3  1  0.88823000  0.97210000  0.11940000  1.0 -0.5308650772
O  O4  1  0.02027000  0.11940000  0.97210000  1.0 -0.5308650772
O  O5  1  0.33130000  0.80443000  0.66447000  1.0 -0.5051376064
O  O6  1  0.19980000  0.66447000  0.80443000  1.0 -0.5038273772
O  O7  1  0.58553000  0.05020000  0.91870000  1.0 -0.5051376064
O  O8  1  0.44557000  0.91870000  0.05020000  1.0 -0.5038273772
O  O9  1  0.26330000  0.02443000  0.60727000  1.0 -0.8782037337
O  O10  1  0.10500000  0.60727000  0.02443000  1.0 -0.8782037337
O  O11  1  0.64273000  0.14500000  0.98670000  1.0 -0.8782037337
O  O12  1  0.22557000  0.98670000  0.14500000  1.0 -0.8782037337
O  O13  1  0.46085000  0.53915000  0.53915000  1.0 -0.5308650772
O  O14  1  0.71085000  0.78915000  0.78915000  1.0 -0.5308650772
O  O15  1  0.79735000  0.20265000  0.20265000  1.0 0.2230060632
O  O16  1  0.04735000  0.45265000  0.45265000  1.0 0.2230060632
O  O17  1  0.92140000  0.27813000  0.49177000  1.0 -0.7556938668
O  O18  1  0.30870000  0.49177000  0.27813000  1.0 -0.7556938668
O  O19  1  0.75823000  0.94130000  0.32860000  1.0 -0.7556938668
O  O20  1  0.97187000  0.32860000  0.94130000  1.0 -0.7556938668
O  O21  1  0.05110000  0.05943000  0.36107000  1.0 -0.624485067
O  O22  1  0.52840000  0.36107000  0.05943000  1.0 -0.624485067
O  O23  1  0.88893000  0.72160000  0.19890000  1.0 -0.624485067
O  O24  1  0.19057000  0.19890000  0.72160000  1.0 -0.624485067
O  O25  1  0.76550000  0.31243000  0.44467000  1.0 -0.7814183314
O  O26  1  0.47740000  0.44467000  0.31243000  1.0 -0.7710863138
O  O27  1  0.80533000  0.77260000  0.48450000  1.0 -0.7710863138
O  O28  1  0.93757000  0.48450000  0.77260000  1.0 -0.7710863138
O  O29  1  0.96590000  0.33463000  0.67127000  1.0 -0.7814183314
O  O30  1  0.02820000  0.67127000  0.33463000  1.0 -0.7814183314
O  O31  1  0.57873000  0.22180000  0.28410000  1.0 -0.7814183314
O  O32  1  0.91537000  0.28410000  0.22180000  1.0 -0.7814183314
O  O33  1  0.56970000  0.71783000  0.55167000  1.0 -0.7430779626
O  O34  1  0.16080000  0.55167000  0.71783000  1.0 -0.7430779626
O  O35  1  0.69833000  0.08920000  0.68030000  1.0 -0.7430779626
O  O36  1  0.53217000  0.68030000  0.08920000  1.0 -0.7430779626
O  O37  1  0.45130000  0.93503000  0.66367000  1.0 -0.624485067
O  O38  1  0.95000000  0.66367000  0.93503000  1.0 -0.624485067
O  O39  1  0.58633000  0.30000000  0.79870000  1.0 -0.624485067
O  O40  1  0.31497000  0.79870000  0.30000000  1.0 -0.624485067
O  O41  1  0.73780000  0.67293000  0.57617000  1.0 -0.7710863138
O  O42  1  0.01310000  0.57617000  0.67293000  1.0 -0.7710863138
O  O43  1  0.67383000  0.23690000  0.51220000  1.0 -0.7710863138
O  O44  1  0.57707000  0.51220000  0.23690000  1.0 -0.7710863138
O  O45  1  0.53310000  0.66623000  0.36667000  1.0 -0.7710863138
O  O46  1  0.43400000  0.36667000  0.66623000  1.0 -0.7710863138
O  O47  1  0.88333000  0.81600000  0.71690000  1.0 -0.7710863138
O  O48  1  0.58377000  0.71690000  0.81600000  1.0 -0.7710863138
O  O49  1  0.23520000  0.98213000  0.40457000  1.0 -0.8977196654
O  O50  1  0.37810000  0.40457000  0.98213000  1.0 -0.8977196654
O  O51  1  0.84543000  0.87190000  0.01480000  1.0 -0.8977196654
O  O52  1  0.26787000  0.01480000  0.87190000  1.0 -0.8977196654
