# DDEC6 charges by PACMAN v1.1 (https://github.com/mtap-research/PACMAN-charge/)
data_SEHZEN_ion_pacman
_symmetry_space_group_name_H-M   'P 1'
_cell_length_a   9.01950000
_cell_length_b   13.28570000
_cell_length_c   15.64740000
_cell_angle_alpha   108.83200000
_cell_angle_beta   94.72100000
_cell_angle_gamma   103.53900000
_symmetry_Int_Tables_number   1
_chemical_formula_structural   AgH25C34SN4O10F3
_chemical_formula_sum   'Ag2 H50 C68 S2 N8 O20 F6'
_cell_volume   1699.76186693
_cell_formula_units_Z   2
loop_
 _symmetry_equiv_pos_site_id
 _symmetry_equiv_pos_as_xyz
  1  'x, y, z'
loop_
 _atom_site_type_symbol
 _atom_site_label
 _atom_site_symmetry_multiplicity
 _atom_site_fract_x
 _atom_site_fract_y
 _atom_site_fract_z
 _atom_site_occupancy
 _atom_site_charge
Ag  Ag1  1  0.11573000  0.55962000  0.21219000  1.0 0.3008673623
Ag  Ag2  1  0.59084000  0.66988000  0.60184000  1.0 0.2850531474
H  H1  1  0.28960000  0.38440000  0.10450000  1.0 0.0995629108
H  H2  1  0.36220000  0.23400000  0.11240000  1.0 0.1392335549
H  H3  1  0.33290000  0.32980000  0.38600000  1.0 0.1300013136
H  H4  1  0.18550000  0.45210000  0.36120000  1.0 0.1097616737
H  H5  1  0.66060000  0.13980000  0.34030000  1.0 0.0995629108
H  H6  1  0.50220000  0.05120000  0.33580000  1.0 0.1097616737
H  H7  1  0.95320000  0.75620000  0.26860000  1.0 0.1097616737
H  H8  1  0.86050000  0.86410000  0.38100000  1.0 0.1208315058
H  H9  1  0.04650000  0.73180000  0.55080000  1.0 0.1208315058
H  H10  1  0.11430000  0.61220000  0.42630000  1.0 0.1097616737
H  H11  1  0.91920000  0.09130000  0.65770000  1.0 0.1208315058
H  H12  1  0.76020000  0.00370000  0.65320000  1.0 0.1097616737
H  H13  1  0.18700000  0.57650000  0.01280000  1.0 0.0912417028
H  H14  1  0.05230000  0.53990000  0.86690000  1.0 0.1208315058
H  H15  1  0.64790000  0.43300000  0.94790000  1.0 0.1097616737
H  H16  1  0.78260000  0.46950000  0.09380000  1.0 0.0995629108
H  H17  1  0.43880000  0.30560000  0.68790000  1.0 0.1300013136
H  H18  1  0.55040000  0.40020000  0.66170000  1.0 0.1208315058
H  H19  1  0.72320000  0.03840000  0.44970000  1.0 0.1208315058
H  H20  1  0.70900000  0.20450000  0.71390000  1.0 0.1300013136
H  H21  1  0.50350000  0.27290000  0.50640000  1.0 0.1464529172
H  H22  1  0.77480000  0.60250000  0.14950000  1.0 0.1097616737
H  H23  1  0.59810000  0.53920000  0.01270000  1.0 0.1208315058
H  H24  1  0.92120000  0.43270000  0.87020000  1.0 0.0912417028
H  H25  1  0.09790000  0.49590000  0.00700000  1.0 0.0995629108
H  H26  1  0.77040000  0.48880000  0.55250000  1.0 0.1097616737
H  H27  1  0.82790000  0.35810000  0.42390000  1.0 0.1300013136
H  H28  1  0.67170000  0.50540000  0.26260000  1.0 0.1392335549
H  H29  1  0.58820000  0.60970000  0.38560000  1.0 0.1097616737
H  H30  1  0.94440000  0.21370000  0.15290000  1.0 0.1097616737
H  H31  1  0.78360000  0.12990000  0.15260000  1.0 0.1097616737
H  H32  1  0.47730000  0.76690000  0.45680000  1.0 0.1097616737
H  H33  1  0.38030000  0.89710000  0.43460000  1.0 0.1392335549
H  H34  1  0.30840000  0.97900000  0.69530000  1.0 0.1464529172
H  H35  1  0.45770000  0.85790000  0.71160000  1.0 0.0995629108
H  H36  1  0.21290000  0.18860000  0.47890000  1.0 0.1208315058
H  H37  1  0.05310000  0.10960000  0.48580000  1.0 0.1097616737
H  H38  1  0.94870000  0.66140000  0.66420000  1.0 0.0790770002
H  H39  1  0.11540000  0.69960000  0.80040000  1.0 0.1300013136
H  H40  1  0.77260000  0.75930000  0.94460000  1.0 0.1097616737
H  H41  1  0.60590000  0.72100000  0.80850000  1.0 0.0995629108
H  H42  1  0.26660000  0.91780000  0.11890000  1.0 0.1300013136
H  H43  1  0.16170000  0.82310000  0.14840000  1.0 0.1208315058
H  H44  1  0.97960000  0.19540000  0.36480000  1.0 0.1208315058
H  H45  1  0.19640000  0.95170000  0.30720000  1.0 0.1392335549
H  H46  1  0.98410000  0.02060000  0.10230000  1.0 0.1300013136
H  H47  1  0.90640000  0.74060000  0.71490000  1.0 0.0995629108
H  H48  1  0.04980000  0.79620000  0.86190000  1.0 0.0912417028
H  H49  1  0.65630000  0.70010000  0.95720000  1.0 0.0912417028
H  H50  1  0.51290000  0.64440000  0.81020000  1.0 0.0912417028
C  C1  1  0.28700000  0.36800000  0.15920000  1.0 0.0912417028
C  C2  1  0.34200000  0.28440000  0.16590000  1.0 -0.1770026798
C  C3  1  0.36970000  0.27040000  0.24980000  1.0 -0.0096836333
C  C4  1  0.31520000  0.33680000  0.32780000  1.0 -0.159141393
C  C5  1  0.23400000  0.41320000  0.31470000  1.0 0.0394768179
C  C6  1  0.45000000  0.18790000  0.25810000  1.0 0.4732264415
C  C7  1  0.56430000  0.12910000  0.36640000  1.0 -0.0516920905
C  C8  1  0.96700000  0.74770000  0.32650000  1.0 0.0334577434
C  C9  1  0.91400000  0.81540000  0.39380000  1.0 -0.159141393
C  C10  1  0.93880000  0.81290000  0.48680000  1.0 -0.0802118607
C  C11  1  0.02000000  0.73590000  0.49220000  1.0 -0.141598323
C  C12  1  0.06490000  0.66450000  0.41680000  1.0 0.0534601718
C  C13  1  0.90200000  0.89010000  0.56440000  1.0 0.4780697957
C  C14  1  0.82200000  0.04100000  0.61720000  1.0 -0.0516920905
C  C15  1  0.07800000  0.54740000  0.99960000  1.0 -0.0516920905
C  C16  1  0.99800000  0.52560000  0.91300000  1.0 -0.1081988727
C  C17  1  0.83700000  0.48300000  0.89370000  1.0 -0.0156234387
C  C18  1  0.75700000  0.46210000  0.96110000  1.0 -0.0516920905
C  C19  1  0.83700000  0.48380000  0.04780000  1.0 0.0710380398
C  C20  1  0.72900000  0.44600000  0.80200000  1.0 0.1962628648
C  C21  1  0.54800000  0.33800000  0.68420000  1.0 -0.1770026798
C  C22  1  0.60330000  0.15430000  0.46780000  1.0 0.0995629108
C  C23  1  0.69130000  0.09260000  0.49500000  1.0 -0.2182914133
C  C24  1  0.73180000  0.10870000  0.58480000  1.0 0.1097616737
C  C25  1  0.68400000  0.19270000  0.65050000  1.0 -0.2182914133
C  C26  1  0.60100000  0.25880000  0.62320000  1.0 0.1208315058
C  C27  1  0.56200000  0.23240000  0.52780000  1.0 -0.1770026798
C  C28  1  0.61200000  0.82640000  0.18960000  1.0 0.3742748335
C  C29  1  0.80500000  0.56800000  0.09280000  1.0 -0.1081988727
C  C30  1  0.69960000  0.53040000  0.01150000  1.0 -0.0899449825
C  C31  1  0.74300000  0.48000000  0.92860000  1.0 0.0087966918
C  C32  1  0.89100000  0.46710000  0.92690000  1.0 -0.0632798078
C  C33  1  0.99640000  0.50500000  0.00820000  1.0 0.0912417028
C  C34  1  0.63100000  0.45300000  0.84490000  1.0 0.227228953
C  C35  1  0.74300000  0.48710000  0.49200000  1.0 0.062261565
C  C36  1  0.78130000  0.41270000  0.41690000  1.0 -0.1487171069
C  C37  1  0.75090000  0.42100000  0.33640000  1.0 0.0087966918
C  C38  1  0.68510000  0.49730000  0.32070000  1.0 -0.1335500047
C  C39  1  0.64200000  0.55890000  0.39350000  1.0 0.0710380398
C  C40  1  0.79200000  0.34450000  0.25190000  1.0 0.5126937166
C  C41  1  0.88300000  0.17980000  0.19110000  1.0 -0.0712215878
C  C42  1  0.45190000  0.81620000  0.50890000  1.0 0.062261565
C  C43  1  0.38960000  0.89060000  0.49340000  1.0 -0.141598323
C  C44  1  0.34100000  0.95530000  0.56090000  1.0 0.0035772332
C  C45  1  0.35300000  0.94060000  0.64620000  1.0 -0.1722531184
C  C46  1  0.43500000  0.86410000  0.65340000  1.0 0.062261565
C  C47  1  0.25800000  0.04020000  0.55620000  1.0 0.5126937166
C  C48  1  0.14400000  0.11190000  0.45470000  1.0 -0.0802118607
C  C49  1  0.91300000  0.68130000  0.72110000  1.0 -0.0802118607
C  C50  1  0.01200000  0.70400000  0.80200000  1.0 -0.1001092955
C  C51  1  0.95960000  0.73300000  0.88530000  1.0 -0.0041866513
C  C52  1  0.80800000  0.73940000  0.88770000  1.0 -0.0354870908
C  C53  1  0.70930000  0.71670000  0.80680000  1.0 0.0790770002
C  C54  1  0.08000000  0.78700000  0.98260000  1.0 0.2687754169
C  C55  1  0.16000000  0.88420000  0.12560000  1.0 -0.2016036277
C  C56  1  0.97050000  0.11580000  0.22910000  1.0 0.1208315058
C  C57  1  0.00990000  0.13800000  0.32190000  1.0 -0.2182914133
C  C58  1  0.09430000  0.07660000  0.35340000  1.0 0.1208315058
C  C59  1  0.13830000  0.99430000  0.28830000  1.0 -0.2182914133
C  C60  1  0.09680000  0.97470000  0.19520000  1.0 0.1392335549
C  C61  1  0.01240000  0.03520000  0.16580000  1.0 -0.2092172891
C  C62  1  0.85600000  0.73240000  0.76410000  1.0 0.0912417028
C  C63  1  0.94080000  0.76540000  0.85140000  1.0 -0.0712215878
C  C64  1  0.86700000  0.75340000  0.92340000  1.0 -0.0305644689
C  C65  1  0.70700000  0.70800000  0.90800000  1.0 -0.0899449825
C  C66  1  0.62190000  0.67530000  0.82070000  1.0 -0.0632798078
C  C67  1  0.94300000  0.77400000  0.01500000  1.0 0.2483952776
C  C68  1  0.11900000  0.44300000  0.64630000  1.0 0.4604285792
S  S1  1  0.47230000  0.72840000  0.22160000  1.0 0.7852922812
S  S2  1  0.25450000  0.48980000  0.58150000  1.0 0.9049063459
N  N1  1  0.23000000  0.42780000  0.22570000  1.0 -0.2342213705
N  N2  1  0.03960000  0.66790000  0.33010000  1.0 -0.2632399365
N  N3  1  0.99700000  0.52640000  0.06700000  1.0 0.0215145074
N  N4  1  0.95300000  0.55520000  0.09110000  1.0 -0.0305644689
N  N5  1  0.66720000  0.55500000  0.47600000  1.0 -0.2092172891
N  N6  1  0.48200000  0.80180000  0.58360000  1.0 -0.2016036277
N  N7  1  0.76160000  0.68760000  0.72350000  1.0 -0.0712215878
N  N8  1  0.69600000  0.68730000  0.74870000  1.0 -0.0802118607
O  O1  1  0.30600000  0.65100000  0.16970000  1.0 -0.4117058083
O  O2  1  0.56900000  0.68470000  0.26090000  1.0 -0.4962468609
O  O3  1  0.37300000  0.78800000  0.25390000  1.0 -0.3618513211
O  O4  1  0.47800000  0.12370000  0.19580000  1.0 -0.3930317625
O  O5  1  0.47970000  0.20020000  0.35150000  1.0 -0.2182914133
O  O6  1  0.91400000  0.87430000  0.63300000  1.0 -0.4691291466
O  O7  1  0.85430000  0.96510000  0.54540000  1.0 -0.1864272818
O  O8  1  0.80700000  0.47500000  0.74160000  1.0 -0.4422629341
O  O9  1  0.64500000  0.38100000  0.77750000  1.0 -0.0632798078
O  O10  1  0.51300000  0.47900000  0.84000000  1.0 -0.3930317625
O  O11  1  0.77450000  0.34210000  0.16890000  1.0 -0.5425944194
O  O12  1  0.85380000  0.26740000  0.27010000  1.0 -0.2182914133
O  O13  1  0.21810000  0.10340000  0.61970000  1.0 -0.463239865
O  O14  1  0.22830000  0.03520000  0.47170000  1.0 -0.2016036277
O  O15  1  0.19800000  0.75600000  0.97650000  1.0 -0.3930317625
O  O16  1  0.05600000  0.84260000  0.03780000  1.0 -0.0712215878
O  O17  1  0.90600000  0.74290000  0.07410000  1.0 -0.3618513211
O  O18  1  0.19100000  0.50900000  0.50740000  1.0 -0.4691291466
O  O19  1  0.29900000  0.58160000  0.68350000  1.0 -0.5425944194
O  O20  1  0.32900000  0.40400000  0.54360000  1.0 -0.5262623295
F  F1  1  0.55500000  0.87940000  0.14350000  1.0 -0.141598323
F  F2  1  0.69550000  0.90860000  0.25870000  1.0 -0.1081988727
F  F3  1  0.72230000  0.79500000  0.15040000  1.0 -0.159141393
F  F4  1  0.17890000  0.42100000  0.70490000  1.0 -0.141598323
F  F5  1  0.01200000  0.36600000  0.58800000  1.0 -0.159141393
F  F6  1  0.06000000  0.52600000  0.67270000  1.0 -0.1226380259
