# DDEC6 charges by PACMAN v1.1 (https://github.com/mtap-research/PACMAN-charge/)
data_SEHZIR_ion_pacman
_symmetry_space_group_name_H-M   'P 1'
_cell_length_a   9.02640000
_cell_length_b   13.27170000
_cell_length_c   15.64570000
_cell_angle_alpha   108.85500000
_cell_angle_beta   94.68900000
_cell_angle_gamma   103.57900000
_symmetry_Int_Tables_number   1
_chemical_formula_structural   AgH25C34SN4O10F3
_chemical_formula_sum   'Ag2 H50 C68 S2 N8 O20 F6'
_cell_volume   1698.63159450
_cell_formula_units_Z   2
loop_
 _symmetry_equiv_pos_site_id
 _symmetry_equiv_pos_as_xyz
  1  'x, y, z'
loop_
 _atom_site_type_symbol
 _atom_site_label
 _atom_site_symmetry_multiplicity
 _atom_site_fract_x
 _atom_site_fract_y
 _atom_site_fract_z
 _atom_site_occupancy
 _atom_site_charge
Ag  Ag1  1  0.75105000  0.94115000  0.81904000  1.0 0.3004873534
Ag  Ag2  1  0.22701000  0.05086000  0.20810000  1.0 0.2857109745
H  H1  1  0.73400000  0.98370000  0.02830000  1.0 0.1099132234
H  H2  1  0.68230000  0.11210000  0.15860000  1.0 0.1407903444
H  H3  1  0.49370000  0.24010000  0.98470000  1.0 0.1407903444
H  H4  1  0.58120000  0.12720000  0.86920000  1.0 0.1099132234
H  H5  1  0.55950000  0.47660000  0.26820000  1.0 0.1210865182
H  H6  1  0.39820000  0.39180000  0.26470000  1.0 0.1099132234
H  H7  1  0.88670000  0.75530000  0.70610000  1.0 0.0998043267
H  H8  1  0.01400000  0.62560000  0.72060000  1.0 0.1407903444
H  H9  1  0.97370000  0.71090000  0.98910000  1.0 0.1290465711
H  H10  1  0.84650000  0.84070000  0.97460000  1.0 0.1099132234
H  H11  1  0.15000000  0.42720000  0.93890000  1.0 0.1210865182
H  H12  1  0.30640000  0.51710000  0.94240000  1.0 0.1099132234
H  H13  1  0.83320000  0.95990000  0.61900000  1.0 0.0911696692
H  H14  1  0.70120000  0.90880000  0.46980000  1.0 0.0998043267
H  H15  1  0.29500000  0.81230000  0.55300000  1.0 0.0998043267
H  H16  1  0.42700000  0.86340000  0.70220000  1.0 0.0998043267
H  H17  1  0.08370000  0.70220000  0.29250000  1.0 0.1290465711
H  H18  1  0.20630000  0.78870000  0.26410000  1.0 0.1290465711
H  H19  1  0.36650000  0.42300000  0.05480000  1.0 0.1290465711
H  H20  1  0.14150000  0.66000000  0.11870000  1.0 0.1407903444
H  H21  1  0.34550000  0.58630000  0.31460000  1.0 0.1407903444
H  H22  1  0.73860000  0.89850000  0.61850000  1.0 0.1099132234
H  H23  1  0.57510000  0.85500000  0.48000000  1.0 0.1099132234
H  H24  1  0.22160000  0.90300000  0.61780000  1.0 0.1210865182
H  H25  1  0.38510000  0.94650000  0.75630000  1.0 0.0911696692
H  H26  1  0.40120000  0.85810000  0.15290000  1.0 0.1099132234
H  H27  1  0.46730000  0.73700000  0.02430000  1.0 0.1099132234
H  H28  1  0.30760000  0.88630000  0.87240000  1.0 0.1210865182
H  H29  1  0.20590000  0.97920000  0.99280000  1.0 0.1099132234
H  H30  1  0.58240000  0.59470000  0.76070000  1.0 0.1099132234
H  H31  1  0.42610000  0.50740000  0.76180000  1.0 0.1210865182
H  H32  1  0.14210000  0.15540000  0.06890000  1.0 0.1099132234
H  H33  1  0.02590000  0.28300000  0.03970000  1.0 0.1407903444
H  H34  1  0.96470000  0.37480000  0.30600000  1.0 0.1407903444
H  H35  1  0.05180000  0.22950000  0.31580000  1.0 0.1099132234
H  H36  1  0.57490000  0.01110000  0.27280000  1.0 0.1099132234
H  H37  1  0.74570000  0.06770000  0.41090000  1.0 0.1290465711
H  H38  1  0.42280000  0.17860000  0.55080000  1.0 0.0911696692
H  H39  1  0.25190000  0.12200000  0.41260000  1.0 0.0998043267
H  H40  1  0.85760000  0.56260000  0.08080000  1.0 0.1210865182
H  H41  1  0.69630000  0.48270000  0.08450000  1.0 0.1099132234
H  H42  1  0.91000000  0.30540000  0.72440000  1.0 0.1290465711
H  H43  1  0.80610000  0.20630000  0.75010000  1.0 0.1210865182
H  H44  1  0.62090000  0.57800000  0.96940000  1.0 0.1290465711
H  H45  1  0.83290000  0.33490000  0.91640000  1.0 0.1512107392
H  H46  1  0.62330000  0.39960000  0.70150000  1.0 0.1210865182
H  H47  1  0.54260000  0.12690000  0.31910000  1.0 0.0998043267
H  H48  1  0.69290000  0.16650000  0.46120000  1.0 0.0998043267
H  H49  1  0.30450000  0.07240000  0.56150000  1.0 0.1210865182
H  H50  1  0.15420000  0.03290000  0.41940000  1.0 0.1099132234
C  C1  1  0.69500000  0.04250000  0.02340000  1.0 0.0911696692
C  C2  1  0.65800000  0.11300000  0.09900000  1.0 -0.1592345471
C  C3  1  0.57880000  0.18780000  0.08070000  1.0 0.0003513658
C  C4  1  0.54900000  0.19200000  0.99590000  1.0 -0.1817554246
C  C5  1  0.60000000  0.12550000  0.92930000  1.0 0.0707616572
C  C6  1  0.54200000  0.27700000  0.17550000  1.0 0.5093324025
C  C7  1  0.46000000  0.42900000  0.22830000  1.0 -0.0976838281
C  C8  1  0.90400000  0.74630000  0.76350000  1.0 0.0526203726
C  C9  1  0.98000000  0.66930000  0.77220000  1.0 -0.1413944821
C  C10  1  0.00580000  0.65610000  0.85620000  1.0 -0.0089682393
C  C11  1  0.95610000  0.71990000  0.93160000  1.0 -0.1592345471
C  C12  1  0.88050000  0.79700000  0.92300000  1.0 0.063736855
C  C13  1  0.08900000  0.57500000  0.86800000  1.0 0.5093324025
C  C14  1  0.21000000  0.50590000  0.96850000  1.0 -0.0694088723
C  C15  1  0.72400000  0.93000000  0.60560000  1.0 -0.0588880806
C  C16  1  0.64600000  0.90000000  0.51700000  1.0 -0.0928567155
C  C17  1  0.48600000  0.85600000  0.49730000  1.0 -0.0319254465
C  C18  1  0.40400000  0.84200000  0.56600000  1.0 -0.0694088723
C  C19  1  0.48300000  0.87300000  0.65510000  1.0 0.0998043267
C  C20  1  0.39500000  0.83100000  0.40200000  1.0 0.2392355789
C  C21  1  0.19400000  0.72800000  0.28890000  1.0 -0.2209641149
C  C22  1  0.37500000  0.49800000  0.19740000  1.0 0.1099132234
C  C23  1  0.33200000  0.47770000  0.09810000  1.0 -0.210615811
C  C24  1  0.24890000  0.53260000  0.06760000  1.0 0.1099132234
C  C25  1  0.20100000  0.61750000  0.13680000  1.0 -0.1817554246
C  C26  1  0.24000000  0.63400000  0.22330000  1.0 0.1210865182
C  C27  1  0.32400000  0.57200000  0.25070000  1.0 -0.1817554246
C  C28  1  0.21800000  0.16400000  0.78170000  1.0 0.424207433
C  C29  1  0.63400000  0.89900000  0.61830000  1.0 0.0911696692
C  C30  1  0.53700000  0.87400000  0.53610000  1.0 -0.0401564809
C  C31  1  0.38300000  0.87500000  0.53580000  1.0 -0.0089682393
C  C32  1  0.32700000  0.90200000  0.61790000  1.0 -0.0976838281
C  C33  1  0.42400000  0.92800000  0.70020000  1.0 -0.0928567155
C  C34  1  0.27300000  0.83000000  0.44200000  1.0 0.2346731116
C  C35  1  0.37800000  0.86400000  0.09500000  1.0 -0.0089682393
C  C36  1  0.41900000  0.79020000  0.01600000  1.0 -0.1708193506
C  C37  1  0.39000000  0.79400000  0.93010000  1.0 -0.049974784
C  C38  1  0.32200000  0.87300000  0.92820000  1.0 -0.1413944821
C  C39  1  0.27100000  0.93700000  0.00400000  1.0 0.0775076334
C  C40  1  0.43800000  0.73200000  0.86300000  1.0 0.385778888
C  C41  1  0.52400000  0.56100000  0.80000000  1.0 -0.0401564809
C  C42  1  0.10100000  0.19980000  0.11660000  1.0 0.0775076334
C  C43  1  0.03300000  0.27590000  0.09840000  1.0 -0.1478088359
C  C44  1  0.97300000  0.34230000  0.16950000  1.0 -0.0186775975
C  C45  1  0.99300000  0.32750000  0.25390000  1.0 -0.1708193506
C  C46  1  0.05300000  0.24500000  0.26060000  1.0 0.0775076334
C  C47  1  0.89600000  0.42650000  0.16490000  1.0 0.4698389013
C  C48  1  0.54400000  0.04500000  0.32920000  1.0 -0.0928567155
C  C49  1  0.64500000  0.07900000  0.41130000  1.0 -0.0928567155
C  C50  1  0.60000000  0.12800000  0.49380000  1.0 0.021414413
C  C51  1  0.45400000  0.14500000  0.49430000  1.0 -0.0588880806
C  C52  1  0.35200000  0.11100000  0.41230000  1.0 0.0775076334
C  C53  1  0.73000000  0.16600000  0.57700000  1.0 0.2346731116
C  C54  1  0.78900000  0.48600000  0.05450000  1.0 -0.049974784
C  C55  1  0.80400000  0.26950000  0.73010000  1.0 -0.1099544588
C  C56  1  0.61700000  0.50300000  0.84050000  1.0 0.1099132234
C  C57  1  0.65200000  0.52200000  0.92520000  1.0 -0.1869615923
C  C58  1  0.74200000  0.45500000  0.95370000  1.0 0.0911696692
C  C59  1  0.77800000  0.37750000  0.89520000  1.0 -0.1708193506
C  C60  1  0.73800000  0.35070000  0.79580000  1.0 0.0998043267
C  C61  1  0.65400000  0.41310000  0.76470000  1.0 -0.2209641149
C  C62  1  0.49400000  0.11600000  0.36830000  1.0 0.0775076334
C  C63  1  0.58400000  0.13900000  0.45300000  1.0 -0.0401564809
C  C64  1  0.51300000  0.12300000  0.52470000  1.0 -0.0186775975
C  C65  1  0.35300000  0.08400000  0.51230000  1.0 -0.1099544588
C  C66  1  0.26400000  0.06000000  0.42790000  1.0 -0.0588880806
C  C67  1  0.61200000  0.16300000  0.61500000  1.0 0.1558201899
C  C68  1  0.72700000  0.78330000  0.23650000  1.0 0.4501697858
S  S1  1  0.08530000  0.12210000  0.83870000  1.0 0.9837177833
S  S2  1  0.86900000  0.88170000  0.19850000  1.0 0.969801112
N  N1  1  0.67700000  0.05700000  0.94280000  1.0 -0.210615811
N  N2  1  0.85460000  0.81020000  0.83900000  1.0 -0.2428635369
N  N3  1  0.64300000  0.91600000  0.67470000  1.0 -0.0775359134
N  N4  1  0.57700000  0.92700000  0.70040000  1.0 -0.0694088723
N  N5  1  0.30450000  0.94450000  0.08950000  1.0 -0.210615811
N  N6  1  0.11300000  0.18580000  0.19600000  1.0 -0.1988504063
N  N7  1  0.39700000  0.06100000  0.32970000  1.0 -0.049974784
N  N8  1  0.33400000  0.07600000  0.35590000  1.0 -0.0588880806
O  O1  1  0.55400000  0.26000000  0.24470000  1.0 -0.4933693568
O  O2  1  0.49180000  0.34330000  0.14920000  1.0 -0.1988504063
O  O3  1  0.11200000  0.50460000  0.79940000  1.0 -0.4798885594
O  O4  1  0.11870000  0.57760000  0.95030000  1.0 -0.1988504063
O  O5  1  0.29000000  0.77420000  0.38670000  1.0 -0.0401564809
O  O6  1  0.14000000  0.09100000  0.90600000  1.0 -0.4560469548
O  O7  1  0.02100000  0.21190000  0.88020000  1.0 -0.509155945
O  O8  1  0.95600000  0.03870000  0.78260000  1.0 -0.4798885594
O  O9  1  0.43900000  0.86200000  0.35020000  1.0 -0.2684365372
O  O10  1  0.15100000  0.86100000  0.44270000  1.0 -0.4000100057
O  O11  1  0.41400000  0.72800000  0.77960000  1.0 -0.5315597217
O  O12  1  0.49170000  0.64260000  0.87240000  1.0 -0.2209641149
O  O13  1  0.85360000  0.48430000  0.22280000  1.0 -0.3804247837
O  O14  1  0.86640000  0.41220000  0.07000000  1.0 -0.210615811
O  O15  1  0.70400000  0.23580000  0.64920000  1.0 -0.0976838281
O  O16  1  0.83700000  0.13900000  0.57700000  1.0 -0.3554399173
O  O17  1  0.53000000  0.13300000  0.68200000  1.0 -0.3913120489
O  O18  1  0.98400000  0.84000000  0.17610000  1.0 -0.4798885594
O  O19  1  0.78800000  0.91600000  0.14370000  1.0 -0.4798885594
O  O20  1  0.92000000  0.97100000  0.28670000  1.0 -0.5855596821
F  F1  1  0.26300000  0.06690000  0.74860000  1.0 -0.1988504063
F  F2  1  0.16060000  0.18300000  0.71170000  1.0 -0.1708193506
F  F3  1  0.34300000  0.24500000  0.82960000  1.0 -0.1817554246
F  F4  1  0.61400000  0.81670000  0.27870000  1.0 -0.1988504063
F  F5  1  0.79500000  0.73440000  0.28450000  1.0 -0.1708193506
F  F6  1  0.65500000  0.70420000  0.15550000  1.0 -0.1708193506
