# DDEC6 charges by PACMAN v1.1 (https://github.com/mtap-research/PACMAN-charge/)
data_SEJPEG_ASR_pacman
_symmetry_space_group_name_H-M   'P 1'
_cell_length_a   10.92330000
_cell_length_b   16.05140000
_cell_length_c   19.57380000
_cell_angle_alpha   74.44600000
_cell_angle_beta   74.87400000
_cell_angle_gamma   72.08500000
_symmetry_Int_Tables_number   1
_chemical_formula_structural   EuH8C22(NO4)2
_chemical_formula_sum   'Eu4 H32 C88 N8 O32'
_cell_volume   3085.77087466
_cell_formula_units_Z   4
loop_
 _symmetry_equiv_pos_site_id
 _symmetry_equiv_pos_as_xyz
  1  'x, y, z'
loop_
 _atom_site_type_symbol
 _atom_site_label
 _atom_site_symmetry_multiplicity
 _atom_site_fract_x
 _atom_site_fract_y
 _atom_site_fract_z
 _atom_site_occupancy
 _atom_site_charge
Eu  Eu1  1  0.44520000  0.67649000  0.22302000  1.0 2.052386097
Eu  Eu2  1  0.89718000  0.40070000  0.24193000  1.0 2.041229538
Eu  Eu3  1  0.55480000  0.32351000  0.77698000  1.0 2.052386097
Eu  Eu4  1  0.10282000  0.59930000  0.75807000  1.0 2.041229538
H  H1  1  0.26880000  0.67040000  0.48840000  1.0 0.148828029
H  H2  1  0.45010000  0.86430000  0.38470000  1.0 0.1313480103
H  H3  1  0.31330000  0.45460000  0.25550000  1.0 0.148828029
H  H4  1  0.66000000  0.27310000  0.23680000  1.0 0.1367385009
H  H5  1  0.75940000  0.86470000  0.08400000  1.0 0.1367385009
H  H6  1  0.01520000  0.83000000  0.90150000  1.0 0.1313480103
H  H7  1  0.78040000  0.66410000  0.99220000  1.0 0.148828029
H  H8  1  0.98410000  0.87380000  0.23250000  1.0 0.1313480103
H  H9  1  0.65710000  0.79370000  0.26570000  1.0 0.148828029
H  H10  1  0.00730000  0.61490000  0.25460000  1.0 0.148828029
H  H11  1  0.73580000  0.13000000  0.28440000  1.0 0.1313480103
H  H12  1  0.33010000  0.19830000  0.26790000  1.0 0.1367385009
H  H13  1  0.85040000  0.98310000  0.28760000  1.0 0.1313480103
H  H14  1  0.99610000  0.87610000  0.09620000  1.0 0.1229295687
H  H15  1  0.51750000  0.86870000  0.58570000  1.0 0.1229295687
H  H16  1  0.31100000  0.83520000  0.59580000  1.0 0.1229295687
H  H17  1  0.73120000  0.32960000  0.51160000  1.0 0.148828029
H  H18  1  0.54990000  0.13570000  0.61530000  1.0 0.1313480103
H  H19  1  0.68670000  0.54540000  0.74450000  1.0 0.148828029
H  H20  1  0.34000000  0.72690000  0.76320000  1.0 0.1367385009
H  H21  1  0.24060000  0.13530000  0.91600000  1.0 0.1367385009
H  H22  1  0.98480000  0.17000000  0.09850000  1.0 0.1313480103
H  H23  1  0.21960000  0.33590000  0.00780000  1.0 0.148828029
H  H24  1  0.01590000  0.12620000  0.76750000  1.0 0.1313480103
H  H25  1  0.34290000  0.20630000  0.73430000  1.0 0.148828029
H  H26  1  0.99270000  0.38510000  0.74540000  1.0 0.148828029
H  H27  1  0.26420000  0.87000000  0.71560000  1.0 0.1313480103
H  H28  1  0.66990000  0.80170000  0.73210000  1.0 0.1367385009
H  H29  1  0.14960000  0.01690000  0.71240000  1.0 0.1313480103
H  H30  1  0.00390000  0.12390000  0.90380000  1.0 0.1229295687
H  H31  1  0.48250000  0.13130000  0.41430000  1.0 0.1229295687
H  H32  1  0.68900000  0.16480000  0.40420000  1.0 0.1229295687
C  C1  1  0.38030000  0.73620000  0.35450000  1.0 0.5549649516
C  C2  1  0.16300000  0.72010000  0.23780000  1.0 0.5687913616
C  C3  1  0.64690000  0.73110000  0.10670000  1.0 0.5687913616
C  C4  1  0.15500000  0.35330000  0.26730000  1.0 0.5687913616
C  C5  1  0.96890000  0.69130000  0.87520000  1.0 0.5609880605
C  C6  1  0.56100000  0.44640000  0.24030000  1.0 0.6748647013
C  C7  1  0.75370000  0.62110000  0.27040000  1.0 0.6515830079
C  C8  1  0.35900000  0.76430000  0.42500000  1.0 0.0093691089
C  C9  1  0.29700000  0.71940000  0.48870000  1.0 -0.0783441446
C  C10  1  0.27690000  0.74680000  0.55240000  1.0 0.0026631845
C  C11  1  0.39210000  0.86120000  0.49050000  1.0 0.0671897133
C  C12  1  0.40690000  0.83470000  0.42730000  1.0 -0.1188334056
C  C13  1  0.44680000  0.93400000  0.49430000  1.0 0.0026631845
C  C14  1  0.49760000  0.37490000  0.24630000  1.0 -0.0396283163
C  C15  1  0.36180000  0.39590000  0.25470000  1.0 -0.0655682615
C  C16  1  0.56910000  0.28690000  0.24360000  1.0 -0.1188334056
C  C17  1  0.50970000  0.21900000  0.25080000  1.0 0.0627319956
C  C18  1  0.58720000  0.12600000  0.24740000  1.0 0.0026631845
C  C19  1  0.75510000  0.75870000  0.04720000  1.0 0.0093691089
C  C20  1  0.79740000  0.83280000  0.04710000  1.0 -0.1292561016
C  C21  1  0.89410000  0.85790000  0.99310000  1.0 0.0539823168
C  C22  1  0.90620000  0.73930000  0.93670000  1.0 0.0093691089
C  C23  1  0.94890000  0.81240000  0.93820000  1.0 -0.1188334056
C  C24  1  0.80900000  0.71300000  0.99220000  1.0 -0.0898410051
C  C25  1  0.94910000  0.93160000  0.99570000  1.0 0.0211099501
C  C26  1  0.01760000  0.74090000  0.24390000  1.0 -0.0118488109
C  C27  1  0.94220000  0.82870000  0.24050000  1.0 -0.1292561016
C  C28  1  0.80660000  0.85150000  0.24870000  1.0 0.0671897133
C  C29  1  0.74780000  0.78090000  0.25960000  1.0 -0.1188334056
C  C30  1  0.82060000  0.69360000  0.26140000  1.0 -0.0118488109
C  C31  1  0.95730000  0.67360000  0.25350000  1.0 -0.0783441446
C  C32  1  0.73040000  0.94580000  0.24690000  1.0 0.0026631845
C  C33  1  0.60980000  0.97960000  0.22410000  1.0 0.1079247886
C  C34  1  0.29770000  0.33070000  0.26200000  1.0 -0.0219413272
C  C35  1  0.54070000  0.07030000  0.22270000  1.0 0.1026752064
C  C36  1  0.70200000  0.09280000  0.26940000  1.0 -0.1292561016
C  C37  1  0.37290000  0.24260000  0.26120000  1.0 -0.1089052062
C  C38  1  0.77230000  0.00380000  0.27040000  1.0 -0.1292561016
C  C39  1  0.94940000  0.00410000  0.93630000  1.0 0.1871577868
C  C40  1  0.99800000  0.92560000  0.05840000  1.0 -0.2140583328
C  C41  1  0.50880000  0.92190000  0.55140000  1.0 -0.1757169148
C  C42  1  0.44220000  0.00980000  0.44320000  1.0 0.1833175936
C  C43  1  0.20690000  0.70020000  0.62250000  1.0 0.5609880605
C  C44  1  0.32460000  0.81700000  0.55250000  1.0 -0.1292561016
C  C45  1  0.61970000  0.26380000  0.64550000  1.0 0.5549649516
C  C46  1  0.83700000  0.27990000  0.76220000  1.0 0.5687913616
C  C47  1  0.35310000  0.26890000  0.89330000  1.0 0.5687913616
C  C48  1  0.84500000  0.64670000  0.73270000  1.0 0.5687913616
C  C49  1  0.03110000  0.30870000  0.12480000  1.0 0.5609880605
C  C50  1  0.43900000  0.55360000  0.75970000  1.0 0.6748647013
C  C51  1  0.24630000  0.37890000  0.72960000  1.0 0.6515830079
C  C52  1  0.64100000  0.23570000  0.57500000  1.0 0.0093691089
C  C53  1  0.70300000  0.28060000  0.51130000  1.0 -0.0783441446
C  C54  1  0.72310000  0.25320000  0.44760000  1.0 0.0093691089
C  C55  1  0.60790000  0.13880000  0.50950000  1.0 0.0671897133
C  C56  1  0.59310000  0.16530000  0.57270000  1.0 -0.1188334056
C  C57  1  0.55320000  0.06600000  0.50570000  1.0 0.0026631845
C  C58  1  0.50240000  0.62510000  0.75370000  1.0 -0.0396283163
C  C59  1  0.63820000  0.60410000  0.74530000  1.0 -0.0655682615
C  C60  1  0.43090000  0.71310000  0.75640000  1.0 -0.1188334056
C  C61  1  0.49030000  0.78100000  0.74920000  1.0 0.0627319956
C  C62  1  0.41280000  0.87400000  0.75260000  1.0 0.0093691089
C  C63  1  0.24490000  0.24130000  0.95280000  1.0 0.0093691089
C  C64  1  0.20260000  0.16720000  0.95290000  1.0 -0.1292561016
C  C65  1  0.10590000  0.14210000  0.00690000  1.0 0.0539823168
C  C66  1  0.09380000  0.26070000  0.06330000  1.0 0.0093691089
C  C67  1  0.05110000  0.18760000  0.06180000  1.0 -0.1188334056
C  C68  1  0.19100000  0.28700000  0.00780000  1.0 -0.0898410051
C  C69  1  0.05090000  0.06840000  0.00430000  1.0 0.0211099501
C  C70  1  0.98240000  0.25910000  0.75610000  1.0 -0.0118488109
C  C71  1  0.05780000  0.17130000  0.75950000  1.0 -0.1292561016
C  C72  1  0.19340000  0.14850000  0.75130000  1.0 0.0671897133
C  C73  1  0.25220000  0.21910000  0.74040000  1.0 -0.1188334056
C  C74  1  0.17940000  0.30640000  0.73860000  1.0 -0.0118488109
C  C75  1  0.04270000  0.32640000  0.74650000  1.0 -0.0783441446
C  C76  1  0.26960000  0.05420000  0.75310000  1.0 0.0026631845
C  C77  1  0.39020000  0.02040000  0.77590000  1.0 0.1079247886
C  C78  1  0.70230000  0.66930000  0.73800000  1.0 -0.0219413272
C  C79  1  0.45930000  0.92970000  0.77730000  1.0 0.1026752064
C  C80  1  0.29800000  0.90720000  0.73060000  1.0 -0.1292561016
C  C81  1  0.62710000  0.75740000  0.73880000  1.0 -0.1089052062
C  C82  1  0.22770000  0.99620000  0.72960000  1.0 -0.1292561016
C  C83  1  0.05060000  0.99590000  0.06370000  1.0 0.1871577868
C  C84  1  0.00200000  0.07440000  0.94160000  1.0 -0.2140583328
C  C85  1  0.49120000  0.07810000  0.44860000  1.0 -0.1757169148
C  C86  1  0.55780000  0.99020000  0.55680000  1.0 0.1833175936
C  C87  1  0.79310000  0.29980000  0.37750000  1.0 0.5609880605
C  C88  1  0.67540000  0.18300000  0.44750000  1.0 -0.1292561016
N  N1  1  0.55570000  0.94110000  0.18920000  1.0 -0.0969354628
N  N2  1  0.36200000  0.03430000  0.38700000  1.0 -0.2555125734
N  N3  1  0.41900000  0.08840000  0.19270000  1.0 -0.0502285814
N  N4  1  0.87300000  0.02280000  0.87300000  1.0 -0.1089052062
N  N5  1  0.44430000  0.05890000  0.81080000  1.0 -0.0969354628
N  N6  1  0.63800000  0.96570000  0.61300000  1.0 -0.254842498
N  N7  1  0.58100000  0.91160000  0.80730000  1.0 -0.0502285814
N  N8  1  0.12700000  0.97720000  0.12700000  1.0 -0.1089052062
O  O1  1  0.22080000  0.78250000  0.21820000  1.0 -0.5801309547
O  O2  1  0.36570000  0.66060000  0.35570000  1.0 -0.5582299239
O  O3  1  0.41280000  0.78840000  0.29670000  1.0 -0.5732625506
O  O4  1  0.55730000  0.78830000  0.13840000  1.0 -0.5927861712
O  O5  1  0.64790000  0.64760000  0.12450000  1.0 -0.6277096352
O  O6  1  0.48910000  0.52390000  0.24190000  1.0 -0.6175021312
O  O7  1  0.63440000  0.64130000  0.27480000  1.0 -0.5801309547
O  O8  1  0.68070000  0.42750000  0.23450000  1.0 -0.6175021312
O  O9  1  0.82710000  0.54290000  0.27370000  1.0 -0.6175021312
O  O10  1  0.09200000  0.43470000  0.25520000  1.0 -0.5732625506
O  O11  1  0.09470000  0.29270000  0.28400000  1.0 -0.5582299239
O  O12  1  0.07330000  0.70390000  0.83490000  1.0 -0.5801309547
O  O13  1  0.91520000  0.63560000  0.86730000  1.0 -0.5801309547
O  O14  1  0.18710000  0.62570000  0.62520000  1.0 -0.5582299239
O  O15  1  0.17380000  0.73450000  0.67680000  1.0 -0.5582299239
O  O16  1  0.22890000  0.63930000  0.24770000  1.0 -0.5801309547
O  O17  1  0.77920000  0.21750000  0.78180000  1.0 -0.5801309547
O  O18  1  0.63430000  0.33940000  0.64430000  1.0 -0.5582299239
O  O19  1  0.58720000  0.21160000  0.70330000  1.0 -0.5732625506
O  O20  1  0.44270000  0.21170000  0.86160000  1.0 -0.5927861712
O  O21  1  0.35210000  0.35240000  0.87550000  1.0 -0.6277096352
O  O22  1  0.51090000  0.47610000  0.75810000  1.0 -0.6175021312
O  O23  1  0.36560000  0.35870000  0.72520000  1.0 -0.5801309547
O  O24  1  0.31930000  0.57250000  0.76550000  1.0 -0.6175021312
O  O25  1  0.17290000  0.45710000  0.72630000  1.0 -0.6175021312
O  O26  1  0.90800000  0.56530000  0.74480000  1.0 -0.5732625506
O  O27  1  0.90530000  0.70730000  0.71600000  1.0 -0.5582299239
O  O28  1  0.92670000  0.29610000  0.16510000  1.0 -0.5801309547
O  O29  1  0.08480000  0.36440000  0.13270000  1.0 -0.5801309547
O  O30  1  0.81290000  0.37430000  0.37480000  1.0 -0.5582299239
O  O31  1  0.82620000  0.26550000  0.32320000  1.0 -0.5582299239
O  O32  1  0.77110000  0.36070000  0.75230000  1.0 -0.5801309547
