# DDEC6 charges by PACMAN v1.1 (https://github.com/mtap-research/PACMAN-charge/)
data_SEJWOX_ASR_pacman
_symmetry_space_group_name_H-M   'P 1'
_cell_length_a   10.80870000
_cell_length_b   10.85500000
_cell_length_c   14.03010000
_cell_angle_alpha   89.25950000
_cell_angle_beta   89.37430000
_cell_angle_gamma   85.04730000
_symmetry_Int_Tables_number   1
_chemical_formula_structural   CuH8C13N5O4
_chemical_formula_sum   'Cu4 H32 C52 N20 O16'
_cell_volume   1639.76719536
_cell_formula_units_Z   4
loop_
 _symmetry_equiv_pos_site_id
 _symmetry_equiv_pos_as_xyz
  1  'x, y, z'
loop_
 _atom_site_type_symbol
 _atom_site_label
 _atom_site_symmetry_multiplicity
 _atom_site_fract_x
 _atom_site_fract_y
 _atom_site_fract_z
 _atom_site_occupancy
 _atom_site_charge
Cu  Cu1  1  0.22462000  0.34352000  0.36685000  1.0 0.7791540444
Cu  Cu2  1  0.22125000  0.33249000  0.17864000  1.0 0.7967584252
Cu  Cu3  1  0.77538000  0.65648000  0.63315000  1.0 0.7791540444
Cu  Cu4  1  0.77875000  0.66751000  0.82136000  1.0 0.7967584252
H  H1  1  0.40441000  0.34045000  0.53614000  1.0 0.1116351853
H  H2  1  0.40896000  0.33333333  0.69956000  1.0 0.1310579524
H  H3  1  0.03821000  0.32745000  0.69936000  1.0 0.1310579524
H  H4  1  0.04503000  0.33282000  0.53731000  1.0 0.1116351853
H  H5  1  0.05063000  0.28097000  0.01230000  1.0 0.1116351853
H  H6  1  0.04131000  0.28136000  0.84918000  1.0 0.1210767724
H  H7  1  0.39575000  0.36444000  0.84211000  1.0 0.1310579524
H  H8  1  0.39232000  0.36579000  0.00516000  1.0 0.1116351853
H  H9  1  0.15621000  0.72851000  0.11735000  1.0 0.1210767724
H  H10  1  0.28811000  0.71713000  0.41089000  1.0 0.1389865809
H  H11  1  0.29243000  0.94718000  0.40670000  1.0 0.1210767724
H  H12  1  0.16063000  0.95901000  0.11468000  1.0 0.1210767724
H  H13  1  0.61173000  0.33860000  0.42089000  1.0 0.1389865809
H  H14  1  0.84327000  0.34178000  0.41544000  1.0 0.1459770471
H  H15  1  0.83541000  0.32032000  0.10317000  1.0 0.1310579524
H  H16  1  0.60454000  0.31820000  0.10938000  1.0 0.1210767724
H  H17  1  0.59559000  0.65955000  0.46386000  1.0 0.1116351853
H  H18  1  0.59104000  0.66666667  0.30044000  1.0 0.1310579524
H  H19  1  0.96179000  0.67255000  0.30064000  1.0 0.1310579524
H  H20  1  0.95497000  0.66718000  0.46269000  1.0 0.1116351853
H  H21  1  0.94937000  0.71903000  0.98770000  1.0 0.1116351853
H  H22  1  0.95869000  0.71864000  0.15082000  1.0 0.1210767724
H  H23  1  0.60425000  0.63556000  0.15789000  1.0 0.1310579524
H  H24  1  0.60768000  0.63421000  0.99484000  1.0 0.1116351853
H  H25  1  0.84379000  0.27149000  0.88265000  1.0 0.1210767724
H  H26  1  0.71189000  0.28287000  0.58911000  1.0 0.1389865809
H  H27  1  0.70757000  0.05282000  0.59330000  1.0 0.1210767724
H  H28  1  0.83937000  0.04099000  0.88532000  1.0 0.1210767724
H  H29  1  0.38827000  0.66140000  0.57911000  1.0 0.1389865809
H  H30  1  0.15673000  0.65822000  0.58456000  1.0 0.1459770471
H  H31  1  0.16459000  0.67968000  0.89683000  1.0 0.1310579524
H  H32  1  0.39546000  0.68180000  0.89062000  1.0 0.1210767724
C  C1  1  0.22022000  0.57116000  0.26348000  1.0 0.5146112561
C  C2  1  0.45727000  0.32838000  0.26870000  1.0 0.548337859
C  C3  1  0.22851000  0.10346000  0.25975000  1.0 0.5600381315
C  C4  1  0.99036000  0.33087000  0.25545000  1.0 0.5356814086
C  C5  1  0.22516000  0.70876000  0.26382000  1.0 -0.1588162214
C  C6  1  0.26036000  0.77077000  0.34295000  1.0 -0.0089983079
C  C7  1  0.26246000  0.89714000  0.34100000  1.0 0.0263730524
C  C8  1  0.22870000  0.96478000  0.26038000  1.0 -0.1290747516
C  C9  1  0.19062000  0.90423000  0.18162000  1.0 0.0116417043
C  C10  1  0.18840000  0.77722000  0.18298000  1.0 -0.0016094404
C  C11  1  0.59539000  0.32781000  0.26527000  1.0 -0.149815756
C  C12  1  0.66231000  0.33436000  0.34913000  1.0 0.0116417043
C  C13  1  0.78960000  0.33578000  0.34640000  1.0 0.0190702778
C  C14  1  0.85235000  0.32983000  0.25840000  1.0 -0.1744900524
C  C15  1  0.78523000  0.32414000  0.17510000  1.0 0.0116417043
C  C16  1  0.65825000  0.32305000  0.17852000  1.0 0.0263730524
C  C17  1  0.32913000  0.33775000  0.56995000  1.0 0.0699408795
C  C18  1  0.33265000  0.33379000  0.66799000  1.0 -0.2122727737
C  C19  1  0.22344000  0.33039000  0.72008000  1.0 0.1116351853
C  C20  1  0.11507000  0.33012000  0.66773000  1.0 -0.2040865339
C  C21  1  0.11977000  0.33351000  0.57075000  1.0 0.0628945152
C  C22  1  0.12075000  0.30116000  0.97702000  1.0 0.0495203145
C  C23  1  0.11418000  0.30084000  0.87936000  1.0 -0.2220076799
C  C24  1  0.21764000  0.32988000  0.82551000  1.0 0.1116351853
C  C25  1  0.32217000  0.35020000  0.87516000  1.0 -0.2122727737
C  C26  1  0.31960000  0.34979000  0.97303000  1.0 0.0628945152
C  C27  1  0.77978000  0.42884000  0.73652000  1.0 0.5146112561
C  C28  1  0.54273000  0.67162000  0.73130000  1.0 0.548337859
C  C29  1  0.77149000  0.89654000  0.74025000  1.0 0.5600381315
C  C30  1  0.00964000  0.66913000  0.74455000  1.0 0.5356814086
C  C31  1  0.77484000  0.29124000  0.73618000  1.0 -0.1588162214
C  C32  1  0.73964000  0.22923000  0.65705000  1.0 -0.0089983079
C  C33  1  0.73754000  0.10286000  0.65900000  1.0 0.0263730524
C  C34  1  0.77130000  0.03522000  0.73962000  1.0 -0.1290747516
C  C35  1  0.80938000  0.09577000  0.81838000  1.0 0.0116417043
C  C36  1  0.81160000  0.22278000  0.81702000  1.0 -0.0016094404
C  C37  1  0.40461000  0.67219000  0.73473000  1.0 -0.149815756
C  C38  1  0.33769000  0.66564000  0.65087000  1.0 0.0116417043
C  C39  1  0.21040000  0.66422000  0.65360000  1.0 0.0190702778
C  C40  1  0.14765000  0.67017000  0.74160000  1.0 -0.1744900524
C  C41  1  0.21477000  0.67586000  0.82490000  1.0 0.0116417043
C  C42  1  0.34175000  0.67695000  0.82148000  1.0 0.0263730524
C  C43  1  0.67087000  0.66225000  0.43005000  1.0 0.0699408795
C  C44  1  0.66735000  0.66621000  0.33201000  1.0 -0.2122727737
C  C45  1  0.77656000  0.66961000  0.27992000  1.0 0.1116351853
C  C46  1  0.88493000  0.66988000  0.33227000  1.0 -0.2040865339
C  C47  1  0.88023000  0.66649000  0.42925000  1.0 0.0628945152
C  C48  1  0.87925000  0.69884000  0.02298000  1.0 0.0495203145
C  C49  1  0.88582000  0.69916000  0.12064000  1.0 -0.2220076799
C  C50  1  0.78236000  0.67012000  0.17449000  1.0 0.1116351853
C  C51  1  0.67783000  0.64980000  0.12484000  1.0 -0.2122727737
C  C52  1  0.68040000  0.65021000  0.02697000  1.0 0.0699408795
N  N1  1  0.22473000  0.33784000  0.52074000  1.0 -0.2524810463
N  N2  1  0.22032000  0.32833000  0.02471000  1.0 -0.2336592555
N  N3  1  0.29685000  0.69891000  0.43264000  1.0 0.094282952
N  N4  1  0.30248000  0.96248000  0.42838000  1.0 -0.072803843
N  N5  1  0.15093000  0.97728000  0.09318000  1.0 -0.0564422935
N  N6  1  0.14582000  0.71225000  0.09625000  1.0 -0.0285122629
N  N7  1  0.59460000  0.33991000  0.44389000  1.0 -0.2040865339
N  N8  1  0.86122000  0.34358000  0.43762000  1.0 -0.0496991083
N  N9  1  0.85198000  0.31925000  0.07994000  1.0 -0.0089983079
N  N10  1  0.58668000  0.31650000  0.08715000  1.0 -0.123483333
N  N11  1  0.77527000  0.66216000  0.47926000  1.0 -0.2524810463
N  N12  1  0.77968000  0.67167000  0.97529000  1.0 -0.2336592555
N  N13  1  0.70315000  0.30109000  0.56736000  1.0 0.0962569312
N  N14  1  0.69752000  0.03752000  0.57162000  1.0 -0.072803843
N  N15  1  0.84907000  0.02272000  0.90682000  1.0 -0.0564422935
N  N16  1  0.85418000  0.28775000  0.90375000  1.0 -0.0285122629
N  N17  1  0.40540000  0.66009000  0.55611000  1.0 -0.2040865339
N  N18  1  0.13878000  0.65642000  0.56238000  1.0 -0.0496991083
N  N19  1  0.14802000  0.68075000  0.92006000  1.0 -0.0150030816
N  N20  1  0.41332000  0.68350000  0.91285000  1.0 -0.123483333
O  O1  1  0.21812000  0.52410000  0.34479000  1.0 -0.4657209694
O  O2  1  0.21982000  0.51383000  0.18661000  1.0 -0.4867251917
O  O3  1  0.40475000  0.33666000  0.34935000  1.0 -0.4867251917
O  O4  1  0.40192000  0.32154000  0.19083000  1.0 -0.4867251917
O  O5  1  0.23278000  0.15497000  0.33838000  1.0 -0.503699857
O  O6  1  0.22492000  0.15687000  0.18033000  1.0 -0.4758139431
O  O7  1  0.04562000  0.33282000  0.33370000  1.0 -0.5099947631
O  O8  1  0.04198000  0.32869000  0.17479000  1.0 -0.4867251917
O  O9  1  0.78188000  0.47590000  0.65521000  1.0 -0.4657209694
O  O10  1  0.78018000  0.48617000  0.81339000  1.0 -0.4867251917
O  O11  1  0.59525000  0.66334000  0.65065000  1.0 -0.4867251917
O  O12  1  0.59808000  0.67846000  0.80917000  1.0 -0.4867251917
O  O13  1  0.76722000  0.84503000  0.66162000  1.0 -0.503699857
O  O14  1  0.77508000  0.84313000  0.81967000  1.0 -0.4758139431
O  O15  1  0.95438000  0.66718000  0.66630000  1.0 -0.5099947631
O  O16  1  0.95802000  0.67131000  0.82521000  1.0 -0.4867251917
