# DDEC6 charges by PACMAN v1.1 (https://github.com/mtap-research/PACMAN-charge/)
data_SEMFEX_ASR_pacman
_symmetry_space_group_name_H-M   'P 1'
_cell_length_a   24.09710000
_cell_length_b   23.93670000
_cell_length_c   12.48530000
_cell_angle_alpha   75.64620000
_cell_angle_beta   74.22460000
_cell_angle_gamma   30.12920000
_symmetry_Int_Tables_number   1
_chemical_formula_structural   CoP2H21C21(N5O)2
_chemical_formula_sum   'Co4 P8 H84 C84 N40 O8'
_cell_volume   3477.47646164
_cell_formula_units_Z   4
loop_
 _symmetry_equiv_pos_site_id
 _symmetry_equiv_pos_as_xyz
  1  'x, y, z'
loop_
 _atom_site_type_symbol
 _atom_site_label
 _atom_site_symmetry_multiplicity
 _atom_site_fract_x
 _atom_site_fract_y
 _atom_site_fract_z
 _atom_site_occupancy
 _atom_site_charge
Co  Co1  1  0.12500000  0.12500000  0.62500000  1.0 0.6913912686
Co  Co2  1  0.12500000  0.12500000  0.12500000  1.0 0.6913912686
Co  Co3  1  0.12500000  0.62500000  0.12500000  1.0 0.6913912686
Co  Co4  1  0.62500000  0.12500000  0.12500000  1.0 0.6913912686
P  P1  1  0.86618000  0.63382000  0.63382000  1.0 1.2136437984
P  P2  1  0.63382000  0.86618000  0.86618000  1.0 1.2136437984
P  P3  1  0.38382000  0.61618000  0.61618000  1.0 1.2136437984
P  P4  1  0.61618000  0.38382000  0.38382000  1.0 1.2136437984
P  P5  1  0.86142000  0.63858000  0.86142000  1.0 1.1957767697
P  P6  1  0.63858000  0.86142000  0.63858000  1.0 1.194058487
P  P7  1  0.38858000  0.61142000  0.38858000  1.0 1.1957767697
P  P8  1  0.61142000  0.38858000  0.61142000  1.0 1.194058487
H  H1  1  0.81030000  0.63410000  0.52230000  1.0 0.2895450087
H  H2  1  0.63410000  0.81030000  0.03330000  1.0 0.2895450087
H  H3  1  0.03330000  0.52230000  0.63410000  1.0 0.2895450087
H  H4  1  0.52230000  0.03330000  0.81030000  1.0 0.2895450087
H  H5  1  0.43970000  0.61590000  0.72770000  1.0 0.2895450087
H  H6  1  0.61590000  0.43970000  0.21670000  1.0 0.2895450087
H  H7  1  0.21670000  0.72770000  0.61590000  1.0 0.2895450087
H  H8  1  0.72770000  0.21670000  0.43970000  1.0 0.2895450087
H  H9  1  0.04320000  0.39780000  0.66500000  1.0 0.1232722195
H  H10  1  0.39780000  0.04320000  0.89400000  1.0 0.1232722195
H  H11  1  0.89400000  0.66500000  0.39780000  1.0 0.1232722195
H  H12  1  0.66500000  0.89400000  0.04320000  1.0 0.1232722195
H  H13  1  0.20680000  0.85220000  0.58500000  1.0 0.1232722195
H  H14  1  0.85220000  0.20680000  0.35600000  1.0 0.1232722195
H  H15  1  0.35600000  0.58500000  0.85220000  1.0 0.1232722195
H  H16  1  0.58500000  0.35600000  0.20680000  1.0 0.1232722195
H  H17  1  0.13560000  0.23360000  0.67660000  1.0 0.0925525012
H  H18  1  0.23360000  0.13560000  0.95420000  1.0 0.0925525012
H  H19  1  0.95420000  0.67660000  0.23360000  1.0 0.0925525012
H  H20  1  0.67660000  0.95420000  0.13560000  1.0 0.0925525012
H  H21  1  0.11440000  0.01640000  0.57340000  1.0 0.0925525012
H  H22  1  0.01640000  0.11440000  0.29580000  1.0 0.0925525012
H  H23  1  0.29580000  0.57340000  0.01640000  1.0 0.0925525012
H  H24  1  0.57340000  0.29580000  0.11440000  1.0 0.0925525012
H  H25  1  0.04300000  0.28000000  0.91180000  1.0 0.0958605649
H  H26  1  0.28000000  0.04300000  0.76520000  1.0 0.0958605649
H  H27  1  0.76520000  0.91180000  0.28000000  1.0 0.0958605649
H  H28  1  0.91180000  0.76520000  0.04300000  1.0 0.0958605649
H  H29  1  0.20700000  0.97000000  0.33820000  1.0 0.0958605649
H  H30  1  0.97000000  0.20700000  0.48480000  1.0 0.0958605649
H  H31  1  0.48480000  0.33820000  0.97000000  1.0 0.0958605649
H  H32  1  0.33820000  0.48480000  0.20700000  1.0 0.0958605649
H  H33  1  0.93730000  0.35270000  0.49730000  1.0 0.0925525012
H  H34  1  0.35270000  0.93730000  0.21270000  1.0 0.0925525012
H  H35  1  0.21270000  0.49730000  0.35270000  1.0 0.0925525012
H  H36  1  0.49730000  0.21270000  0.93730000  1.0 0.0925525012
H  H37  1  0.31270000  0.89730000  0.75270000  1.0 0.0925525012
H  H38  1  0.89730000  0.31270000  0.03730000  1.0 0.0925525012
H  H39  1  0.03730000  0.75270000  0.89730000  1.0 0.0925525012
H  H40  1  0.75270000  0.03730000  0.31270000  1.0 0.0925525012
H  H41  1  0.94990000  0.44310000  0.85430000  1.0 0.1314191164
H  H42  1  0.44310000  0.94990000  0.75270000  1.0 0.1314191164
H  H43  1  0.75270000  0.85430000  0.44310000  1.0 0.1314191164
H  H44  1  0.85430000  0.75270000  0.94990000  1.0 0.1314191164
H  H45  1  0.30010000  0.80690000  0.39570000  1.0 0.1314191164
H  H46  1  0.80690000  0.30010000  0.49730000  1.0 0.1314191164
H  H47  1  0.49730000  0.39570000  0.80690000  1.0 0.1314191164
H  H48  1  0.39570000  0.49730000  0.30010000  1.0 0.1314191164
H  H49  1  0.83690000  0.52150000  0.47970000  1.0 0.1232722195
H  H50  1  0.52150000  0.83690000  0.16190000  1.0 0.1232722195
H  H51  1  0.16190000  0.47970000  0.52150000  1.0 0.1232722195
H  H52  1  0.47970000  0.16190000  0.83690000  1.0 0.1232722195
H  H53  1  0.41310000  0.72850000  0.77030000  1.0 0.1232722195
H  H54  1  0.72850000  0.41310000  0.08810000  1.0 0.1232722195
H  H55  1  0.08810000  0.77030000  0.72850000  1.0 0.1232722195
H  H56  1  0.77030000  0.08810000  0.41310000  1.0 0.1232722195
H  H57  1  0.08980000  0.08980000  0.91020000  1.0 0.082608265
H  H58  1  0.91020000  0.91020000  0.08980000  1.0 0.082608265
H  H59  1  0.16020000  0.16020000  0.33980000  1.0 0.082608265
H  H60  1  0.33980000  0.33980000  0.16020000  1.0 0.082608265
H  H61  1  0.89110000  0.50030000  0.17370000  1.0 0.1232722195
H  H62  1  0.50030000  0.89110000  0.43490000  1.0 0.1232722195
H  H63  1  0.43490000  0.17370000  0.50030000  1.0 0.1232722195
H  H64  1  0.17370000  0.43490000  0.89110000  1.0 0.1232722195
H  H65  1  0.35890000  0.74970000  0.07630000  1.0 0.1232722195
H  H66  1  0.74970000  0.35890000  0.81510000  1.0 0.1232722195
H  H67  1  0.81510000  0.07630000  0.74970000  1.0 0.1232722195
H  H68  1  0.07630000  0.81510000  0.35890000  1.0 0.1232722195
H  H69  1  0.98470000  0.33630000  0.22010000  1.0 0.0925525012
H  H70  1  0.33630000  0.98470000  0.45890000  1.0 0.0925525012
H  H71  1  0.45890000  0.22010000  0.33630000  1.0 0.0925525012
H  H72  1  0.22010000  0.45890000  0.98470000  1.0 0.0925525012
H  H73  1  0.26530000  0.91370000  0.02990000  1.0 0.0925525012
H  H74  1  0.91370000  0.26530000  0.79110000  1.0 0.0925525012
H  H75  1  0.79110000  0.02990000  0.91370000  1.0 0.0925525012
H  H76  1  0.02990000  0.79110000  0.26530000  1.0 0.0925525012
H  H77  1  0.82390000  0.62930000  0.03070000  1.0 0.2778870108
H  H78  1  0.62930000  0.82390000  0.51610000  1.0 0.2778870108
H  H79  1  0.51610000  0.03070000  0.62930000  1.0 0.2778870108
H  H80  1  0.03070000  0.51610000  0.82390000  1.0 0.2778870108
H  H81  1  0.42610000  0.62070000  0.21930000  1.0 0.2778870108
H  H82  1  0.62070000  0.42610000  0.73390000  1.0 0.2778870108
H  H83  1  0.73390000  0.21930000  0.62070000  1.0 0.2778870108
H  H84  1  0.21930000  0.73390000  0.42610000  1.0 0.2778870108
C  C1  1  0.91162000  0.49184000  0.00692000  1.0 0.3058060275
C  C2  1  0.49184000  0.91162000  0.58962000  1.0 0.3058060275
C  C3  1  0.58962000  0.00692000  0.49184000  1.0 0.3058060275
C  C4  1  0.00692000  0.58962000  0.91162000  1.0 0.3058060275
C  C5  1  0.33838000  0.75816000  0.24308000  1.0 0.3058060275
C  C6  1  0.75816000  0.33838000  0.66038000  1.0 0.3058060275
C  C7  1  0.66038000  0.24308000  0.75816000  1.0 0.3058060275
C  C8  1  0.24308000  0.66038000  0.33838000  1.0 0.3058060275
C  C9  1  0.92534000  0.48218000  0.57370000  1.0 0.3185165206
C  C10  1  0.48218000  0.92534000  0.01878000  1.0 0.3185165206
C  C11  1  0.01878000  0.57370000  0.48218000  1.0 0.3185165206
C  C12  1  0.57370000  0.01878000  0.92534000  1.0 0.3185165206
C  C13  1  0.32466000  0.76782000  0.67630000  1.0 0.3185165206
C  C14  1  0.76782000  0.32466000  0.23122000  1.0 0.3185165206
C  C15  1  0.23122000  0.67630000  0.76782000  1.0 0.3185165206
C  C16  1  0.67630000  0.23122000  0.32466000  1.0 0.3185165206
C  C17  1  0.01872000  0.39152000  0.63148000  1.0 -0.2711219228
C  C18  1  0.39152000  0.01872000  0.95828000  1.0 -0.2711219228
C  C19  1  0.95828000  0.63148000  0.39152000  1.0 -0.2711219228
C  C20  1  0.63148000  0.95828000  0.01872000  1.0 -0.2711219228
C  C21  1  0.23128000  0.85848000  0.61852000  1.0 -0.2711219228
C  C22  1  0.85848000  0.23128000  0.29172000  1.0 -0.2711219228
C  C23  1  0.29172000  0.61852000  0.85848000  1.0 -0.2711219228
C  C24  1  0.61852000  0.29172000  0.23128000  1.0 -0.2711219228
C  C25  1  0.07378000  0.29298000  0.63782000  1.0 0.082608265
C  C26  1  0.29298000  0.07378000  0.99542000  1.0 0.082608265
C  C27  1  0.99542000  0.63782000  0.29298000  1.0 0.082608265
C  C28  1  0.63782000  0.99542000  0.07378000  1.0 0.082608265
C  C29  1  0.17622000  0.95702000  0.61218000  1.0 0.082608265
C  C30  1  0.95702000  0.17622000  0.25458000  1.0 0.082608265
C  C31  1  0.25458000  0.61218000  0.95702000  1.0 0.082608265
C  C32  1  0.61218000  0.25458000  0.17622000  1.0 0.082608265
C  C33  1  0.01259000  0.32479000  0.96541000  1.0 0.0514060127
C  C34  1  0.32479000  0.01259000  0.69721000  1.0 0.0514060127
C  C35  1  0.69721000  0.96541000  0.32479000  1.0 0.0514060127
C  C36  1  0.96541000  0.69721000  0.01259000  1.0 0.0514060127
C  C37  1  0.23741000  0.92521000  0.28459000  1.0 0.0514060127
C  C38  1  0.92521000  0.23741000  0.55279000  1.0 0.0514060127
C  C39  1  0.55279000  0.28459000  0.92521000  1.0 0.0514060127
C  C40  1  0.28459000  0.55279000  0.23741000  1.0 0.0514060127
C  C41  1  0.95751000  0.36271000  0.53289000  1.0 0.0646762567
C  C42  1  0.36271000  0.95751000  0.14689000  1.0 0.0646762567
C  C43  1  0.14689000  0.53289000  0.36271000  1.0 0.0646762567
C  C44  1  0.53289000  0.14689000  0.95751000  1.0 0.0646762567
C  C45  1  0.29249000  0.88729000  0.71711000  1.0 0.0656210878
C  C46  1  0.88729000  0.29249000  0.10311000  1.0 0.0646762567
C  C47  1  0.10311000  0.71711000  0.88729000  1.0 0.0656210878
C  C48  1  0.71711000  0.10311000  0.29249000  1.0 0.0646762567
C  C49  1  0.95725000  0.42265000  0.92955000  1.0 -0.2711219228
C  C50  1  0.42265000  0.95725000  0.69055000  1.0 -0.2711219228
C  C51  1  0.69055000  0.92955000  0.42265000  1.0 -0.2711219228
C  C52  1  0.92955000  0.69055000  0.95725000  1.0 -0.2711219228
C  C53  1  0.29275000  0.82735000  0.32045000  1.0 -0.2711219228
C  C54  1  0.82735000  0.29275000  0.55945000  1.0 -0.2711219228
C  C55  1  0.55945000  0.32045000  0.82735000  1.0 -0.2711219228
C  C56  1  0.32045000  0.55945000  0.29275000  1.0 -0.2711219228
C  C57  1  0.89652000  0.46472000  0.52148000  1.0 -0.2711219228
C  C58  1  0.46472000  0.89652000  0.11728000  1.0 -0.2711219228
C  C59  1  0.11728000  0.52148000  0.46472000  1.0 -0.2759929109
C  C60  1  0.52148000  0.11728000  0.89652000  1.0 -0.2759929109
C  C61  1  0.35348000  0.78528000  0.72852000  1.0 -0.2759929109
C  C62  1  0.78528000  0.35348000  0.13272000  1.0 -0.2759929109
C  C63  1  0.13272000  0.72852000  0.78528000  1.0 -0.2759929109
C  C64  1  0.72852000  0.13272000  0.35348000  1.0 -0.2759929109
C  C65  1  0.11062000  0.11062000  0.88938000  1.0 0.392031947
C  C66  1  0.88938000  0.88938000  0.11062000  1.0 0.392031947
C  C67  1  0.13938000  0.13938000  0.36062000  1.0 0.392031947
C  C68  1  0.36062000  0.36062000  0.13938000  1.0 0.392031947
C  C69  1  0.92240000  0.45640000  0.11800000  1.0 -0.2711219228
C  C70  1  0.45640000  0.92240000  0.50320000  1.0 -0.2711219228
C  C71  1  0.50320000  0.11800000  0.45640000  1.0 -0.2711219228
C  C72  1  0.11800000  0.50320000  0.92240000  1.0 -0.2711219228
C  C73  1  0.32760000  0.79360000  0.13200000  1.0 -0.2711219228
C  C74  1  0.79360000  0.32760000  0.74680000  1.0 -0.2711219228
C  C75  1  0.74680000  0.13200000  0.79360000  1.0 -0.2711219228
C  C76  1  0.13200000  0.74680000  0.32760000  1.0 -0.2711219228
C  C77  1  0.97890000  0.35730000  0.14510000  1.0 0.0656210878
C  C78  1  0.35730000  0.97890000  0.51870000  1.0 0.0656210878
C  C79  1  0.51870000  0.14510000  0.35730000  1.0 0.0656210878
C  C80  1  0.14510000  0.51870000  0.97890000  1.0 0.0656210878
C  C81  1  0.27110000  0.89270000  0.10490000  1.0 0.0656210878
C  C82  1  0.89270000  0.27110000  0.73130000  1.0 0.0656210878
C  C83  1  0.73130000  0.10490000  0.89270000  1.0 0.0656210878
C  C84  1  0.10490000  0.73130000  0.27110000  1.0 0.0656210878
N  N1  1  0.87519000  0.59687000  0.76087000  1.0 -0.8137458472
N  N2  1  0.59687000  0.87519000  0.76707000  1.0 -0.8137458472
N  N3  1  0.76707000  0.76087000  0.59687000  1.0 -0.8137458472
N  N4  1  0.76087000  0.76707000  0.87519000  1.0 -0.8137458472
N  N5  1  0.37481000  0.65313000  0.48913000  1.0 -0.8137458472
N  N6  1  0.65313000  0.37481000  0.48293000  1.0 -0.8137458472
N  N7  1  0.48293000  0.48913000  0.65313000  1.0 -0.8137458472
N  N8  1  0.48913000  0.48293000  0.37481000  1.0 -0.8137458472
N  N9  1  0.86044000  0.58690000  0.56704000  1.0 -0.5831857829
N  N10  1  0.58690000  0.86044000  0.98562000  1.0 -0.5831857829
N  N11  1  0.98562000  0.56704000  0.58690000  1.0 -0.5831857829
N  N12  1  0.56704000  0.98562000  0.86044000  1.0 -0.5831857829
N  N13  1  0.38956000  0.66310000  0.68296000  1.0 -0.5831857829
N  N14  1  0.66310000  0.38956000  0.26438000  1.0 -0.5831857829
N  N15  1  0.26438000  0.68296000  0.66310000  1.0 -0.5831857829
N  N16  1  0.68296000  0.26438000  0.38956000  1.0 -0.5831857829
N  N17  1  0.85272000  0.59358000  0.97970000  1.0 -0.5721853061
N  N18  1  0.59358000  0.85272000  0.57400000  1.0 -0.5721853061
N  N19  1  0.57400000  0.97970000  0.59358000  1.0 -0.5721853061
N  N20  1  0.97970000  0.57400000  0.85272000  1.0 -0.5721853061
N  N21  1  0.39728000  0.65642000  0.27030000  1.0 -0.5721853061
N  N22  1  0.65642000  0.39728000  0.67600000  1.0 -0.5721853061
N  N23  1  0.67600000  0.27030000  0.65642000  1.0 -0.5721853061
N  N24  1  0.27030000  0.67600000  0.39728000  1.0 -0.5721853061
N  N25  1  0.04460000  0.27630000  0.59206000  1.0 -0.2711219228
N  N26  1  0.27630000  0.04460000  0.08704000  1.0 -0.2711219228
N  N27  1  0.08704000  0.59206000  0.27630000  1.0 -0.2711219228
N  N28  1  0.59206000  0.08704000  0.04460000  1.0 -0.2711219228
N  N29  1  0.20540000  0.97370000  0.65794000  1.0 -0.2711219228
N  N30  1  0.97370000  0.20540000  0.16296000  1.0 -0.2711219228
N  N31  1  0.16296000  0.65794000  0.97370000  1.0 -0.2711219228
N  N32  1  0.65794000  0.16296000  0.20540000  1.0 -0.2711219228
N  N33  1  0.02652000  0.28834000  0.07184000  1.0 -0.2711219228
N  N34  1  0.28834000  0.02652000  0.61330000  1.0 -0.2711219228
N  N35  1  0.61330000  0.07184000  0.28834000  1.0 -0.2711219228
N  N36  1  0.07184000  0.61330000  0.02652000  1.0 -0.2711219228
N  N37  1  0.22348000  0.96166000  0.17816000  1.0 -0.2711219228
N  N38  1  0.96166000  0.22348000  0.63670000  1.0 -0.2711219228
N  N39  1  0.63670000  0.17816000  0.96166000  1.0 -0.2711219228
N  N40  1  0.17816000  0.63670000  0.22348000  1.0 -0.2711219228
O  O1  1  0.10102000  0.14650000  0.79148000  1.0 -0.5188509805
O  O2  1  0.14650000  0.10102000  0.96100000  1.0 -0.5188509805
O  O3  1  0.96100000  0.79148000  0.14650000  1.0 -0.5188509805
O  O4  1  0.79148000  0.96100000  0.10102000  1.0 -0.5188509805
O  O5  1  0.14898000  0.10350000  0.45852000  1.0 -0.5188509805
O  O6  1  0.10350000  0.14898000  0.28900000  1.0 -0.5188509805
O  O7  1  0.28900000  0.45852000  0.10350000  1.0 -0.5188509805
O  O8  1  0.45852000  0.28900000  0.14898000  1.0 -0.5188509805
