# DDEC6 charges by PACMAN v1.1 (https://github.com/mtap-research/PACMAN-charge/)
data_SEMFIB_ASR_pacman
_symmetry_space_group_name_H-M   'P 1'
_cell_length_a   24.65820000
_cell_length_b   24.47560000
_cell_length_c   12.59710000
_cell_angle_alpha   75.94830000
_cell_angle_beta   74.34340000
_cell_angle_gamma   29.70820000
_symmetry_Int_Tables_number   1
_chemical_formula_structural   CdP2H21C21(N5O)2
_chemical_formula_sum   'Cd4 P8 H84 C84 N40 O8'
_cell_volume   3627.38787812
_cell_formula_units_Z   4
loop_
 _symmetry_equiv_pos_site_id
 _symmetry_equiv_pos_as_xyz
  1  'x, y, z'
loop_
 _atom_site_type_symbol
 _atom_site_label
 _atom_site_symmetry_multiplicity
 _atom_site_fract_x
 _atom_site_fract_y
 _atom_site_fract_z
 _atom_site_occupancy
 _atom_site_charge
Cd  Cd1  1  0.12500000  0.62500000  0.12500000  1.0 0.7331385583
Cd  Cd2  1  0.62500000  0.12500000  0.12500000  1.0 0.7331385583
Cd  Cd3  1  0.12500000  0.12500000  0.62500000  1.0 0.7331385583
Cd  Cd4  1  0.12500000  0.12500000  0.12500000  1.0 0.7331385583
P  P1  1  0.86535000  0.63465000  0.63465000  1.0 1.2116254241
P  P2  1  0.63465000  0.86535000  0.86535000  1.0 1.2116254241
P  P3  1  0.38465000  0.61535000  0.61535000  1.0 1.2116254241
P  P4  1  0.61535000  0.38465000  0.38465000  1.0 1.2116254241
P  P5  1  0.86001000  0.63999000  0.86001000  1.0 1.2116254241
P  P6  1  0.63999000  0.86001000  0.63999000  1.0 1.2116254241
P  P7  1  0.38999000  0.61001000  0.38999000  1.0 1.2116254241
P  P8  1  0.61001000  0.38999000  0.61001000  1.0 1.2116254241
H  H1  1  0.81100000  0.63560000  0.52340000  1.0 0.2922531933
H  H2  1  0.63560000  0.81100000  0.03000000  1.0 0.2922531933
H  H3  1  0.03000000  0.52340000  0.63560000  1.0 0.2922531933
H  H4  1  0.52340000  0.03000000  0.81100000  1.0 0.2922531933
H  H5  1  0.43900000  0.61440000  0.72660000  1.0 0.2922531933
H  H6  1  0.61440000  0.43900000  0.22000000  1.0 0.2922531933
H  H7  1  0.22000000  0.72660000  0.61440000  1.0 0.2922531933
H  H8  1  0.72660000  0.22000000  0.43900000  1.0 0.2922531933
H  H9  1  0.04450000  0.39970000  0.65730000  1.0 0.1278481554
H  H10  1  0.39970000  0.04450000  0.89850000  1.0 0.1278481554
H  H11  1  0.89850000  0.65730000  0.39970000  1.0 0.1278481554
H  H12  1  0.65730000  0.89850000  0.04450000  1.0 0.1278481554
H  H13  1  0.20550000  0.85030000  0.59270000  1.0 0.1278481554
H  H14  1  0.85030000  0.20550000  0.35150000  1.0 0.1278481554
H  H15  1  0.35150000  0.59270000  0.85030000  1.0 0.1278481554
H  H16  1  0.59270000  0.35150000  0.20550000  1.0 0.1278481554
H  H17  1  0.13630000  0.23730000  0.66666667  1.0 0.0929519039
H  H18  1  0.23730000  0.13630000  0.95970000  1.0 0.0929519039
H  H19  1  0.95970000  0.66666667  0.23730000  1.0 0.0929519039
H  H20  1  0.66666667  0.95970000  0.13630000  1.0 0.0929519039
H  H21  1  0.11370000  0.01270000  0.58330000  1.0 0.0929519039
H  H22  1  0.01270000  0.11370000  0.29030000  1.0 0.0929519039
H  H23  1  0.29030000  0.58330000  0.01270000  1.0 0.0929519039
H  H24  1  0.58330000  0.29030000  0.11370000  1.0 0.0929519039
H  H25  1  0.03740000  0.28760000  0.90740000  1.0 0.0929519039
H  H26  1  0.28760000  0.03740000  0.76760000  1.0 0.0929519039
H  H27  1  0.76760000  0.90740000  0.28760000  1.0 0.0929519039
H  H28  1  0.90740000  0.76760000  0.03740000  1.0 0.0929519039
H  H29  1  0.21260000  0.96240000  0.34260000  1.0 0.0929519039
H  H30  1  0.96240000  0.21260000  0.48240000  1.0 0.0929519039
H  H31  1  0.48240000  0.34260000  0.96240000  1.0 0.0929519039
H  H32  1  0.34260000  0.48240000  0.21260000  1.0 0.0929519039
H  H33  1  0.93140000  0.36220000  0.49920000  1.0 0.0929519039
H  H34  1  0.36220000  0.93140000  0.20720000  1.0 0.0929519039
H  H35  1  0.20720000  0.49920000  0.36220000  1.0 0.0929519039
H  H36  1  0.49920000  0.20720000  0.93140000  1.0 0.0929519039
H  H37  1  0.31860000  0.88780000  0.75080000  1.0 0.0929519039
H  H38  1  0.88780000  0.31860000  0.04280000  1.0 0.0929519039
H  H39  1  0.04280000  0.75080000  0.88780000  1.0 0.0929519039
H  H40  1  0.75080000  0.04280000  0.31860000  1.0 0.0929519039
H  H41  1  0.95080000  0.44620000  0.85100000  1.0 0.1369786978
H  H42  1  0.44620000  0.95080000  0.75200000  1.0 0.1369786978
H  H43  1  0.75200000  0.85100000  0.44620000  1.0 0.1369786978
H  H44  1  0.85100000  0.75200000  0.95080000  1.0 0.1369786978
H  H45  1  0.29920000  0.80380000  0.39900000  1.0 0.1369786978
H  H46  1  0.80380000  0.29920000  0.49800000  1.0 0.1369786978
H  H47  1  0.49800000  0.39900000  0.80380000  1.0 0.1369786978
H  H48  1  0.39900000  0.49800000  0.29920000  1.0 0.1369786978
H  H49  1  0.83250000  0.52910000  0.48190000  1.0 0.1278481554
H  H50  1  0.52910000  0.83250000  0.15650000  1.0 0.1278481554
H  H51  1  0.15650000  0.48190000  0.52910000  1.0 0.1278481554
H  H52  1  0.48190000  0.15650000  0.83250000  1.0 0.1278481554
H  H53  1  0.41750000  0.72090000  0.76810000  1.0 0.1278481554
H  H54  1  0.72090000  0.41750000  0.09350000  1.0 0.1278481554
H  H55  1  0.09350000  0.76810000  0.72090000  1.0 0.1278481554
H  H56  1  0.76810000  0.09350000  0.41750000  1.0 0.1278481554
H  H57  1  0.90770000  0.90770000  0.09230000  1.0 0.0958736361
H  H58  1  0.09230000  0.09230000  0.90770000  1.0 0.0958736361
H  H59  1  0.34230000  0.34230000  0.15770000  1.0 0.0958736361
H  H60  1  0.15770000  0.15770000  0.34230000  1.0 0.0958736361
H  H61  1  0.88550000  0.50670000  0.16830000  1.0 0.1278481554
H  H62  1  0.50670000  0.88550000  0.43950000  1.0 0.1278481554
H  H63  1  0.43950000  0.16830000  0.50670000  1.0 0.1278481554
H  H64  1  0.16830000  0.43950000  0.88550000  1.0 0.1278481554
H  H65  1  0.36450000  0.74330000  0.08170000  1.0 0.1278481554
H  H66  1  0.74330000  0.36450000  0.81050000  1.0 0.1278481554
H  H67  1  0.81050000  0.08170000  0.74330000  1.0 0.1278481554
H  H68  1  0.08170000  0.81050000  0.36450000  1.0 0.1278481554
H  H69  1  0.97790000  0.34510000  0.21190000  1.0 0.0929519039
H  H70  1  0.34510000  0.97790000  0.46510000  1.0 0.0929519039
H  H71  1  0.46510000  0.21190000  0.34510000  1.0 0.0929519039
H  H72  1  0.21190000  0.46510000  0.97790000  1.0 0.0929519039
H  H73  1  0.27210000  0.90490000  0.03810000  1.0 0.0929519039
H  H74  1  0.90490000  0.27210000  0.78490000  1.0 0.0929519039
H  H75  1  0.78490000  0.03810000  0.90490000  1.0 0.0929519039
H  H76  1  0.03810000  0.78490000  0.27210000  1.0 0.0929519039
H  H77  1  0.82620000  0.62800000  0.04160000  1.0 0.2922531933
H  H78  1  0.62800000  0.82620000  0.50420000  1.0 0.2922531933
H  H79  1  0.50420000  0.04160000  0.62800000  1.0 0.2922531933
H  H80  1  0.04160000  0.50420000  0.82620000  1.0 0.2922531933
H  H81  1  0.42380000  0.62200000  0.20840000  1.0 0.2922531933
H  H82  1  0.62200000  0.42380000  0.74580000  1.0 0.2922531933
H  H83  1  0.74580000  0.20840000  0.62200000  1.0 0.2922531933
H  H84  1  0.20840000  0.74580000  0.42380000  1.0 0.2922531933
C  C1  1  0.90917000  0.49597000  0.00243000  1.0 0.3057804787
C  C2  1  0.49597000  0.90917000  0.59243000  1.0 0.3057804787
C  C3  1  0.59243000  0.00243000  0.49597000  1.0 0.3057804787
C  C4  1  0.00243000  0.59243000  0.90917000  1.0 0.3057804787
C  C5  1  0.34083000  0.75403000  0.24757000  1.0 0.3057804787
C  C6  1  0.75403000  0.34083000  0.65757000  1.0 0.3057804787
C  C7  1  0.65757000  0.24757000  0.75403000  1.0 0.3057804787
C  C8  1  0.24757000  0.65757000  0.34083000  1.0 0.3057804787
C  C9  1  0.92408000  0.48580000  0.57300000  1.0 0.3156971008
C  C10  1  0.48580000  0.92408000  0.01712000  1.0 0.3156971008
C  C11  1  0.01712000  0.57300000  0.48580000  1.0 0.3156971008
C  C12  1  0.57300000  0.01712000  0.92408000  1.0 0.3156971008
C  C13  1  0.32592000  0.76420000  0.67700000  1.0 0.3156971008
C  C14  1  0.76420000  0.32592000  0.23288000  1.0 0.3156971008
C  C15  1  0.23288000  0.67700000  0.76420000  1.0 0.3156971008
C  C16  1  0.67700000  0.23288000  0.32592000  1.0 0.3156971008
C  C17  1  0.01879000  0.39479000  0.62581000  1.0 -0.2585847993
C  C18  1  0.39479000  0.01879000  0.96061000  1.0 -0.2585847993
C  C19  1  0.96061000  0.62581000  0.39479000  1.0 -0.2585847993
C  C20  1  0.62581000  0.96061000  0.01879000  1.0 -0.2585847993
C  C21  1  0.23121000  0.85521000  0.62419000  1.0 -0.2585847993
C  C22  1  0.85521000  0.23121000  0.28939000  1.0 -0.2585847993
C  C23  1  0.28939000  0.62419000  0.85521000  1.0 -0.2585847993
C  C24  1  0.62419000  0.28939000  0.23121000  1.0 -0.2585847993
C  C25  1  0.07360000  0.29740000  0.63040000  1.0 0.0729056773
C  C26  1  0.29740000  0.07360000  0.99860000  1.0 0.0729056773
C  C27  1  0.99860000  0.63040000  0.29740000  1.0 0.0729056773
C  C28  1  0.63040000  0.99860000  0.07360000  1.0 0.0729056773
C  C29  1  0.17640000  0.95260000  0.61960000  1.0 0.0729056773
C  C30  1  0.95260000  0.17640000  0.25140000  1.0 0.0729056773
C  C31  1  0.25140000  0.61960000  0.95260000  1.0 0.0729056773
C  C32  1  0.61960000  0.25140000  0.17640000  1.0 0.0729056773
C  C33  1  0.00792000  0.33172000  0.96048000  1.0 0.0429290178
C  C34  1  0.33172000  0.00792000  0.69988000  1.0 0.0429290178
C  C35  1  0.69988000  0.96048000  0.33172000  1.0 0.0429290178
C  C36  1  0.96048000  0.69988000  0.00792000  1.0 0.0429290178
C  C37  1  0.24208000  0.91828000  0.28952000  1.0 0.0429290178
C  C38  1  0.91828000  0.24208000  0.55012000  1.0 0.0429290178
C  C39  1  0.55012000  0.28952000  0.91828000  1.0 0.0429290178
C  C40  1  0.28952000  0.55012000  0.24208000  1.0 0.0429290178
C  C41  1  0.95338000  0.37078000  0.53182000  1.0 0.0482100126
C  C42  1  0.37078000  0.95338000  0.14402000  1.0 0.0482100126
C  C43  1  0.14402000  0.53182000  0.37078000  1.0 0.0482100126
C  C44  1  0.53182000  0.14402000  0.95338000  1.0 0.0482100126
C  C45  1  0.29662000  0.87922000  0.71818000  1.0 0.0482100126
C  C46  1  0.87922000  0.29662000  0.10598000  1.0 0.0482100126
C  C47  1  0.10598000  0.71818000  0.87922000  1.0 0.0482100126
C  C48  1  0.71818000  0.10598000  0.29662000  1.0 0.0482100126
C  C49  1  0.95531000  0.42751000  0.92569000  1.0 -0.2585847993
C  C50  1  0.42751000  0.95531000  0.69149000  1.0 -0.2585847993
C  C51  1  0.69149000  0.92569000  0.42751000  1.0 -0.2585847993
C  C52  1  0.92569000  0.69149000  0.95531000  1.0 -0.2585847993
C  C53  1  0.29469000  0.82249000  0.32431000  1.0 -0.2585847993
C  C54  1  0.82249000  0.29469000  0.55851000  1.0 -0.2585847993
C  C55  1  0.55851000  0.32431000  0.82249000  1.0 -0.2585847993
C  C56  1  0.32431000  0.55851000  0.29469000  1.0 -0.2585847993
C  C57  1  0.89277000  0.47157000  0.52163000  1.0 -0.2669559324
C  C58  1  0.47157000  0.89277000  0.11403000  1.0 -0.2669559324
C  C59  1  0.11403000  0.52163000  0.47157000  1.0 -0.2669559324
C  C60  1  0.52163000  0.11403000  0.89277000  1.0 -0.2669559324
C  C61  1  0.35723000  0.77843000  0.72837000  1.0 -0.2669559324
C  C62  1  0.77843000  0.35723000  0.13597000  1.0 -0.2669559324
C  C63  1  0.13597000  0.72837000  0.77843000  1.0 -0.2669559324
C  C64  1  0.72837000  0.13597000  0.35723000  1.0 -0.2669559324
C  C65  1  0.88742000  0.88742000  0.11258000  1.0 0.2791877881
C  C66  1  0.11258000  0.11258000  0.88742000  1.0 0.2791877881
C  C67  1  0.36258000  0.36258000  0.13742000  1.0 0.2791877881
C  C68  1  0.13742000  0.13742000  0.36258000  1.0 0.2791877881
C  C69  1  0.91735000  0.46295000  0.11265000  1.0 -0.2669559324
C  C70  1  0.46295000  0.91735000  0.50705000  1.0 -0.2669559324
C  C71  1  0.50705000  0.11265000  0.46295000  1.0 -0.2669559324
C  C72  1  0.11265000  0.50705000  0.91735000  1.0 -0.2669559324
C  C73  1  0.33265000  0.78705000  0.13735000  1.0 -0.2669559324
C  C74  1  0.78705000  0.33265000  0.74295000  1.0 -0.2669559324
C  C75  1  0.74295000  0.13735000  0.78705000  1.0 -0.2669559324
C  C76  1  0.13735000  0.74295000  0.33265000  1.0 -0.2669559324
C  C77  1  0.97254000  0.36574000  0.13786000  1.0 0.0482100126
C  C78  1  0.36574000  0.97254000  0.52386000  1.0 0.0482100126
C  C79  1  0.52386000  0.13786000  0.36574000  1.0 0.0482100126
C  C80  1  0.13786000  0.52386000  0.97254000  1.0 0.0482100126
C  C81  1  0.27746000  0.88426000  0.11214000  1.0 0.0482100126
C  C82  1  0.88426000  0.27746000  0.72614000  1.0 0.0482100126
C  C83  1  0.72614000  0.11214000  0.88426000  1.0 0.0482100126
C  C84  1  0.11214000  0.72614000  0.27746000  1.0 0.0482100126
N  N1  1  0.87398000  0.59862000  0.76012000  1.0 -0.8184974819
N  N2  1  0.59862000  0.87398000  0.76728000  1.0 -0.8184974819
N  N3  1  0.76728000  0.76012000  0.59862000  1.0 -0.8184974819
N  N4  1  0.76012000  0.76728000  0.87398000  1.0 -0.8184974819
N  N5  1  0.37602000  0.65138000  0.48988000  1.0 -0.8184974819
N  N6  1  0.65138000  0.37602000  0.48272000  1.0 -0.8184974819
N  N7  1  0.48272000  0.48988000  0.65138000  1.0 -0.8184974819
N  N8  1  0.48988000  0.48272000  0.37602000  1.0 -0.8184974819
N  N9  1  0.86027000  0.58879000  0.56773000  1.0 -0.5819589748
N  N10  1  0.58879000  0.86027000  0.98321000  1.0 -0.5819589748
N  N11  1  0.98321000  0.56773000  0.58879000  1.0 -0.5819589748
N  N12  1  0.56773000  0.98321000  0.86027000  1.0 -0.5819589748
N  N13  1  0.38973000  0.66121000  0.68227000  1.0 -0.5819589748
N  N14  1  0.66121000  0.38973000  0.26679000  1.0 -0.5819589748
N  N15  1  0.26679000  0.68227000  0.66121000  1.0 -0.5819589748
N  N16  1  0.68227000  0.26679000  0.38973000  1.0 -0.5819589748
N  N17  1  0.85056000  0.59702000  0.97628000  1.0 -0.6047515898
N  N18  1  0.59702000  0.85056000  0.57614000  1.0 -0.6047515898
N  N19  1  0.57614000  0.97628000  0.59702000  1.0 -0.6047515898
N  N20  1  0.97628000  0.57614000  0.85056000  1.0 -0.6047515898
N  N21  1  0.39944000  0.65298000  0.27372000  1.0 -0.6047515898
N  N22  1  0.65298000  0.39944000  0.67386000  1.0 -0.6047515898
N  N23  1  0.67386000  0.27372000  0.65298000  1.0 -0.6047515898
N  N24  1  0.27372000  0.67386000  0.39944000  1.0 -0.6052171021
N  N25  1  0.04264000  0.28364000  0.58596000  1.0 -0.2787660389
N  N26  1  0.28364000  0.04264000  0.08776000  1.0 -0.2787660389
N  N27  1  0.08776000  0.58596000  0.28364000  1.0 -0.2787660389
N  N28  1  0.58596000  0.08776000  0.04264000  1.0 -0.2787660389
N  N29  1  0.20736000  0.96636000  0.66404000  1.0 -0.2787660389
N  N30  1  0.96636000  0.20736000  0.16224000  1.0 -0.2787660389
N  N31  1  0.16224000  0.66404000  0.96636000  1.0 -0.2787660389
N  N32  1  0.66404000  0.16224000  0.20736000  1.0 -0.2787660389
N  N33  1  0.01912000  0.29852000  0.06468000  1.0 -0.2669559324
N  N34  1  0.29852000  0.01912000  0.61768000  1.0 -0.2669559324
N  N35  1  0.61768000  0.06468000  0.29852000  1.0 -0.2669559324
N  N36  1  0.06468000  0.61768000  0.01912000  1.0 -0.2669559324
N  N37  1  0.23088000  0.95148000  0.18532000  1.0 -0.2669559324
N  N38  1  0.95148000  0.23088000  0.63232000  1.0 -0.2669559324
N  N39  1  0.63232000  0.18532000  0.95148000  1.0 -0.2669559324
N  N40  1  0.18532000  0.63232000  0.23088000  1.0 -0.2669559324
O  O1  1  0.94988000  0.80168000  0.16412000  1.0 -0.4742252111
O  O2  1  0.80168000  0.94988000  0.08432000  1.0 -0.4742252111
O  O3  1  0.08432000  0.16412000  0.80168000  1.0 -0.4742252111
O  O4  1  0.16412000  0.08432000  0.94988000  1.0 -0.4742252111
O  O5  1  0.30012000  0.44832000  0.08588000  1.0 -0.4742252111
O  O6  1  0.44832000  0.30012000  0.16568000  1.0 -0.4742252111
O  O7  1  0.16568000  0.08588000  0.44832000  1.0 -0.4742252111
O  O8  1  0.08588000  0.16568000  0.30012000  1.0 -0.4742252111
