# DDEC6 charges by PACMAN v1.1 (https://github.com/mtap-research/PACMAN-charge/)
data_SEMPUX_FSR_pacman
_symmetry_space_group_name_H-M   'P 1'
_cell_length_a   11.96100000
_cell_length_b   11.96100000
_cell_length_c   14.21100000
_cell_angle_alpha   67.20800000
_cell_angle_beta   112.79200000
_cell_angle_gamma   122.37000000
_symmetry_Int_Tables_number   1
_chemical_formula_structural   CoH23C28N5O4
_chemical_formula_sum   'Co2 H46 C56 N10 O8'
_cell_volume   1540.22224279
_cell_formula_units_Z   2
loop_
 _symmetry_equiv_pos_site_id
 _symmetry_equiv_pos_as_xyz
  1  'x, y, z'
loop_
 _atom_site_type_symbol
 _atom_site_label
 _atom_site_symmetry_multiplicity
 _atom_site_fract_x
 _atom_site_fract_y
 _atom_site_fract_z
 _atom_site_occupancy
 _atom_site_charge
Co  Co1  1  0.80380000  0.14490000  0.41313000  1.0 0.7460984356
Co  Co2  1  0.85510000  0.19620000  0.91313000  1.0 0.7460984356
H  H1  1  0.01180000  0.63480000  0.79650000  1.0 0.1178990228
H  H2  1  0.36520000  0.98820000  0.29650000  1.0 0.1097197518
H  H3  1  0.65550000  0.70030000  0.54580000  1.0 0.1097197518
H  H4  1  0.29970000  0.34450000  0.04580000  1.0 0.1097197518
H  H5  1  0.61540000  0.49240000  0.65090000  1.0 0.1178990228
H  H6  1  0.50760000  0.38460000  0.15090000  1.0 0.1178990228
H  H7  1  0.88320000  0.38460000  0.21100000  1.0 0.1178990228
H  H8  1  0.61540000  0.11680000  0.71100000  1.0 0.1178990228
H  H9  1  0.02160000  0.11080000  0.34920000  1.0 0.1360719866
H  H10  1  0.88920000  0.97840000  0.84920000  1.0 0.1360719866
H  H11  1  0.12920000  0.26220000  0.20850000  1.0 0.1178990228
H  H12  1  0.73780000  0.87080000  0.70850000  1.0 0.1178990228
H  H13  1  0.00180000  0.50480000  0.04850000  1.0 0.1178990228
H  H14  1  0.49520000  0.99820000  0.54850000  1.0 0.1178990228
H  H15  1  0.07280000  0.43380000  0.03640000  1.0 0.1178990228
H  H16  1  0.56620000  0.92720000  0.53640000  1.0 0.1178990228
H  H17  1  0.13440000  0.66360000  0.17130000  1.0 0.0871320265
H  H18  1  0.33640000  0.86560000  0.67130000  1.0 0.0871320265
H  H19  1  0.34690000  0.82410000  0.23880000  1.0 0.0789386341
H  H20  1  0.17590000  0.65310000  0.73880000  1.0 0.0789386341
H  H21  1  0.52460000  0.67760000  0.16060000  1.0 0.0789386341
H  H22  1  0.32240000  0.47540000  0.66060000  1.0 0.0789386341
H  H23  1  0.31210000  0.51710000  0.09310000  1.0 0.0789386341
H  H24  1  0.48290000  0.68790000  0.59310000  1.0 0.0789386341
H  H25  1  0.66300000  0.82940000  0.27220000  1.0 0.1097197518
H  H26  1  0.17060000  0.33700000  0.77220000  1.0 0.1097197518
H  H27  1  0.60780000  0.90800000  0.29420000  1.0 0.1097197518
H  H28  1  0.09200000  0.39220000  0.79420000  1.0 0.1097197518
H  H29  1  0.54800000  0.10760000  0.12010000  1.0 0.130365017
H  H30  1  0.89240000  0.45200000  0.62010000  1.0 0.130365017
H  H31  1  0.66560000  0.25080000  0.97730000  1.0 0.130365017
H  H32  1  0.74920000  0.33440000  0.47730000  1.0 0.130365017
H  H33  1  0.77180000  0.96060000  0.11930000  1.0 0.1097197518
H  H34  1  0.03940000  0.22820000  0.61930000  1.0 0.1097197518
H  H35  1  0.09130000  0.95990000  0.67170000  1.0 0.3062483437
H  H36  1  0.04010000  0.90870000  0.17170000  1.0 0.3062483437
H  H37  1  0.13090000  0.84770000  0.66630000  1.0 0.2853272326
H  H38  1  0.15230000  0.86910000  0.16630000  1.0 0.2853272326
H  H39  1  0.17670000  0.58490000  0.25450000  1.0 0.0706176973
H  H40  1  0.41510000  0.82330000  0.75450000  1.0 0.0789386341
H  H41  1  0.39700000  0.74740000  0.30620000  1.0 0.0706176973
H  H42  1  0.25260000  0.60300000  0.80620000  1.0 0.0706176973
H  H43  1  0.49550000  0.75490000  0.06290000  1.0 0.0871320265
H  H44  1  0.24510000  0.50450000  0.56290000  1.0 0.0871320265
H  H45  1  0.27520000  0.59240000  0.01120000  1.0 0.0789386341
H  H46  1  0.40760000  0.72480000  0.51120000  1.0 0.0789386341
C  C1  1  0.79280000  0.40540000  0.78650000  1.0 0.5026404626
C  C2  1  0.59460000  0.20720000  0.28650000  1.0 0.5026404626
C  C3  1  0.80920000  0.53380000  0.73040000  1.0 -0.0787751236
C  C4  1  0.46620000  0.19080000  0.23040000  1.0 -0.0787751236
C  C5  1  0.93960000  0.64820000  0.74580000  1.0 -0.3288985723
C  C6  1  0.35180000  0.06040000  0.24580000  1.0 -0.3288985723
C  C7  1  0.96200000  0.78160000  0.68590000  1.0 0.2763736016
C  C8  1  0.21840000  0.03800000  0.18590000  1.0 0.2763736016
C  C9  1  0.85100000  0.79720000  0.60760000  1.0 -0.1191918262
C  C10  1  0.20280000  0.14900000  0.10760000  1.0 -0.1191918262
C  C11  1  0.87250000  0.93630000  0.53840000  1.0 0.5377987392
C  C12  1  0.06370000  0.12750000  0.03840000  1.0 0.5377987392
C  C13  1  0.72770000  0.68810000  0.59720000  1.0 -0.1350943529
C  C14  1  0.31190000  0.27230000  0.09720000  1.0 -0.1348911308
C  C15  1  0.70410000  0.56210000  0.65780000  1.0 -0.1093217963
C  C16  1  0.43790000  0.29590000  0.15780000  1.0 -0.1093217963
C  C17  1  0.92470000  0.32970000  0.22870000  1.0 0.1097197518
C  C18  1  0.67030000  0.07530000  0.72870000  1.0 0.1097197518
C  C19  1  0.00570000  0.18350000  0.30260000  1.0 -0.0690767531
C  C20  1  0.81650000  0.99430000  0.80260000  1.0 -0.0690767531
C  C21  1  0.06280000  0.26440000  0.22550000  1.0 -0.0426314027
C  C22  1  0.73560000  0.93720000  0.72550000  1.0 -0.0426314027
C  C23  1  0.06540000  0.46640000  0.08540000  1.0 -0.1191918262
C  C24  1  0.53360000  0.93460000  0.58540000  1.0 -0.1191918262
C  C25  1  0.20210000  0.57450000  0.12550000  1.0 -0.0487103514
C  C26  1  0.42550000  0.79790000  0.62550000  1.0 -0.0426314027
C  C27  1  0.21260000  0.66640000  0.16920000  1.0 -0.0487103514
C  C28  1  0.33360000  0.78740000  0.66920000  1.0 -0.0487103514
C  C29  1  0.34000000  0.76260000  0.20960000  1.0 -0.0690767531
C  C30  1  0.23740000  0.66000000  0.70960000  1.0 -0.0690767531
C  C31  1  0.45680000  0.76680000  0.20640000  1.0 0.016197554
C  C32  1  0.23320000  0.54320000  0.70640000  1.0 0.016197554
C  C33  1  0.44640000  0.67480000  0.16270000  1.0 -0.0487103514
C  C34  1  0.32520000  0.55360000  0.66270000  1.0 -0.0487103514
C  C35  1  0.31900000  0.57860000  0.12230000  1.0 -0.033282413
C  C36  1  0.42140000  0.68100000  0.62230000  1.0 -0.033282413
C  C37  1  0.60340000  0.87260000  0.24130000  1.0 -0.1093217963
C  C38  1  0.12740000  0.39660000  0.74130000  1.0 -0.1093217963
C  C39  1  0.60630000  0.09430000  0.10210000  1.0 -0.1780343288
C  C40  1  0.90570000  0.39370000  0.60210000  1.0 -0.1780343288
C  C41  1  0.67120000  0.17260000  0.02300000  1.0 0.0387717905
C  C42  1  0.82740000  0.32880000  0.52300000  1.0 0.0387717905
C  C43  1  0.72620000  0.01120000  0.10290000  1.0 0.1178990228
C  C44  1  0.98880000  0.27380000  0.60290000  1.0 0.1178990228
C  C45  1  0.20410000  0.57250000  0.12770000  1.0 -0.0487103514
C  C46  1  0.42750000  0.79590000  0.62770000  1.0 -0.0487103514
C  C47  1  0.24060000  0.61900000  0.21610000  1.0 -0.0487103514
C  C48  1  0.38100000  0.75940000  0.71610000  1.0 -0.0487103514
C  C49  1  0.37270000  0.71630000  0.24710000  1.0 -0.0487103514
C  C50  1  0.28370000  0.62730000  0.74710000  1.0 -0.0487103514
C  C51  1  0.46810000  0.76730000  0.18970000  1.0 -0.0033348144
C  C52  1  0.23270000  0.53190000  0.68970000  1.0 -0.0033348144
C  C53  1  0.43160000  0.72080000  0.10130000  1.0 -0.0615437076
C  C54  1  0.27920000  0.56840000  0.60130000  1.0 -0.0615437076
C  C55  1  0.29960000  0.62340000  0.07030000  1.0 -0.0615437076
C  C56  1  0.37660000  0.70040000  0.57030000  1.0 -0.0615437076
N  N1  1  0.08390000  0.88150000  0.67220000  1.0 -0.5417564147
N  N2  1  0.11850000  0.91610000  0.17220000  1.0 -0.5417564147
N  N3  1  0.91040000  0.22540000  0.30540000  1.0 -0.3104602628
N  N4  1  0.77460000  0.08960000  0.80540000  1.0 -0.3104602628
N  N5  1  0.01240000  0.34820000  0.17610000  1.0 0.0054374683
N  N6  1  0.65180000  0.98760000  0.67610000  1.0 0.0054374683
N  N7  1  0.64770000  0.97950000  0.15600000  1.0 -0.0426314027
N  N8  1  0.02050000  0.35230000  0.65600000  1.0 -0.0426314027
N  N9  1  0.74420000  0.12100000  0.02030000  1.0 -0.3238641703
N  N10  1  0.87900000  0.25580000  0.52030000  1.0 -0.3238641703
O  O1  1  0.67400000  0.30800000  0.78520000  1.0 -0.5537342661
O  O2  1  0.69200000  0.32600000  0.28520000  1.0 -0.5537342661
O  O3  1  0.89260000  0.38560000  0.84550000  1.0 -0.5074889743
O  O4  1  0.61440000  0.10740000  0.34550000  1.0 -0.5074889743
O  O5  1  0.76740000  0.94920000  0.48180000  1.0 -0.5074889743
O  O6  1  0.05080000  0.23260000  0.98180000  1.0 -0.5074889743
O  O7  1  0.98160000  0.03980000  0.54930000  1.0 -0.5220477217
O  O8  1  0.96020000  0.01840000  0.04930000  1.0 -0.5220477217
