# DDEC6 charges by PACMAN v1.1 (https://github.com/mtap-research/PACMAN-charge/)
data_SENBAR_ASR_pacman
_symmetry_space_group_name_H-M   'P 1'
_cell_length_a   13.49460000
_cell_length_b   13.49460000
_cell_length_c   13.49460000
_cell_angle_alpha   112.84400000
_cell_angle_beta   112.84400000
_cell_angle_gamma   112.84400000
_symmetry_Int_Tables_number   1
_chemical_formula_structural   CuH6C12(N3O2)2
_chemical_formula_sum   'Cu6 H36 C72 N36 O24'
_cell_volume   1612.98316287
_cell_formula_units_Z   6
loop_
 _symmetry_equiv_pos_site_id
 _symmetry_equiv_pos_as_xyz
  1  'x, y, z'
loop_
 _atom_site_type_symbol
 _atom_site_label
 _atom_site_symmetry_multiplicity
 _atom_site_fract_x
 _atom_site_fract_y
 _atom_site_fract_z
 _atom_site_occupancy
 _atom_site_charge
Cu  Cu1  1  0.00012000  0.97222000  0.52894000  1.0 0.1509644777
Cu  Cu2  1  0.97222000  0.52894000  0.00012000  1.0 0.1509644777
Cu  Cu3  1  0.52894000  0.00012000  0.97222000  1.0 0.1509644777
Cu  Cu4  1  0.99988000  0.02778000  0.47106000  1.0 0.1509644777
Cu  Cu5  1  0.02778000  0.47106000  0.99988000  1.0 0.1509644777
Cu  Cu6  1  0.47106000  0.99988000  0.02778000  1.0 0.1509644777
H  H1  1  0.67160000  0.51070000  0.15090000  1.0 0.0677836857
H  H2  1  0.34770000  0.49550000  0.82883000  1.0 0.0510555261
H  H3  1  0.51220000  0.25510000  0.08110000  1.0 0.1077477153
H  H4  1  0.42050000  0.00240000  0.72800000  1.0 0.0180116916
H  H5  1  0.51290000  0.73700000  0.89340000  1.0 0.0364690389
H  H6  1  0.59330000  0.00640000  0.23120000  1.0 0.0677836857
H  H7  1  0.51070000  0.15090000  0.67160000  1.0 0.0677836857
H  H8  1  0.49550000  0.82883000  0.34770000  1.0 0.0510555261
H  H9  1  0.25510000  0.08110000  0.51220000  1.0 0.1077477153
H  H10  1  0.00240000  0.72800000  0.42050000  1.0 0.0180116916
H  H11  1  0.73700000  0.89340000  0.51290000  1.0 0.0364690389
H  H12  1  0.00640000  0.23120000  0.59330000  1.0 0.0677836857
H  H13  1  0.15090000  0.67160000  0.51070000  1.0 0.0677836857
H  H14  1  0.82883000  0.34770000  0.49550000  1.0 0.0510555261
H  H15  1  0.08110000  0.51220000  0.25510000  1.0 0.1077477153
H  H16  1  0.72800000  0.42050000  0.00240000  1.0 0.0180116916
H  H17  1  0.89340000  0.51290000  0.73700000  1.0 0.0364690389
H  H18  1  0.23120000  0.59330000  0.00640000  1.0 0.0677836857
H  H19  1  0.32840000  0.48930000  0.84910000  1.0 0.0677836857
H  H20  1  0.65230000  0.50450000  0.17117000  1.0 0.0510555261
H  H21  1  0.48780000  0.74490000  0.91890000  1.0 0.1077477153
H  H22  1  0.57950000  0.99760000  0.27200000  1.0 0.0180116916
H  H23  1  0.48710000  0.26300000  0.10660000  1.0 0.0364690389
H  H24  1  0.40670000  0.99360000  0.76880000  1.0 0.0677836857
H  H25  1  0.48930000  0.84910000  0.32840000  1.0 0.0677836857
H  H26  1  0.50450000  0.17117000  0.65230000  1.0 0.0510555261
H  H27  1  0.74490000  0.91890000  0.48780000  1.0 0.1077477153
H  H28  1  0.99760000  0.27200000  0.57950000  1.0 0.0180116916
H  H29  1  0.26300000  0.10660000  0.48710000  1.0 0.0364690389
H  H30  1  0.99360000  0.76880000  0.40670000  1.0 0.0677836857
H  H31  1  0.84910000  0.32840000  0.48930000  1.0 0.0677836857
H  H32  1  0.17117000  0.65230000  0.50450000  1.0 0.0510555261
H  H33  1  0.91890000  0.48780000  0.74490000  1.0 0.1077477153
H  H34  1  0.27200000  0.57950000  0.99760000  1.0 0.0180116916
H  H35  1  0.10660000  0.48710000  0.26300000  1.0 0.0364690389
H  H36  1  0.76880000  0.40670000  0.99360000  1.0 0.0677836857
C  C1  1  0.76270000  0.77100000  0.25370000  1.0 0.2660019885
C  C2  1  0.63040000  0.63020000  0.11850000  1.0 -0.0131121619
C  C3  1  0.60590000  0.50760000  0.08560000  1.0 -0.1211099789
C  C4  1  0.48520000  0.38050000  0.95690000  1.0 0.0510555261
C  C5  1  0.38890000  0.37600000  0.86120000  1.0 0.001003601
C  C6  1  0.41340000  0.49850000  0.89420000  1.0 -0.1286630019
C  C7  1  0.53420000  0.62560000  0.02280000  1.0 0.0510555261
C  C8  1  0.25140000  0.24920000  0.71600000  1.0 0.2660019885
C  C9  1  0.49020000  0.21370000  0.99270000  1.0 0.1291582849
C  C10  1  0.43910000  0.07830000  0.80090000  1.0 0.0077354458
C  C11  1  0.53260000  0.78400000  0.98060000  1.0 0.0180116916
C  C12  1  0.57430000  0.92680000  0.16270000  1.0 0.0860129524
C  C13  1  0.77100000  0.25370000  0.76270000  1.0 0.2660019885
C  C14  1  0.63020000  0.11850000  0.63040000  1.0 -0.0131121619
C  C15  1  0.50760000  0.08560000  0.60590000  1.0 -0.1211099789
C  C16  1  0.38050000  0.95690000  0.48520000  1.0 0.0510555261
C  C17  1  0.37600000  0.86120000  0.38890000  1.0 0.001003601
C  C18  1  0.49850000  0.89420000  0.41340000  1.0 -0.1286630019
C  C19  1  0.62560000  0.02280000  0.53420000  1.0 0.0510555261
C  C20  1  0.24920000  0.71600000  0.25140000  1.0 0.2660019885
C  C21  1  0.21370000  0.99270000  0.49020000  1.0 0.1291582849
C  C22  1  0.07830000  0.80090000  0.43910000  1.0 0.0077354458
C  C23  1  0.78400000  0.98060000  0.53260000  1.0 0.0180116916
C  C24  1  0.92680000  0.16270000  0.57430000  1.0 0.0860129524
C  C25  1  0.25370000  0.76270000  0.77100000  1.0 0.2660019885
C  C26  1  0.11850000  0.63040000  0.63020000  1.0 -0.0131121619
C  C27  1  0.08560000  0.60590000  0.50760000  1.0 -0.1211099789
C  C28  1  0.95690000  0.48520000  0.38050000  1.0 0.0510555261
C  C29  1  0.86120000  0.38890000  0.37600000  1.0 0.001003601
C  C30  1  0.89420000  0.41340000  0.49850000  1.0 -0.1286630019
C  C31  1  0.02280000  0.53420000  0.62560000  1.0 0.0510555261
C  C32  1  0.71600000  0.25140000  0.24920000  1.0 0.2660019885
C  C33  1  0.99270000  0.49020000  0.21370000  1.0 0.1291582849
C  C34  1  0.80090000  0.43910000  0.07830000  1.0 0.0077354458
C  C35  1  0.98060000  0.53260000  0.78400000  1.0 0.0180116916
C  C36  1  0.16270000  0.57430000  0.92680000  1.0 0.0860129524
C  C37  1  0.23730000  0.22900000  0.74630000  1.0 0.2660019885
C  C38  1  0.36960000  0.36980000  0.88150000  1.0 -0.0131121619
C  C39  1  0.39410000  0.49240000  0.91440000  1.0 -0.1211099789
C  C40  1  0.51480000  0.61950000  0.04310000  1.0 0.0510555261
C  C41  1  0.61110000  0.62400000  0.13880000  1.0 0.001003601
C  C42  1  0.58660000  0.50150000  0.10580000  1.0 -0.1286630019
C  C43  1  0.46580000  0.37440000  0.97720000  1.0 0.0510555261
C  C44  1  0.74860000  0.75080000  0.28400000  1.0 0.2660019885
C  C45  1  0.50980000  0.78630000  0.00730000  1.0 0.1291582849
C  C46  1  0.56090000  0.92170000  0.19910000  1.0 0.0077354458
C  C47  1  0.46740000  0.21600000  0.01940000  1.0 0.0180116916
C  C48  1  0.42570000  0.07320000  0.83730000  1.0 0.0860129524
C  C49  1  0.22900000  0.74630000  0.23730000  1.0 0.2660019885
C  C50  1  0.36980000  0.88150000  0.36960000  1.0 -0.0131121619
C  C51  1  0.49240000  0.91440000  0.39410000  1.0 -0.1211099789
C  C52  1  0.61950000  0.04310000  0.51480000  1.0 0.0510555261
C  C53  1  0.62400000  0.13880000  0.61110000  1.0 0.001003601
C  C54  1  0.50150000  0.10580000  0.58660000  1.0 -0.1286630019
C  C55  1  0.37440000  0.97720000  0.46580000  1.0 0.0510555261
C  C56  1  0.75080000  0.28400000  0.74860000  1.0 0.2660019885
C  C57  1  0.78630000  0.00730000  0.50980000  1.0 0.1291582849
C  C58  1  0.92170000  0.19910000  0.56090000  1.0 0.0077354458
C  C59  1  0.21600000  0.01940000  0.46740000  1.0 0.0180116916
C  C60  1  0.07320000  0.83730000  0.42570000  1.0 0.0860129524
C  C61  1  0.74630000  0.23730000  0.22900000  1.0 0.2660019885
C  C62  1  0.88150000  0.36960000  0.36980000  1.0 -0.0131121619
C  C63  1  0.91440000  0.39410000  0.49240000  1.0 -0.1211099789
C  C64  1  0.04310000  0.51480000  0.61950000  1.0 0.0510555261
C  C65  1  0.13880000  0.61110000  0.62400000  1.0 0.001003601
C  C66  1  0.10580000  0.58660000  0.50150000  1.0 -0.1286630019
C  C67  1  0.97720000  0.46580000  0.37440000  1.0 0.0510555261
C  C68  1  0.28400000  0.74860000  0.75080000  1.0 0.2660019885
C  C69  1  0.00730000  0.50980000  0.78630000  1.0 0.1291582849
C  C70  1  0.19910000  0.56090000  0.92170000  1.0 0.0077354458
C  C71  1  0.01940000  0.46740000  0.21600000  1.0 0.0180116916
C  C72  1  0.83730000  0.42570000  0.07320000  1.0 0.0860129524
N  N1  1  0.46940000  0.25750000  0.91990000  1.0 -0.0438987473
N  N2  1  0.43190000  0.16940000  0.79290000  1.0 -0.1510149721
N  N3  1  0.47410000  0.09920000  0.91720000  1.0 -0.0872859343
N  N4  1  0.54750000  0.74480000  0.05740000  1.0 -0.0522940559
N  N5  1  0.54940000  0.89900000  0.04470000  1.0 -0.1211099789
N  N6  1  0.56940000  0.83290000  0.17360000  1.0 -0.0759715099
N  N7  1  0.25750000  0.91990000  0.46940000  1.0 -0.0438987473
N  N8  1  0.16940000  0.79290000  0.43190000  1.0 -0.1510149721
N  N9  1  0.09920000  0.91720000  0.47410000  1.0 -0.0872859343
N  N10  1  0.74480000  0.05740000  0.54750000  1.0 -0.0522940559
N  N11  1  0.89900000  0.04470000  0.54940000  1.0 -0.1211099789
N  N12  1  0.83290000  0.17360000  0.56940000  1.0 -0.0759715099
N  N13  1  0.91990000  0.46940000  0.25750000  1.0 -0.0438987473
N  N14  1  0.79290000  0.43190000  0.16940000  1.0 -0.1510149721
N  N15  1  0.91720000  0.47410000  0.09920000  1.0 -0.0872859343
N  N16  1  0.05740000  0.54750000  0.74480000  1.0 -0.0522940559
N  N17  1  0.04470000  0.54940000  0.89900000  1.0 -0.1211099789
N  N18  1  0.17360000  0.56940000  0.83290000  1.0 -0.0759715099
N  N19  1  0.53060000  0.74250000  0.08010000  1.0 -0.0438987473
N  N20  1  0.56810000  0.83060000  0.20710000  1.0 -0.1510149721
N  N21  1  0.52590000  0.90080000  0.08280000  1.0 -0.0872859343
N  N22  1  0.45250000  0.25520000  0.94260000  1.0 -0.0522940559
N  N23  1  0.45060000  0.10100000  0.95530000  1.0 -0.1211099789
N  N24  1  0.43060000  0.16710000  0.82640000  1.0 -0.0759715099
N  N25  1  0.74250000  0.08010000  0.53060000  1.0 -0.0438987473
N  N26  1  0.83060000  0.20710000  0.56810000  1.0 -0.1510149721
N  N27  1  0.90080000  0.08280000  0.52590000  1.0 -0.0872859343
N  N28  1  0.25520000  0.94260000  0.45250000  1.0 -0.0522940559
N  N29  1  0.10100000  0.95530000  0.45060000  1.0 -0.1211099789
N  N30  1  0.16710000  0.82640000  0.43060000  1.0 -0.0759715099
N  N31  1  0.08010000  0.53060000  0.74250000  1.0 -0.0438987473
N  N32  1  0.20710000  0.56810000  0.83060000  1.0 -0.1510149721
N  N33  1  0.08280000  0.52590000  0.90080000  1.0 -0.0872859343
N  N34  1  0.94260000  0.45250000  0.25520000  1.0 -0.0522940559
N  N35  1  0.95530000  0.45060000  0.10100000  1.0 -0.1211099789
N  N36  1  0.82640000  0.43060000  0.16710000  1.0 -0.0759715099
O  O1  1  0.82160000  0.78790000  0.36120000  1.0 -0.0628230071
O  O2  1  0.81760000  0.86210000  0.24000000  1.0 -0.2554850463
O  O3  1  0.22160000  0.25050000  0.62180000  1.0 -0.2424903992
O  O4  1  0.17710000  0.14920000  0.70940000  1.0 -0.0212364733
O  O5  1  0.78790000  0.36120000  0.82160000  1.0 -0.0628230071
O  O6  1  0.86210000  0.24000000  0.81760000  1.0 -0.2554850463
O  O7  1  0.25050000  0.62180000  0.22160000  1.0 -0.2424903992
O  O8  1  0.14920000  0.70940000  0.17710000  1.0 -0.0212364733
O  O9  1  0.36120000  0.82160000  0.78790000  1.0 -0.0628230071
O  O10  1  0.24000000  0.81760000  0.86210000  1.0 -0.2535577226
O  O11  1  0.62180000  0.22160000  0.25050000  1.0 -0.2424903992
O  O12  1  0.70940000  0.17710000  0.14920000  1.0 -0.0212364733
O  O13  1  0.17840000  0.21210000  0.63880000  1.0 -0.0628230071
O  O14  1  0.18240000  0.13790000  0.76000000  1.0 -0.2554850463
O  O15  1  0.77840000  0.74950000  0.37820000  1.0 -0.2424903992
O  O16  1  0.82290000  0.85080000  0.29060000  1.0 -0.0212364733
O  O17  1  0.21210000  0.63880000  0.17840000  1.0 -0.0628230071
O  O18  1  0.13790000  0.76000000  0.18240000  1.0 -0.2554850463
O  O19  1  0.74950000  0.37820000  0.77840000  1.0 -0.2424903992
O  O20  1  0.85080000  0.29060000  0.82290000  1.0 -0.0212364733
O  O21  1  0.63880000  0.17840000  0.21210000  1.0 -0.0628230071
O  O22  1  0.76000000  0.18240000  0.13790000  1.0 -0.2535577226
O  O23  1  0.37820000  0.77840000  0.74950000  1.0 -0.2424903992
O  O24  1  0.29060000  0.82290000  0.85080000  1.0 -0.0212364733
