# DDEC6 charges by PACMAN v1.1 (https://github.com/mtap-research/PACMAN-charge/)
data_SENQAE_FSR_pacman
_symmetry_space_group_name_H-M   'P 1'
_cell_length_a   8.99000000
_cell_length_b   10.42900000
_cell_length_c   10.42900000
_cell_angle_alpha   90.00000000
_cell_angle_beta   90.00000000
_cell_angle_gamma   90.00000000
_symmetry_Int_Tables_number   1
_chemical_formula_structural   ZnPO7
_chemical_formula_sum   'Zn8 P8 O56'
_cell_volume   977.78872859
_cell_formula_units_Z   8
loop_
 _symmetry_equiv_pos_site_id
 _symmetry_equiv_pos_as_xyz
  1  'x, y, z'
loop_
 _atom_site_type_symbol
 _atom_site_label
 _atom_site_symmetry_multiplicity
 _atom_site_fract_x
 _atom_site_fract_y
 _atom_site_fract_z
 _atom_site_occupancy
 _atom_site_charge
Zn  Zn1  1  0.15615000  0.11891000  0.61886000  1.0 0.8661343486
Zn  Zn2  1  0.15615000  0.38109000  0.88114000  1.0 0.8661343486
Zn  Zn3  1  0.34385000  0.61891000  0.38114000  1.0 0.8661343486
Zn  Zn4  1  0.34385000  0.88109000  0.11886000  1.0 0.8593710487
Zn  Zn5  1  0.84385000  0.88109000  0.38114000  1.0 0.8593710487
Zn  Zn6  1  0.84385000  0.61891000  0.11886000  1.0 0.8593710487
Zn  Zn7  1  0.65615000  0.38109000  0.61886000  1.0 0.8661343486
Zn  Zn8  1  0.65615000  0.11891000  0.88114000  1.0 0.8661343486
P  P1  1  0.20202000  0.89760000  0.39759000  1.0 0.8593710487
P  P2  1  0.20202000  0.60240000  0.10241000  1.0 0.8593710487
P  P3  1  0.29798000  0.39760000  0.60241000  1.0 0.8593710487
P  P4  1  0.29798000  0.10240000  0.89759000  1.0 0.8593710487
P  P5  1  0.79798000  0.10240000  0.60241000  1.0 0.852767697
P  P6  1  0.79798000  0.39760000  0.89759000  1.0 0.852767697
P  P7  1  0.70202000  0.60240000  0.39759000  1.0 0.852767697
P  P8  1  0.70202000  0.89760000  0.10241000  1.0 0.852767697
O  O1  1  0.24520000  0.99690000  0.49720000  1.0 -0.5207524091
O  O2  1  0.24520000  0.50310000  0.00280000  1.0 -0.5207524091
O  O3  1  0.25480000  0.49690000  0.50280000  1.0 -0.5207524091
O  O4  1  0.25480000  0.00310000  0.99720000  1.0 -0.5207524091
O  O5  1  0.75480000  0.00310000  0.50280000  1.0 -0.5207524091
O  O6  1  0.75480000  0.49690000  0.99720000  1.0 -0.5207524091
O  O7  1  0.74520000  0.50310000  0.49720000  1.0 -0.5207524091
O  O8  1  0.74520000  0.99690000  0.00280000  1.0 -0.5207524091
O  O9  1  0.31600000  0.93590000  0.28170000  1.0 -0.2535901382
O  O10  1  0.31600000  0.56410000  0.21830000  1.0 -0.2535901382
O  O11  1  0.18400000  0.43590000  0.71830000  1.0 -0.2535901382
O  O12  1  0.18400000  0.06410000  0.78170000  1.0 -0.2535901382
O  O13  1  0.68400000  0.06410000  0.71830000  1.0 -0.2535901382
O  O14  1  0.68400000  0.43590000  0.78170000  1.0 -0.2535901382
O  O15  1  0.81600000  0.56410000  0.28170000  1.0 -0.2535901382
O  O16  1  0.81600000  0.93590000  0.21830000  1.0 -0.2535901382
O  O17  1  0.21160000  0.76910000  0.43190000  1.0 -0.0832694811
O  O18  1  0.21160000  0.73090000  0.06810000  1.0 -0.0832694811
O  O19  1  0.28840000  0.26910000  0.56810000  1.0 -0.0832694811
O  O20  1  0.28840000  0.23090000  0.93190000  1.0 -0.0832694811
O  O21  1  0.78840000  0.23090000  0.56810000  1.0 -0.0832694811
O  O22  1  0.78840000  0.26910000  0.93190000  1.0 -0.0832694811
O  O23  1  0.71160000  0.73090000  0.43190000  1.0 -0.0832694811
O  O24  1  0.71160000  0.76910000  0.06810000  1.0 -0.0832694811
O  O25  1  0.04610000  0.94090000  0.33590000  1.0 -0.2595953248
O  O26  1  0.04610000  0.55910000  0.16410000  1.0 -0.2595953248
O  O27  1  0.45390000  0.44090000  0.66410000  1.0 -0.2595953248
O  O28  1  0.45390000  0.05910000  0.83590000  1.0 -0.2595953248
O  O29  1  0.95390000  0.05910000  0.66410000  1.0 -0.2595953248
O  O30  1  0.95390000  0.44090000  0.83590000  1.0 -0.2595953248
O  O31  1  0.54610000  0.55910000  0.33590000  1.0 -0.2595953248
O  O32  1  0.54610000  0.94090000  0.16410000  1.0 -0.2595953248
O  O33  1  0.28880000  0.07070000  0.76880000  1.0 -0.0832694811
O  O34  1  0.28880000  0.42930000  0.73120000  1.0 -0.0832694811
O  O35  1  0.21120000  0.57070000  0.23120000  1.0 -0.0832694811
O  O36  1  0.21120000  0.92930000  0.26880000  1.0 -0.0832694811
O  O37  1  0.71120000  0.92930000  0.23120000  1.0 -0.0832694811
O  O38  1  0.71120000  0.57070000  0.26880000  1.0 -0.0832694811
O  O39  1  0.78880000  0.42930000  0.76880000  1.0 -0.0832694811
O  O40  1  0.78880000  0.07070000  0.73120000  1.0 -0.0832694811
O  O41  1  0.18420000  0.28200000  0.56230000  1.0 -0.2595953248
O  O42  1  0.18420000  0.21800000  0.93770000  1.0 -0.2595953248
O  O43  1  0.31580000  0.78200000  0.43770000  1.0 -0.2595953248
O  O44  1  0.31580000  0.71800000  0.06230000  1.0 -0.2595953248
O  O45  1  0.81580000  0.71800000  0.43770000  1.0 -0.2595953248
O  O46  1  0.81580000  0.78200000  0.06230000  1.0 -0.2595953248
O  O47  1  0.68420000  0.21800000  0.56230000  1.0 -0.2595953248
O  O48  1  0.68420000  0.28200000  0.93770000  1.0 -0.2595953248
O  O49  1  0.95310000  0.16310000  0.55890000  1.0 -0.2595953248
O  O50  1  0.95310000  0.33690000  0.94110000  1.0 -0.2595953248
O  O51  1  0.54690000  0.66310000  0.44110000  1.0 -0.2595953248
O  O52  1  0.54690000  0.83690000  0.05890000  1.0 -0.2595953248
O  O53  1  0.04690000  0.83690000  0.44110000  1.0 -0.2595953248
O  O54  1  0.04690000  0.66310000  0.05890000  1.0 -0.2595953248
O  O55  1  0.45310000  0.33690000  0.55890000  1.0 -0.2595953248
O  O56  1  0.45310000  0.16310000  0.94110000  1.0 -0.2595953248
