# DDEC6 charges by PACMAN v1.1 (https://github.com/mtap-research/PACMAN-charge/)
data_SEQQUD_ASR_pacman
_symmetry_space_group_name_H-M   'P 1'
_cell_length_a   12.23570000
_cell_length_b   12.23570000
_cell_length_c   13.67480000
_cell_angle_alpha   65.02440000
_cell_angle_beta   114.97600000
_cell_angle_gamma   117.76000000
_symmetry_Int_Tables_number   1
_chemical_formula_structural   Co6H6C16O15
_chemical_formula_sum   'Co12 H12 C32 O30'
_cell_volume   1575.97304625
_cell_formula_units_Z   2
loop_
 _symmetry_equiv_pos_site_id
 _symmetry_equiv_pos_as_xyz
  1  'x, y, z'
loop_
 _atom_site_type_symbol
 _atom_site_label
 _atom_site_symmetry_multiplicity
 _atom_site_fract_x
 _atom_site_fract_y
 _atom_site_fract_z
 _atom_site_occupancy
 _atom_site_charge
Co  Co1  1  0.66223000  0.10121000  0.34150000  1.0 0.5800021435
Co  Co2  1  0.58082000  0.96324000  0.55656000  1.0 0.8754646326
Co  Co3  1  0.90562000  0.35986000  0.19069000  1.0 0.685969844
Co  Co4  1  0.03919000  0.44091000  0.01620000  1.0 0.9097229982
Co  Co5  1  0.86019000  0.32155000  0.37461000  1.0 0.6182734514
Co  Co6  1  0.15018000  0.69820000  0.84391000  1.0 0.5800021435
Co  Co7  1  0.10121000  0.66223000  0.65850000  1.0 0.5800021435
Co  Co8  1  0.96324000  0.58082000  0.44344000  1.0 0.8754646326
Co  Co9  1  0.35986000  0.90562000  0.80931000  1.0 0.6825907375
Co  Co10  1  0.44091000  0.03919000  0.98380000  1.0 0.9097229982
Co  Co11  1  0.32155000  0.86019000  0.62539000  1.0 0.6145982291
Co  Co12  1  0.69820000  0.15018000  0.15609000  1.0 0.5800021435
H  H1  1  0.94402000  0.06370000  0.75966000  1.0 0.0994266639
H  H2  1  0.03837000  0.21281000  0.88159000  1.0 0.0994266639
H  H3  1  0.64913000  0.79649000  0.66416000  1.0 0.4139045472
H  H4  1  0.96377000  0.05965000  0.02310000  1.0 0.0773464288
H  H5  1  0.81334000  0.95764000  0.86960000  1.0 0.0899547408
H  H6  1  0.83076000  0.37958000  0.89133000  1.0 0.3612002427
H  H7  1  0.06370000  0.94402000  0.24034000  1.0 0.0994266639
H  H8  1  0.21281000  0.03837000  0.11841000  1.0 0.0994266639
H  H9  1  0.79649000  0.64913000  0.33584000  1.0 0.4139045472
H  H10  1  0.05965000  0.96377000  0.97690000  1.0 0.0773464288
H  H11  1  0.95764000  0.81334000  0.13040000  1.0 0.0899547408
H  H12  1  0.37958000  0.83076000  0.10867000  1.0 0.3612002427
C  C1  1  0.80044000  0.13148000  0.54316000  1.0 0.4519731099
C  C2  1  0.88757000  0.21419000  0.61506000  1.0 -0.1380484233
C  C3  1  0.90717000  0.34495000  0.57095000  1.0 0.1850917484
C  C4  1  0.94312000  0.16500000  0.72557000  1.0 -0.0662085884
C  C5  1  0.01955000  0.45607000  0.81575000  1.0 0.4190774704
C  C6  1  0.97927000  0.37251000  0.74672000  1.0 -0.1337715541
C  C7  1  0.94624000  0.42292000  0.63502000  1.0 0.1508249263
C  C8  1  0.99136000  0.24772000  0.79312000  1.0 -0.0916671435
C  C9  1  0.88463000  0.21369000  0.07644000  1.0 0.4716178472
C  C10  1  0.80690000  0.10210000  0.02755000  1.0 -0.1380484233
C  C11  1  0.67589000  0.07693000  0.99157000  1.0 0.1508249263
C  C12  1  0.85912000  0.05092000  0.98900000  1.0 -0.0916671435
C  C13  1  0.56746000  0.98038000  0.74178000  1.0 0.5185896004
C  C14  1  0.65068000  0.01234000  0.84754000  1.0 -0.1380484233
C  C15  1  0.60028000  0.04348000  0.90085000  1.0 0.1426893617
C  C16  1  0.77632000  0.00086000  0.90061000  1.0 -0.0916671435
C  C17  1  0.13148000  0.80044000  0.45684000  1.0 0.4519731099
C  C18  1  0.21419000  0.88757000  0.38494000  1.0 -0.1380484233
C  C19  1  0.34495000  0.90717000  0.42905000  1.0 0.1841295506
C  C20  1  0.16500000  0.94312000  0.27443000  1.0 -0.0662085884
C  C21  1  0.45607000  0.01955000  0.18425000  1.0 0.4190774704
C  C22  1  0.37251000  0.97927000  0.25328000  1.0 -0.1337715541
C  C23  1  0.42292000  0.94624000  0.36498000  1.0 0.1508249263
C  C24  1  0.24772000  0.99136000  0.20688000  1.0 -0.0916671435
C  C25  1  0.21369000  0.88463000  0.92356000  1.0 0.4716178472
C  C26  1  0.10210000  0.80690000  0.97245000  1.0 -0.1380484233
C  C27  1  0.07693000  0.67589000  0.00843000  1.0 0.1508249263
C  C28  1  0.05092000  0.85912000  0.01100000  1.0 -0.0916671435
C  C29  1  0.98038000  0.56746000  0.25822000  1.0 0.5185896004
C  C30  1  0.01234000  0.65068000  0.15246000  1.0 -0.1380484233
C  C31  1  0.04348000  0.60028000  0.09915000  1.0 0.1426893617
C  C32  1  0.00086000  0.77632000  0.09939000  1.0 -0.0916671435
O  O1  1  0.74802000  0.01456000  0.58408000  1.0 -0.3910859828
O  O2  1  0.75419000  0.18273000  0.44454000  1.0 -0.3484830712
O  O3  1  0.90914000  0.41006000  0.46541000  1.0 -0.4026330565
O  O4  1  0.04378000  0.40250000  0.91639000  1.0 -0.3694440459
O  O5  1  0.03935000  0.57749000  0.77465000  1.0 -0.3694440459
O  O6  1  0.97320000  0.55300000  0.58147000  1.0 -0.4121293281
O  O7  1  0.58322000  0.80104000  0.59253000  1.0 -0.7625171994
O  O8  1  0.78628000  0.22686000  0.26954000  1.0 -0.7232615505
O  O9  1  0.99773000  0.27451000  0.07305000  1.0 -0.4198122029
O  O10  1  0.82873000  0.26127000  0.09992000  1.0 -0.3694440459
O  O11  1  0.61042000  0.08536000  0.04498000  1.0 -0.3780942315
O  O12  1  0.62127000  0.96005000  0.69372000  1.0 -0.4611065989
O  O13  1  0.44663000  0.96421000  0.70912000  1.0 -0.4198122029
O  O14  1  0.47180000  0.02634000  0.87586000  1.0 -0.4264895772
O  O15  1  0.87073000  0.44137000  0.93554000  1.0 -0.7373462772
O  O16  1  0.01456000  0.74802000  0.41592000  1.0 -0.3910859828
O  O17  1  0.18273000  0.75419000  0.55546000  1.0 -0.3484830712
O  O18  1  0.41006000  0.90914000  0.53459000  1.0 -0.4026330565
O  O19  1  0.40250000  0.04378000  0.08361000  1.0 -0.3694440459
O  O20  1  0.57749000  0.03935000  0.22535000  1.0 -0.3780942315
O  O21  1  0.55300000  0.97320000  0.41853000  1.0 -0.4121293281
O  O22  1  0.80104000  0.58322000  0.40747000  1.0 -0.7625171994
O  O23  1  0.22686000  0.78628000  0.73046000  1.0 -0.7232615505
O  O24  1  0.27451000  0.99773000  0.92695000  1.0 -0.4121293281
O  O25  1  0.26127000  0.82873000  0.90008000  1.0 -0.3694440459
O  O26  1  0.08536000  0.61042000  0.95502000  1.0 -0.3780942315
O  O27  1  0.96005000  0.62127000  0.30628000  1.0 -0.4611065989
O  O28  1  0.96421000  0.44663000  0.29088000  1.0 -0.4198122029
O  O29  1  0.02634000  0.47180000  0.12414000  1.0 -0.4198122029
O  O30  1  0.44137000  0.87073000  0.06446000  1.0 -0.7373462772
