# DDEC6 charges by PACMAN v1.1 (https://github.com/mtap-research/PACMAN-charge/)
data_SERWET_FSR_pacman
_symmetry_space_group_name_H-M   'P 1'
_cell_length_a   17.38350000
_cell_length_b   17.38350000
_cell_length_c   17.38350000
_cell_angle_alpha   101.09300000
_cell_angle_beta   101.09300000
_cell_angle_gamma   127.96500000
_symmetry_Int_Tables_number   1
_chemical_formula_structural   ZnSiH28C64N4(O2F3)2
_chemical_formula_sum   'Zn2 Si2 H56 C128 N8 O8 F12'
_cell_volume   3721.77983585
_cell_formula_units_Z   2
loop_
 _symmetry_equiv_pos_site_id
 _symmetry_equiv_pos_as_xyz
  1  'x, y, z'
loop_
 _atom_site_type_symbol
 _atom_site_label
 _atom_site_symmetry_multiplicity
 _atom_site_fract_x
 _atom_site_fract_y
 _atom_site_fract_z
 _atom_site_occupancy
 _atom_site_charge
Zn  Zn1  1  0.41515000  0.41515000  0.00000000  1.0 0.7284377747
Zn  Zn2  1  0.91736000  0.91736000  0.00000000  1.0 0.768761211
Si  Si1  1  0.66500000  0.66500000  0.00000000  1.0 1.7016397649
Si  Si2  1  0.16510000  0.16510000  0.00000000  1.0 1.7199042969
H  H1  1  0.19980000  0.27780000  0.85120000  1.0 0.12051641
H  H2  1  0.42660000  0.34860000  0.14880000  1.0 0.12051641
H  H3  1  0.34860000  0.19980000  0.92200000  1.0 0.12051641
H  H4  1  0.27780000  0.42660000  0.07800000  1.0 0.12051641
H  H5  1  0.11940000  0.20600000  0.70380000  1.0 0.1403065826
H  H6  1  0.50220000  0.41560000  0.29620000  1.0 0.1403065826
H  H7  1  0.41560000  0.11940000  0.91340000  1.0 0.1403065826
H  H8  1  0.20600000  0.50220000  0.08660000  1.0 0.1403065826
H  H9  1  0.41350000  0.33180000  0.70510000  1.0 0.1458642715
H  H10  1  0.62670000  0.70840000  0.29490000  1.0 0.1458642715
H  H11  1  0.70840000  0.41350000  0.08170000  1.0 0.1458642715
H  H12  1  0.33180000  0.62670000  0.91830000  1.0 0.1458642715
H  H13  1  0.47300000  0.39310000  0.84870000  1.0 0.1294640013
H  H14  1  0.54440000  0.62430000  0.15130000  1.0 0.1294640013
H  H15  1  0.62430000  0.47300000  0.07990000  1.0 0.1294640013
H  H16  1  0.39310000  0.54440000  0.92010000  1.0 0.1294640013
H  H17  1  0.07280000  0.19740000  0.42420000  1.0 0.1294640013
H  H18  1  0.77320000  0.64860000  0.57580000  1.0 0.1294640013
H  H19  1  0.64860000  0.07280000  0.87540000  1.0 0.1294640013
H  H20  1  0.19740000  0.77320000  0.12460000  1.0 0.1294640013
H  H21  1  0.27030000  0.14430000  0.58100000  1.0 0.1403065826
H  H22  1  0.56330000  0.68930000  0.41900000  1.0 0.1403065826
H  H23  1  0.68930000  0.27030000  0.12600000  1.0 0.1403065826
H  H24  1  0.14430000  0.56330000  0.87400000  1.0 0.1403065826
H  H25  1  0.20870000  0.12710000  0.29600000  1.0 0.1403065826
H  H26  1  0.83110000  0.91270000  0.70400000  1.0 0.1403065826
H  H27  1  0.91270000  0.20870000  0.08160000  1.0 0.1403065826
H  H28  1  0.12710000  0.83110000  0.91840000  1.0 0.1403065826
H  H29  1  0.13610000  0.06310000  0.14940000  1.0 0.1294640013
H  H30  1  0.91370000  0.98670000  0.85060000  1.0 0.1294640013
H  H31  1  0.98670000  0.13610000  0.07300000  1.0 0.1294640013
H  H32  1  0.06310000  0.91370000  0.92700000  1.0 0.1294640013
H  H33  1  0.84790000  0.92440000  0.15110000  1.0 0.12051641
H  H34  1  0.77330000  0.69680000  0.84890000  1.0 0.12051641
H  H35  1  0.69680000  0.84790000  0.92350000  1.0 0.12051641
H  H36  1  0.92440000  0.77330000  0.07650000  1.0 0.12051641
H  H37  1  0.93070000  0.99660000  0.30330000  1.0 0.1403065826
H  H38  1  0.69330000  0.62740000  0.69670000  1.0 0.1403065826
H  H39  1  0.62740000  0.93070000  0.93410000  1.0 0.1403065826
H  H40  1  0.99660000  0.69330000  0.06590000  1.0 0.1403065826
H  H41  1  0.17210000  0.38380000  0.50950000  1.0 0.1016142377
H  H42  1  0.87430000  0.66260000  0.49050000  1.0 0.1016142377
H  H43  1  0.66260000  0.17210000  0.78830000  1.0 0.1016142377
H  H44  1  0.38380000  0.87430000  0.21170000  1.0 0.1016142377
H  H45  1  0.05310000  0.29980000  0.50430000  1.0 0.1016142377
H  H46  1  0.79550000  0.54880000  0.49570000  1.0 0.1016142377
H  H47  1  0.54880000  0.05310000  0.75330000  1.0 0.1016142377
H  H48  1  0.29980000  0.79550000  0.24670000  1.0 0.1016142377
H  H49  1  0.37100000  0.15320000  0.50160000  1.0 0.1099356639
H  H50  1  0.65160000  0.86940000  0.49840000  1.0 0.1099356639
H  H51  1  0.86940000  0.37100000  0.21780000  1.0 0.1099356639
H  H52  1  0.15320000  0.65160000  0.78220000  1.0 0.1099356639
H  H53  1  0.28270000  0.03340000  0.49390000  1.0 0.0921316025
H  H54  1  0.53950000  0.78880000  0.50610000  1.0 0.0921316025
H  H55  1  0.78880000  0.28270000  0.24930000  1.0 0.0921316025
H  H56  1  0.03340000  0.53950000  0.75070000  1.0 0.0921316025
C  C1  1  0.24270000  0.28880000  0.82010000  1.0 0.1099356639
C  C2  1  0.46870000  0.42260000  0.17990000  1.0 0.1099356639
C  C3  1  0.42260000  0.24270000  0.95390000  1.0 0.1099356639
C  C4  1  0.28880000  0.46870000  0.04610000  1.0 0.1099356639
C  C5  1  0.19300000  0.24470000  0.73150000  1.0 -0.1874993528
C  C6  1  0.51320000  0.46150000  0.26850000  1.0 -0.1874993528
C  C7  1  0.46150000  0.19300000  0.94830000  1.0 -0.1874993528
C  C8  1  0.24470000  0.51320000  0.05170000  1.0 -0.1874993528
C  C9  1  0.25390000  0.25860000  0.68390000  1.0 0.1458642715
C  C10  1  0.57470000  0.57000000  0.31610000  1.0 0.1458642715
C  C11  1  0.57000000  0.25390000  0.99530000  1.0 0.1458642715
C  C12  1  0.25860000  0.57470000  0.00470000  1.0 0.1458642715
C  C13  1  0.36690000  0.31910000  0.73260000  1.0 -0.1874993528
C  C14  1  0.58650000  0.63430000  0.26740000  1.0 -0.1874993528
C  C15  1  0.63430000  0.36690000  0.04780000  1.0 -0.1874993528
C  C16  1  0.31910000  0.58650000  0.95220000  1.0 -0.1874993528
C  C17  1  0.40010000  0.35490000  0.81740000  1.0 0.0773453646
C  C18  1  0.53750000  0.58270000  0.18260000  1.0 0.0773453646
C  C19  1  0.58270000  0.40010000  0.04520000  1.0 0.0773453646
C  C20  1  0.35490000  0.53750000  0.95480000  1.0 0.0773453646
C  C21  1  0.21060000  0.21420000  0.59020000  1.0 -0.0202895231
C  C22  1  0.62400000  0.62040000  0.40980000  1.0 -0.0202895231
C  C23  1  0.62040000  0.21060000  0.99640000  1.0 -0.0202895231
C  C24  1  0.21420000  0.62400000  0.00360000  1.0 -0.0202895231
C  C25  1  0.15860000  0.23430000  0.53970000  1.0 0.1892276415
C  C26  1  0.69460000  0.61890000  0.46030000  1.0 0.1892276415
C  C27  1  0.61890000  0.15860000  0.92430000  1.0 0.1892276415
C  C28  1  0.23430000  0.69460000  0.07570000  1.0 0.1892276415
C  C29  1  0.11460000  0.18680000  0.45520000  1.0 -0.1990395031
C  C30  1  0.73160000  0.65940000  0.54480000  1.0 -0.1990395031
C  C31  1  0.65940000  0.11460000  0.92780000  1.0 -0.1990395031
C  C32  1  0.18680000  0.73160000  0.07220000  1.0 -0.1990395031
C  C33  1  0.12580000  0.12370000  0.41050000  1.0 -0.0369339027
C  C34  1  0.71320000  0.71530000  0.58950000  1.0 -0.0369339027
C  C35  1  0.71530000  0.12580000  0.00210000  1.0 -0.0369339027
C  C36  1  0.12370000  0.71320000  0.99790000  1.0 -0.0369339027
C  C37  1  0.18680000  0.10720000  0.45620000  1.0 0.258931295
C  C38  1  0.65100000  0.73060000  0.54380000  1.0 0.258931295
C  C39  1  0.73060000  0.18680000  0.07960000  1.0 0.258931295
C  C40  1  0.10720000  0.65100000  0.92040000  1.0 0.258931295
C  C41  1  0.22900000  0.15430000  0.54830000  1.0 -0.2466049558
C  C42  1  0.60600000  0.68070000  0.45170000  1.0 -0.2466049558
C  C43  1  0.68070000  0.22900000  0.07470000  1.0 -0.2466049558
C  C44  1  0.15430000  0.60600000  0.92530000  1.0 -0.2466049558
C  C45  1  0.07710000  0.07450000  0.31460000  1.0 0.12051641
C  C46  1  0.75990000  0.76250000  0.68540000  1.0 0.12051641
C  C47  1  0.76250000  0.07710000  0.00260000  1.0 0.12051641
C  C48  1  0.07450000  0.75990000  0.99740000  1.0 0.12051641
C  C49  1  0.13510000  0.08800000  0.26710000  1.0 -0.1821591957
C  C50  1  0.82090000  0.86800000  0.73290000  1.0 -0.1821591957
C  C51  1  0.86800000  0.13510000  0.04710000  1.0 -0.1821591957
C  C52  1  0.08800000  0.82090000  0.95290000  1.0 -0.1821591957
C  C53  1  0.09200000  0.04790000  0.18010000  1.0 0.0693348382
C  C54  1  0.86780000  0.91190000  0.81990000  1.0 0.0773453646
C  C55  1  0.91190000  0.09200000  0.04410000  1.0 0.0773453646
C  C56  1  0.04790000  0.86780000  0.95590000  1.0 0.0693348382
C  C57  1  0.92210000  0.96610000  0.17960000  1.0 0.12051641
C  C58  1  0.78650000  0.74250000  0.82040000  1.0 0.12051641
C  C59  1  0.74250000  0.92210000  0.95600000  1.0 0.12051641
C  C60  1  0.96610000  0.78650000  0.04400000  1.0 0.12051641
C  C61  1  0.97380000  0.01220000  0.27160000  1.0 -0.1874993528
C  C62  1  0.74060000  0.70220000  0.72840000  1.0 -0.1874993528
C  C63  1  0.70220000  0.97380000  0.96160000  1.0 -0.1874993528
C  C64  1  0.01220000  0.74060000  0.03840000  1.0 -0.1874993528
C  C65  1  0.12950000  0.35500000  0.54370000  1.0 -0.0595140737
C  C66  1  0.81130000  0.58580000  0.45630000  1.0 -0.0595140737
C  C67  1  0.58580000  0.12950000  0.77450000  1.0 -0.0595140737
C  C68  1  0.35500000  0.81130000  0.22550000  1.0 -0.0595140737
C  C69  1  0.15090000  0.44570000  0.61160000  1.0 0.1099356639
C  C70  1  0.83410000  0.53930000  0.38840000  1.0 0.1099356639
C  C71  1  0.53930000  0.15090000  0.70520000  1.0 0.1099356639
C  C72  1  0.44570000  0.83410000  0.29480000  1.0 0.1099356639
C  C73  1  0.10640000  0.48440000  0.55860000  1.0 0.0693348382
C  C74  1  0.92580000  0.54780000  0.44140000  1.0 0.0693348382
C  C75  1  0.54780000  0.10640000  0.62200000  1.0 0.0693348382
C  C76  1  0.48440000  0.92580000  0.37800000  1.0 0.0693348382
C  C77  1  0.21540000  0.57740000  0.55400000  1.0 0.0227965005
C  C78  1  0.02340000  0.66140000  0.44600000  1.0 0.0227965005
C  C79  1  0.66140000  0.21540000  0.63800000  1.0 0.0227965005
C  C80  1  0.57740000  0.02340000  0.36200000  1.0 0.0227965005
C  C81  1  0.05440000  0.38500000  0.64080000  1.0 -0.0202895231
C  C82  1  0.74420000  0.41360000  0.35920000  1.0 -0.0202895231
C  C83  1  0.41360000  0.05440000  0.66940000  1.0 -0.0202895231
C  C84  1  0.38500000  0.74420000  0.33060000  1.0 -0.0202895231
C  C85  1  0.22360000  0.91620000  0.32620000  1.0 0.0227965005
C  C86  1  0.59000000  0.89740000  0.67380000  1.0 0.0227965005
C  C87  1  0.89740000  0.22360000  0.30740000  1.0 0.0227965005
C  C88  1  0.91620000  0.59000000  0.69260000  1.0 0.0227965005
C  C89  1  0.31730000  0.94160000  0.47290000  1.0 -0.0202895231
C  C90  1  0.46870000  0.84440000  0.52710000  1.0 -0.0202895231
C  C91  1  0.84440000  0.31730000  0.37570000  1.0 -0.0202895231
C  C92  1  0.94160000  0.46870000  0.62430000  1.0 -0.0202895231
C  C93  1  0.40130000  0.02530000  0.44540000  1.0 0.0921316025
C  C94  1  0.57990000  0.95590000  0.55460000  1.0 0.0921316025
C  C95  1  0.95590000  0.40130000  0.37600000  1.0 0.0921316025
C  C96  1  0.02530000  0.57990000  0.62400000  1.0 0.0921316025
C  C97  1  0.30700000  0.07890000  0.46130000  1.0 -0.0678779083
C  C98  1  0.61760000  0.84570000  0.53870000  1.0 -0.0678779083
C  C99  1  0.84570000  0.30700000  0.22810000  1.0 -0.0678779083
C  C100  1  0.07890000  0.61760000  0.77190000  1.0 -0.0678779083
C  C101  1  0.33250000  0.03670000  0.38840000  1.0 0.0476564131
C  C102  1  0.64830000  0.94410000  0.61160000  1.0 0.0476564131
C  C103  1  0.94410000  0.33250000  0.29580000  1.0 0.0476564131
C  C104  1  0.03670000  0.64830000  0.70420000  1.0 0.0476564131
C  C105  1  0.18040000  0.46090000  0.70530000  1.0 -0.3981529093
C  C106  1  0.75560000  0.47510000  0.29470000  1.0 -0.3981529093
C  C107  1  0.47510000  0.18040000  0.71950000  1.0 -0.3981529093
C  C108  1  0.46090000  0.75560000  0.28050000  1.0 -0.3981529093
C  C109  1  0.16560000  0.52740000  0.57740000  1.0 0.0227965005
C  C110  1  0.95000000  0.58820000  0.42260000  1.0 0.0262876901
C  C111  1  0.58820000  0.16560000  0.63820000  1.0 0.0262876901
C  C112  1  0.52740000  0.95000000  0.36180000  1.0 0.0262876901
C  C113  1  0.25000000  0.58600000  0.54000000  1.0 -0.1110921791
C  C114  1  0.04600000  0.71000000  0.46000000  1.0 -0.1110921791
C  C115  1  0.71000000  0.25000000  0.66400000  1.0 -0.1110921791
C  C116  1  0.58600000  0.04600000  0.33600000  1.0 -0.1110921791
C  C117  1  0.22200000  0.93800000  0.31400000  1.0 0.0028354236
C  C118  1  0.62400000  0.90800000  0.68600000  1.0 0.00640346
C  C119  1  0.90800000  0.22200000  0.28400000  1.0 0.00640346
C  C120  1  0.93800000  0.62400000  0.71600000  1.0 0.0028354236
C  C121  1  0.42330000  0.04300000  0.43230000  1.0 0.00640346
C  C122  1  0.61070000  0.99100000  0.56770000  1.0 0.00640346
C  C123  1  0.99100000  0.42330000  0.38030000  1.0 0.00640346
C  C124  1  0.04300000  0.61070000  0.61970000  1.0 0.00640346
C  C125  1  0.38000000  0.95300000  0.34900000  1.0 -0.1512130267
C  C126  1  0.60400000  0.03100000  0.65100000  1.0 -0.1512130267
C  C127  1  0.03100000  0.38000000  0.42700000  1.0 -0.1512130267
C  C128  1  0.95300000  0.60400000  0.57300000  1.0 -0.1512130267
N  N1  1  0.34350000  0.34411000  0.86461000  1.0 -0.2280769135
N  N2  1  0.47950000  0.47889000  0.13539000  1.0 -0.2280769135
N  N3  1  0.47889000  0.34350000  0.99939000  1.0 -0.2280769135
N  N4  1  0.34411000  0.47950000  0.00061000  1.0 -0.2280769135
N  N5  1  0.98349000  0.98486000  0.13655000  1.0 -0.2280769135
N  N6  1  0.84831000  0.84694000  0.86345000  1.0 -0.2280769135
N  N7  1  0.84694000  0.98349000  0.99863000  1.0 -0.2280769135
N  N8  1  0.98486000  0.84831000  0.00137000  1.0 -0.2280769135
O  O1  1  0.15900000  0.30970000  0.58850000  1.0 -0.1874993528
O  O2  1  0.72120000  0.57050000  0.41150000  1.0 -0.1874993528
O  O3  1  0.57050000  0.15900000  0.84930000  1.0 -0.1874993528
O  O4  1  0.30970000  0.72120000  0.15070000  1.0 -0.1874993528
O  O5  1  0.22390000  0.07290000  0.41580000  1.0 -0.1821591957
O  O6  1  0.65710000  0.80810000  0.58420000  1.0 -0.1821591957
O  O7  1  0.80810000  0.22390000  0.15100000  1.0 -0.1821591957
O  O8  1  0.07290000  0.65710000  0.84900000  1.0 -0.1821591957
F  F1  1  0.78200000  0.78200000  0.00000000  1.0 -0.549154467
F  F2  1  0.65520000  0.58752000  0.91872000  1.0 -0.5197770662
F  F3  1  0.66880000  0.73648000  0.08128000  1.0 -0.5197770662
F  F4  1  0.73648000  0.65520000  0.06768000  1.0 -0.5197770662
F  F5  1  0.58752000  0.66880000  0.93232000  1.0 -0.5197770662
F  F6  1  0.55800000  0.55800000  0.00000000  1.0 -0.4547529883
F  F7  1  0.05270000  0.05270000  0.00000000  1.0 -0.5197770662
F  F8  1  0.09242000  0.18158000  0.94100000  1.0 -0.543160609
F  F9  1  0.24058000  0.15142000  0.05900000  1.0 -0.543160609
F  F10  1  0.15142000  0.09242000  0.91084000  1.0 -0.543160609
F  F11  1  0.18158000  0.24058000  0.08916000  1.0 -0.543160609
F  F12  1  0.27650000  0.27650000  0.00000000  1.0 -0.4905517465
