# DDEC6 charges by PACMAN v1.1 (https://github.com/mtap-research/PACMAN-charge/)
data_SETDUS_ASR_pacman
_symmetry_space_group_name_H-M   'P 1'
_cell_length_a   11.27540000
_cell_length_b   11.27540000
_cell_length_c   7.25900000
_cell_angle_alpha   77.72540000
_cell_angle_beta   102.27500000
_cell_angle_gamma   69.24760000
_symmetry_Int_Tables_number   1
_chemical_formula_structural   CuH10C8BrN6
_chemical_formula_sum   'Cu2 H20 C16 Br2 N12'
_cell_volume   800.30545186
_cell_formula_units_Z   2
loop_
 _symmetry_equiv_pos_site_id
 _symmetry_equiv_pos_as_xyz
  1  'x, y, z'
loop_
 _atom_site_type_symbol
 _atom_site_label
 _atom_site_symmetry_multiplicity
 _atom_site_fract_x
 _atom_site_fract_y
 _atom_site_fract_z
 _atom_site_occupancy
 _atom_site_charge
Cu  Cu1  1  0.00000000  0.00000000  0.00000000  1.0 0.5737444128
Cu  Cu2  1  0.00000000  0.00000000  0.50000000  1.0 0.5737444128
H  H1  1  0.68370000  0.11610000  0.86750000  1.0 0.1113308306
H  H2  1  0.11610000  0.68370000  0.63250000  1.0 0.1113308306
H  H3  1  0.31630000  0.88390000  0.13250000  1.0 0.1113308306
H  H4  1  0.88390000  0.31630000  0.36750000  1.0 0.1113308306
H  H5  1  0.68120000  0.13500000  0.32410000  1.0 0.1113308306
H  H6  1  0.13500000  0.68120000  0.17590000  1.0 0.1113308306
H  H7  1  0.31880000  0.86500000  0.67590000  1.0 0.1113308306
H  H8  1  0.86500000  0.31880000  0.82410000  1.0 0.1113308306
H  H9  1  0.37170000  0.07330000  0.44190000  1.0 0.1113308306
H  H10  1  0.07330000  0.37170000  0.05810000  1.0 0.1113308306
H  H11  1  0.62830000  0.92670000  0.55810000  1.0 0.1113308306
H  H12  1  0.92670000  0.62830000  0.94190000  1.0 0.1113308306
H  H13  1  0.44120000  0.24360000  0.36270000  1.0 0.1113308306
H  H14  1  0.24360000  0.44120000  0.13730000  1.0 0.1113308306
H  H15  1  0.55880000  0.75640000  0.63730000  1.0 0.1113308306
H  H16  1  0.75640000  0.55880000  0.86270000  1.0 0.1113308306
H  H17  1  0.43520000  0.21360000  0.58560000  1.0 0.1113308306
H  H18  1  0.21360000  0.43520000  0.91440000  1.0 0.1113308306
H  H19  1  0.56480000  0.78640000  0.41440000  1.0 0.1113308306
H  H20  1  0.78640000  0.56480000  0.08560000  1.0 0.1113308306
C  C1  1  0.71340000  0.10940000  0.75500000  1.0 0.0930640589
C  C2  1  0.10940000  0.71340000  0.74500000  1.0 0.0930640589
C  C3  1  0.28660000  0.89060000  0.24500000  1.0 0.0930640589
C  C4  1  0.89060000  0.28660000  0.25500000  1.0 0.0930640589
C  C5  1  0.71030000  0.12030000  0.46300000  1.0 0.0522993471
C  C6  1  0.12030000  0.71030000  0.03700000  1.0 0.0522993471
C  C7  1  0.28970000  0.87970000  0.53700000  1.0 0.0522993471
C  C8  1  0.87970000  0.28970000  0.96300000  1.0 0.0522993471
C  C9  1  0.46320000  0.05720000  0.48400000  1.0 -0.1265031395
C  C10  1  0.05720000  0.46320000  0.01600000  1.0 -0.1265031395
C  C11  1  0.53680000  0.94280000  0.51600000  1.0 -0.1265031395
C  C12  1  0.94280000  0.53680000  0.98400000  1.0 -0.1265031395
C  C13  1  0.48170000  0.17570000  0.49600000  1.0 -0.1587061618
C  C14  1  0.17570000  0.48170000  0.00400000  1.0 -0.1587061618
C  C15  1  0.51830000  0.82430000  0.50400000  1.0 -0.1587061618
C  C16  1  0.82430000  0.51830000  0.99600000  1.0 -0.1587061618
Br  Br1  1  0.11970000  0.11970000  0.75000000  1.0 -0.7117378448
Br  Br2  1  0.88030000  0.88030000  0.25000000  1.0 -0.7117378448
N  N1  1  0.83700000  0.06620000  0.76500000  1.0 -0.1809120362
N  N2  1  0.06620000  0.83700000  0.73500000  1.0 -0.1809120362
N  N3  1  0.16300000  0.93380000  0.23500000  1.0 -0.1809120362
N  N4  1  0.93380000  0.16300000  0.26500000  1.0 -0.1809120362
N  N5  1  0.83720000  0.07320000  0.57700000  1.0 -0.1685947214
N  N6  1  0.07320000  0.83720000  0.92300000  1.0 -0.1685947214
N  N7  1  0.16280000  0.92680000  0.42300000  1.0 -0.1685947214
N  N8  1  0.92680000  0.16280000  0.07700000  1.0 -0.1685947214
N  N9  1  0.62930000  0.14530000  0.57400000  1.0 0.001695216
N  N10  1  0.14530000  0.62930000  0.92600000  1.0 0.001695216
N  N11  1  0.37070000  0.85470000  0.42600000  1.0 0.001695216
N  N12  1  0.85470000  0.37070000  0.07400000  1.0 0.001695216
