# DDEC6 charges by PACMAN v1.1 (https://github.com/mtap-research/PACMAN-charge/)
data_SETSUH_ASR_pacman
_symmetry_space_group_name_H-M   'P 1'
_cell_length_a   25.68700000
_cell_length_b   25.68700000
_cell_length_c   13.22400000
_cell_angle_alpha   90.00000000
_cell_angle_beta   90.00000000
_cell_angle_gamma   120.00000000
_symmetry_Int_Tables_number   1
_chemical_formula_structural   Zn3Cr3H84C144N6O37
_chemical_formula_sum   'Zn3 Cr3 H84 C144 N6 O37'
_cell_volume   7556.49229219
_cell_formula_units_Z   1
loop_
 _symmetry_equiv_pos_site_id
 _symmetry_equiv_pos_as_xyz
  1  'x, y, z'
loop_
 _atom_site_type_symbol
 _atom_site_label
 _atom_site_symmetry_multiplicity
 _atom_site_fract_x
 _atom_site_fract_y
 _atom_site_fract_z
 _atom_site_occupancy
 _atom_site_charge
Zn  Zn1  1  0.26209000  0.26209000  0.50000000  1.0 0.6679616379
Zn  Zn2  1  0.73791000  0.00000000  0.50000000  1.0 0.6679616379
Zn  Zn3  1  0.00000000  0.73791000  0.50000000  1.0 0.6679616379
Cr  Cr1  1  0.00000000  0.07459000  0.00000000  1.0 1.3397643374
Cr  Cr2  1  0.92541000  0.92541000  0.00000000  1.0 1.3397643374
Cr  Cr3  1  0.07459000  0.00000000  0.00000000  1.0 1.3574173855
H  H1  1  0.09880000  0.18830000  0.76180000  1.0 0.1471656072
H  H2  1  0.81170000  0.91050000  0.76180000  1.0 0.1471656072
H  H3  1  0.08950000  0.90120000  0.76180000  1.0 0.1471656072
H  H4  1  0.91050000  0.81170000  0.23820000  1.0 0.1471656072
H  H5  1  0.90120000  0.08950000  0.23820000  1.0 0.1471656072
H  H6  1  0.18830000  0.09880000  0.23820000  1.0 0.1471656072
H  H7  1  0.18830000  0.09880000  0.76180000  1.0 0.1471656072
H  H8  1  0.90120000  0.08950000  0.76180000  1.0 0.1471656072
H  H9  1  0.91050000  0.81170000  0.76180000  1.0 0.1471656072
H  H10  1  0.09880000  0.18830000  0.23820000  1.0 0.1471656072
H  H11  1  0.08950000  0.90120000  0.23820000  1.0 0.1471656072
H  H12  1  0.81170000  0.91050000  0.23820000  1.0 0.1471656072
H  H13  1  0.16130000  0.24880000  0.63830000  1.0 0.123896792
H  H14  1  0.75120000  0.91250000  0.63830000  1.0 0.123896792
H  H15  1  0.08750000  0.83870000  0.63830000  1.0 0.123896792
H  H16  1  0.91250000  0.75120000  0.36170000  1.0 0.123896792
H  H17  1  0.83870000  0.08750000  0.36170000  1.0 0.123896792
H  H18  1  0.24880000  0.16130000  0.36170000  1.0 0.123896792
H  H19  1  0.24880000  0.16130000  0.63830000  1.0 0.123896792
H  H20  1  0.83870000  0.08750000  0.63830000  1.0 0.123896792
H  H21  1  0.91250000  0.75120000  0.63830000  1.0 0.123896792
H  H22  1  0.16130000  0.24880000  0.36170000  1.0 0.123896792
H  H23  1  0.08750000  0.83870000  0.36170000  1.0 0.123896792
H  H24  1  0.75120000  0.91250000  0.36170000  1.0 0.123896792
H  H25  1  0.40740000  0.21480000  0.54410000  1.0 0.0918312018
H  H26  1  0.78520000  0.19260000  0.54410000  1.0 0.0918312018
H  H27  1  0.80740000  0.59260000  0.54410000  1.0 0.0918312018
H  H28  1  0.19260000  0.78520000  0.45590000  1.0 0.0918312018
H  H29  1  0.59260000  0.80740000  0.45590000  1.0 0.0918312018
H  H30  1  0.21480000  0.40740000  0.45590000  1.0 0.0918312018
H  H31  1  0.21480000  0.40740000  0.54410000  1.0 0.0918312018
H  H32  1  0.59260000  0.80740000  0.54410000  1.0 0.0918312018
H  H33  1  0.19260000  0.78520000  0.54410000  1.0 0.0918312018
H  H34  1  0.40740000  0.21480000  0.45590000  1.0 0.0918312018
H  H35  1  0.80740000  0.59260000  0.45590000  1.0 0.0918312018
H  H36  1  0.78520000  0.19260000  0.45590000  1.0 0.0918312018
H  H37  1  0.50560000  0.22480000  0.53130000  1.0 0.0918312018
H  H38  1  0.77520000  0.28080000  0.53130000  1.0 0.0918312018
H  H39  1  0.71920000  0.49440000  0.53130000  1.0 0.0918312018
H  H40  1  0.28080000  0.77520000  0.46870000  1.0 0.0918312018
H  H41  1  0.49440000  0.71920000  0.46870000  1.0 0.0918312018
H  H42  1  0.22480000  0.50560000  0.46870000  1.0 0.0918312018
H  H43  1  0.22480000  0.50560000  0.53130000  1.0 0.0918312018
H  H44  1  0.49440000  0.71920000  0.53130000  1.0 0.0918312018
H  H45  1  0.28080000  0.77520000  0.53130000  1.0 0.0918312018
H  H46  1  0.50560000  0.22480000  0.46870000  1.0 0.0918312018
H  H47  1  0.71920000  0.49440000  0.46870000  1.0 0.0918312018
H  H48  1  0.77520000  0.28080000  0.46870000  1.0 0.0918312018
H  H49  1  0.56410000  0.37770000  0.36970000  1.0 0.1044259526
H  H50  1  0.62230000  0.18640000  0.36970000  1.0 0.1044259526
H  H51  1  0.81360000  0.43590000  0.36970000  1.0 0.1044259526
H  H52  1  0.18640000  0.62230000  0.63030000  1.0 0.1044259526
H  H53  1  0.43590000  0.81360000  0.63030000  1.0 0.1044259526
H  H54  1  0.37770000  0.56410000  0.63030000  1.0 0.1044259526
H  H55  1  0.37770000  0.56410000  0.36970000  1.0 0.1044259526
H  H56  1  0.43590000  0.81360000  0.36970000  1.0 0.1044259526
H  H57  1  0.18640000  0.62230000  0.36970000  1.0 0.1044259526
H  H58  1  0.56410000  0.37770000  0.63030000  1.0 0.1044259526
H  H59  1  0.81360000  0.43590000  0.63030000  1.0 0.1044259526
H  H60  1  0.62230000  0.18640000  0.63030000  1.0 0.1044259526
H  H61  1  0.46650000  0.36290000  0.36210000  1.0 0.1274260364
H  H62  1  0.63710000  0.10360000  0.36210000  1.0 0.1274260364
H  H63  1  0.89640000  0.53350000  0.36210000  1.0 0.1274260364
H  H64  1  0.10360000  0.63710000  0.63790000  1.0 0.1274260364
H  H65  1  0.53350000  0.89640000  0.63790000  1.0 0.1274260364
H  H66  1  0.36290000  0.46650000  0.63790000  1.0 0.1274260364
H  H67  1  0.36290000  0.46650000  0.36210000  1.0 0.1274260364
H  H68  1  0.53350000  0.89640000  0.36210000  1.0 0.1274260364
H  H69  1  0.10360000  0.63710000  0.36210000  1.0 0.1274260364
H  H70  1  0.46650000  0.36290000  0.63790000  1.0 0.1274260364
H  H71  1  0.89640000  0.53350000  0.63790000  1.0 0.1274260364
H  H72  1  0.63710000  0.10360000  0.63790000  1.0 0.1274260364
H  H73  1  0.64360000  0.40900000  0.46230000  1.0 0.0828748676
H  H74  1  0.59100000  0.23460000  0.46230000  1.0 0.0828748676
H  H75  1  0.76540000  0.35640000  0.46230000  1.0 0.0828748676
H  H76  1  0.23460000  0.59100000  0.53770000  1.0 0.0828748676
H  H77  1  0.35640000  0.76540000  0.53770000  1.0 0.0828748676
H  H78  1  0.40900000  0.64360000  0.53770000  1.0 0.0828748676
H  H79  1  0.40900000  0.64360000  0.46230000  1.0 0.0828748676
H  H80  1  0.35640000  0.76540000  0.46230000  1.0 0.0828748676
H  H81  1  0.23460000  0.59100000  0.46230000  1.0 0.0828748676
H  H82  1  0.64360000  0.40900000  0.53770000  1.0 0.0828748676
H  H83  1  0.76540000  0.35640000  0.53770000  1.0 0.0828748676
H  H84  1  0.59100000  0.23460000  0.53770000  1.0 0.0828748676
C  C1  1  0.09900000  0.09900000  0.86250000  1.0 0.6135160732
C  C2  1  0.90100000  0.00000000  0.86250000  1.0 0.6135160732
C  C3  1  0.00000000  0.90100000  0.86250000  1.0 0.6135160732
C  C4  1  0.00000000  0.90100000  0.13750000  1.0 0.6135160732
C  C5  1  0.90100000  0.00000000  0.13750000  1.0 0.6135160732
C  C6  1  0.09900000  0.09900000  0.13750000  1.0 0.6135160732
C  C7  1  0.13970000  0.13970000  0.77690000  1.0 0.0098499932
C  C8  1  0.86030000  0.00000000  0.77690000  1.0 0.0098499932
C  C9  1  0.00000000  0.86030000  0.77690000  1.0 0.0098499932
C  C10  1  0.00000000  0.86030000  0.22310000  1.0 0.0098499932
C  C11  1  0.86030000  0.00000000  0.22310000  1.0 0.0098499932
C  C12  1  0.13970000  0.13970000  0.22310000  1.0 0.0098499932
C  C13  1  0.13000000  0.18270000  0.73760000  1.0 -0.1371514008
C  C14  1  0.81730000  0.94730000  0.73760000  1.0 -0.1371514008
C  C15  1  0.05270000  0.87000000  0.73760000  1.0 -0.1371514008
C  C16  1  0.94730000  0.81730000  0.26240000  1.0 -0.1371514008
C  C17  1  0.87000000  0.05270000  0.26240000  1.0 -0.1371514008
C  C18  1  0.18270000  0.13000000  0.26240000  1.0 -0.1371514008
C  C19  1  0.18270000  0.13000000  0.73760000  1.0 -0.1371514008
C  C20  1  0.87000000  0.05270000  0.73760000  1.0 -0.1371514008
C  C21  1  0.94730000  0.81730000  0.73760000  1.0 -0.1371514008
C  C22  1  0.13000000  0.18270000  0.26240000  1.0 -0.1371514008
C  C23  1  0.05270000  0.87000000  0.26240000  1.0 -0.1371514008
C  C24  1  0.81730000  0.94730000  0.26240000  1.0 -0.1371514008
C  C25  1  0.16650000  0.21730000  0.66260000  1.0 0.0613691268
C  C26  1  0.78270000  0.94920000  0.66260000  1.0 0.0613691268
C  C27  1  0.05080000  0.83350000  0.66260000  1.0 0.0613691268
C  C28  1  0.94920000  0.78270000  0.33740000  1.0 0.0613691268
C  C29  1  0.83350000  0.05080000  0.33740000  1.0 0.0613691268
C  C30  1  0.21730000  0.16650000  0.33740000  1.0 0.0613691268
C  C31  1  0.21730000  0.16650000  0.66260000  1.0 0.0613691268
C  C32  1  0.83350000  0.05080000  0.66260000  1.0 0.0613691268
C  C33  1  0.94920000  0.78270000  0.66260000  1.0 0.0613691268
C  C34  1  0.16650000  0.21730000  0.33740000  1.0 0.0613691268
C  C35  1  0.05080000  0.83350000  0.33740000  1.0 0.0613691268
C  C36  1  0.78270000  0.94920000  0.33740000  1.0 0.0613691268
C  C37  1  0.36600000  0.27680000  0.45290000  1.0 0.2859635162
C  C38  1  0.72320000  0.08920000  0.45290000  1.0 0.2859635162
C  C39  1  0.91080000  0.63400000  0.45290000  1.0 0.2859635162
C  C40  1  0.08920000  0.72320000  0.54710000  1.0 0.2859635162
C  C41  1  0.63400000  0.91080000  0.54710000  1.0 0.2859635162
C  C42  1  0.27680000  0.36600000  0.54710000  1.0 0.2859635162
C  C43  1  0.27680000  0.36600000  0.45290000  1.0 0.2859635162
C  C44  1  0.63400000  0.91080000  0.45290000  1.0 0.2859635162
C  C45  1  0.08920000  0.72320000  0.45290000  1.0 0.2859635162
C  C46  1  0.36600000  0.27680000  0.54710000  1.0 0.2859635162
C  C47  1  0.91080000  0.63400000  0.54710000  1.0 0.2859635162
C  C48  1  0.72320000  0.08920000  0.54710000  1.0 0.2859635162
C  C49  1  0.42950000  0.28670000  0.45240000  1.0 0.0249395608
C  C50  1  0.71330000  0.14280000  0.45240000  1.0 0.0249395608
C  C51  1  0.85720000  0.57050000  0.45240000  1.0 0.0249395608
C  C52  1  0.14280000  0.71330000  0.54760000  1.0 0.0249395608
C  C53  1  0.57050000  0.85720000  0.54760000  1.0 0.0249395608
C  C54  1  0.28670000  0.42950000  0.54760000  1.0 0.0249395608
C  C55  1  0.28670000  0.42950000  0.45240000  1.0 0.0249395608
C  C56  1  0.57050000  0.85720000  0.45240000  1.0 0.0249395608
C  C57  1  0.14280000  0.71330000  0.45240000  1.0 0.0249395608
C  C58  1  0.42950000  0.28670000  0.54760000  1.0 0.0249395608
C  C59  1  0.85720000  0.57050000  0.54760000  1.0 0.0249395608
C  C60  1  0.71330000  0.14280000  0.54760000  1.0 0.0249395608
C  C61  1  0.43860000  0.24610000  0.50700000  1.0 -0.0717691275
C  C62  1  0.75390000  0.19250000  0.50700000  1.0 -0.0717691275
C  C63  1  0.80750000  0.56140000  0.50700000  1.0 -0.0717691275
C  C64  1  0.19250000  0.75390000  0.49300000  1.0 -0.0717691275
C  C65  1  0.56140000  0.80750000  0.49300000  1.0 -0.0717691275
C  C66  1  0.24610000  0.43860000  0.49300000  1.0 -0.0717691275
C  C67  1  0.24610000  0.43860000  0.50700000  1.0 -0.0717691275
C  C68  1  0.56140000  0.80750000  0.50700000  1.0 -0.0717691275
C  C69  1  0.19250000  0.75390000  0.50700000  1.0 -0.0717691275
C  C70  1  0.43860000  0.24610000  0.49300000  1.0 -0.0717691275
C  C71  1  0.80750000  0.56140000  0.49300000  1.0 -0.0717691275
C  C72  1  0.75390000  0.19250000  0.49300000  1.0 -0.0717691275
C  C73  1  0.49820000  0.25430000  0.50400000  1.0 -0.0980918406
C  C74  1  0.74570000  0.24390000  0.50400000  1.0 -0.0980918406
C  C75  1  0.75610000  0.50180000  0.50400000  1.0 -0.0980918406
C  C76  1  0.24390000  0.74570000  0.49600000  1.0 -0.0980918406
C  C77  1  0.50180000  0.75610000  0.49600000  1.0 -0.0980918406
C  C78  1  0.25430000  0.49820000  0.49600000  1.0 -0.0980918406
C  C79  1  0.25430000  0.49820000  0.50400000  1.0 -0.0980918406
C  C80  1  0.50180000  0.75610000  0.50400000  1.0 -0.0980918406
C  C81  1  0.24390000  0.74570000  0.50400000  1.0 -0.0980918406
C  C82  1  0.49820000  0.25430000  0.49600000  1.0 -0.0980918406
C  C83  1  0.75610000  0.50180000  0.49600000  1.0 -0.0980918406
C  C84  1  0.74570000  0.24390000  0.49600000  1.0 -0.0980918406
C  C85  1  0.54530000  0.30660000  0.46090000  1.0 0.0380304453
C  C86  1  0.69340000  0.23870000  0.46090000  1.0 0.0380304453
C  C87  1  0.76130000  0.45470000  0.46090000  1.0 0.0380304453
C  C88  1  0.23870000  0.69340000  0.53910000  1.0 0.0380304453
C  C89  1  0.45470000  0.76130000  0.53910000  1.0 0.0380304453
C  C90  1  0.30660000  0.54530000  0.53910000  1.0 0.0380304453
C  C91  1  0.30660000  0.54530000  0.46090000  1.0 0.0380304453
C  C92  1  0.45470000  0.76130000  0.46090000  1.0 0.0380304453
C  C93  1  0.23870000  0.69340000  0.46090000  1.0 0.0380304453
C  C94  1  0.54530000  0.30660000  0.53910000  1.0 0.0380304453
C  C95  1  0.76130000  0.45470000  0.53910000  1.0 0.0380304453
C  C96  1  0.69340000  0.23870000  0.53910000  1.0 0.0380304453
C  C97  1  0.53270000  0.34530000  0.40450000  1.0 -0.1603502852
C  C98  1  0.65470000  0.18740000  0.40450000  1.0 -0.153088097
C  C99  1  0.81260000  0.46730000  0.40450000  1.0 -0.1603502852
C  C100  1  0.18740000  0.65470000  0.59550000  1.0 -0.1603502852
C  C101  1  0.46730000  0.81260000  0.59550000  1.0 -0.1603502852
C  C102  1  0.34530000  0.53270000  0.59550000  1.0 -0.1603502852
C  C103  1  0.34530000  0.53270000  0.40450000  1.0 -0.1603502852
C  C104  1  0.46730000  0.81260000  0.40450000  1.0 -0.1603502852
C  C105  1  0.18740000  0.65470000  0.40450000  1.0 -0.1603502852
C  C106  1  0.53270000  0.34530000  0.59550000  1.0 -0.1603502852
C  C107  1  0.81260000  0.46730000  0.59550000  1.0 -0.1603502852
C  C108  1  0.65470000  0.18740000  0.59550000  1.0 -0.153088097
C  C109  1  0.47500000  0.33680000  0.39920000  1.0 -0.1180873059
C  C110  1  0.66320000  0.13820000  0.39920000  1.0 -0.1180873059
C  C111  1  0.86180000  0.52500000  0.39920000  1.0 -0.1180873059
C  C112  1  0.13820000  0.66320000  0.60080000  1.0 -0.1180873059
C  C113  1  0.52500000  0.86180000  0.60080000  1.0 -0.1180873059
C  C114  1  0.33680000  0.47500000  0.60080000  1.0 -0.1180873059
C  C115  1  0.33680000  0.47500000  0.39920000  1.0 -0.1180873059
C  C116  1  0.52500000  0.86180000  0.39920000  1.0 -0.1180873059
C  C117  1  0.13820000  0.66320000  0.39920000  1.0 -0.1180873059
C  C118  1  0.47500000  0.33680000  0.60080000  1.0 -0.1180873059
C  C119  1  0.86180000  0.52500000  0.60080000  1.0 -0.1180873059
C  C120  1  0.66320000  0.13820000  0.60080000  1.0 -0.1180873059
C  C121  1  0.65320000  0.37820000  0.45970000  1.0 -0.0980918406
C  C122  1  0.62180000  0.27500000  0.45970000  1.0 -0.0980918406
C  C123  1  0.72500000  0.34680000  0.45970000  1.0 -0.0980918406
C  C124  1  0.27500000  0.62180000  0.54030000  1.0 -0.0980918406
C  C125  1  0.34680000  0.72500000  0.54030000  1.0 -0.0980918406
C  C126  1  0.37820000  0.65320000  0.54030000  1.0 -0.0980918406
C  C127  1  0.37820000  0.65320000  0.45970000  1.0 -0.0980918406
C  C128  1  0.34680000  0.72500000  0.45970000  1.0 -0.0980918406
C  C129  1  0.27500000  0.62180000  0.45970000  1.0 -0.0980918406
C  C130  1  0.65320000  0.37820000  0.54030000  1.0 -0.0980918406
C  C131  1  0.72500000  0.34680000  0.54030000  1.0 -0.0980918406
C  C132  1  0.62180000  0.27500000  0.54030000  1.0 -0.0980918406
C  C133  1  0.60750000  0.31890000  0.45780000  1.0 0.0331945005
C  C134  1  0.68110000  0.28860000  0.45780000  1.0 0.0331945005
C  C135  1  0.71140000  0.39250000  0.45780000  1.0 0.0331945005
C  C136  1  0.28860000  0.68110000  0.54220000  1.0 0.0331945005
C  C137  1  0.39250000  0.71140000  0.54220000  1.0 0.0331945005
C  C138  1  0.31890000  0.60750000  0.54220000  1.0 0.0331945005
C  C139  1  0.31890000  0.60750000  0.45780000  1.0 0.0331945005
C  C140  1  0.39250000  0.71140000  0.45780000  1.0 0.0331945005
C  C141  1  0.28860000  0.68110000  0.45780000  1.0 0.0331945005
C  C142  1  0.60750000  0.31890000  0.54220000  1.0 0.0331945005
C  C143  1  0.71140000  0.39250000  0.54220000  1.0 0.0331945005
C  C144  1  0.68110000  0.28860000  0.54220000  1.0 0.0331945005
N  N1  1  0.20970000  0.20970000  0.62060000  1.0 -0.1914223972
N  N2  1  0.79030000  0.00000000  0.62060000  1.0 -0.1914223972
N  N3  1  0.00000000  0.79030000  0.62060000  1.0 -0.1914223972
N  N4  1  0.00000000  0.79030000  0.37940000  1.0 -0.1914223972
N  N5  1  0.79030000  0.00000000  0.37940000  1.0 -0.1914223972
N  N6  1  0.20970000  0.20970000  0.37940000  1.0 -0.1914223972
O  O1  1  0.00000000  0.00000000  0.00000000  1.0 -1.0975054098
O  O2  1  0.06100000  0.11123000  0.89300000  1.0 -0.5449353648
O  O3  1  0.88877000  0.94977000  0.89300000  1.0 -0.5461485429
O  O4  1  0.05023000  0.93900000  0.89300000  1.0 -0.5461485429
O  O5  1  0.94977000  0.88877000  0.10700000  1.0 -0.5449353648
O  O6  1  0.93900000  0.05023000  0.10700000  1.0 -0.5461485429
O  O7  1  0.11123000  0.06100000  0.10700000  1.0 -0.5461485429
O  O8  1  0.11123000  0.06100000  0.89300000  1.0 -0.5461485429
O  O9  1  0.93900000  0.05023000  0.89300000  1.0 -0.5461485429
O  O10  1  0.94977000  0.88877000  0.89300000  1.0 -0.5449353648
O  O11  1  0.06100000  0.11123000  0.10700000  1.0 -0.5449353648
O  O12  1  0.05023000  0.93900000  0.10700000  1.0 -0.5461485429
O  O13  1  0.88877000  0.94977000  0.10700000  1.0 -0.5461485429
O  O14  1  0.33010000  0.23740000  0.51300000  1.0 -0.2908249291
O  O15  1  0.76260000  0.09270000  0.51300000  1.0 -0.2908249291
O  O16  1  0.90730000  0.66990000  0.51300000  1.0 -0.2908249291
O  O17  1  0.09270000  0.76260000  0.48700000  1.0 -0.2908249291
O  O18  1  0.66990000  0.90730000  0.48700000  1.0 -0.2908249291
O  O19  1  0.23740000  0.33010000  0.48700000  1.0 -0.2908249291
O  O20  1  0.23740000  0.33010000  0.51300000  1.0 -0.2908249291
O  O21  1  0.66990000  0.90730000  0.51300000  1.0 -0.2908249291
O  O22  1  0.09270000  0.76260000  0.51300000  1.0 -0.2908249291
O  O23  1  0.33010000  0.23740000  0.48700000  1.0 -0.2908249291
O  O24  1  0.90730000  0.66990000  0.48700000  1.0 -0.2908249291
O  O25  1  0.76260000  0.09270000  0.48700000  1.0 -0.2908249291
O  O26  1  0.35160000  0.30790000  0.39610000  1.0 -0.3219639254
O  O27  1  0.69210000  0.04370000  0.39610000  1.0 -0.3219639254
O  O28  1  0.95630000  0.64840000  0.39610000  1.0 -0.3219639254
O  O29  1  0.04370000  0.69210000  0.60390000  1.0 -0.3219639254
O  O30  1  0.64840000  0.95630000  0.60390000  1.0 -0.3219639254
O  O31  1  0.30790000  0.35160000  0.60390000  1.0 -0.3219639254
O  O32  1  0.30790000  0.35160000  0.39610000  1.0 -0.3219639254
O  O33  1  0.64840000  0.95630000  0.39610000  1.0 -0.3219639254
O  O34  1  0.04370000  0.69210000  0.39610000  1.0 -0.3219639254
O  O35  1  0.35160000  0.30790000  0.60390000  1.0 -0.3219639254
O  O36  1  0.95630000  0.64840000  0.60390000  1.0 -0.3219639254
O  O37  1  0.69210000  0.04370000  0.60390000  1.0 -0.3219639254
