# DDEC6 charges by PACMAN v1.1 (https://github.com/mtap-research/PACMAN-charge/)
data_SETSIV_ASR_pacman
_symmetry_space_group_name_H-M   'P 1'
_cell_length_a   16.91530000
_cell_length_b   16.91530000
_cell_length_c   14.45800000
_cell_angle_alpha   90.00000000
_cell_angle_beta   90.00000000
_cell_angle_gamma   120.00000000
_symmetry_Int_Tables_number   1
_chemical_formula_structural   Zn3Cr3H54C78N6O25
_chemical_formula_sum   'Zn3 Cr3 H54 C78 N6 O25'
_cell_volume   3582.59950272
_cell_formula_units_Z   1
loop_
 _symmetry_equiv_pos_site_id
 _symmetry_equiv_pos_as_xyz
  1  'x, y, z'
loop_
 _atom_site_type_symbol
 _atom_site_label
 _atom_site_symmetry_multiplicity
 _atom_site_fract_x
 _atom_site_fract_y
 _atom_site_fract_z
 _atom_site_occupancy
 _atom_site_charge
Zn  Zn1  1  0.00000000  0.65265000  0.00000000  1.0 0.6509393752
Zn  Zn2  1  0.34735000  0.34735000  0.00000000  1.0 0.6509393752
Zn  Zn3  1  0.65265000  0.00000000  0.00000000  1.0 0.6509393752
Cr  Cr1  1  0.88659000  0.88659000  0.50000000  1.0 1.4197114209
Cr  Cr2  1  0.11341000  0.00000000  0.50000000  1.0 1.4197114209
Cr  Cr3  1  0.00000000  0.11341000  0.50000000  1.0 1.4197114209
H  H1  1  0.81550000  0.35950000  0.00000000  1.0 0.1437068607
H  H2  1  0.64050000  0.45600000  0.00000000  1.0 0.1437068607
H  H3  1  0.54400000  0.18450000  0.00000000  1.0 0.1437068607
H  H4  1  0.45600000  0.64050000  0.00000000  1.0 0.1437068607
H  H5  1  0.18450000  0.54400000  0.00000000  1.0 0.1437068607
H  H6  1  0.35950000  0.81550000  0.00000000  1.0 0.1437068607
H  H7  1  0.86960000  0.69900000  0.28740000  1.0 0.0877805389
H  H8  1  0.30100000  0.17060000  0.28740000  1.0 0.0877805389
H  H9  1  0.82940000  0.13040000  0.28740000  1.0 0.0877805389
H  H10  1  0.17060000  0.30100000  0.71260000  1.0 0.0877805389
H  H11  1  0.13040000  0.82940000  0.71260000  1.0 0.0877805389
H  H12  1  0.69900000  0.86960000  0.71260000  1.0 0.0877805389
H  H13  1  0.69900000  0.86960000  0.28740000  1.0 0.0877805389
H  H14  1  0.13040000  0.82940000  0.28740000  1.0 0.0877805389
H  H15  1  0.17060000  0.30100000  0.28740000  1.0 0.0877805389
H  H16  1  0.86960000  0.69900000  0.71260000  1.0 0.0877805389
H  H17  1  0.82940000  0.13040000  0.71260000  1.0 0.0877805389
H  H18  1  0.30100000  0.17060000  0.71260000  1.0 0.0877805389
H  H19  1  0.87370000  0.63180000  0.15400000  1.0 0.0605817394
H  H20  1  0.36820000  0.24190000  0.15400000  1.0 0.0605817394
H  H21  1  0.75810000  0.12630000  0.15400000  1.0 0.0605817394
H  H22  1  0.24190000  0.36820000  0.84600000  1.0 0.0605817394
H  H23  1  0.12630000  0.75810000  0.84600000  1.0 0.0605817394
H  H24  1  0.63180000  0.87370000  0.84600000  1.0 0.0605817394
H  H25  1  0.63180000  0.87370000  0.15400000  1.0 0.0605817394
H  H26  1  0.12630000  0.75810000  0.15400000  1.0 0.0605817394
H  H27  1  0.24190000  0.36820000  0.15400000  1.0 0.0605817394
H  H28  1  0.87370000  0.63180000  0.84600000  1.0 0.0605817394
H  H29  1  0.75810000  0.12630000  0.84600000  1.0 0.0605817394
H  H30  1  0.36820000  0.24190000  0.84600000  1.0 0.0605817394
H  H31  1  0.12940000  0.89180000  0.24650000  1.0 0.0837958294
H  H32  1  0.10820000  0.23760000  0.24650000  1.0 0.0837958294
H  H33  1  0.76240000  0.87060000  0.24650000  1.0 0.0837958294
H  H34  1  0.23760000  0.10820000  0.75350000  1.0 0.0837958294
H  H35  1  0.87060000  0.76240000  0.75350000  1.0 0.0837958294
H  H36  1  0.89180000  0.12940000  0.75350000  1.0 0.0837958294
H  H37  1  0.89180000  0.12940000  0.24650000  1.0 0.0837958294
H  H38  1  0.87060000  0.76240000  0.24650000  1.0 0.0837958294
H  H39  1  0.23760000  0.10820000  0.24650000  1.0 0.0837958294
H  H40  1  0.12940000  0.89180000  0.75350000  1.0 0.0837958294
H  H41  1  0.76240000  0.87060000  0.75350000  1.0 0.0837958294
H  H42  1  0.10820000  0.23760000  0.75350000  1.0 0.0837958294
H  H43  1  0.87230000  0.69140000  0.11150000  1.0 0.0605817394
H  H44  1  0.30860000  0.18090000  0.11150000  1.0 0.0605817394
H  H45  1  0.81910000  0.12770000  0.11150000  1.0 0.0605817394
H  H46  1  0.18090000  0.30860000  0.88850000  1.0 0.0605817394
H  H47  1  0.12770000  0.81910000  0.88850000  1.0 0.0605817394
H  H48  1  0.69140000  0.87230000  0.88850000  1.0 0.0605817394
H  H49  1  0.69140000  0.87230000  0.11150000  1.0 0.0605817394
H  H50  1  0.12770000  0.81910000  0.11150000  1.0 0.0605817394
H  H51  1  0.18090000  0.30860000  0.11150000  1.0 0.0605817394
H  H52  1  0.87230000  0.69140000  0.88850000  1.0 0.0605817394
H  H53  1  0.81910000  0.12770000  0.88850000  1.0 0.0605817394
H  H54  1  0.30860000  0.18090000  0.88850000  1.0 0.0605817394
C  C1  1  0.81862000  0.51980000  0.00000000  1.0 0.5340322852
C  C2  1  0.48020000  0.29882000  0.00000000  1.0 0.5340322852
C  C3  1  0.70118000  0.18138000  0.00000000  1.0 0.5340322852
C  C4  1  0.29882000  0.48020000  0.00000000  1.0 0.5340322852
C  C5  1  0.18138000  0.70118000  0.00000000  1.0 0.5340322852
C  C6  1  0.51980000  0.81862000  0.00000000  1.0 0.5340322852
C  C7  1  0.74030000  0.42255000  0.00000000  1.0 -0.0075732265
C  C8  1  0.57745000  0.31775000  0.00000000  1.0 -0.0075732265
C  C9  1  0.68225000  0.25970000  0.00000000  1.0 -0.0075732265
C  C10  1  0.31775000  0.57745000  0.00000000  1.0 -0.0075732265
C  C11  1  0.25970000  0.68225000  0.00000000  1.0 -0.0075732265
C  C12  1  0.42255000  0.74030000  0.00000000  1.0 -0.0075732265
C  C13  1  0.75545000  0.34895000  0.00000000  1.0 -0.1328743622
C  C14  1  0.65105000  0.40650000  0.00000000  1.0 -0.1328743622
C  C15  1  0.59350000  0.24455000  0.00000000  1.0 -0.1328743622
C  C16  1  0.40650000  0.65105000  0.00000000  1.0 -0.1328743622
C  C17  1  0.24455000  0.59350000  0.00000000  1.0 -0.1328743622
C  C18  1  0.34895000  0.75545000  0.00000000  1.0 -0.1328743622
C  C19  1  0.00000000  0.85171000  0.36950000  1.0 0.5366474489
C  C20  1  0.14829000  0.14829000  0.36950000  1.0 0.5366474489
C  C21  1  0.85171000  0.00000000  0.36950000  1.0 0.5366474489
C  C22  1  0.14829000  0.14829000  0.63050000  1.0 0.5366474489
C  C23  1  0.00000000  0.85171000  0.63050000  1.0 0.5366474489
C  C24  1  0.85171000  0.00000000  0.63050000  1.0 0.5366474489
C  C25  1  0.00000000  0.80332000  0.28220000  1.0 -0.0513865097
C  C26  1  0.19668000  0.19668000  0.28220000  1.0 -0.0513865097
C  C27  1  0.80332000  0.00000000  0.28220000  1.0 -0.0513865097
C  C28  1  0.19668000  0.19668000  0.71780000  1.0 -0.0513865097
C  C29  1  0.00000000  0.80332000  0.71780000  1.0 -0.0513865097
C  C30  1  0.80332000  0.00000000  0.71780000  1.0 -0.0513865097
C  C31  1  0.92350000  0.72480000  0.25220000  1.0 -0.0513865097
C  C32  1  0.27520000  0.19870000  0.25220000  1.0 -0.0513865097
C  C33  1  0.80130000  0.07650000  0.25220000  1.0 -0.0513865097
C  C34  1  0.19870000  0.27520000  0.74780000  1.0 -0.0513865097
C  C35  1  0.07650000  0.80130000  0.74780000  1.0 -0.0513865097
C  C36  1  0.72480000  0.92350000  0.74780000  1.0 -0.0513865097
C  C37  1  0.72480000  0.92350000  0.25220000  1.0 -0.0513865097
C  C38  1  0.07650000  0.80130000  0.25220000  1.0 -0.0513865097
C  C39  1  0.19870000  0.27520000  0.25220000  1.0 -0.0513865097
C  C40  1  0.92350000  0.72480000  0.74780000  1.0 -0.0513865097
C  C41  1  0.80130000  0.07650000  0.74780000  1.0 -0.0513865097
C  C42  1  0.27520000  0.19870000  0.74780000  1.0 -0.0513865097
C  C43  1  0.92640000  0.68540000  0.17280000  1.0 0.0255668635
C  C44  1  0.31460000  0.24100000  0.17280000  1.0 0.0255668635
C  C45  1  0.75900000  0.07360000  0.17280000  1.0 0.0255668635
C  C46  1  0.24100000  0.31460000  0.82720000  1.0 0.0216831377
C  C47  1  0.07360000  0.75900000  0.82720000  1.0 0.0255668635
C  C48  1  0.68540000  0.92640000  0.82720000  1.0 0.0255668635
C  C49  1  0.68540000  0.92640000  0.17280000  1.0 0.0255668635
C  C50  1  0.07360000  0.75900000  0.17280000  1.0 0.0255668635
C  C51  1  0.24100000  0.31460000  0.17280000  1.0 0.0216831377
C  C52  1  0.92640000  0.68540000  0.82720000  1.0 0.0255668635
C  C53  1  0.75900000  0.07360000  0.82720000  1.0 0.0255668635
C  C54  1  0.31460000  0.24100000  0.82720000  1.0 0.0255668635
C  C55  1  0.07460000  0.79470000  0.14800000  1.0 0.0216831377
C  C56  1  0.20530000  0.27990000  0.14800000  1.0 0.0216831377
C  C57  1  0.72010000  0.92540000  0.14800000  1.0 0.0216831377
C  C58  1  0.27990000  0.20530000  0.85200000  1.0 0.0216831377
C  C59  1  0.92540000  0.72010000  0.85200000  1.0 0.0216831377
C  C60  1  0.79470000  0.07460000  0.85200000  1.0 0.0216831377
C  C61  1  0.79470000  0.07460000  0.14800000  1.0 0.0216831377
C  C62  1  0.92540000  0.72010000  0.14800000  1.0 0.0216831377
C  C63  1  0.27990000  0.20530000  0.14800000  1.0 0.0216831377
C  C64  1  0.07460000  0.79470000  0.85200000  1.0 0.0216831377
C  C65  1  0.72010000  0.92540000  0.85200000  1.0 0.0216831377
C  C66  1  0.20530000  0.27990000  0.85200000  1.0 0.0216831377
C  C67  1  0.07620000  0.83830000  0.22860000  1.0 -0.0663777174
C  C68  1  0.16170000  0.23790000  0.22860000  1.0 -0.0663777174
C  C69  1  0.76210000  0.92380000  0.22860000  1.0 -0.0647894939
C  C70  1  0.23790000  0.16170000  0.77140000  1.0 -0.0663777174
C  C71  1  0.92380000  0.76210000  0.77140000  1.0 -0.0663777174
C  C72  1  0.83830000  0.07620000  0.77140000  1.0 -0.0663777174
C  C73  1  0.83830000  0.07620000  0.22860000  1.0 -0.0663777174
C  C74  1  0.92380000  0.76210000  0.22860000  1.0 -0.0663777174
C  C75  1  0.23790000  0.16170000  0.22860000  1.0 -0.0663777174
C  C76  1  0.07620000  0.83830000  0.77140000  1.0 -0.0663777174
C  C77  1  0.76210000  0.92380000  0.77140000  1.0 -0.0647894939
C  C78  1  0.16170000  0.23790000  0.77140000  1.0 -0.0663777174
N  N1  1  0.00000000  0.71833000  0.11935000  1.0 -0.1908142815
N  N2  1  0.28167000  0.28167000  0.11935000  1.0 -0.1908142815
N  N3  1  0.71833000  0.00000000  0.11935000  1.0 -0.1908142815
N  N4  1  0.28167000  0.28167000  0.88065000  1.0 -0.1908142815
N  N5  1  0.00000000  0.71833000  0.88065000  1.0 -0.1908142815
N  N6  1  0.71833000  0.00000000  0.88065000  1.0 -0.1908142815
O  O1  1  0.00000000  0.00000000  0.50000000  1.0 -1.0654742022
O  O2  1  0.80278000  0.58290000  0.00000000  1.0 -0.5175450046
O  O3  1  0.41710000  0.21988000  0.00000000  1.0 -0.5175450046
O  O4  1  0.78012000  0.19722000  0.00000000  1.0 -0.5175450046
O  O5  1  0.21988000  0.41710000  0.00000000  1.0 -0.5175450046
O  O6  1  0.19722000  0.78012000  0.00000000  1.0 -0.5175450046
O  O7  1  0.58290000  0.80278000  0.00000000  1.0 -0.5175450046
O  O8  1  0.89734000  0.52761000  0.00000000  1.0 -0.5112461944
O  O9  1  0.47239000  0.36973000  0.00000000  1.0 -0.5112461944
O  O10  1  0.63027000  0.10266000  0.00000000  1.0 -0.5112461944
O  O11  1  0.36973000  0.47239000  0.00000000  1.0 -0.5112461944
O  O12  1  0.10266000  0.63027000  0.00000000  1.0 -0.5112461944
O  O13  1  0.52761000  0.89734000  0.00000000  1.0 -0.5112461944
O  O14  1  0.92360000  0.83130000  0.40135000  1.0 -0.5521897276
O  O15  1  0.16870000  0.09230000  0.40135000  1.0 -0.5521897276
O  O16  1  0.90770000  0.07640000  0.40135000  1.0 -0.5521897276
O  O17  1  0.09230000  0.16870000  0.59865000  1.0 -0.5521897276
O  O18  1  0.07640000  0.90770000  0.59865000  1.0 -0.5521897276
O  O19  1  0.83130000  0.92360000  0.59865000  1.0 -0.5521897276
O  O20  1  0.83130000  0.92360000  0.40135000  1.0 -0.5521897276
O  O21  1  0.07640000  0.90770000  0.40135000  1.0 -0.5521897276
O  O22  1  0.09230000  0.16870000  0.40135000  1.0 -0.5521897276
O  O23  1  0.92360000  0.83130000  0.59865000  1.0 -0.5521897276
O  O24  1  0.90770000  0.07640000  0.59865000  1.0 -0.5521897276
O  O25  1  0.16870000  0.09230000  0.59865000  1.0 -0.5521897276
