# DDEC6 charges by PACMAN v1.1 (https://github.com/mtap-research/PACMAN-charge/)
data_SETTEU_ASR_pacman
_symmetry_space_group_name_H-M   'P 1'
_cell_length_a   14.03050000
_cell_length_b   14.03050000
_cell_length_c   14.03050000
_cell_angle_alpha   61.77250000
_cell_angle_beta   61.77250000
_cell_angle_gamma   61.77250000
_symmetry_Int_Tables_number   1
_chemical_formula_structural   Y2Mn3H18C42(NO5)6
_chemical_formula_sum   'Y2 Mn3 H18 C42 N6 O30'
_cell_volume   2030.56678302
_cell_formula_units_Z   1
loop_
 _symmetry_equiv_pos_site_id
 _symmetry_equiv_pos_as_xyz
  1  'x, y, z'
loop_
 _atom_site_type_symbol
 _atom_site_label
 _atom_site_symmetry_multiplicity
 _atom_site_fract_x
 _atom_site_fract_y
 _atom_site_fract_z
 _atom_site_occupancy
 _atom_site_charge
Y  Y1  1  0.21868000  0.21868000  0.21868000  1.0 1.5486625467
Y  Y2  1  0.78132000  0.78132000  0.78132000  1.0 1.5486625467
Mn  Mn1  1  0.50000000  0.50000000  0.00000000  1.0 1.0362104211
Mn  Mn2  1  0.50000000  0.00000000  0.50000000  1.0 1.0316857134
Mn  Mn3  1  0.00000000  0.50000000  0.50000000  1.0 1.0316857134
H  H1  1  0.79128000  0.96326000  0.98215000  1.0 0.3519117469
H  H2  1  0.57392000  0.85268000  0.12387000  1.0 0.1673996184
H  H3  1  0.67023000  0.12619000  0.00962000  1.0 0.1510961438
H  H4  1  0.96326000  0.98215000  0.79128000  1.0 0.3519117469
H  H5  1  0.85268000  0.12387000  0.57392000  1.0 0.1673996184
H  H6  1  0.12619000  0.00962000  0.67023000  1.0 0.1510961438
H  H7  1  0.98215000  0.79128000  0.96326000  1.0 0.3519117469
H  H8  1  0.12387000  0.57392000  0.85268000  1.0 0.1673996184
H  H9  1  0.00962000  0.67023000  0.12619000  1.0 0.1510961438
H  H10  1  0.20872000  0.03674000  0.01785000  1.0 0.3519117469
H  H11  1  0.42608000  0.14732000  0.87613000  1.0 0.1673996184
H  H12  1  0.32977000  0.87381000  0.99038000  1.0 0.1510961438
H  H13  1  0.03674000  0.01785000  0.20872000  1.0 0.3519117469
H  H14  1  0.14732000  0.87613000  0.42608000  1.0 0.1673996184
H  H15  1  0.87381000  0.99038000  0.32977000  1.0 0.1510961438
H  H16  1  0.01785000  0.20872000  0.03674000  1.0 0.3519117469
H  H17  1  0.87613000  0.42608000  0.14732000  1.0 0.1673996184
H  H18  1  0.99038000  0.32977000  0.87381000  1.0 0.1510961438
C  C1  1  0.50245000  0.15035000  0.08855000  1.0 0.1368130032
C  C2  1  0.44620000  0.99620000  0.15270000  1.0 0.1343342646
C  C3  1  0.55723000  0.92893000  0.11293000  1.0 -0.2284683626
C  C4  1  0.64296000  0.97856000  0.05626000  1.0 0.321800891
C  C5  1  0.46216000  0.27226000  0.08376000  1.0 0.5731472606
C  C6  1  0.34531000  0.95311000  0.21241000  1.0 0.5224512551
C  C7  1  0.61432000  0.09132000  0.04552000  1.0 -0.2763687934
C  C8  1  0.15035000  0.08855000  0.50245000  1.0 0.1368130032
C  C9  1  0.99620000  0.15270000  0.44620000  1.0 0.1343342646
C  C10  1  0.92893000  0.11293000  0.55723000  1.0 -0.2284683626
C  C11  1  0.97856000  0.05626000  0.64296000  1.0 0.321800891
C  C12  1  0.27226000  0.08376000  0.46216000  1.0 0.5731472606
C  C13  1  0.95311000  0.21241000  0.34531000  1.0 0.5224512551
C  C14  1  0.09132000  0.04552000  0.61432000  1.0 -0.2763687934
C  C15  1  0.08855000  0.50245000  0.15035000  1.0 0.1368130032
C  C16  1  0.15270000  0.44620000  0.99620000  1.0 0.1343342646
C  C17  1  0.11293000  0.55723000  0.92893000  1.0 -0.2284683626
C  C18  1  0.05626000  0.64296000  0.97856000  1.0 0.321800891
C  C19  1  0.08376000  0.46216000  0.27226000  1.0 0.5731472606
C  C20  1  0.21241000  0.34531000  0.95311000  1.0 0.5224512551
C  C21  1  0.04552000  0.61432000  0.09132000  1.0 -0.2763687934
C  C22  1  0.49755000  0.84965000  0.91145000  1.0 0.1368130032
C  C23  1  0.55380000  0.00380000  0.84730000  1.0 0.1343342646
C  C24  1  0.44277000  0.07107000  0.88707000  1.0 -0.2284683626
C  C25  1  0.35704000  0.02144000  0.94374000  1.0 0.321800891
C  C26  1  0.53784000  0.72774000  0.91624000  1.0 0.5731472606
C  C27  1  0.65469000  0.04689000  0.78759000  1.0 0.5224512551
C  C28  1  0.38568000  0.90868000  0.95448000  1.0 -0.2763687934
C  C29  1  0.84965000  0.91145000  0.49755000  1.0 0.1368130032
C  C30  1  0.00380000  0.84730000  0.55380000  1.0 0.1343342646
C  C31  1  0.07107000  0.88707000  0.44277000  1.0 -0.2284683626
C  C32  1  0.02144000  0.94374000  0.35704000  1.0 0.321800891
C  C33  1  0.72774000  0.91624000  0.53784000  1.0 0.5731472606
C  C34  1  0.04689000  0.78759000  0.65469000  1.0 0.5224512551
C  C35  1  0.90868000  0.95448000  0.38568000  1.0 -0.2763687934
C  C36  1  0.91145000  0.49755000  0.84965000  1.0 0.1368130032
C  C37  1  0.84730000  0.55380000  0.00380000  1.0 0.1343342646
C  C38  1  0.88707000  0.44277000  0.07107000  1.0 -0.2284683626
C  C39  1  0.94374000  0.35704000  0.02144000  1.0 0.321800891
C  C40  1  0.91624000  0.53784000  0.72774000  1.0 0.5731472606
C  C41  1  0.78759000  0.65469000  0.04689000  1.0 0.5224512551
C  C42  1  0.95448000  0.38568000  0.90868000  1.0 -0.2763687934
N  N1  1  0.41819000  0.10529000  0.13969000  1.0 -0.3023039764
N  N2  1  0.10529000  0.13969000  0.41819000  1.0 -0.3023039764
N  N3  1  0.13969000  0.41819000  0.10529000  1.0 -0.3023039764
N  N4  1  0.58181000  0.89471000  0.86031000  1.0 -0.3023039764
N  N5  1  0.89471000  0.86031000  0.58181000  1.0 -0.3023039764
N  N6  1  0.86031000  0.58181000  0.89471000  1.0 -0.3023039764
O  O1  1  0.24851000  0.02921000  0.23491000  1.0 -0.569303092
O  O2  1  0.35679000  0.31409000  0.13119000  1.0 -0.5600424772
O  O3  1  0.75258000  0.92118000  0.01218000  1.0 -0.3811351871
O  O4  1  0.36025000  0.85225000  0.23575000  1.0 -0.5051110353
O  O5  1  0.53384000  0.32244000  0.03654000  1.0 -0.569303092
O  O6  1  0.02921000  0.23491000  0.24851000  1.0 -0.569303092
O  O7  1  0.31409000  0.13119000  0.35679000  1.0 -0.5600424772
O  O8  1  0.92118000  0.01218000  0.75258000  1.0 -0.3811351871
O  O9  1  0.85225000  0.23575000  0.36025000  1.0 -0.5051110353
O  O10  1  0.32244000  0.03654000  0.53384000  1.0 -0.569303092
O  O11  1  0.23491000  0.24851000  0.02921000  1.0 -0.569303092
O  O12  1  0.13119000  0.35679000  0.31409000  1.0 -0.5600424772
O  O13  1  0.01218000  0.75258000  0.92118000  1.0 -0.3811351871
O  O14  1  0.23575000  0.36025000  0.85225000  1.0 -0.5043190088
O  O15  1  0.03654000  0.53384000  0.32244000  1.0 -0.569303092
O  O16  1  0.75149000  0.97079000  0.76509000  1.0 -0.569303092
O  O17  1  0.64321000  0.68591000  0.86881000  1.0 -0.5600424772
O  O18  1  0.24742000  0.07882000  0.98782000  1.0 -0.3811351871
O  O19  1  0.63975000  0.14775000  0.76425000  1.0 -0.5051110353
O  O20  1  0.46616000  0.67756000  0.96346000  1.0 -0.569303092
O  O21  1  0.97079000  0.76509000  0.75149000  1.0 -0.569303092
O  O22  1  0.68591000  0.86881000  0.64321000  1.0 -0.5600424772
O  O23  1  0.07882000  0.98782000  0.24742000  1.0 -0.3811351871
O  O24  1  0.14775000  0.76425000  0.63975000  1.0 -0.5043190088
O  O25  1  0.67756000  0.96346000  0.46616000  1.0 -0.569303092
O  O26  1  0.76509000  0.75149000  0.97079000  1.0 -0.569303092
O  O27  1  0.86881000  0.64321000  0.68591000  1.0 -0.5600424772
O  O28  1  0.98782000  0.24742000  0.07882000  1.0 -0.3811351871
O  O29  1  0.76425000  0.63975000  0.14775000  1.0 -0.5051110353
O  O30  1  0.96346000  0.46616000  0.67756000  1.0 -0.569303092
