# DDEC6 charges by PACMAN v1.1 (https://github.com/mtap-research/PACMAN-charge/)
data_SETTAO_ASR_pacman
_symmetry_space_group_name_H-M   'P 1'
_cell_length_a   29.74900000
_cell_length_b   29.74900000
_cell_length_c   13.23500000
_cell_angle_alpha   90.00000000
_cell_angle_beta   90.00000000
_cell_angle_gamma   120.00000000
_symmetry_Int_Tables_number   1
_chemical_formula_structural   Zn3Cr3H96C156N18O43
_chemical_formula_sum   'Zn3 Cr3 H96 C156 N18 O43'
_cell_volume   10143.76830089
_cell_formula_units_Z   1
loop_
 _symmetry_equiv_pos_site_id
 _symmetry_equiv_pos_as_xyz
  1  'x, y, z'
loop_
 _atom_site_type_symbol
 _atom_site_label
 _atom_site_symmetry_multiplicity
 _atom_site_fract_x
 _atom_site_fract_y
 _atom_site_fract_z
 _atom_site_occupancy
 _atom_site_charge
Zn  Zn1  1  0.22997000  0.22997000  0.00000000  1.0 0.5942280832
Zn  Zn2  1  0.77003000  0.00000000  0.00000000  1.0 0.595041031
Zn  Zn3  1  0.00000000  0.77003000  0.00000000  1.0 0.5942280832
Cr  Cr1  1  0.06453000  0.00000000  0.50000000  1.0 1.4496535205
Cr  Cr2  1  0.00000000  0.06453000  0.50000000  1.0 1.4496535205
Cr  Cr3  1  0.93547000  0.93547000  0.50000000  1.0 1.4496535205
H  H1  1  0.16580000  0.09150000  0.73490000  1.0 0.143163884
H  H2  1  0.90850000  0.07430000  0.73490000  1.0 0.143163884
H  H3  1  0.92570000  0.83420000  0.73490000  1.0 0.143163884
H  H4  1  0.16580000  0.09150000  0.26510000  1.0 0.143163884
H  H5  1  0.90850000  0.07430000  0.26510000  1.0 0.143163884
H  H6  1  0.92570000  0.83420000  0.26510000  1.0 0.143163884
H  H7  1  0.09150000  0.16580000  0.26510000  1.0 0.143163884
H  H8  1  0.07430000  0.90850000  0.26510000  1.0 0.143163884
H  H9  1  0.83420000  0.92570000  0.26510000  1.0 0.143163884
H  H10  1  0.09150000  0.16580000  0.73490000  1.0 0.143163884
H  H11  1  0.07430000  0.90850000  0.73490000  1.0 0.143163884
H  H12  1  0.83420000  0.92570000  0.73490000  1.0 0.143163884
H  H13  1  0.21790000  0.14380000  0.86670000  1.0 0.1117333266
H  H14  1  0.85620000  0.07410000  0.86670000  1.0 0.1117333266
H  H15  1  0.92590000  0.78210000  0.86670000  1.0 0.1117333266
H  H16  1  0.21790000  0.14380000  0.13330000  1.0 0.1117333266
H  H17  1  0.85620000  0.07410000  0.13330000  1.0 0.1117333266
H  H18  1  0.92590000  0.78210000  0.13330000  1.0 0.1117333266
H  H19  1  0.14380000  0.21790000  0.13330000  1.0 0.1117333266
H  H20  1  0.07410000  0.85620000  0.13330000  1.0 0.1117333266
H  H21  1  0.78210000  0.92590000  0.13330000  1.0 0.1117333266
H  H22  1  0.14380000  0.21790000  0.86670000  1.0 0.1117333266
H  H23  1  0.07410000  0.85620000  0.86670000  1.0 0.1117333266
H  H24  1  0.78210000  0.92590000  0.86670000  1.0 0.1117333266
H  H25  1  0.36800000  0.20240000  0.02510000  1.0 0.0898843575
H  H26  1  0.79760000  0.16560000  0.02510000  1.0 0.0898843575
H  H27  1  0.83440000  0.63200000  0.02510000  1.0 0.0898843575
H  H28  1  0.36800000  0.20240000  0.97490000  1.0 0.0898843575
H  H29  1  0.79760000  0.16560000  0.97490000  1.0 0.0898843575
H  H30  1  0.83440000  0.63200000  0.97490000  1.0 0.0898843575
H  H31  1  0.20240000  0.36800000  0.97490000  1.0 0.0898843575
H  H32  1  0.16560000  0.79760000  0.97490000  1.0 0.0898843575
H  H33  1  0.63200000  0.83440000  0.97490000  1.0 0.0898843575
H  H34  1  0.20240000  0.36800000  0.02510000  1.0 0.0898843575
H  H35  1  0.16560000  0.79760000  0.02510000  1.0 0.0898843575
H  H36  1  0.63200000  0.83440000  0.02510000  1.0 0.0898843575
H  H37  1  0.39250000  0.30690000  0.80870000  1.0 0.143163884
H  H38  1  0.69310000  0.08560000  0.80870000  1.0 0.143163884
H  H39  1  0.91440000  0.60750000  0.80870000  1.0 0.143163884
H  H40  1  0.39250000  0.30690000  0.19130000  1.0 0.143163884
H  H41  1  0.69310000  0.08560000  0.19130000  1.0 0.143163884
H  H42  1  0.91440000  0.60750000  0.19130000  1.0 0.143163884
H  H43  1  0.30690000  0.39250000  0.19130000  1.0 0.143163884
H  H44  1  0.08560000  0.69310000  0.19130000  1.0 0.143163884
H  H45  1  0.60750000  0.91440000  0.19130000  1.0 0.143163884
H  H46  1  0.30690000  0.39250000  0.80870000  1.0 0.143163884
H  H47  1  0.08560000  0.69310000  0.80870000  1.0 0.143163884
H  H48  1  0.60750000  0.91440000  0.80870000  1.0 0.143163884
H  H49  1  0.45350000  0.21700000  0.00500000  1.0 0.1323072668
H  H50  1  0.78300000  0.23650000  0.00500000  1.0 0.1323072668
H  H51  1  0.76350000  0.54650000  0.00500000  1.0 0.1323072668
H  H52  1  0.45350000  0.21700000  0.99500000  1.0 0.1323072668
H  H53  1  0.78300000  0.23650000  0.99500000  1.0 0.1323072668
H  H54  1  0.76350000  0.54650000  0.99500000  1.0 0.1323072668
H  H55  1  0.21700000  0.45350000  0.99500000  1.0 0.1323072668
H  H56  1  0.23650000  0.78300000  0.99500000  1.0 0.1323072668
H  H57  1  0.54650000  0.76350000  0.99500000  1.0 0.1323072668
H  H58  1  0.21700000  0.45350000  0.00500000  1.0 0.1323072668
H  H59  1  0.23650000  0.78300000  0.00500000  1.0 0.1323072668
H  H60  1  0.54650000  0.76350000  0.00500000  1.0 0.1323072668
H  H61  1  0.47940000  0.32450000  0.79170000  1.0 0.1492388452
H  H62  1  0.67550000  0.15490000  0.79170000  1.0 0.1492388452
H  H63  1  0.84510000  0.52060000  0.79170000  1.0 0.1492388452
H  H64  1  0.47940000  0.32450000  0.20830000  1.0 0.1492388452
H  H65  1  0.67550000  0.15490000  0.20830000  1.0 0.1492388452
H  H66  1  0.84510000  0.52060000  0.20830000  1.0 0.1492388452
H  H67  1  0.32450000  0.47940000  0.20830000  1.0 0.1492388452
H  H68  1  0.15490000  0.67550000  0.20830000  1.0 0.1492388452
H  H69  1  0.52060000  0.84510000  0.20830000  1.0 0.1492388452
H  H70  1  0.32450000  0.47940000  0.79170000  1.0 0.1492388452
H  H71  1  0.15490000  0.67550000  0.79170000  1.0 0.1492388452
H  H72  1  0.52060000  0.84510000  0.79170000  1.0 0.1492388452
H  H73  1  0.53070000  0.25670000  0.90620000  1.0 0.2716417554
H  H74  1  0.74330000  0.27400000  0.90620000  1.0 0.2716417554
H  H75  1  0.72600000  0.46930000  0.90620000  1.0 0.2716417554
H  H76  1  0.53070000  0.25670000  0.09380000  1.0 0.2716417554
H  H77  1  0.74330000  0.27400000  0.09380000  1.0 0.2716417554
H  H78  1  0.72600000  0.46930000  0.09380000  1.0 0.2716417554
H  H79  1  0.25670000  0.53070000  0.09380000  1.0 0.2716417554
H  H80  1  0.27400000  0.74330000  0.09380000  1.0 0.2716417554
H  H81  1  0.46930000  0.72600000  0.09380000  1.0 0.2716417554
H  H82  1  0.25670000  0.53070000  0.90620000  1.0 0.2716417554
H  H83  1  0.27400000  0.74330000  0.90620000  1.0 0.2716417554
H  H84  1  0.46930000  0.72600000  0.90620000  1.0 0.2716417554
H  H85  1  0.65340000  0.40420000  0.84180000  1.0 0.1323072668
H  H86  1  0.59580000  0.24920000  0.84180000  1.0 0.1323072668
H  H87  1  0.75080000  0.34660000  0.84180000  1.0 0.1323072668
H  H88  1  0.65340000  0.40420000  0.15820000  1.0 0.1323072668
H  H89  1  0.59580000  0.24920000  0.15820000  1.0 0.1323072668
H  H90  1  0.75080000  0.34660000  0.15820000  1.0 0.1323072668
H  H91  1  0.40420000  0.65340000  0.15820000  1.0 0.1323072668
H  H92  1  0.24920000  0.59580000  0.15820000  1.0 0.1323072668
H  H93  1  0.34660000  0.75080000  0.15820000  1.0 0.1323072668
H  H94  1  0.40420000  0.65340000  0.84180000  1.0 0.1323072668
H  H95  1  0.24920000  0.59580000  0.84180000  1.0 0.1323072668
H  H96  1  0.34660000  0.75080000  0.84180000  1.0 0.1323072668
C  C1  1  0.08890000  0.08890000  0.63930000  1.0 0.6161550028
C  C2  1  0.91110000  0.00000000  0.63930000  1.0 0.6161550028
C  C3  1  0.00000000  0.91110000  0.63930000  1.0 0.6161550028
C  C4  1  0.08890000  0.08890000  0.36070000  1.0 0.6161550028
C  C5  1  0.91110000  0.00000000  0.36070000  1.0 0.6161550028
C  C6  1  0.00000000  0.91110000  0.36070000  1.0 0.6161550028
C  C7  1  0.12310000  0.12310000  0.72190000  1.0 0.0030991492
C  C8  1  0.87690000  0.00000000  0.72190000  1.0 0.0030991492
C  C9  1  0.00000000  0.87690000  0.72190000  1.0 0.0030991492
C  C10  1  0.12310000  0.12310000  0.27810000  1.0 0.0030991492
C  C11  1  0.87690000  0.00000000  0.27810000  1.0 0.0030991492
C  C12  1  0.00000000  0.87690000  0.27810000  1.0 0.0030991492
C  C13  1  0.15960000  0.11730000  0.76090000  1.0 -0.1435869628
C  C14  1  0.88270000  0.04230000  0.76090000  1.0 -0.1435869628
C  C15  1  0.95770000  0.84040000  0.76090000  1.0 -0.1435869628
C  C16  1  0.15960000  0.11730000  0.23910000  1.0 -0.1435869628
C  C17  1  0.88270000  0.04230000  0.23910000  1.0 -0.1435869628
C  C18  1  0.95770000  0.84040000  0.23910000  1.0 -0.1435869628
C  C19  1  0.11730000  0.15960000  0.23910000  1.0 -0.1435869628
C  C20  1  0.04230000  0.88270000  0.23910000  1.0 -0.1435869628
C  C21  1  0.84040000  0.95770000  0.23910000  1.0 -0.1435869628
C  C22  1  0.11730000  0.15960000  0.76090000  1.0 -0.1435869628
C  C23  1  0.04230000  0.88270000  0.76090000  1.0 -0.1435869628
C  C24  1  0.84040000  0.95770000  0.76090000  1.0 -0.1435869628
C  C25  1  0.19120000  0.14910000  0.84260000  1.0 0.076280515
C  C26  1  0.85090000  0.04210000  0.84260000  1.0 0.076280515
C  C27  1  0.95790000  0.80880000  0.84260000  1.0 0.076280515
C  C28  1  0.19120000  0.14910000  0.15740000  1.0 0.076280515
C  C29  1  0.85090000  0.04210000  0.15740000  1.0 0.076280515
C  C30  1  0.95790000  0.80880000  0.15740000  1.0 0.076280515
C  C31  1  0.14910000  0.19120000  0.15740000  1.0 0.076280515
C  C32  1  0.04210000  0.85090000  0.15740000  1.0 0.076280515
C  C33  1  0.80880000  0.95790000  0.15740000  1.0 0.076280515
C  C34  1  0.14910000  0.19120000  0.84260000  1.0 0.076280515
C  C35  1  0.04210000  0.85090000  0.84260000  1.0 0.076280515
C  C36  1  0.80880000  0.95790000  0.84260000  1.0 0.076280515
C  C37  1  0.39050000  0.22690000  0.97790000  1.0 -0.0110566959
C  C38  1  0.77310000  0.16360000  0.97790000  1.0 -0.0110566959
C  C39  1  0.83640000  0.60950000  0.97790000  1.0 -0.0110566959
C  C40  1  0.39050000  0.22690000  0.02210000  1.0 -0.0110566959
C  C41  1  0.77310000  0.16360000  0.02210000  1.0 -0.0110566959
C  C42  1  0.83640000  0.60950000  0.02210000  1.0 -0.0110566959
C  C43  1  0.22690000  0.39050000  0.02210000  1.0 -0.0110566959
C  C44  1  0.16360000  0.77310000  0.02210000  1.0 -0.0110566959
C  C45  1  0.60950000  0.83640000  0.02210000  1.0 -0.0110566959
C  C46  1  0.22690000  0.39050000  0.97790000  1.0 -0.0110566959
C  C47  1  0.16360000  0.77310000  0.97790000  1.0 -0.0110566959
C  C48  1  0.60950000  0.83640000  0.97790000  1.0 -0.0110566959
C  C49  1  0.31850000  0.24240000  0.93770000  1.0 0.3573042893
C  C50  1  0.75760000  0.07610000  0.93770000  1.0 0.3573042893
C  C51  1  0.92390000  0.68150000  0.93770000  1.0 0.3573042893
C  C52  1  0.31850000  0.24240000  0.06230000  1.0 0.3573042893
C  C53  1  0.75760000  0.07610000  0.06230000  1.0 0.3573042893
C  C54  1  0.92390000  0.68150000  0.06230000  1.0 0.3573042893
C  C55  1  0.24240000  0.31850000  0.06230000  1.0 0.3573042893
C  C56  1  0.07610000  0.75760000  0.06230000  1.0 0.3573042893
C  C57  1  0.68150000  0.92390000  0.06230000  1.0 0.3573042893
C  C58  1  0.24240000  0.31850000  0.93770000  1.0 0.3573042893
C  C59  1  0.07610000  0.75760000  0.93770000  1.0 0.3573042893
C  C60  1  0.68150000  0.92390000  0.93770000  1.0 0.3573042893
C  C61  1  0.37400000  0.25390000  0.92100000  1.0 -0.0753489839
C  C62  1  0.74610000  0.12010000  0.92100000  1.0 -0.0753489839
C  C63  1  0.87990000  0.62600000  0.92100000  1.0 -0.0753489839
C  C64  1  0.37400000  0.25390000  0.07900000  1.0 -0.0735278372
C  C65  1  0.74610000  0.12010000  0.07900000  1.0 -0.0735278372
C  C66  1  0.87990000  0.62600000  0.07900000  1.0 -0.0735278372
C  C67  1  0.25390000  0.37400000  0.07900000  1.0 -0.0735278372
C  C68  1  0.12010000  0.74610000  0.07900000  1.0 -0.0735278372
C  C69  1  0.62600000  0.87990000  0.07900000  1.0 -0.0735278372
C  C70  1  0.25390000  0.37400000  0.92100000  1.0 -0.0753489839
C  C71  1  0.12010000  0.74610000  0.92100000  1.0 -0.0753489839
C  C72  1  0.62600000  0.87990000  0.92100000  1.0 -0.0753489839
C  C73  1  0.40510000  0.28970000  0.84910000  1.0 -0.1586565073
C  C74  1  0.71030000  0.11540000  0.84910000  1.0 -0.1586565073
C  C75  1  0.88460000  0.59490000  0.84910000  1.0 -0.1540713069
C  C76  1  0.40510000  0.28970000  0.15090000  1.0 -0.1586565073
C  C77  1  0.71030000  0.11540000  0.15090000  1.0 -0.1586565073
C  C78  1  0.88460000  0.59490000  0.15090000  1.0 -0.1540713069
C  C79  1  0.28970000  0.40510000  0.15090000  1.0 -0.1586565073
C  C80  1  0.11540000  0.71030000  0.15090000  1.0 -0.1586565073
C  C81  1  0.59490000  0.88460000  0.15090000  1.0 -0.1540713069
C  C82  1  0.28970000  0.40510000  0.84910000  1.0 -0.1586565073
C  C83  1  0.11540000  0.71030000  0.84910000  1.0 -0.1586565073
C  C84  1  0.59490000  0.88460000  0.84910000  1.0 -0.1540713069
C  C85  1  0.44190000  0.23570000  0.96610000  1.0 -0.0903530903
C  C86  1  0.76430000  0.20620000  0.96610000  1.0 -0.0903530903
C  C87  1  0.79380000  0.55810000  0.96610000  1.0 -0.0903530903
C  C88  1  0.44190000  0.23570000  0.03390000  1.0 -0.0903530903
C  C89  1  0.76430000  0.20620000  0.03390000  1.0 -0.0903530903
C  C90  1  0.79380000  0.55810000  0.03390000  1.0 -0.0903530903
C  C91  1  0.23570000  0.44190000  0.03390000  1.0 -0.0903530903
C  C92  1  0.20620000  0.76430000  0.03390000  1.0 -0.0903530903
C  C93  1  0.55810000  0.79380000  0.03390000  1.0 -0.0903530903
C  C94  1  0.23570000  0.44190000  0.96610000  1.0 -0.0903530903
C  C95  1  0.20620000  0.76430000  0.96610000  1.0 -0.0903530903
C  C96  1  0.55810000  0.79380000  0.96610000  1.0 -0.0903530903
C  C97  1  0.47460000  0.27250000  0.89600000  1.0 0.0223800447
C  C98  1  0.72750000  0.20210000  0.89600000  1.0 0.0223800447
C  C99  1  0.79790000  0.52540000  0.89600000  1.0 0.0223800447
C  C100  1  0.47460000  0.27250000  0.10400000  1.0 0.0223800447
C  C101  1  0.72750000  0.20210000  0.10400000  1.0 0.0223800447
C  C102  1  0.79790000  0.52540000  0.10400000  1.0 0.0223800447
C  C103  1  0.27250000  0.47460000  0.10400000  1.0 0.0223800447
C  C104  1  0.20210000  0.72750000  0.10400000  1.0 0.0223800447
C  C105  1  0.52540000  0.79790000  0.10400000  1.0 0.0223800447
C  C106  1  0.27250000  0.47460000  0.89600000  1.0 0.0223800447
C  C107  1  0.20210000  0.72750000  0.89600000  1.0 0.0223800447
C  C108  1  0.52540000  0.79790000  0.89600000  1.0 0.0223800447
C  C109  1  0.45700000  0.29950000  0.83830000  1.0 -0.1586565073
C  C110  1  0.70050000  0.15750000  0.83830000  1.0 -0.1586565073
C  C111  1  0.84250000  0.54300000  0.83830000  1.0 -0.1586565073
C  C112  1  0.45700000  0.29950000  0.16170000  1.0 -0.1586565073
C  C113  1  0.70050000  0.15750000  0.16170000  1.0 -0.1586565073
C  C114  1  0.84250000  0.54300000  0.16170000  1.0 -0.1586565073
C  C115  1  0.29950000  0.45700000  0.16170000  1.0 -0.1586565073
C  C116  1  0.15750000  0.70050000  0.16170000  1.0 -0.1586565073
C  C117  1  0.54300000  0.84250000  0.16170000  1.0 -0.1586565073
C  C118  1  0.29950000  0.45700000  0.83830000  1.0 -0.1586565073
C  C119  1  0.15750000  0.70050000  0.83830000  1.0 -0.1586565073
C  C120  1  0.54300000  0.84250000  0.83830000  1.0 -0.1586565073
C  C121  1  0.56590000  0.32170000  0.84590000  1.0 0.4621188236
C  C122  1  0.67830000  0.24420000  0.84590000  1.0 0.4621188236
C  C123  1  0.75580000  0.43410000  0.84590000  1.0 0.4621188236
C  C124  1  0.56590000  0.32170000  0.15410000  1.0 0.4621188236
C  C125  1  0.67830000  0.24420000  0.15410000  1.0 0.4621188236
C  C126  1  0.75580000  0.43410000  0.15410000  1.0 0.4621188236
C  C127  1  0.32170000  0.56590000  0.15410000  1.0 0.4621188236
C  C128  1  0.24420000  0.67830000  0.15410000  1.0 0.4621188236
C  C129  1  0.43410000  0.75580000  0.15410000  1.0 0.4621188236
C  C130  1  0.32170000  0.56590000  0.84590000  1.0 0.4621188236
C  C131  1  0.24420000  0.67830000  0.84590000  1.0 0.4621188236
C  C132  1  0.43410000  0.75580000  0.84590000  1.0 0.4621188236
C  C133  1  0.61790000  0.32450000  0.84600000  1.0 -0.0017132664
C  C134  1  0.67550000  0.29340000  0.84600000  1.0 -0.0017132664
C  C135  1  0.70660000  0.38210000  0.84600000  1.0 -0.0017132664
C  C136  1  0.61790000  0.32450000  0.15400000  1.0 -0.0017132664
C  C137  1  0.67550000  0.29340000  0.15400000  1.0 -0.0017132664
C  C138  1  0.70660000  0.38210000  0.15400000  1.0 -0.0017132664
C  C139  1  0.32450000  0.61790000  0.15400000  1.0 -0.0017132664
C  C140  1  0.29340000  0.67550000  0.15400000  1.0 -0.0017132664
C  C141  1  0.38210000  0.70660000  0.15400000  1.0 -0.0017132664
C  C142  1  0.32450000  0.61790000  0.84600000  1.0 -0.0017132664
C  C143  1  0.29340000  0.67550000  0.84600000  1.0 -0.0017132664
C  C144  1  0.38210000  0.70660000  0.84600000  1.0 -0.0017132664
C  C145  1  0.65900000  0.37580000  0.84420000  1.0 -0.1586565073
C  C146  1  0.62420000  0.28320000  0.84420000  1.0 -0.1586565073
C  C147  1  0.71680000  0.34100000  0.84420000  1.0 -0.1586565073
C  C148  1  0.65900000  0.37580000  0.15580000  1.0 -0.1586565073
C  C149  1  0.62420000  0.28320000  0.15580000  1.0 -0.1586565073
C  C150  1  0.71680000  0.34100000  0.15580000  1.0 -0.1586565073
C  C151  1  0.37580000  0.65900000  0.15580000  1.0 -0.1586565073
C  C152  1  0.28320000  0.62420000  0.15580000  1.0 -0.1586565073
C  C153  1  0.34100000  0.71680000  0.15580000  1.0 -0.1586565073
C  C154  1  0.37580000  0.65900000  0.84420000  1.0 -0.1586565073
C  C155  1  0.28320000  0.62420000  0.84420000  1.0 -0.1586565073
C  C156  1  0.34100000  0.71680000  0.84420000  1.0 -0.1586565073
N  N1  1  0.18490000  0.18490000  0.88510000  1.0 -0.2042842365
N  N2  1  0.81510000  0.00000000  0.88510000  1.0 -0.2042842365
N  N3  1  0.00000000  0.81510000  0.88510000  1.0 -0.2042842365
N  N4  1  0.18490000  0.18490000  0.11490000  1.0 -0.2042842365
N  N5  1  0.81510000  0.00000000  0.11490000  1.0 -0.2042842365
N  N6  1  0.00000000  0.81510000  0.11490000  1.0 -0.2042842365
N  N7  1  0.52550000  0.28140000  0.88460000  1.0 -0.3863866311
N  N8  1  0.71860000  0.24410000  0.88460000  1.0 -0.3863866311
N  N9  1  0.75590000  0.47450000  0.88460000  1.0 -0.3863866311
N  N10  1  0.52550000  0.28140000  0.11540000  1.0 -0.3863866311
N  N11  1  0.71860000  0.24410000  0.11540000  1.0 -0.3863866311
N  N12  1  0.75590000  0.47450000  0.11540000  1.0 -0.3863866311
N  N13  1  0.28140000  0.52550000  0.11540000  1.0 -0.3863866311
N  N14  1  0.24410000  0.71860000  0.11540000  1.0 -0.3863866311
N  N15  1  0.47450000  0.75590000  0.11540000  1.0 -0.3863866311
N  N16  1  0.28140000  0.52550000  0.88460000  1.0 -0.3863866311
N  N17  1  0.24410000  0.71860000  0.88460000  1.0 -0.3863866311
N  N18  1  0.47450000  0.75590000  0.88460000  1.0 -0.3863866311
O  O1  1  0.00000000  0.00000000  0.50000000  1.0 -1.1022338328
O  O2  1  0.09690000  0.05270000  0.60840000  1.0 -0.5876034356
O  O3  1  0.94730000  0.04420000  0.60840000  1.0 -0.5876034356
O  O4  1  0.95580000  0.90310000  0.60840000  1.0 -0.5876034356
O  O5  1  0.09690000  0.05270000  0.39160000  1.0 -0.5876034356
O  O6  1  0.94730000  0.04420000  0.39160000  1.0 -0.5876034356
O  O7  1  0.95580000  0.90310000  0.39160000  1.0 -0.5876034356
O  O8  1  0.05270000  0.09690000  0.39160000  1.0 -0.5876034356
O  O9  1  0.04420000  0.94730000  0.39160000  1.0 -0.5876034356
O  O10  1  0.90310000  0.95580000  0.39160000  1.0 -0.5876034356
O  O11  1  0.05270000  0.09690000  0.60840000  1.0 -0.5876034356
O  O12  1  0.04420000  0.94730000  0.60840000  1.0 -0.5876034356
O  O13  1  0.90310000  0.95580000  0.60840000  1.0 -0.5876034356
O  O14  1  0.29220000  0.20740000  0.00000000  1.0 -0.3305148042
O  O15  1  0.79260000  0.08480000  0.00000000  1.0 -0.3305148042
O  O16  1  0.91520000  0.70780000  0.00000000  1.0 -0.3305148042
O  O17  1  0.20740000  0.29220000  0.00000000  1.0 -0.3305148042
O  O18  1  0.08480000  0.79260000  0.00000000  1.0 -0.3305148042
O  O19  1  0.70780000  0.91520000  0.00000000  1.0 -0.3305148042
O  O20  1  0.30400000  0.26850000  0.88790000  1.0 -0.3509439286
O  O21  1  0.73150000  0.03550000  0.88790000  1.0 -0.3509439286
O  O22  1  0.96450000  0.69600000  0.88790000  1.0 -0.3509439286
O  O23  1  0.30400000  0.26850000  0.11210000  1.0 -0.3509439286
O  O24  1  0.73150000  0.03550000  0.11210000  1.0 -0.3509439286
O  O25  1  0.96450000  0.69600000  0.11210000  1.0 -0.3509439286
O  O26  1  0.26850000  0.30400000  0.11210000  1.0 -0.3509439286
O  O27  1  0.03550000  0.73150000  0.11210000  1.0 -0.3509439286
O  O28  1  0.69600000  0.96450000  0.11210000  1.0 -0.3509439286
O  O29  1  0.26850000  0.30400000  0.88790000  1.0 -0.3509439286
O  O30  1  0.03550000  0.73150000  0.88790000  1.0 -0.3509439286
O  O31  1  0.69600000  0.96450000  0.88790000  1.0 -0.3509439286
O  O32  1  0.56270000  0.35800000  0.80550000  1.0 -0.4324135986
O  O33  1  0.64200000  0.20470000  0.80550000  1.0 -0.4324135986
O  O34  1  0.79530000  0.43730000  0.80550000  1.0 -0.4324135986
O  O35  1  0.56270000  0.35800000  0.19450000  1.0 -0.4324135986
O  O36  1  0.64200000  0.20470000  0.19450000  1.0 -0.4324135986
O  O37  1  0.79530000  0.43730000  0.19450000  1.0 -0.4324135986
O  O38  1  0.35800000  0.56270000  0.19450000  1.0 -0.4324135986
O  O39  1  0.20470000  0.64200000  0.19450000  1.0 -0.4324135986
O  O40  1  0.43730000  0.79530000  0.19450000  1.0 -0.4324135986
O  O41  1  0.35800000  0.56270000  0.80550000  1.0 -0.4324135986
O  O42  1  0.20470000  0.64200000  0.80550000  1.0 -0.4324135986
O  O43  1  0.43730000  0.79530000  0.80550000  1.0 -0.4324135986
