# DDEC6 charges by PACMAN v1.1 (https://github.com/mtap-research/PACMAN-charge/)
data_SEVTUJ_FSR_pacman
_symmetry_space_group_name_H-M   'P 1'
_cell_length_a   14.36120000
_cell_length_b   14.36120000
_cell_length_c   14.36120000
_cell_angle_alpha   128.91700000
_cell_angle_beta   128.91700000
_cell_angle_gamma   75.14380000
_symmetry_Int_Tables_number   1
_chemical_formula_structural   ZnH20(C5N)6
_chemical_formula_sum   'Zn2 H40 C60 N12'
_cell_volume   1745.68779289
_cell_formula_units_Z   2
loop_
 _symmetry_equiv_pos_site_id
 _symmetry_equiv_pos_as_xyz
  1  'x, y, z'
loop_
 _atom_site_type_symbol
 _atom_site_label
 _atom_site_symmetry_multiplicity
 _atom_site_fract_x
 _atom_site_fract_y
 _atom_site_fract_z
 _atom_site_occupancy
 _atom_site_charge
Zn  Zn1  1  0.00000000  0.00000000  0.00000000  1.0 0.7105795811
Zn  Zn2  1  0.50000000  0.50000000  0.00000000  1.0 0.7105795811
H  H1  1  0.85620000  0.74210000  0.80790000  1.0 0.106389764
H  H2  1  0.74210000  0.93420000  0.88590000  1.0 0.106389764
H  H3  1  0.04830000  0.85620000  0.11410000  1.0 0.106389764
H  H4  1  0.45170000  0.56580000  0.80790000  1.0 0.106389764
H  H5  1  0.64380000  0.45170000  0.88590000  1.0 0.106389764
H  H6  1  0.75790000  0.64380000  0.19210000  1.0 0.106389764
H  H7  1  0.56580000  0.75790000  0.11410000  1.0 0.106389764
H  H8  1  0.93420000  0.04830000  0.19210000  1.0 0.106389764
H  H9  1  0.14380000  0.25790000  0.19210000  1.0 0.106389764
H  H10  1  0.25790000  0.06580000  0.11410000  1.0 0.106389764
H  H11  1  0.95170000  0.14380000  0.88590000  1.0 0.106389764
H  H12  1  0.54830000  0.43420000  0.19210000  1.0 0.106389764
H  H13  1  0.35620000  0.54830000  0.11410000  1.0 0.106389764
H  H14  1  0.24210000  0.35620000  0.80790000  1.0 0.106389764
H  H15  1  0.43420000  0.24210000  0.88590000  1.0 0.106389764
H  H16  1  0.06580000  0.95170000  0.80790000  1.0 0.106389764
H  H17  1  0.75960000  0.63770000  0.80510000  1.0 0.0976249136
H  H18  1  0.63770000  0.83260000  0.87810000  1.0 0.0976249136
H  H19  1  0.95450000  0.75960000  0.12190000  1.0 0.0976249136
H  H20  1  0.54550000  0.66740000  0.80510000  1.0 0.0976249136
H  H21  1  0.74040000  0.54550000  0.87810000  1.0 0.0976249136
H  H22  1  0.86230000  0.74040000  0.19490000  1.0 0.0976249136
H  H23  1  0.66740000  0.86230000  0.12190000  1.0 0.0976249136
H  H24  1  0.83260000  0.95450000  0.19490000  1.0 0.0976249136
H  H25  1  0.24040000  0.36230000  0.19490000  1.0 0.0976249136
H  H26  1  0.36230000  0.16740000  0.12190000  1.0 0.0976249136
H  H27  1  0.04550000  0.24040000  0.87810000  1.0 0.0976249136
H  H28  1  0.45450000  0.33260000  0.19490000  1.0 0.0976249136
H  H29  1  0.25960000  0.45450000  0.12190000  1.0 0.0976249136
H  H30  1  0.13770000  0.25960000  0.80510000  1.0 0.0976249136
H  H31  1  0.33260000  0.13770000  0.87810000  1.0 0.0976249136
H  H32  1  0.16740000  0.04550000  0.80510000  1.0 0.0976249136
H  H33  1  0.95140000  0.68080000  0.63220000  1.0 0.1212048451
H  H34  1  0.68080000  0.04860000  0.72940000  1.0 0.1212048451
H  H35  1  0.31920000  0.95140000  0.27060000  1.0 0.1212048451
H  H36  1  0.18080000  0.45140000  0.63220000  1.0 0.1212048451
H  H37  1  0.54860000  0.18080000  0.72940000  1.0 0.1212048451
H  H38  1  0.81920000  0.54860000  0.36780000  1.0 0.1212048451
H  H39  1  0.45140000  0.81920000  0.27060000  1.0 0.1212048451
H  H40  1  0.04860000  0.31920000  0.36780000  1.0 0.1212048451
C  C1  1  0.85300000  0.78570000  0.88970000  1.0 0.0009923205
C  C2  1  0.78570000  0.89600000  0.93270000  1.0 0.0009923205
C  C3  1  0.96330000  0.85300000  0.06730000  1.0 -1.61119e-05
C  C4  1  0.53670000  0.60400000  0.88970000  1.0 0.0009923205
C  C5  1  0.64700000  0.53670000  0.93270000  1.0 0.0009923205
C  C6  1  0.71430000  0.64700000  0.11030000  1.0 0.0009923205
C  C7  1  0.60400000  0.71430000  0.06730000  1.0 0.0009923205
C  C8  1  0.89600000  0.96330000  0.11030000  1.0 -1.61119e-05
C  C9  1  0.14700000  0.21430000  0.11030000  1.0 -1.61119e-05
C  C10  1  0.21430000  0.10400000  0.06730000  1.0 -1.61119e-05
C  C11  1  0.03670000  0.14700000  0.93270000  1.0 0.0009923205
C  C12  1  0.46330000  0.39600000  0.11030000  1.0 -1.61119e-05
C  C13  1  0.35300000  0.46330000  0.06730000  1.0 -1.61119e-05
C  C14  1  0.28570000  0.35300000  0.88970000  1.0 0.0009923205
C  C15  1  0.39600000  0.28570000  0.93270000  1.0 0.0009923205
C  C16  1  0.10400000  0.03670000  0.88970000  1.0 0.0009923205
C  C17  1  0.79340000  0.72340000  0.88600000  1.0 -0.1118739438
C  C18  1  0.72340000  0.83740000  0.93000000  1.0 -0.1118739438
C  C19  1  0.90740000  0.79340000  0.07000000  1.0 -0.1118739438
C  C20  1  0.59260000  0.66260000  0.88600000  1.0 -0.1118739438
C  C21  1  0.70660000  0.59260000  0.93000000  1.0 -0.1118739438
C  C22  1  0.77660000  0.70660000  0.11400000  1.0 -0.1118739438
C  C23  1  0.66260000  0.77660000  0.07000000  1.0 -0.1118739438
C  C24  1  0.83740000  0.90740000  0.11400000  1.0 -0.1118739438
C  C25  1  0.20660000  0.27660000  0.11400000  1.0 -0.1118739438
C  C26  1  0.27660000  0.16260000  0.07000000  1.0 -0.1118739438
C  C27  1  0.09260000  0.20660000  0.93000000  1.0 -0.1118739438
C  C28  1  0.40740000  0.33740000  0.11400000  1.0 -0.1118739438
C  C29  1  0.29340000  0.40740000  0.07000000  1.0 -0.1118739438
C  C30  1  0.22340000  0.29340000  0.88600000  1.0 -0.1118739438
C  C31  1  0.33740000  0.22340000  0.93000000  1.0 -0.1118739438
C  C32  1  0.16260000  0.09260000  0.88600000  1.0 -0.1118739438
C  C33  1  0.78190000  0.78190000  0.00000000  1.0 0.032369196
C  C34  1  0.71810000  0.71810000  0.00000000  1.0 0.032369196
C  C35  1  0.21810000  0.21810000  0.00000000  1.0 0.032369196
C  C36  1  0.28190000  0.28190000  0.00000000  1.0 0.032369196
C  C37  1  0.13440000  0.77270000  0.90710000  1.0 0.2759760762
C  C38  1  0.77270000  0.86560000  0.63830000  1.0 0.2759760762
C  C39  1  0.22730000  0.13440000  0.36170000  1.0 0.2759760762
C  C40  1  0.27270000  0.63440000  0.90710000  1.0 0.2759760762
C  C41  1  0.36560000  0.27270000  0.63830000  1.0 0.2759760762
C  C42  1  0.72730000  0.36560000  0.09290000  1.0 0.2759760762
C  C43  1  0.63440000  0.72730000  0.36170000  1.0 0.2759760762
C  C44  1  0.86560000  0.22730000  0.09290000  1.0 0.2759760762
C  C45  1  0.16460000  0.66460000  0.82920000  1.0 -0.2138074417
C  C46  1  0.66460000  0.83540000  0.50000000  1.0 -0.2138074417
C  C47  1  0.33540000  0.16460000  0.50000000  1.0 -0.2138074417
C  C48  1  0.83540000  0.33540000  0.17080000  1.0 -0.2138074417
C  C49  1  0.08150000  0.58150000  0.66300000  1.0 0.106389764
C  C50  1  0.58150000  0.91850000  0.50000000  1.0 0.0976249136
C  C51  1  0.41850000  0.08150000  0.50000000  1.0 0.0976249136
C  C52  1  0.91850000  0.41850000  0.33700000  1.0 0.0976249136
C  C53  1  0.97220000  0.60690000  0.57910000  1.0 -0.1666985755
C  C54  1  0.60690000  0.02780000  0.63470000  1.0 -0.1666985755
C  C55  1  0.39310000  0.97220000  0.36530000  1.0 -0.1666985755
C  C56  1  0.10690000  0.47220000  0.57910000  1.0 -0.1666985755
C  C57  1  0.52780000  0.10690000  0.63470000  1.0 -0.1666985755
C  C58  1  0.89310000  0.52780000  0.42090000  1.0 -0.1666985755
C  C59  1  0.47220000  0.89310000  0.36530000  1.0 -0.1666985755
C  C60  1  0.02780000  0.39310000  0.42090000  1.0 -0.1666985755
N  N1  1  0.90560000  0.90560000  0.00000000  1.0 -0.1891907235
N  N2  1  0.59440000  0.59440000  0.00000000  1.0 -0.1891907235
N  N3  1  0.09440000  0.09440000  0.00000000  1.0 -0.1891907235
N  N4  1  0.40560000  0.40560000  0.00000000  1.0 -0.1891907235
N  N5  1  0.10290000  0.85910000  0.96200000  1.0 -0.458230604
N  N6  1  0.85910000  0.89710000  0.75620000  1.0 -0.458230604
N  N7  1  0.14090000  0.10290000  0.24380000  1.0 -0.458230604
N  N8  1  0.35910000  0.60290000  0.96200000  1.0 -0.458230604
N  N9  1  0.39710000  0.35910000  0.75620000  1.0 -0.458230604
N  N10  1  0.64090000  0.39710000  0.03800000  1.0 -0.458230604
N  N11  1  0.60290000  0.64090000  0.24380000  1.0 -0.458230604
N  N12  1  0.89710000  0.14090000  0.03800000  1.0 -0.458230604
