# DDEC6 charges by PACMAN v1.1 (https://github.com/mtap-research/PACMAN-charge/)
data_SEZPIY_FSR_pacman
_symmetry_space_group_name_H-M   'P 1'
_cell_length_a   8.58900000
_cell_length_b   14.02000000
_cell_length_c   17.71520000
_cell_angle_alpha   90.00000000
_cell_angle_beta   111.56200000
_cell_angle_gamma   90.00000000
_symmetry_Int_Tables_number   1
_chemical_formula_structural   Zn3P5(HO4)3
_chemical_formula_sum   'Zn12 P20 H12 O48'
_cell_volume   1983.94288588
_cell_formula_units_Z   4
loop_
 _symmetry_equiv_pos_site_id
 _symmetry_equiv_pos_as_xyz
  1  'x, y, z'
loop_
 _atom_site_type_symbol
 _atom_site_label
 _atom_site_symmetry_multiplicity
 _atom_site_fract_x
 _atom_site_fract_y
 _atom_site_fract_z
 _atom_site_occupancy
 _atom_site_charge
Zn  Zn1  1  0.48159000  0.22906000  0.65468000  1.0 1.0328912633
Zn  Zn2  1  0.51841000  0.72906000  0.84532000  1.0 1.0328912633
Zn  Zn3  1  0.51841000  0.77094000  0.34532000  1.0 1.0360759991
Zn  Zn4  1  0.48159000  0.27094000  0.15468000  1.0 1.0360759991
Zn  Zn5  1  0.81828000  0.40087000  0.48445000  1.0 1.088457604
Zn  Zn6  1  0.18172000  0.90087000  0.01555000  1.0 1.088457604
Zn  Zn7  1  0.18172000  0.59913000  0.51555000  1.0 1.088457604
Zn  Zn8  1  0.81828000  0.09913000  0.98445000  1.0 1.088457604
Zn  Zn9  1  0.90949000  0.13505000  0.44625000  1.0 0.998419513
Zn  Zn10  1  0.09051000  0.63505000  0.05375000  1.0 0.998419513
Zn  Zn11  1  0.09051000  0.86495000  0.55375000  1.0 0.998419513
Zn  Zn12  1  0.90949000  0.36495000  0.94625000  1.0 0.9933462041
P  P1  1  0.72034000  0.22568000  0.55754000  1.0 1.200043832
P  P2  1  0.27966000  0.72568000  0.94246000  1.0 1.200043832
P  P3  1  0.27966000  0.77432000  0.44246000  1.0 1.200043832
P  P4  1  0.72034000  0.27432000  0.05754000  1.0 1.200043832
P  P5  1  0.21596000  0.37392000  0.54406000  1.0 1.200043832
P  P6  1  0.78404000  0.87392000  0.95594000  1.0 1.200043832
P  P7  1  0.78404000  0.62608000  0.45594000  1.0 1.200043832
P  P8  1  0.21596000  0.12608000  0.04406000  1.0 1.200043832
P  P9  1  0.79077000  0.29592000  0.31777000  1.0 1.3164993423
P  P10  1  0.20923000  0.79592000  0.18223000  1.0 1.3125850257
P  P11  1  0.20923000  0.70408000  0.68223000  1.0 1.3125850257
P  P12  1  0.79077000  0.20408000  0.81777000  1.0 1.3125850257
P  P13  1  0.75070000  0.93750000  0.41230000  1.0 0.4220405218
P  P14  1  0.24930000  0.43750000  0.08770000  1.0 0.4220405218
P  P15  1  0.24930000  0.06250000  0.58770000  1.0 0.4220405218
P  P16  1  0.75070000  0.56250000  0.91230000  1.0 0.430029531
P  P17  1  0.82640000  0.91670000  0.39170000  1.0 0.3697471367
P  P18  1  0.17360000  0.41670000  0.10830000  1.0 0.3760186034
P  P19  1  0.17360000  0.08330000  0.60830000  1.0 0.3625899153
P  P20  1  0.82640000  0.58330000  0.89170000  1.0 0.3697471367
H  H1  1  0.86300000  0.21740000  0.62500000  1.0 -0.1322684788
H  H2  1  0.13700000  0.71740000  0.87500000  1.0 -0.1322684788
H  H3  1  0.13700000  0.78260000  0.37500000  1.0 -0.1322684788
H  H4  1  0.86300000  0.28260000  0.12500000  1.0 -0.1419593993
H  H5  1  0.21700000  0.30800000  0.49100000  1.0 -0.1133561832
H  H6  1  0.78300000  0.80800000  0.00900000  1.0 -0.1189381583
H  H7  1  0.78300000  0.69200000  0.50900000  1.0 -0.1133561832
H  H8  1  0.21700000  0.19200000  0.99100000  1.0 -0.1189381583
H  H9  1  0.85500000  0.34900000  0.26700000  1.0 -0.1461268542
H  H10  1  0.14500000  0.84900000  0.23300000  1.0 -0.1419593993
H  H11  1  0.14500000  0.65100000  0.73300000  1.0 -0.1419593993
H  H12  1  0.85500000  0.15100000  0.76700000  1.0 -0.1461268542
O  O1  1  0.74510000  0.16760000  0.49110000  1.0 -0.6720782024
O  O2  1  0.25490000  0.66760000  0.00890000  1.0 -0.6720782024
O  O3  1  0.25490000  0.83240000  0.50890000  1.0 -0.6720782024
O  O4  1  0.74510000  0.33240000  0.99110000  1.0 -0.6720782024
O  O5  1  0.69420000  0.33080000  0.53780000  1.0 -0.6412989152
O  O6  1  0.30580000  0.83080000  0.96220000  1.0 -0.6412989152
O  O7  1  0.30580000  0.66920000  0.46220000  1.0 -0.6412989152
O  O8  1  0.69420000  0.16920000  0.03780000  1.0 -0.6412989152
O  O9  1  0.57840000  0.18520000  0.57930000  1.0 -0.6529692854
O  O10  1  0.42160000  0.68520000  0.92070000  1.0 -0.6529692854
O  O11  1  0.42160000  0.81480000  0.42070000  1.0 -0.6529692854
O  O12  1  0.57840000  0.31480000  0.07930000  1.0 -0.6529692854
O  O13  1  0.35420000  0.34800000  0.62380000  1.0 -0.6073696417
O  O14  1  0.64580000  0.84800000  0.87620000  1.0 -0.6073696417
O  O15  1  0.64580000  0.65200000  0.37620000  1.0 -0.6073696417
O  O16  1  0.35420000  0.15200000  0.12380000  1.0 -0.6073696417
O  O17  1  0.25060000  0.46830000  0.51210000  1.0 -0.6196638746
O  O18  1  0.74940000  0.96830000  0.98790000  1.0 -0.6196638746
O  O19  1  0.74940000  0.53170000  0.48790000  1.0 -0.6196638746
O  O20  1  0.25060000  0.03170000  0.01210000  1.0 -0.6196638746
O  O21  1  0.04610000  0.36940000  0.55050000  1.0 -0.6987582696
O  O22  1  0.95390000  0.86940000  0.94950000  1.0 -0.6987582696
O  O23  1  0.95390000  0.63060000  0.44950000  1.0 -0.6987582696
O  O24  1  0.04610000  0.13060000  0.05050000  1.0 -0.6987582696
O  O25  1  0.74050000  0.36810000  0.36930000  1.0 -0.6987582696
O  O26  1  0.25950000  0.86810000  0.13070000  1.0 -0.6987582696
O  O27  1  0.25950000  0.63190000  0.63070000  1.0 -0.6987582696
O  O28  1  0.74050000  0.13190000  0.86930000  1.0 -0.6987582696
O  O29  1  0.64060000  0.24000000  0.26160000  1.0 -0.6720782024
O  O30  1  0.35940000  0.74000000  0.23840000  1.0 -0.6773955924
O  O31  1  0.35940000  0.76000000  0.73840000  1.0 -0.6720782024
O  O32  1  0.64060000  0.26000000  0.76160000  1.0 -0.6720782024
O  O33  1  0.93180000  0.22990000  0.36970000  1.0 -0.6529692854
O  O34  1  0.06820000  0.72990000  0.13030000  1.0 -0.6552056176
O  O35  1  0.06820000  0.77010000  0.63030000  1.0 -0.6529692854
O  O36  1  0.93180000  0.27010000  0.86970000  1.0 -0.6529692854
O  O37  1  0.83550000  0.01820000  0.38470000  1.0 -0.4357296032
O  O38  1  0.16450000  0.51820000  0.11530000  1.0 -0.429899145
O  O39  1  0.16450000  0.98180000  0.61530000  1.0 -0.429899145
O  O40  1  0.83550000  0.48180000  0.88470000  1.0 -0.429899145
O  O41  1  0.86310000  0.87730000  0.47950000  1.0 -0.4533373741
O  O42  1  0.13690000  0.37730000  0.02050000  1.0 -0.4533373741
O  O43  1  0.13690000  0.12270000  0.52050000  1.0 -0.4533373741
O  O44  1  0.86310000  0.62270000  0.97950000  1.0 -0.4533373741
O  O45  1  0.65640000  0.87580000  0.33610000  1.0 -0.429899145
O  O46  1  0.34360000  0.37580000  0.16390000  1.0 -0.429899145
O  O47  1  0.34360000  0.12420000  0.66390000  1.0 -0.429899145
O  O48  1  0.65640000  0.62420000  0.83610000  1.0 -0.429899145
