# DDEC6 charges by PACMAN v1.1 (https://github.com/mtap-research/PACMAN-charge/)
data_SEZPOE_FSR_pacman
_symmetry_space_group_name_H-M   'P 1'
_cell_length_a   9.58520000
_cell_length_b   20.39410000
_cell_length_c   10.53390000
_cell_angle_alpha   90.00000000
_cell_angle_beta   94.12500000
_cell_angle_gamma   90.00000000
_symmetry_Int_Tables_number   1
_chemical_formula_structural   Zn3P4(HO3)4
_chemical_formula_sum   'Zn12 P16 H16 O48'
_cell_volume   2053.84852960
_cell_formula_units_Z   4
loop_
 _symmetry_equiv_pos_site_id
 _symmetry_equiv_pos_as_xyz
  1  'x, y, z'
loop_
 _atom_site_type_symbol
 _atom_site_label
 _atom_site_symmetry_multiplicity
 _atom_site_fract_x
 _atom_site_fract_y
 _atom_site_fract_z
 _atom_site_occupancy
 _atom_site_charge
Zn  Zn1  1  0.81834000  0.69629000  0.63648000  1.0 1.1332142358
Zn  Zn2  1  0.18166000  0.19629000  0.86352000  1.0 1.1332142358
Zn  Zn3  1  0.18166000  0.30371000  0.36352000  1.0 1.1332142358
Zn  Zn4  1  0.81834000  0.80371000  0.13648000  1.0 1.1332142358
Zn  Zn5  1  0.69070000  0.44879000  0.59600000  1.0 1.0802591001
Zn  Zn6  1  0.30930000  0.94879000  0.90400000  1.0 1.0802591001
Zn  Zn7  1  0.30930000  0.55121000  0.40400000  1.0 1.0802591001
Zn  Zn8  1  0.69070000  0.05121000  0.09600000  1.0 1.0802591001
Zn  Zn9  1  0.96337000  0.43386000  0.13396000  1.0 1.0802591001
Zn  Zn10  1  0.03663000  0.93386000  0.36604000  1.0 1.0802591001
Zn  Zn11  1  0.03663000  0.56614000  0.86604000  1.0 1.0802591001
Zn  Zn12  1  0.96337000  0.06614000  0.63396000  1.0 1.0802591001
P  P1  1  0.90121000  0.79857000  0.42924000  1.0 1.1594127481
P  P2  1  0.09879000  0.29857000  0.07076000  1.0 1.1698447598
P  P3  1  0.09879000  0.20143000  0.57076000  1.0 1.1698447598
P  P4  1  0.90121000  0.70143000  0.92924000  1.0 1.1698447598
P  P5  1  0.56416000  0.59273000  0.57684000  1.0 1.1698447598
P  P6  1  0.43584000  0.09273000  0.92316000  1.0 1.1698447598
P  P7  1  0.43584000  0.40727000  0.42316000  1.0 1.1698447598
P  P8  1  0.56416000  0.90727000  0.07684000  1.0 1.1698447598
P  P9  1  0.83791000  0.44181000  0.85968000  1.0 1.2971300488
P  P10  1  0.16209000  0.94181000  0.64032000  1.0 1.2971300488
P  P11  1  0.16209000  0.55819000  0.14032000  1.0 1.2971300488
P  P12  1  0.83791000  0.05819000  0.35968000  1.0 1.2971300488
P  P13  1  0.88987000  0.37964000  0.40668000  1.0 1.1594127481
P  P14  1  0.11013000  0.87964000  0.09332000  1.0 1.1594127481
P  P15  1  0.11013000  0.62036000  0.59332000  1.0 1.1594127481
P  P16  1  0.88987000  0.12036000  0.90668000  1.0 1.1594127481
H  H1  1  0.02500000  0.78100000  0.47100000  1.0 -0.1395923621
H  H2  1  0.97500000  0.28100000  0.02900000  1.0 -0.1395923621
H  H3  1  0.97500000  0.21900000  0.52900000  1.0 -0.1395923621
H  H4  1  0.02500000  0.71900000  0.97100000  1.0 -0.1395923621
H  H5  1  0.49800000  0.56900000  0.66700000  1.0 -0.1491902664
H  H6  1  0.50200000  0.06900000  0.83300000  1.0 -0.1581572885
H  H7  1  0.50200000  0.43100000  0.33300000  1.0 -0.1491902664
H  H8  1  0.49800000  0.93100000  0.16700000  1.0 -0.1491902664
H  H9  1  0.88100000  0.37500000  0.85160000  1.0 -0.1160878683
H  H10  1  0.11900000  0.87500000  0.64840000  1.0 -0.1160878683
H  H11  1  0.11900000  0.62500000  0.14840000  1.0 -0.1160878683
H  H12  1  0.88100000  0.12500000  0.35160000  1.0 -0.1160878683
H  H13  1  0.81300000  0.33000000  0.41740000  1.0 -0.1395923621
H  H14  1  0.18700000  0.83000000  0.08260000  1.0 -0.1395923621
H  H15  1  0.18700000  0.67000000  0.58260000  1.0 -0.1395923621
H  H16  1  0.81300000  0.17000000  0.91740000  1.0 -0.1395923621
O  O1  1  0.90000000  0.87295000  0.42380000  1.0 -0.6680463622
O  O2  1  0.10000000  0.37295000  0.07620000  1.0 -0.6680463622
O  O3  1  0.10000000  0.12705000  0.57620000  1.0 -0.6680463622
O  O4  1  0.90000000  0.62705000  0.92380000  1.0 -0.6680463622
O  O5  1  0.87170000  0.76659000  0.30130000  1.0 -0.6301905607
O  O6  1  0.12830000  0.26659000  0.19870000  1.0 -0.6301905607
O  O7  1  0.12830000  0.23341000  0.69870000  1.0 -0.6301905607
O  O8  1  0.87170000  0.73341000  0.80130000  1.0 -0.6301905607
O  O9  1  0.80100000  0.77586000  0.52600000  1.0 -0.5889450009
O  O10  1  0.19900000  0.27586000  0.97400000  1.0 -0.5889450009
O  O11  1  0.19900000  0.22414000  0.47400000  1.0 -0.5889450009
O  O12  1  0.80100000  0.72414000  0.02600000  1.0 -0.5889450009
O  O13  1  0.64050000  0.65255000  0.63000000  1.0 -0.61086446
O  O14  1  0.35950000  0.15255000  0.87000000  1.0 -0.61086446
O  O15  1  0.35950000  0.34745000  0.37000000  1.0 -0.61086446
O  O16  1  0.64050000  0.84745000  0.13000000  1.0 -0.61086446
O  O17  1  0.45500000  0.61059000  0.47130000  1.0 -0.6301905607
O  O18  1  0.54500000  0.11059000  0.02870000  1.0 -0.6301905607
O  O19  1  0.54500000  0.38941000  0.52870000  1.0 -0.6301905607
O  O20  1  0.45500000  0.88941000  0.97130000  1.0 -0.6301905607
O  O21  1  0.65980000  0.53867000  0.53480000  1.0 -0.6301905607
O  O22  1  0.34020000  0.03867000  0.96520000  1.0 -0.6301905607
O  O23  1  0.34020000  0.46133000  0.46520000  1.0 -0.6353784497
O  O24  1  0.65980000  0.96133000  0.03480000  1.0 -0.6301905607
O  O25  1  0.70010000  0.44745000  0.78000000  1.0 -0.6301905607
O  O26  1  0.29990000  0.94745000  0.72000000  1.0 -0.6301905607
O  O27  1  0.29990000  0.55255000  0.22000000  1.0 -0.6301905607
O  O28  1  0.70010000  0.05255000  0.28000000  1.0 -0.6301905607
O  O29  1  0.95320000  0.48314000  0.80730000  1.0 -0.6680463622
O  O30  1  0.04680000  0.98314000  0.69270000  1.0 -0.6680463622
O  O31  1  0.04680000  0.51686000  0.19270000  1.0 -0.6680463622
O  O32  1  0.95320000  0.01686000  0.30730000  1.0 -0.6680463622
O  O33  1  0.81970000  0.45530000  0.99950000  1.0 -0.6562388713
O  O34  1  0.18030000  0.95530000  0.50050000  1.0 -0.6562388713
O  O35  1  0.18030000  0.54470000  0.00050000  1.0 -0.6562388713
O  O36  1  0.81970000  0.04470000  0.49950000  1.0 -0.6562388713
O  O37  1  0.85560000  0.40801000  0.27590000  1.0 -0.61086446
O  O38  1  0.14440000  0.90801000  0.22410000  1.0 -0.61086446
O  O39  1  0.14440000  0.59199000  0.72410000  1.0 -0.61086446
O  O40  1  0.85560000  0.09199000  0.77590000  1.0 -0.61086446
O  O41  1  0.85850000  0.42681000  0.51120000  1.0 -0.5612281258
O  O42  1  0.14150000  0.92681000  0.98880000  1.0 -0.5612281258
O  O43  1  0.14150000  0.57319000  0.48880000  1.0 -0.5612281258
O  O44  1  0.85850000  0.07319000  0.01120000  1.0 -0.5612281258
O  O45  1  0.03960000  0.35771000  0.43150000  1.0 -0.6537327464
O  O46  1  0.96040000  0.85771000  0.06850000  1.0 -0.6562388713
O  O47  1  0.96040000  0.64229000  0.56850000  1.0 -0.6537327464
O  O48  1  0.03960000  0.14229000  0.93150000  1.0 -0.6537327464
