# DDEC6 charges by PACMAN v1.1 (https://github.com/mtap-research/PACMAN-charge/)
data_SEZYOO_FSR_pacman
_symmetry_space_group_name_H-M   'P 1'
_cell_length_a   14.26800000
_cell_length_b   14.26800000
_cell_length_c   6.97000000
_cell_angle_alpha   78.85060000
_cell_angle_beta   101.14900000
_cell_angle_gamma   124.90700000
_symmetry_Int_Tables_number   1
_chemical_formula_structural   AgH8C12(NO)2
_chemical_formula_sum   'Ag4 H32 C48 N8 O8'
_cell_volume   1135.62390192
_cell_formula_units_Z   4
loop_
 _symmetry_equiv_pos_site_id
 _symmetry_equiv_pos_as_xyz
  1  'x, y, z'
loop_
 _atom_site_type_symbol
 _atom_site_label
 _atom_site_symmetry_multiplicity
 _atom_site_fract_x
 _atom_site_fract_y
 _atom_site_fract_z
 _atom_site_occupancy
 _atom_site_charge
Ag  Ag1  1  0.38965000  0.46971000  0.89620000  1.0 0.375056398
Ag  Ag2  1  0.46971000  0.38965000  0.60380000  1.0 0.375056398
Ag  Ag3  1  0.61035000  0.53029000  0.10380000  1.0 0.375056398
Ag  Ag4  1  0.53029000  0.61035000  0.39620000  1.0 0.375056398
H  H1  1  0.50170000  0.82690000  0.65920000  1.0 0.1191936506
H  H2  1  0.77120000  0.15100000  0.54850000  1.0 0.1191936506
H  H3  1  0.89480000  0.09920000  0.68890000  1.0 0.1191936506
H  H4  1  0.82520000  0.90960000  0.82460000  1.0 0.1191936506
H  H5  1  0.32370000  0.63590000  0.63050000  1.0 0.1104588461
H  H6  1  0.17530000  0.65950000  0.50980000  1.0 0.1191936506
H  H7  1  0.95700000  0.32320000  0.61790000  1.0 0.1191936506
H  H8  1  0.10980000  0.31160000  0.75750000  1.0 0.1104588461
H  H9  1  0.82690000  0.50170000  0.84080000  1.0 0.1191936506
H  H10  1  0.15100000  0.77120000  0.95150000  1.0 0.1191936506
H  H11  1  0.09920000  0.89480000  0.81110000  1.0 0.1191936506
H  H12  1  0.90960000  0.82520000  0.67540000  1.0 0.1191936506
H  H13  1  0.63590000  0.32370000  0.86950000  1.0 0.1104588461
H  H14  1  0.65950000  0.17530000  0.99020000  1.0 0.1191936506
H  H15  1  0.32320000  0.95700000  0.88210000  1.0 0.1191936506
H  H16  1  0.31160000  0.10980000  0.74250000  1.0 0.1104588461
H  H17  1  0.49830000  0.17310000  0.34080000  1.0 0.1191936506
H  H18  1  0.22880000  0.84900000  0.45150000  1.0 0.1191936506
H  H19  1  0.10520000  0.90080000  0.31110000  1.0 0.1191936506
H  H20  1  0.17480000  0.09040000  0.17540000  1.0 0.1191936506
H  H21  1  0.67630000  0.36410000  0.36950000  1.0 0.1104588461
H  H22  1  0.82470000  0.34050000  0.49020000  1.0 0.1191936506
H  H23  1  0.04300000  0.67680000  0.38210000  1.0 0.1191936506
H  H24  1  0.89020000  0.68840000  0.24250000  1.0 0.1104588461
H  H25  1  0.17310000  0.49830000  0.15920000  1.0 0.1191936506
H  H26  1  0.84900000  0.22880000  0.04850000  1.0 0.1191936506
H  H27  1  0.90080000  0.10520000  0.18890000  1.0 0.1191936506
H  H28  1  0.09040000  0.17480000  0.32460000  1.0 0.1191936506
H  H29  1  0.36410000  0.67630000  0.13050000  1.0 0.1104588461
H  H30  1  0.34050000  0.82470000  0.00980000  1.0 0.1191936506
H  H31  1  0.67680000  0.04300000  0.11790000  1.0 0.1191936506
H  H32  1  0.68840000  0.89020000  0.25750000  1.0 0.1104588461
C  C1  1  0.60800000  0.72660000  0.84060000  1.0 0.5536343276
C  C2  1  0.65480000  0.84860000  0.75420000  1.0 -0.0071864893
C  C3  1  0.58060000  0.88120000  0.66740000  1.0 -0.1678578622
C  C4  1  0.62350000  0.99610000  0.59150000  1.0 0.1593596757
C  C5  1  0.74207000  0.07533000  0.60100000  1.0 -0.1678578622
C  C6  1  0.81600000  0.04460000  0.68500000  1.0 -0.1007491305
C  C7  1  0.77440000  0.93040000  0.76520000  1.0 -0.1136226348
C  C8  1  0.24840000  0.57240000  0.63700000  1.0 0.0869283796
C  C9  1  0.15910000  0.58650000  0.55600000  1.0 -0.1942958601
C  C10  1  0.04790000  0.49310000  0.54320000  1.0 0.1047662691
C  C11  1  0.03080000  0.38960000  0.62170000  1.0 -0.1942958601
C  C12  1  0.12400000  0.38340000  0.70740000  1.0 0.0833342418
C  C13  1  0.72660000  0.60800000  0.65940000  1.0 0.5536343276
C  C14  1  0.84860000  0.65480000  0.74580000  1.0 -0.0071864893
C  C15  1  0.88120000  0.58060000  0.83260000  1.0 -0.1678578622
C  C16  1  0.99610000  0.62350000  0.90850000  1.0 0.1593596757
C  C17  1  0.07533000  0.74207000  0.89900000  1.0 -0.1678578622
C  C18  1  0.04460000  0.81600000  0.81500000  1.0 -0.1007491305
C  C19  1  0.93040000  0.77440000  0.73480000  1.0 -0.1136226348
C  C20  1  0.57240000  0.24840000  0.86300000  1.0 0.0869283796
C  C21  1  0.58650000  0.15910000  0.94400000  1.0 -0.1942958601
C  C22  1  0.49310000  0.04790000  0.95680000  1.0 0.1047662691
C  C23  1  0.38960000  0.03080000  0.87830000  1.0 -0.1942958601
C  C24  1  0.38340000  0.12400000  0.79260000  1.0 0.0833342418
C  C25  1  0.39200000  0.27340000  0.15940000  1.0 0.5536343276
C  C26  1  0.34520000  0.15140000  0.24580000  1.0 -0.0071864893
C  C27  1  0.41940000  0.11880000  0.33260000  1.0 -0.1678578622
C  C28  1  0.37650000  0.00390000  0.40850000  1.0 0.1593596757
C  C29  1  0.25793000  0.92467000  0.39900000  1.0 -0.1678578622
C  C30  1  0.18400000  0.95540000  0.31500000  1.0 -0.1007491305
C  C31  1  0.22560000  0.06960000  0.23480000  1.0 -0.1136226348
C  C32  1  0.75160000  0.42760000  0.36300000  1.0 0.0869283796
C  C33  1  0.84090000  0.41350000  0.44400000  1.0 -0.1942958601
C  C34  1  0.95210000  0.50690000  0.45680000  1.0 0.1047662691
C  C35  1  0.96920000  0.61040000  0.37830000  1.0 -0.1942958601
C  C36  1  0.87600000  0.61660000  0.29260000  1.0 0.0833342418
C  C37  1  0.27340000  0.39200000  0.34060000  1.0 0.5536343276
C  C38  1  0.15140000  0.34520000  0.25420000  1.0 -0.0071864893
C  C39  1  0.11880000  0.41940000  0.16740000  1.0 -0.1678578622
C  C40  1  0.00390000  0.37650000  0.09150000  1.0 0.1593596757
C  C41  1  0.92467000  0.25793000  0.10100000  1.0 -0.1678578622
C  C42  1  0.95540000  0.18400000  0.18500000  1.0 -0.1007491305
C  C43  1  0.06960000  0.22560000  0.26520000  1.0 -0.1136226348
C  C44  1  0.42760000  0.75160000  0.13700000  1.0 0.0869283796
C  C45  1  0.41350000  0.84090000  0.05600000  1.0 -0.1942958601
C  C46  1  0.50690000  0.95210000  0.04320000  1.0 0.1047662691
C  C47  1  0.61040000  0.96920000  0.12170000  1.0 -0.1942958601
C  C48  1  0.61660000  0.87600000  0.20740000  1.0 0.0833342418
N  N1  1  0.55270000  0.03670000  0.50350000  1.0 -0.1345281891
N  N2  1  0.23110000  0.47330000  0.72180000  1.0 -0.1789355307
N  N3  1  0.03670000  0.55270000  0.99650000  1.0 -0.1345281891
N  N4  1  0.47330000  0.23110000  0.77820000  1.0 -0.1789355307
N  N5  1  0.44730000  0.96330000  0.49650000  1.0 -0.1345281891
N  N6  1  0.76890000  0.52670000  0.27820000  1.0 -0.1789355307
N  N7  1  0.96330000  0.44730000  0.00350000  1.0 -0.1345281891
N  N8  1  0.52670000  0.76890000  0.22180000  1.0 -0.1789355307
O  O1  1  0.50740000  0.65200000  0.77230000  1.0 -0.5369704544
O  O2  1  0.67200000  0.70900000  0.96870000  1.0 -0.5028590142
O  O3  1  0.65200000  0.50740000  0.72770000  1.0 -0.5369704544
O  O4  1  0.70900000  0.67200000  0.53130000  1.0 -0.5028590142
O  O5  1  0.49260000  0.34800000  0.22770000  1.0 -0.5369704544
O  O6  1  0.32800000  0.29100000  0.03130000  1.0 -0.5028590142
O  O7  1  0.34800000  0.49260000  0.27230000  1.0 -0.5369704544
O  O8  1  0.29100000  0.32800000  0.46870000  1.0 -0.5028590142
