# DDEC6 charges by PACMAN v1.1 (https://github.com/mtap-research/PACMAN-charge/)
data_SIBLAQ_FSR_pacman
_symmetry_space_group_name_H-M   'P 1'
_cell_length_a   9.81165000
_cell_length_b   9.81165000
_cell_length_c   10.25200000
_cell_angle_alpha   77.93780000
_cell_angle_beta   102.06200000
_cell_angle_gamma   128.42400000
_symmetry_Int_Tables_number   1
_chemical_formula_structural   Al2(PO4)3
_chemical_formula_sum   'Al4 P6 O24'
_cell_volume   752.09303227
_cell_formula_units_Z   2
loop_
 _symmetry_equiv_pos_site_id
 _symmetry_equiv_pos_as_xyz
  1  'x, y, z'
loop_
 _atom_site_type_symbol
 _atom_site_label
 _atom_site_symmetry_multiplicity
 _atom_site_fract_x
 _atom_site_fract_y
 _atom_site_fract_z
 _atom_site_occupancy
 _atom_site_charge
Al  Al1  1  0.32020000  0.97860000  0.31680000  1.0 1.6594414501
Al  Al2  1  0.97860000  0.32020000  0.18320000  1.0 1.6594414501
Al  Al3  1  0.67980000  0.02140000  0.68320000  1.0 1.6594414501
Al  Al4  1  0.02140000  0.67980000  0.81680000  1.0 1.6594414501
P  P1  1  0.10730000  0.68850000  0.11480000  1.0 1.3650923757
P  P2  1  0.68850000  0.10730000  0.38520000  1.0 1.3614671417
P  P3  1  0.89270000  0.31150000  0.88520000  1.0 1.3614671417
P  P4  1  0.31150000  0.89270000  0.61480000  1.0 1.3614671417
P  P5  1  0.26670000  0.26670000  0.25000000  1.0 1.2889531045
P  P6  1  0.73330000  0.73330000  0.75000000  1.0 1.2889531045
O  O1  1  0.24870000  0.85230000  0.18790000  1.0 -0.6513926597
O  O2  1  0.85230000  0.24870000  0.31210000  1.0 -0.6513926597
O  O3  1  0.75130000  0.14770000  0.81210000  1.0 -0.6513926597
O  O4  1  0.14770000  0.75130000  0.68790000  1.0 -0.6513926597
O  O5  1  0.13630000  0.54850000  0.17780000  1.0 -0.7172399225
O  O6  1  0.54850000  0.13630000  0.32220000  1.0 -0.7172399225
O  O7  1  0.86370000  0.45150000  0.82220000  1.0 -0.7172399225
O  O8  1  0.45150000  0.86370000  0.67780000  1.0 -0.7172399225
O  O9  1  0.22670000  0.08530000  0.28410000  1.0 -0.6779248925
O  O10  1  0.08530000  0.22670000  0.21590000  1.0 -0.6779248925
O  O11  1  0.77330000  0.91470000  0.71590000  1.0 -0.6779248925
O  O12  1  0.91470000  0.77330000  0.78410000  1.0 -0.6779248925
O  O13  1  0.92460000  0.62180000  0.11830000  1.0 -0.5139368983
O  O14  1  0.62180000  0.92460000  0.38170000  1.0 -0.5139368983
O  O15  1  0.07540000  0.37820000  0.88170000  1.0 -0.5139368983
O  O16  1  0.37820000  0.07540000  0.61830000  1.0 -0.5139368983
O  O17  1  0.15870000  0.73970000  0.96840000  1.0 -0.6870201738
O  O18  1  0.73970000  0.15870000  0.53160000  1.0 -0.6870201738
O  O19  1  0.84130000  0.26030000  0.03160000  1.0 -0.6870201738
O  O20  1  0.26030000  0.84130000  0.46840000  1.0 -0.6870201738
O  O21  1  0.37330000  0.36350000  0.13200000  1.0 -0.4187769057
O  O22  1  0.36350000  0.37330000  0.36800000  1.0 -0.4187769057
O  O23  1  0.62670000  0.63650000  0.86800000  1.0 -0.4187769057
O  O24  1  0.63650000  0.62670000  0.63200000  1.0 -0.4187769057
