# DDEC6 charges by PACMAN v1.1 (https://github.com/mtap-research/PACMAN-charge/)
data_SICCAK_FSR_pacman
_symmetry_space_group_name_H-M   'P 1'
_cell_length_a   15.98750000
_cell_length_b   15.98750000
_cell_length_c   25.45300000
_cell_angle_alpha   63.64480000
_cell_angle_beta   116.35500000
_cell_angle_gamma   135.94500000
_symmetry_Int_Tables_number   1
_chemical_formula_structural   CoH32C41(N2O)4
_chemical_formula_sum   'Co4 H128 C164 N32 O16'
_cell_volume   3971.32326188
_cell_formula_units_Z   4
loop_
 _symmetry_equiv_pos_site_id
 _symmetry_equiv_pos_as_xyz
  1  'x, y, z'
loop_
 _atom_site_type_symbol
 _atom_site_label
 _atom_site_symmetry_multiplicity
 _atom_site_fract_x
 _atom_site_fract_y
 _atom_site_fract_z
 _atom_site_occupancy
 _atom_site_charge
Co  Co1  1  0.78788000  0.27846000  0.03706000  1.0 0.7033700915
Co  Co2  1  0.27846000  0.78788000  0.46294000  1.0 0.7033700915
Co  Co3  1  0.21212000  0.72154000  0.96294000  1.0 0.7033700915
Co  Co4  1  0.72154000  0.21212000  0.53706000  1.0 0.7033700915
H  H1  1  0.69710000  0.33970000  0.89230000  1.0 0.1114918669
H  H2  1  0.33970000  0.69710000  0.60770000  1.0 0.1114918669
H  H3  1  0.30290000  0.66030000  0.10770000  1.0 0.1114918669
H  H4  1  0.66030000  0.30290000  0.39230000  1.0 0.1114918669
H  H5  1  0.76480000  0.11440000  0.97590000  1.0 0.1215022234
H  H6  1  0.11440000  0.76480000  0.52410000  1.0 0.1215022234
H  H7  1  0.23520000  0.88560000  0.02410000  1.0 0.1215022234
H  H8  1  0.88560000  0.23520000  0.47590000  1.0 0.1215022234
H  H9  1  0.72060000  0.12840000  0.86880000  1.0 0.1215022234
H  H10  1  0.12840000  0.72060000  0.63120000  1.0 0.1215022234
H  H11  1  0.27940000  0.87160000  0.13120000  1.0 0.1215022234
H  H12  1  0.87160000  0.27940000  0.36880000  1.0 0.1215022234
H  H13  1  0.56180000  0.30600000  0.79780000  1.0 0.1215022234
H  H14  1  0.30600000  0.56180000  0.70220000  1.0 0.1215022234
H  H15  1  0.43820000  0.69400000  0.20220000  1.0 0.1215022234
H  H16  1  0.69400000  0.43820000  0.29780000  1.0 0.1215022234
H  H17  1  0.50480000  0.35600000  0.69490000  1.0 0.1215022234
H  H18  1  0.35600000  0.50480000  0.80510000  1.0 0.1215022234
H  H19  1  0.49520000  0.64400000  0.30510000  1.0 0.1215022234
H  H20  1  0.64400000  0.49520000  0.19490000  1.0 0.1215022234
H  H21  1  0.71240000  0.32820000  0.66990000  1.0 0.1300766526
H  H22  1  0.32820000  0.71240000  0.83010000  1.0 0.1300766526
H  H23  1  0.28760000  0.67180000  0.33010000  1.0 0.1300766526
H  H24  1  0.67180000  0.28760000  0.16990000  1.0 0.1300766526
H  H25  1  0.76610000  0.27450000  0.77190000  1.0 0.1114918669
H  H26  1  0.27450000  0.76610000  0.72810000  1.0 0.1114918669
H  H27  1  0.23390000  0.72550000  0.22810000  1.0 0.1114918669
H  H28  1  0.72550000  0.23390000  0.27190000  1.0 0.1114918669
H  H29  1  0.63630000  0.57610000  0.59370000  1.0 0.1300766526
H  H30  1  0.57610000  0.63630000  0.90630000  1.0 0.1300766526
H  H31  1  0.36370000  0.42390000  0.40630000  1.0 0.1300766526
H  H32  1  0.42390000  0.36370000  0.09370000  1.0 0.1300766526
H  H33  1  0.52330000  0.64250000  0.54180000  1.0 0.1300766526
H  H34  1  0.64250000  0.52330000  0.95820000  1.0 0.1300766526
H  H35  1  0.47670000  0.35750000  0.45820000  1.0 0.1300766526
H  H36  1  0.35750000  0.47670000  0.04180000  1.0 0.1300766526
H  H37  1  0.21890000  0.29530000  0.52810000  1.0 0.1215022234
H  H38  1  0.29530000  0.21890000  0.97190000  1.0 0.1215022234
H  H39  1  0.78110000  0.70470000  0.47190000  1.0 0.1215022234
H  H40  1  0.70470000  0.78110000  0.02810000  1.0 0.1215022234
H  H41  1  0.33570000  0.23470000  0.57230000  1.0 0.1300766526
H  H42  1  0.23470000  0.33570000  0.92770000  1.0 0.1300766526
H  H43  1  0.66430000  0.76530000  0.42770000  1.0 0.1300766526
H  H44  1  0.76530000  0.66430000  0.07230000  1.0 0.1300766526
H  H45  1  0.38770000  0.65690000  0.53680000  1.0 0.1114918669
H  H46  1  0.65690000  0.38770000  0.96320000  1.0 0.1114918669
H  H47  1  0.61230000  0.34310000  0.46320000  1.0 0.1114918669
H  H48  1  0.34310000  0.61230000  0.03680000  1.0 0.1114918669
H  H49  1  0.09230000  0.52350000  0.41260000  1.0 0.1114918669
H  H50  1  0.52350000  0.09230000  0.08740000  1.0 0.1114918669
H  H51  1  0.90770000  0.47650000  0.58740000  1.0 0.1114918669
H  H52  1  0.47650000  0.90770000  0.91260000  1.0 0.1114918669
H  H53  1  0.14130000  0.39470000  0.44460000  1.0 0.1215022234
H  H54  1  0.39470000  0.14130000  0.05540000  1.0 0.1215022234
H  H55  1  0.85870000  0.60530000  0.55540000  1.0 0.1215022234
H  H56  1  0.60530000  0.85870000  0.94460000  1.0 0.1215022234
H  H57  1  0.84850000  0.47250000  0.08760000  1.0 0.1114918669
H  H58  1  0.47250000  0.84850000  0.41240000  1.0 0.1114918669
H  H59  1  0.15150000  0.52750000  0.91240000  1.0 0.1114918669
H  H60  1  0.52750000  0.15150000  0.58760000  1.0 0.1114918669
H  H61  1  0.93562000  0.26898000  0.18240000  1.0 0.1215022234
H  H62  1  0.26898000  0.93562000  0.31760000  1.0 0.1215022234
H  H63  1  0.06438000  0.73102000  0.81760000  1.0 0.1215022234
H  H64  1  0.73102000  0.06438000  0.68240000  1.0 0.1215022234
H  H65  1  0.02490000  0.40730000  0.24280000  1.0 0.1300766526
H  H66  1  0.40730000  0.02490000  0.25720000  1.0 0.1215022234
H  H67  1  0.97510000  0.59270000  0.75720000  1.0 0.1215022234
H  H68  1  0.59270000  0.97510000  0.74280000  1.0 0.1215022234
H  H69  1  0.99550000  0.49970000  0.27690000  1.0 0.1215022234
H  H70  1  0.49970000  0.99550000  0.22310000  1.0 0.1215022234
H  H71  1  0.00450000  0.50030000  0.72310000  1.0 0.1215022234
H  H72  1  0.50030000  0.00450000  0.77690000  1.0 0.1215022234
H  H73  1  0.03220000  0.64320000  0.30560000  1.0 0.1300766526
H  H74  1  0.64320000  0.03220000  0.19440000  1.0 0.1300766526
H  H75  1  0.96780000  0.35680000  0.69440000  1.0 0.1300766526
H  H76  1  0.35680000  0.96780000  0.80560000  1.0 0.1300766526
H  H77  1  0.01440000  0.81520000  0.13570000  1.0 0.1215022234
H  H78  1  0.81520000  0.01440000  0.36430000  1.0 0.1215022234
H  H79  1  0.98560000  0.18480000  0.86430000  1.0 0.1215022234
H  H80  1  0.18480000  0.98560000  0.63570000  1.0 0.1215022234
H  H81  1  0.97740000  0.67060000  0.10610000  1.0 0.1300766526
H  H82  1  0.67060000  0.97740000  0.39390000  1.0 0.1300766526
H  H83  1  0.02260000  0.32940000  0.89390000  1.0 0.1300766526
H  H84  1  0.32940000  0.02260000  0.60610000  1.0 0.1300766526
H  H85  1  0.70320000  0.76140000  0.18470000  1.0 0.0681075898
H  H86  1  0.76140000  0.70320000  0.31530000  1.0 0.0681075898
H  H87  1  0.29680000  0.23860000  0.81530000  1.0 0.0681075898
H  H88  1  0.23860000  0.29680000  0.68470000  1.0 0.0681075898
H  H89  1  0.82150000  0.70130000  0.23300000  1.0 0.0681075898
H  H90  1  0.70130000  0.82150000  0.26700000  1.0 0.0681075898
H  H91  1  0.17850000  0.29870000  0.76700000  1.0 0.0681075898
H  H92  1  0.29870000  0.17850000  0.73300000  1.0 0.0681075898
H  H93  1  0.91010000  0.16230000  0.11560000  1.0 0.0966424337
H  H94  1  0.16230000  0.91010000  0.38440000  1.0 0.0966424337
H  H95  1  0.08990000  0.83770000  0.88440000  1.0 0.0966424337
H  H96  1  0.83770000  0.08990000  0.61560000  1.0 0.0966424337
H  H97  1  0.55480000  0.96640000  0.06840000  1.0 0.1114918669
H  H98  1  0.96640000  0.55480000  0.43160000  1.0 0.1114918669
H  H99  1  0.44520000  0.03360000  0.93160000  1.0 0.1114918669
H  H100  1  0.03360000  0.44520000  0.56840000  1.0 0.1114918669
H  H101  1  0.59600000  0.82440000  0.11800000  1.0 0.0966424337
H  H102  1  0.82440000  0.59600000  0.38200000  1.0 0.0966424337
H  H103  1  0.40400000  0.17560000  0.88200000  1.0 0.0966424337
H  H104  1  0.17560000  0.40400000  0.61800000  1.0 0.0966424337
H  H105  1  0.11260000  0.02680000  0.17890000  1.0 0.0804009041
H  H106  1  0.02680000  0.11260000  0.32110000  1.0 0.0804009041
H  H107  1  0.88740000  0.97320000  0.82110000  1.0 0.0804009041
H  H108  1  0.97320000  0.88740000  0.67890000  1.0 0.0804009041
H  H109  1  0.99750000  0.08930000  0.12230000  1.0 0.1114918669
H  H110  1  0.08930000  0.99750000  0.37770000  1.0 0.1114918669
H  H111  1  0.00250000  0.91070000  0.87770000  1.0 0.1114918669
H  H112  1  0.91070000  0.00250000  0.62230000  1.0 0.1114918669
H  H113  1  0.12710000  0.03910000  0.22660000  1.0 0.0804009041
H  H114  1  0.03910000  0.12710000  0.27340000  1.0 0.0804009041
H  H115  1  0.87290000  0.96090000  0.77340000  1.0 0.0804009041
H  H116  1  0.96090000  0.87290000  0.72660000  1.0 0.0804009041
H  H117  1  0.00660000  0.09820000  0.18280000  1.0 0.0966424337
H  H118  1  0.09820000  0.00660000  0.31720000  1.0 0.0966424337
H  H119  1  0.99340000  0.90180000  0.81720000  1.0 0.0966424337
H  H120  1  0.90180000  0.99340000  0.68280000  1.0 0.0966424337
H  H121  1  0.82880000  0.70680000  0.18940000  1.0 0.0681075898
H  H122  1  0.70680000  0.82880000  0.31060000  1.0 0.0681075898
H  H123  1  0.17120000  0.29320000  0.81060000  1.0 0.0681075898
H  H124  1  0.29320000  0.17120000  0.68940000  1.0 0.0681075898
H  H125  1  0.71370000  0.77070000  0.14500000  1.0 0.0804009041
H  H126  1  0.77070000  0.71370000  0.35500000  1.0 0.0804009041
H  H127  1  0.28630000  0.22930000  0.85500000  1.0 0.0804009041
H  H128  1  0.22930000  0.28630000  0.64500000  1.0 0.0804009041
C  C1  1  0.70819000  0.28521000  0.90010000  1.0 0.0925314845
C  C2  1  0.28521000  0.70819000  0.59990000  1.0 0.0925314845
C  C3  1  0.29181000  0.71479000  0.09990000  1.0 0.0925314845
C  C4  1  0.71479000  0.29181000  0.40010000  1.0 0.0925314845
C  C5  1  0.74515000  0.16125000  0.94570000  1.0 -0.0327749914
C  C6  1  0.16125000  0.74515000  0.55430000  1.0 -0.0327749914
C  C7  1  0.25485000  0.83875000  0.05430000  1.0 -0.0327749914
C  C8  1  0.83875000  0.25485000  0.44570000  1.0 -0.0327749914
C  C9  1  0.72134000  0.16886000  0.88650000  1.0 -0.1205892591
C  C10  1  0.16886000  0.72134000  0.61350000  1.0 -0.1205892591
C  C11  1  0.27866000  0.83114000  0.11350000  1.0 -0.1205892591
C  C12  1  0.83114000  0.27866000  0.38650000  1.0 -0.1205892591
C  C13  1  0.66684000  0.28496000  0.79411000  1.0 0.1300766526
C  C14  1  0.28496000  0.66684000  0.70589000  1.0 0.1300766526
C  C15  1  0.33316000  0.71504000  0.20589000  1.0 0.1300766526
C  C16  1  0.71504000  0.33316000  0.29411000  1.0 0.1300766526
C  C17  1  0.59128000  0.30932000  0.77200000  1.0 -0.171943726
C  C18  1  0.30932000  0.59128000  0.72800000  1.0 -0.171943726
C  C19  1  0.40872000  0.69068000  0.22800000  1.0 -0.171943726
C  C20  1  0.69068000  0.40872000  0.27200000  1.0 -0.171943726
C  C21  1  0.55755000  0.33965000  0.71040000  1.0 -0.2168443231
C  C22  1  0.33965000  0.55755000  0.78960000  1.0 -0.2168443231
C  C23  1  0.44245000  0.66035000  0.28960000  1.0 -0.2168443231
C  C24  1  0.66035000  0.44245000  0.21040000  1.0 -0.2168443231
C  C25  1  0.60223000  0.34537000  0.67265000  1.0 0.2400751235
C  C26  1  0.34537000  0.60223000  0.82735000  1.0 0.2400751235
C  C27  1  0.39777000  0.65463000  0.32735000  1.0 0.2400751235
C  C28  1  0.65463000  0.39777000  0.17265000  1.0 0.2400751235
C  C29  1  0.68089000  0.32251000  0.69560000  1.0 -0.1911165854
C  C30  1  0.32251000  0.68089000  0.80440000  1.0 -0.1911165854
C  C31  1  0.31911000  0.67749000  0.30440000  1.0 -0.1911165854
C  C32  1  0.67749000  0.31911000  0.19560000  1.0 -0.1911165854
C  C33  1  0.71360000  0.29120000  0.75630000  1.0 -0.171943726
C  C34  1  0.29120000  0.71360000  0.74370000  1.0 -0.171943726
C  C35  1  0.28640000  0.70880000  0.24370000  1.0 -0.171943726
C  C36  1  0.70880000  0.28640000  0.25630000  1.0 -0.171943726
C  C37  1  0.49562000  0.39938000  0.58660000  1.0 0.2182496162
C  C38  1  0.39938000  0.49562000  0.91340000  1.0 0.2182496162
C  C39  1  0.50438000  0.60062000  0.41340000  1.0 0.2182496162
C  C40  1  0.60062000  0.50438000  0.08660000  1.0 0.2182496162
C  C41  1  0.55250000  0.52030000  0.57900000  1.0 -0.1911165854
C  C42  1  0.52030000  0.55250000  0.92100000  1.0 -0.1911165854
C  C43  1  0.44750000  0.47970000  0.42100000  1.0 -0.1911165854
C  C44  1  0.47970000  0.44750000  0.07900000  1.0 -0.1911165854
C  C45  1  0.48497000  0.56023000  0.54930000  1.0 -0.171943726
C  C46  1  0.56023000  0.48497000  0.95070000  1.0 -0.171943726
C  C47  1  0.51503000  0.43977000  0.45070000  1.0 -0.171943726
C  C48  1  0.43977000  0.51503000  0.04930000  1.0 -0.171943726
C  C49  1  0.36000000  0.47260000  0.53170000  1.0 0.1362533802
C  C50  1  0.47260000  0.36000000  0.96830000  1.0 0.1362533802
C  C51  1  0.64000000  0.52740000  0.46830000  1.0 0.1362533802
C  C52  1  0.52740000  0.64000000  0.03170000  1.0 0.1362533802
C  C53  1  0.30367000  0.35273000  0.54030000  1.0 -0.1911165854
C  C54  1  0.35273000  0.30367000  0.95970000  1.0 -0.1911165854
C  C55  1  0.69633000  0.64727000  0.45970000  1.0 -0.1911165854
C  C56  1  0.64727000  0.69633000  0.04030000  1.0 -0.1911165854
C  C57  1  0.37333000  0.31587000  0.56750000  1.0 -0.1911165854
C  C58  1  0.31587000  0.37333000  0.93250000  1.0 -0.1911165854
C  C59  1  0.62667000  0.68413000  0.43250000  1.0 -0.1911165854
C  C60  1  0.68413000  0.62667000  0.06750000  1.0 -0.1911165854
C  C61  1  0.32033000  0.60847000  0.50930000  1.0 0.0966424337
C  C62  1  0.60847000  0.32033000  0.99070000  1.0 0.0966424337
C  C63  1  0.67967000  0.39153000  0.49070000  1.0 0.0966424337
C  C64  1  0.39153000  0.67967000  0.00930000  1.0 0.0966424337
C  C65  1  0.15906000  0.53494000  0.44200000  1.0 -0.0506539801
C  C66  1  0.53494000  0.15906000  0.05800000  1.0 -0.0506539801
C  C67  1  0.84094000  0.46506000  0.55800000  1.0 -0.0506539801
C  C68  1  0.46506000  0.84094000  0.94200000  1.0 -0.0506539801
C  C69  1  0.18575000  0.46405000  0.45890000  1.0 -0.1012202874
C  C70  1  0.46405000  0.18575000  0.04110000  1.0 -0.1012202874
C  C71  1  0.81425000  0.53595000  0.54110000  1.0 -0.1012202874
C  C72  1  0.53595000  0.81425000  0.95890000  1.0 -0.1012202874
C  C73  1  0.88214000  0.43886000  0.11873000  1.0 0.1114918669
C  C74  1  0.43886000  0.88214000  0.38127000  1.0 0.1114918669
C  C75  1  0.11786000  0.56114000  0.88127000  1.0 0.1114918669
C  C76  1  0.56114000  0.11786000  0.61873000  1.0 0.1114918669
C  C77  1  0.92911000  0.32849000  0.17030000  1.0 -0.0208710777
C  C78  1  0.32849000  0.92911000  0.32970000  1.0 -0.0208710777
C  C79  1  0.07089000  0.67151000  0.82970000  1.0 -0.0208710777
C  C80  1  0.67151000  0.07089000  0.67030000  1.0 -0.0208710777
C  C81  1  0.97901000  0.40459000  0.20400000  1.0 -0.1012202874
C  C82  1  0.40459000  0.97901000  0.29600000  1.0 -0.1012202874
C  C83  1  0.02099000  0.59541000  0.79600000  1.0 -0.1012202874
C  C84  1  0.59541000  0.02099000  0.70400000  1.0 -0.1012202874
C  C85  1  0.97705000  0.56835000  0.18826000  1.0 0.1300766526
C  C86  1  0.56835000  0.97705000  0.31174000  1.0 0.1300766526
C  C87  1  0.02295000  0.43165000  0.81174000  1.0 0.1300766526
C  C88  1  0.43165000  0.02295000  0.68826000  1.0 0.1300766526
C  C89  1  0.99713000  0.56227000  0.24812000  1.0 -0.171943726
C  C90  1  0.56227000  0.99713000  0.25188000  1.0 -0.171943726
C  C91  1  0.00287000  0.43773000  0.75188000  1.0 -0.171943726
C  C92  1  0.43773000  0.00287000  0.74812000  1.0 -0.171943726
C  C93  1  0.01958000  0.64802000  0.26540000  1.0 -0.1783944173
C  C94  1  0.64802000  0.01958000  0.23460000  1.0 -0.1783944173
C  C95  1  0.98042000  0.35198000  0.73460000  1.0 -0.1783944173
C  C96  1  0.35198000  0.98042000  0.76540000  1.0 -0.1783944173
C  C97  1  0.02312000  0.73988000  0.22300000  1.0 0.1986594917
C  C98  1  0.73988000  0.02312000  0.27700000  1.0 0.1986594917
C  C99  1  0.97688000  0.26012000  0.77700000  1.0 0.1986594917
C  C100  1  0.26012000  0.97688000  0.72300000  1.0 0.1986594917
C  C101  1  0.00888000  0.75032000  0.16400000  1.0 -0.206892687
C  C102  1  0.75032000  0.00888000  0.33600000  1.0 -0.206892687
C  C103  1  0.99112000  0.24968000  0.83600000  1.0 -0.206892687
C  C104  1  0.24968000  0.99112000  0.66400000  1.0 -0.206892687
C  C105  1  0.98613000  0.66347000  0.14610000  1.0 -0.1783944173
C  C106  1  0.66347000  0.98613000  0.35390000  1.0 -0.1783944173
C  C107  1  0.01387000  0.33653000  0.85390000  1.0 -0.1783944173
C  C108  1  0.33653000  0.01387000  0.64610000  1.0 -0.1783944173
C  C109  1  0.98088000  0.86372000  0.21000000  1.0 0.0804009041
C  C110  1  0.86372000  0.98088000  0.29000000  1.0 0.0804009041
C  C111  1  0.01912000  0.13628000  0.79000000  1.0 0.0804009041
C  C112  1  0.13628000  0.01912000  0.71000000  1.0 0.0804009041
C  C113  1  0.84800000  0.93880000  0.15486000  1.0 0.0557308197
C  C114  1  0.93880000  0.84800000  0.34514000  1.0 0.0557308197
C  C115  1  0.15200000  0.06120000  0.84514000  1.0 0.0557308197
C  C116  1  0.06120000  0.15200000  0.65486000  1.0 0.0557308197
C  C117  1  0.78630000  0.81630000  0.18400000  1.0 -0.0506539801
C  C118  1  0.81630000  0.78630000  0.31600000  1.0 -0.0506539801
C  C119  1  0.21370000  0.18370000  0.81600000  1.0 -0.0506539801
C  C120  1  0.18370000  0.21370000  0.68400000  1.0 -0.0506539801
C  C121  1  0.85760000  0.78160000  0.21220000  1.0 -0.0574463261
C  C122  1  0.78160000  0.85760000  0.28780000  1.0 -0.0574463261
C  C123  1  0.14240000  0.21840000  0.78780000  1.0 -0.0574463261
C  C124  1  0.21840000  0.14240000  0.71220000  1.0 -0.0574463261
C  C125  1  0.82624000  0.09576000  0.10950000  1.0 0.1215022234
C  C126  1  0.09576000  0.82624000  0.39050000  1.0 0.1215022234
C  C127  1  0.17376000  0.90424000  0.89050000  1.0 0.1215022234
C  C128  1  0.90424000  0.17376000  0.60950000  1.0 0.1215022234
C  C129  1  0.63206000  0.98894000  0.08390000  1.0 -0.0506539801
C  C130  1  0.98894000  0.63206000  0.41610000  1.0 -0.0506539801
C  C131  1  0.36794000  0.01106000  0.91610000  1.0 -0.0506539801
C  C132  1  0.01106000  0.36794000  0.58390000  1.0 -0.0506539801
C  C133  1  0.65453000  0.90967000  0.11120000  1.0 -0.1474527298
C  C134  1  0.90967000  0.65453000  0.38880000  1.0 -0.1474527298
C  C135  1  0.34547000  0.09033000  0.88880000  1.0 -0.1474527298
C  C136  1  0.09033000  0.34547000  0.61120000  1.0 -0.1474527298
C  C137  1  0.96924000  0.52816000  0.98451000  1.0 0.4431536319
C  C138  1  0.52816000  0.96924000  0.51549000  1.0 0.4431536319
C  C139  1  0.03076000  0.47184000  0.01549000  1.0 0.4431536319
C  C140  1  0.47184000  0.03076000  0.48451000  1.0 0.4431536319
C  C141  1  0.02980000  0.97220000  0.17990000  1.0 -0.0506539801
C  C142  1  0.97220000  0.02980000  0.32010000  1.0 -0.0506539801
C  C143  1  0.97020000  0.02780000  0.82010000  1.0 -0.0506539801
C  C144  1  0.02780000  0.97020000  0.67990000  1.0 -0.0506539801
C  C145  1  0.96250000  0.01270000  0.14780000  1.0 -0.0780231673
C  C146  1  0.01270000  0.96250000  0.35220000  1.0 -0.0780231673
C  C147  1  0.03750000  0.98730000  0.85220000  1.0 -0.0780231673
C  C148  1  0.98730000  0.03750000  0.64780000  1.0 -0.0780231673
C  C149  1  0.04400000  0.98560000  0.20990000  1.0 -0.0780231673
C  C150  1  0.98560000  0.04400000  0.29010000  1.0 -0.0736760004
C  C151  1  0.95600000  0.01440000  0.79010000  1.0 -0.0736760004
C  C152  1  0.01440000  0.95600000  0.70990000  1.0 -0.0780231673
C  C153  1  0.97200000  0.02040000  0.18250000  1.0 -0.0736760004
C  C154  1  0.02040000  0.97200000  0.31750000  1.0 -0.0780231673
C  C155  1  0.02800000  0.97960000  0.81750000  1.0 -0.0780231673
C  C156  1  0.97960000  0.02800000  0.68250000  1.0 -0.0736760004
C  C157  1  0.86610000  0.78670000  0.18760000  1.0 -0.0393852247
C  C158  1  0.78670000  0.86610000  0.31240000  1.0 -0.0393852247
C  C159  1  0.13390000  0.21330000  0.81240000  1.0 -0.0393852247
C  C160  1  0.21330000  0.13390000  0.68760000  1.0 -0.0393852247
C  C161  1  0.79730000  0.82670000  0.15990000  1.0 -0.0393852247
C  C162  1  0.82670000  0.79730000  0.34010000  1.0 -0.0393852247
C  C163  1  0.20270000  0.17330000  0.84010000  1.0 -0.0393852247
C  C164  1  0.17330000  0.20270000  0.65990000  1.0 -0.0393852247
N  N1  1  0.73587000  0.23353000  0.95482000  1.0 -0.2878456293
N  N2  1  0.23353000  0.73587000  0.54518000  1.0 -0.2878456293
N  N3  1  0.26413000  0.76647000  0.04518000  1.0 -0.2878456293
N  N4  1  0.76647000  0.26413000  0.45482000  1.0 -0.2878456293
N  N5  1  0.69837000  0.24923000  0.85757000  1.0 0.0019954305
N  N6  1  0.24923000  0.69837000  0.64243000  1.0 0.0019954305
N  N7  1  0.30163000  0.75077000  0.14243000  1.0 0.0019954305
N  N8  1  0.75077000  0.30163000  0.35757000  1.0 0.0019954305
N  N9  1  0.29143000  0.51257000  0.50162000  1.0 0.0056014443
N  N10  1  0.51257000  0.29143000  0.99838000  1.0 0.0056014443
N  N11  1  0.70857000  0.48743000  0.49838000  1.0 0.0056014443
N  N12  1  0.48743000  0.70857000  0.00162000  1.0 0.0056014443
N  N13  1  0.24276000  0.62724000  0.47351000  1.0 -0.2878456293
N  N14  1  0.62724000  0.24276000  0.02649000  1.0 -0.2878456293
N  N15  1  0.75724000  0.37276000  0.52649000  1.0 -0.2878456293
N  N16  1  0.37276000  0.75724000  0.97351000  1.0 -0.2878456293
N  N17  1  0.86791000  0.34869000  0.11644000  1.0 -0.282397884
N  N18  1  0.34869000  0.86791000  0.38356000  1.0 -0.282397884
N  N19  1  0.13209000  0.65131000  0.88356000  1.0 -0.282397884
N  N20  1  0.65131000  0.13209000  0.61644000  1.0 -0.282397884
N  N21  1  0.95025000  0.47695000  0.17080000  1.0 0.0019954305
N  N22  1  0.47695000  0.95025000  0.32920000  1.0 0.0019954305
N  N23  1  0.04975000  0.52305000  0.82920000  1.0 0.0019954305
N  N24  1  0.52305000  0.04975000  0.67080000  1.0 0.0019954305
N  N25  1  0.77989000  0.97991000  0.12667000  1.0 -0.206892687
N  N26  1  0.97991000  0.77989000  0.37333000  1.0 -0.206892687
N  N27  1  0.22011000  0.02009000  0.87333000  1.0 -0.206892687
N  N28  1  0.02009000  0.22011000  0.62667000  1.0 -0.206892687
N  N29  1  0.74236000  0.10744000  0.08310000  1.0 -0.282397884
N  N30  1  0.10744000  0.74236000  0.41690000  1.0 -0.282397884
N  N31  1  0.25764000  0.89256000  0.91690000  1.0 -0.282397884
N  N32  1  0.89256000  0.25764000  0.58310000  1.0 -0.282397884
O  O1  1  0.56784000  0.36736000  0.61143000  1.0 -0.2342258646
O  O2  1  0.36736000  0.56784000  0.88857000  1.0 -0.2342258646
O  O3  1  0.43216000  0.63264000  0.38857000  1.0 -0.2342258646
O  O4  1  0.63264000  0.43216000  0.11143000  1.0 -0.2342258646
O  O5  1  0.05107000  0.82813000  0.24219000  1.0 -0.3873198507
O  O6  1  0.82813000  0.05107000  0.25781000  1.0 -0.3873198507
O  O7  1  0.94893000  0.17187000  0.75781000  1.0 -0.3873198507
O  O8  1  0.17187000  0.94893000  0.74219000  1.0 -0.3873198507
O  O9  1  0.86129000  0.46031000  0.98722000  1.0 -0.4960638164
O  O10  1  0.46031000  0.86129000  0.51278000  1.0 -0.4960638164
O  O11  1  0.13871000  0.53969000  0.01278000  1.0 -0.4960638164
O  O12  1  0.53969000  0.13871000  0.48722000  1.0 -0.4960638164
O  O13  1  0.03203000  0.64037000  0.95903000  1.0 -0.4908882855
O  O14  1  0.64037000  0.03203000  0.54097000  1.0 -0.4908882855
O  O15  1  0.96797000  0.35963000  0.04097000  1.0 -0.4908882855
O  O16  1  0.35963000  0.96797000  0.45903000  1.0 -0.4908882855
