# DDEC6 charges by PACMAN v1.1 (https://github.com/mtap-research/PACMAN-charge/)
data_SIDNAY_ASR_pacman
_symmetry_space_group_name_H-M   'P 1'
_cell_length_a   15.06840000
_cell_length_b   15.06840000
_cell_length_c   14.49100000
_cell_angle_alpha   76.78920000
_cell_angle_beta   103.21100000
_cell_angle_gamma   58.49370000
_symmetry_Int_Tables_number   1
_chemical_formula_structural   CoH13C19(NO)3
_chemical_formula_sum   'Co4 H52 C76 N12 O12'
_cell_volume   2479.41873847
_cell_formula_units_Z   4
loop_
 _symmetry_equiv_pos_site_id
 _symmetry_equiv_pos_as_xyz
  1  'x, y, z'
loop_
 _atom_site_type_symbol
 _atom_site_label
 _atom_site_symmetry_multiplicity
 _atom_site_fract_x
 _atom_site_fract_y
 _atom_site_fract_z
 _atom_site_occupancy
 _atom_site_charge
Co  Co1  1  0.92160000  0.92160000  0.75000000  1.0 0.7736959977
Co  Co2  1  0.07840000  0.07840000  0.25000000  1.0 0.7736959977
Co  Co3  1  0.00000000  0.00000000  0.50000000  1.0 0.9105285032
Co  Co4  1  0.00000000  0.00000000  0.00000000  1.0 0.9105285032
H  H1  1  0.02180000  0.77900000  0.32620000  1.0 0.1286444364
H  H2  1  0.02270000  0.61950000  0.36600000  1.0 0.1086665167
H  H3  1  0.93680000  0.67340000  0.60500000  1.0 0.1286444364
H  H4  1  0.82560000  0.26480000  0.39130000  1.0 0.1003153667
H  H5  1  0.64460000  0.41340000  0.26220000  1.0 0.1286444364
H  H6  1  0.58410000  0.18530000  0.24490000  1.0 0.1286444364
H  H7  1  0.76770000  0.03990000  0.37710000  1.0 0.1086665167
H  H8  1  0.47220000  0.49260000  0.12610000  1.0 0.1220855986
H  H9  1  0.02690000  0.67210000  0.89830000  1.0 0.1220855986
H  H10  1  0.19580000  0.51020000  0.02710000  1.0 0.1286444364
H  H11  1  0.35580000  0.64060000  0.96790000  1.0 0.1286444364
H  H12  1  0.18080000  0.81020000  0.83970000  1.0 0.1086665167
H  H13  1  0.40260000  0.36940000  0.11460000  1.0 0.1405106371
H  H14  1  0.77900000  0.02180000  0.17380000  1.0 0.1286444364
H  H15  1  0.61950000  0.02270000  0.13400000  1.0 0.1086665167
H  H16  1  0.67340000  0.93680000  0.89500000  1.0 0.1286444364
H  H17  1  0.26480000  0.82560000  0.10870000  1.0 0.1003153667
H  H18  1  0.41340000  0.64460000  0.23780000  1.0 0.1286444364
H  H19  1  0.18530000  0.58410000  0.25510000  1.0 0.1286444364
H  H20  1  0.03990000  0.76770000  0.12290000  1.0 0.1086665167
H  H21  1  0.49260000  0.47220000  0.37390000  1.0 0.1220855986
H  H22  1  0.67210000  0.02690000  0.60170000  1.0 0.1220855986
H  H23  1  0.51020000  0.19580000  0.47290000  1.0 0.1286444364
H  H24  1  0.64060000  0.35580000  0.53210000  1.0 0.1286444364
H  H25  1  0.81020000  0.18080000  0.66030000  1.0 0.1086665167
H  H26  1  0.36940000  0.40260000  0.38540000  1.0 0.1405106371
H  H27  1  0.97820000  0.22100000  0.67380000  1.0 0.1286444364
H  H28  1  0.97730000  0.38050000  0.63400000  1.0 0.1086665167
H  H29  1  0.06320000  0.32660000  0.39500000  1.0 0.1286444364
H  H30  1  0.17440000  0.73520000  0.60870000  1.0 0.1003153667
H  H31  1  0.35540000  0.58660000  0.73780000  1.0 0.1286444364
H  H32  1  0.41590000  0.81470000  0.75510000  1.0 0.1286444364
H  H33  1  0.23230000  0.96010000  0.62290000  1.0 0.1086665167
H  H34  1  0.52780000  0.50740000  0.87390000  1.0 0.1220855986
H  H35  1  0.97310000  0.32790000  0.10170000  1.0 0.1220855986
H  H36  1  0.80420000  0.48980000  0.97290000  1.0 0.1286444364
H  H37  1  0.64420000  0.35940000  0.03210000  1.0 0.1286444364
H  H38  1  0.81920000  0.18980000  0.16030000  1.0 0.1086665167
H  H39  1  0.59740000  0.63060000  0.88540000  1.0 0.1405106371
H  H40  1  0.22100000  0.97820000  0.82620000  1.0 0.1286444364
H  H41  1  0.38050000  0.97730000  0.86600000  1.0 0.1086665167
H  H42  1  0.32660000  0.06320000  0.10500000  1.0 0.1286444364
H  H43  1  0.73520000  0.17440000  0.89130000  1.0 0.1003153667
H  H44  1  0.58660000  0.35540000  0.76220000  1.0 0.1286444364
H  H45  1  0.81470000  0.41590000  0.74490000  1.0 0.1286444364
H  H46  1  0.96010000  0.23230000  0.87710000  1.0 0.1086665167
H  H47  1  0.50740000  0.52780000  0.62610000  1.0 0.1220855986
H  H48  1  0.32790000  0.97310000  0.39830000  1.0 0.1220855986
H  H49  1  0.48980000  0.80420000  0.52710000  1.0 0.1286444364
H  H50  1  0.35940000  0.64420000  0.46790000  1.0 0.1286444364
H  H51  1  0.18980000  0.81920000  0.33970000  1.0 0.1086665167
H  H52  1  0.63060000  0.59740000  0.61460000  1.0 0.1405106371
C  C1  1  0.93509000  0.84869000  0.60020000  1.0 0.5586314721
C  C2  1  0.95807000  0.78947000  0.52970000  1.0 -0.1818970518
C  C3  1  0.98679000  0.82039000  0.44560000  1.0 0.3260819538
C  C4  1  0.00725000  0.75665000  0.38430000  1.0 -0.226107253
C  C5  1  0.00668000  0.66188000  0.40720000  1.0 -0.1419497395
C  C6  1  0.98248000  0.62928000  0.49110000  1.0 0.1554158402
C  C7  1  0.95621000  0.69401000  0.55010000  1.0 -0.1508132296
C  C8  1  0.77677000  0.24757000  0.36120000  1.0 0.0945717449
C  C9  1  0.66820000  0.33720000  0.28350000  1.0 -0.226107253
C  C10  1  0.59300000  0.31720000  0.23620000  1.0 0.1220855986
C  C11  1  0.63230000  0.20390000  0.27330000  1.0 -0.2202693275
C  C12  1  0.74313000  0.11653000  0.35280000  1.0 0.1003153667
C  C13  1  0.47790000  0.42450000  0.14530000  1.0 -0.1110291911
C  C14  1  0.09400000  0.66800000  0.91180000  1.0 0.1086665167
C  C15  1  0.19650000  0.56970000  0.98840000  1.0 -0.2202693275
C  C16  1  0.29620000  0.55200000  0.01240000  1.0 0.1220855986
C  C17  1  0.28810000  0.64570000  0.95460000  1.0 -0.2361725347
C  C18  1  0.18280000  0.74800000  0.87700000  1.0 0.1086665167
C  C19  1  0.40300000  0.43400000  0.10020000  1.0 -0.1021146664
C  C20  1  0.84869000  0.93509000  0.89980000  1.0 0.5586314721
C  C21  1  0.78947000  0.95807000  0.97030000  1.0 -0.1818970518
C  C22  1  0.82039000  0.98679000  0.05440000  1.0 0.3260819538
C  C23  1  0.75665000  0.00725000  0.11570000  1.0 -0.226107253
C  C24  1  0.66188000  0.00668000  0.09280000  1.0 -0.1419497395
C  C25  1  0.62928000  0.98248000  0.00890000  1.0 0.1554158402
C  C26  1  0.69401000  0.95621000  0.94990000  1.0 -0.1508132296
C  C27  1  0.24757000  0.77677000  0.13880000  1.0 0.0945717449
C  C28  1  0.33720000  0.66820000  0.21650000  1.0 -0.226107253
C  C29  1  0.31720000  0.59300000  0.26380000  1.0 0.1220855986
C  C30  1  0.20390000  0.63230000  0.22670000  1.0 -0.2202693275
C  C31  1  0.11653000  0.74313000  0.14720000  1.0 0.1003153667
C  C32  1  0.42450000  0.47790000  0.35470000  1.0 -0.1110291911
C  C33  1  0.66800000  0.09400000  0.58820000  1.0 0.1086665167
C  C34  1  0.56970000  0.19650000  0.51160000  1.0 -0.2202693275
C  C35  1  0.55200000  0.29620000  0.48760000  1.0 0.1220855986
C  C36  1  0.64570000  0.28810000  0.54540000  1.0 -0.2361725347
C  C37  1  0.74800000  0.18280000  0.62300000  1.0 0.1086665167
C  C38  1  0.43400000  0.40300000  0.39980000  1.0 -0.1021146664
C  C39  1  0.06491000  0.15131000  0.39980000  1.0 0.5586314721
C  C40  1  0.04193000  0.21053000  0.47030000  1.0 -0.1818970518
C  C41  1  0.01321000  0.17961000  0.55440000  1.0 0.3260819538
C  C42  1  0.99275000  0.24335000  0.61570000  1.0 -0.226107253
C  C43  1  0.99332000  0.33812000  0.59280000  1.0 -0.1419497395
C  C44  1  0.01752000  0.37072000  0.50890000  1.0 0.1554158402
C  C45  1  0.04379000  0.30599000  0.44990000  1.0 -0.1508132296
C  C46  1  0.22323000  0.75243000  0.63880000  1.0 0.0945717449
C  C47  1  0.33180000  0.66280000  0.71650000  1.0 -0.226107253
C  C48  1  0.40700000  0.68280000  0.76380000  1.0 0.1220855986
C  C49  1  0.36770000  0.79610000  0.72670000  1.0 -0.2202693275
C  C50  1  0.25687000  0.88347000  0.64720000  1.0 0.1003153667
C  C51  1  0.52210000  0.57550000  0.85470000  1.0 -0.1110291911
C  C52  1  0.90600000  0.33200000  0.08820000  1.0 0.1086665167
C  C53  1  0.80350000  0.43030000  0.01160000  1.0 -0.2202693275
C  C54  1  0.70380000  0.44800000  0.98760000  1.0 0.1220855986
C  C55  1  0.71190000  0.35430000  0.04540000  1.0 -0.2361725347
C  C56  1  0.81720000  0.25200000  0.12300000  1.0 0.1086665167
C  C57  1  0.59700000  0.56600000  0.89980000  1.0 -0.1021146664
C  C58  1  0.15131000  0.06491000  0.10020000  1.0 0.5586314721
C  C59  1  0.21053000  0.04193000  0.02970000  1.0 -0.1818970518
C  C60  1  0.17961000  0.01321000  0.94560000  1.0 0.3260819538
C  C61  1  0.24335000  0.99275000  0.88430000  1.0 -0.226107253
C  C62  1  0.33812000  0.99332000  0.90720000  1.0 -0.1419497395
C  C63  1  0.37072000  0.01752000  0.99110000  1.0 0.1554158402
C  C64  1  0.30599000  0.04379000  0.05010000  1.0 -0.1508132296
C  C65  1  0.75243000  0.22323000  0.86120000  1.0 0.0945717449
C  C66  1  0.66280000  0.33180000  0.78350000  1.0 -0.226107253
C  C67  1  0.68280000  0.40700000  0.73620000  1.0 0.1220855986
C  C68  1  0.79610000  0.36770000  0.77330000  1.0 -0.2202693275
C  C69  1  0.88347000  0.25687000  0.85280000  1.0 0.1003153667
C  C70  1  0.57550000  0.52210000  0.64530000  1.0 -0.1110291911
C  C71  1  0.33200000  0.90600000  0.41180000  1.0 0.1086665167
C  C72  1  0.43030000  0.80350000  0.48840000  1.0 -0.2202693275
C  C73  1  0.44800000  0.70380000  0.51240000  1.0 0.1220855986
C  C74  1  0.35430000  0.71190000  0.45460000  1.0 -0.2361725347
C  C75  1  0.25200000  0.81720000  0.37700000  1.0 0.1086665167
C  C76  1  0.56600000  0.59700000  0.60020000  1.0 -0.1021146664
N  N1  1  0.81647000  0.13707000  0.39600000  1.0 -0.248218246
N  N2  1  0.08546000  0.75806000  0.85540000  1.0 -0.2202693275
N  N3  1  0.98158000  0.53278000  0.52340000  1.0 -0.1508132296
N  N4  1  0.13707000  0.81647000  0.10400000  1.0 -0.248218246
N  N5  1  0.75806000  0.08546000  0.64460000  1.0 -0.2202693275
N  N6  1  0.53278000  0.98158000  0.97660000  1.0 -0.1508132296
N  N7  1  0.18353000  0.86293000  0.60400000  1.0 -0.248218246
N  N8  1  0.91454000  0.24194000  0.14460000  1.0 -0.2202693275
N  N9  1  0.01842000  0.46722000  0.47660000  1.0 -0.1508132296
N  N10  1  0.86293000  0.18353000  0.89600000  1.0 -0.248218246
N  N11  1  0.24194000  0.91454000  0.35540000  1.0 -0.2202693275
N  N12  1  0.46722000  0.01842000  0.02340000  1.0 -0.1508132296
O  O1  1  0.95932000  0.91904000  0.60280000  1.0 -0.6000182109
O  O2  1  0.89471000  0.82791000  0.66360000  1.0 -0.5379378127
O  O3  1  0.99432000  0.90552000  0.42200000  1.0 -0.5475098269
O  O4  1  0.91904000  0.95932000  0.89720000  1.0 -0.6000182109
O  O5  1  0.82791000  0.89471000  0.83640000  1.0 -0.5379378127
O  O6  1  0.90552000  0.99432000  0.07800000  1.0 -0.5475098269
O  O7  1  0.04068000  0.08096000  0.39720000  1.0 -0.6000182109
O  O8  1  0.10529000  0.17209000  0.33640000  1.0 -0.5379378127
O  O9  1  0.00568000  0.09448000  0.57800000  1.0 -0.5475098269
O  O10  1  0.08096000  0.04068000  0.10280000  1.0 -0.6000182109
O  O11  1  0.17209000  0.10529000  0.16360000  1.0 -0.5379378127
O  O12  1  0.09448000  0.00568000  0.92200000  1.0 -0.5475098269
