# DDEC6 charges by PACMAN v1.1 (https://github.com/mtap-research/PACMAN-charge/)
data_SIHJUR_ASR_pacman
_symmetry_space_group_name_H-M   'P 1'
_cell_length_a   15.14760000
_cell_length_b   15.23250000
_cell_length_c   22.56000000
_cell_angle_alpha   84.40600000
_cell_angle_beta   74.60000000
_cell_angle_gamma   81.27100000
_symmetry_Int_Tables_number   1
_chemical_formula_structural   ZnH20C29NO4
_chemical_formula_sum   'Zn6 H120 C174 N6 O24'
_cell_volume   4951.43663046
_cell_formula_units_Z   6
loop_
 _symmetry_equiv_pos_site_id
 _symmetry_equiv_pos_as_xyz
  1  'x, y, z'
loop_
 _atom_site_type_symbol
 _atom_site_label
 _atom_site_symmetry_multiplicity
 _atom_site_fract_x
 _atom_site_fract_y
 _atom_site_fract_z
 _atom_site_occupancy
 _atom_site_charge
Zn  Zn1  1  0.77057000  0.33622000  0.70020000  1.0 0.8463549769
Zn  Zn2  1  0.72000000  0.32509000  0.83644000  1.0 0.7967958307
Zn  Zn3  1  0.02431000  0.00483000  0.43208000  1.0 0.8341992057
Zn  Zn4  1  0.97569000  0.99517000  0.56792000  1.0 0.8341992057
Zn  Zn5  1  0.22943000  0.66378000  0.29980000  1.0 0.8463549769
Zn  Zn6  1  0.28000000  0.67491000  0.16356000  1.0 0.7967958307
H  H1  1  0.77050000  0.46640000  0.59250000  1.0 0.1107182675
H  H2  1  0.77340000  0.20680000  0.60860000  1.0 0.1107182675
H  H3  1  0.77480000  0.46980000  0.48940000  1.0 0.1197384498
H  H4  1  0.77290000  0.20470000  0.50620000  1.0 0.1267733038
H  H5  1  0.80670000  0.62320000  0.67460000  1.0 0.1197384498
H  H6  1  0.67880000  0.60840000  0.85600000  1.0 0.1267733038
H  H7  1  0.49810000  0.37500000  0.68390000  1.0 0.1197384498
H  H8  1  0.41400000  0.33830000  0.86850000  1.0 0.1267733038
H  H9  1  0.81120000  0.77080000  0.67810000  1.0 0.1197384498
H  H10  1  0.67800000  0.75850000  0.85870000  1.0 0.1197384498
H  H11  1  0.34900000  0.36830000  0.67750000  1.0 0.1107182675
H  H12  1  0.26510000  0.33730000  0.86120000  1.0 0.1197384498
H  H13  1  0.84240000  0.20990000  0.40570000  1.0 0.1384426398
H  H14  1  0.70500000  0.45810000  0.41330000  1.0 0.0886853074
H  H15  1  0.85100000  0.20970000  0.30100000  1.0 0.1012519733
H  H16  1  0.69910000  0.45680000  0.31120000  1.0 0.0886853074
H  H17  1  0.73560000  0.88140000  0.86270000  1.0 0.1107182675
H  H18  1  0.75030000  0.91270000  0.68010000  1.0 0.1197384498
H  H19  1  0.13550000  0.33770000  0.85640000  1.0 0.1107182675
H  H20  1  0.22310000  0.35070000  0.67050000  1.0 0.1107182675
H  H21  1  0.73890000  0.03080000  0.86500000  1.0 0.1107182675
H  H22  1  0.75190000  0.06320000  0.68300000  1.0 0.1197384498
H  H23  1  0.98950000  0.31690000  0.84980000  1.0 0.1267733038
H  H24  1  0.07610000  0.33370000  0.66420000  1.0 0.1197384498
H  H25  1  0.75110000  0.20200000  0.23500000  1.0 0.1012519733
H  H26  1  0.79260000  0.45830000  0.20500000  1.0 0.1107182675
H  H27  1  0.73450000  0.20000000  0.13580000  1.0 0.1107182675
H  H28  1  0.78940000  0.45570000  0.10290000  1.0 0.1107182675
H  H29  1  0.69240000  0.20730000  0.05520000  1.0 0.0788088912
H  H30  1  0.78280000  0.44940000  0.01230000  1.0 0.1012519733
H  H31  1  0.68360000  0.20990000  0.95430000  1.0 0.0886853074
H  H32  1  0.75620000  0.44740000  0.91710000  1.0 0.1107182675
H  H33  1  0.82650000  0.20410000  0.41000000  1.0 0.1384426398
H  H34  1  0.80670000  0.19920000  0.31150000  1.0 0.1012519733
H  H35  1  0.75300000  0.47070000  0.40290000  1.0 0.0886853074
H  H36  1  0.75740000  0.46880000  0.29890000  1.0 0.0886853074
H  H37  1  0.76930000  0.19200000  0.03600000  1.0 0.0608902927
H  H38  1  0.73670000  0.19670000  0.94170000  1.0 0.0886853074
H  H39  1  0.72000000  0.45460000  0.92620000  1.0 0.1107182675
H  H40  1  0.73900000  0.46160000  0.02290000  1.0 0.1012519733
H  H41  1  0.97110000  0.55210000  0.59510000  1.0 0.1197384498
H  H42  1  0.96530000  0.70160000  0.60030000  1.0 0.1197384498
H  H43  1  0.01050000  0.58330000  0.41120000  1.0 0.1197384498
H  H44  1  0.00330000  0.73410000  0.41690000  1.0 0.1197384498
H  H45  1  0.01690000  0.12720000  0.32420000  1.0 0.1107182675
H  H46  1  0.02500000  0.86150000  0.24190000  1.0 0.1267733038
H  H47  1  0.40320000  0.95030000  0.58640000  1.0 0.1107182675
H  H48  1  0.00980000  0.12850000  0.22400000  1.0 0.1267733038
H  H49  1  0.32340000  0.01360000  0.40190000  1.0 0.1197384498
H  H50  1  0.03490000  0.86730000  0.34170000  1.0 0.1197384498
H  H51  1  0.25750000  0.93640000  0.58050000  1.0 0.1197384498
H  H52  1  0.47090000  0.02920000  0.40750000  1.0 0.1107182675
H  H53  1  0.07530000  0.87580000  0.03660000  1.0 0.0693974105
H  H54  1  0.91600000  0.11240000  0.05550000  1.0 0.1384426398
H  H55  1  0.93130000  0.11410000  0.15470000  1.0 0.1107182675
H  H56  1  0.08440000  0.87330000  0.13760000  1.0 0.0886853074
H  H57  1  0.12130000  0.90180000  0.12810000  1.0 0.0886853074
H  H58  1  0.11840000  0.90930000  0.02550000  1.0 0.0693974105
H  H59  1  0.91330000  0.11020000  0.05620000  1.0 0.1384426398
H  H60  1  0.90160000  0.09060000  0.16140000  1.0 0.1107182675
H  H61  1  0.02890000  0.44790000  0.40490000  1.0 0.1197384498
H  H62  1  0.03470000  0.29840000  0.39970000  1.0 0.1197384498
H  H63  1  0.98950000  0.41670000  0.58880000  1.0 0.1197384498
H  H64  1  0.99670000  0.26590000  0.58310000  1.0 0.1197384498
H  H65  1  0.98310000  0.87280000  0.67580000  1.0 0.1107182675
H  H66  1  0.97500000  0.13850000  0.75810000  1.0 0.1267733038
H  H67  1  0.59680000  0.04970000  0.41360000  1.0 0.1107182675
H  H68  1  0.99020000  0.87150000  0.77600000  1.0 0.1197384498
H  H69  1  0.67660000  0.98640000  0.59810000  1.0 0.1197384498
H  H70  1  0.96510000  0.13270000  0.65830000  1.0 0.1197384498
H  H71  1  0.74250000  0.06360000  0.41950000  1.0 0.1197384498
H  H72  1  0.52910000  0.97080000  0.59250000  1.0 0.1107182675
H  H73  1  0.92470000  0.12420000  0.96340000  1.0 0.0693974105
H  H74  1  0.08400000  0.88760000  0.94450000  1.0 0.1384426398
H  H75  1  0.06870000  0.88590000  0.84530000  1.0 0.1107182675
H  H76  1  0.91560000  0.12670000  0.86240000  1.0 0.0886853074
H  H77  1  0.87870000  0.09820000  0.87190000  1.0 0.0886853074
H  H78  1  0.88160000  0.09070000  0.97450000  1.0 0.0693974105
H  H79  1  0.08670000  0.88980000  0.94380000  1.0 0.1384426398
H  H80  1  0.09840000  0.90940000  0.83860000  1.0 0.1107182675
H  H81  1  0.22950000  0.53360000  0.40750000  1.0 0.1107182675
H  H82  1  0.22660000  0.79320000  0.39140000  1.0 0.1107182675
H  H83  1  0.22520000  0.53020000  0.51060000  1.0 0.1197384498
H  H84  1  0.22710000  0.79530000  0.49380000  1.0 0.1267733038
H  H85  1  0.19330000  0.37680000  0.32540000  1.0 0.1197384498
H  H86  1  0.32120000  0.39160000  0.14400000  1.0 0.1267733038
H  H87  1  0.50190000  0.62500000  0.31610000  1.0 0.1197384498
H  H88  1  0.58600000  0.66170000  0.13150000  1.0 0.1267733038
H  H89  1  0.18880000  0.22920000  0.32190000  1.0 0.1197384498
H  H90  1  0.32200000  0.24150000  0.14130000  1.0 0.1197384498
H  H91  1  0.65100000  0.63170000  0.32250000  1.0 0.1107182675
H  H92  1  0.73490000  0.66270000  0.13880000  1.0 0.1197384498
H  H93  1  0.15760000  0.79010000  0.59430000  1.0 0.1384426398
H  H94  1  0.29500000  0.54190000  0.58670000  1.0 0.0886853074
H  H95  1  0.14900000  0.79030000  0.69900000  1.0 0.1012519733
H  H96  1  0.30090000  0.54320000  0.68880000  1.0 0.0886853074
H  H97  1  0.26440000  0.11860000  0.13730000  1.0 0.1107182675
H  H98  1  0.24970000  0.08730000  0.31990000  1.0 0.1197384498
H  H99  1  0.86450000  0.66230000  0.14360000  1.0 0.1107182675
H  H100  1  0.77690000  0.64930000  0.32950000  1.0 0.1107182675
H  H101  1  0.26110000  0.96920000  0.13500000  1.0 0.1107182675
H  H102  1  0.24810000  0.93680000  0.31700000  1.0 0.1197384498
H  H103  1  0.01050000  0.68310000  0.15020000  1.0 0.1267733038
H  H104  1  0.92390000  0.66630000  0.33580000  1.0 0.1197384498
H  H105  1  0.24890000  0.79800000  0.76500000  1.0 0.1012519733
H  H106  1  0.20740000  0.54170000  0.79500000  1.0 0.1107182675
H  H107  1  0.26550000  0.80000000  0.86420000  1.0 0.1107182675
H  H108  1  0.21060000  0.54430000  0.89710000  1.0 0.1107182675
H  H109  1  0.30760000  0.79270000  0.94480000  1.0 0.0788088912
H  H110  1  0.21720000  0.55060000  0.98770000  1.0 0.1012519733
H  H111  1  0.31640000  0.79010000  0.04570000  1.0 0.0886853074
H  H112  1  0.24380000  0.55260000  0.08290000  1.0 0.1107182675
H  H113  1  0.17350000  0.79590000  0.59000000  1.0 0.1384426398
H  H114  1  0.19330000  0.80080000  0.68850000  1.0 0.1012519733
H  H115  1  0.24700000  0.52930000  0.59710000  1.0 0.0886853074
H  H116  1  0.24260000  0.53120000  0.70110000  1.0 0.0886853074
H  H117  1  0.23070000  0.80800000  0.96400000  1.0 0.0608902927
H  H118  1  0.26330000  0.80330000  0.05830000  1.0 0.0886853074
H  H119  1  0.28000000  0.54540000  0.07380000  1.0 0.1107182675
H  H120  1  0.26100000  0.53840000  0.97710000  1.0 0.1107182675
C  C1  1  0.74360000  0.50080000  0.76380000  1.0 0.5854233062
C  C2  1  0.57070000  0.34900000  0.78090000  1.0 0.5854233062
C  C3  1  0.77190000  0.41220000  0.57460000  1.0 0.0886853074
C  C4  1  0.77290000  0.26130000  0.58420000  1.0 0.1012519733
C  C5  1  0.74310000  0.59840000  0.76480000  1.0 -0.0281191187
C  C6  1  0.47280000  0.35230000  0.77750000  1.0 -0.0281191187
C  C7  1  0.77470000  0.41460000  0.51310000  1.0 -0.1905633652
C  C8  1  0.77420000  0.25940000  0.52270000  1.0 -0.1905633652
C  C9  1  0.78110000  0.65050000  0.71260000  1.0 -0.0910989946
C  C10  1  0.70500000  0.64160000  0.81940000  1.0 -0.0910989946
C  C11  1  0.45130000  0.36460000  0.72030000  1.0 -0.100685721
C  C12  1  0.40180000  0.34370000  0.82900000  1.0 -0.0910989946
C  C13  1  0.77730000  0.33640000  0.48540000  1.0 0.0886853074
C  C14  1  0.78260000  0.73820000  0.71440000  1.0 -0.1489497387
C  C15  1  0.70480000  0.73080000  0.82090000  1.0 -0.1416293575
C  C16  1  0.36190000  0.36160000  0.71670000  1.0 -0.1689865111
C  C17  1  0.31300000  0.34270000  0.82460000  1.0 -0.1586038687
C  C18  1  0.77990000  0.33560000  0.41910000  1.0 0.0693974105
C  C19  1  0.74300000  0.78230000  0.76860000  1.0 0.0693974105
C  C20  1  0.29150000  0.34940000  0.76830000  1.0 0.0693974105
C  C21  1  0.81700000  0.26170000  0.38560000  1.0 -0.1961052747
C  C22  1  0.73400000  0.40780000  0.39050000  1.0 -0.0599745045
C  C23  1  0.74250000  0.87950000  0.77040000  1.0 0.0693974105
C  C24  1  0.19680000  0.34290000  0.76380000  1.0 0.0693974105
C  C25  1  0.82000000  0.25960000  0.32370000  1.0 -0.100685721
C  C26  1  0.73100000  0.40750000  0.32960000  1.0 -0.0426529056
C  C27  1  0.73890000  0.91820000  0.82590000  1.0 -0.1489497387
C  C28  1  0.74730000  0.93650000  0.71810000  1.0 -0.1416293575
C  C29  1  0.12440000  0.33520000  0.81710000  1.0 -0.1489497387
C  C30  1  0.17600000  0.34340000  0.70730000  1.0 -0.1586038687
C  C31  1  0.77480000  0.33333333  0.29540000  1.0 0.0693974105
C  C32  1  0.74000000  0.00680000  0.82740000  1.0 -0.112475286
C  C33  1  0.74790000  0.02610000  0.71980000  1.0 -0.0910989946
C  C34  1  0.03700000  0.32400000  0.81310000  1.0 -0.112475286
C  C35  1  0.08830000  0.33333333  0.70340000  1.0 -0.100685721
C  C36  1  0.77130000  0.33150000  0.23040000  1.0 0.0281607496
C  C37  1  0.74280000  0.06340000  0.77450000  1.0 -0.0281191187
C  C38  1  0.01800000  0.32300000  0.75690000  1.0 -0.023130397
C  C39  1  0.75590000  0.25450000  0.20860000  1.0 -0.1586038687
C  C40  1  0.78210000  0.40520000  0.19060000  1.0 -0.1689865111
C  C41  1  0.74560000  0.16060000  0.77580000  1.0 0.5700823025
C  C42  1  0.92150000  0.31770000  0.75320000  1.0 0.5700823025
C  C43  1  0.74730000  0.25280000  0.14910000  1.0 -0.1905633652
C  C44  1  0.77810000  0.40440000  0.12990000  1.0 -0.1689865111
C  C45  1  0.75760000  0.32910000  0.10790000  1.0 0.0455239049
C  C46  1  0.74590000  0.32820000  0.04540000  1.0 0.0693974105
C  C47  1  0.71100000  0.25590000  0.02700000  1.0 -0.010122096
C  C48  1  0.76200000  0.39850000  0.00210000  1.0 -0.1260390871
C  C49  1  0.70400000  0.25930000  0.96710000  1.0 -0.010122096
C  C50  1  0.74800000  0.39620000  0.94460000  1.0 -0.0701543049
C  C51  1  0.80400000  0.25700000  0.38940000  1.0 -0.1961052747
C  C52  1  0.79700000  0.25480000  0.32960000  1.0 -0.0910989946
C  C53  1  0.76400000  0.41550000  0.38420000  1.0 -0.0599745045
C  C54  1  0.76400000  0.41440000  0.32260000  1.0 -0.0494877845
C  C55  1  0.75300000  0.24760000  0.01600000  1.0 -0.0494877845
C  C56  1  0.73800000  0.25110000  0.95870000  1.0 -0.0281191187
C  C57  1  0.72600000  0.40050000  0.95040000  1.0 -0.0701543049
C  C58  1  0.73700000  0.40570000  0.00830000  1.0 -0.1224664754
C  C59  1  0.98860000  0.83090000  0.51150000  1.0 0.5784215884
C  C60  1  0.98800000  0.73490000  0.50940000  1.0 -0.0494877845
C  C61  1  0.97970000  0.58880000  0.55800000  1.0 -0.1586038687
C  C62  1  0.97620000  0.67790000  0.56110000  1.0 -0.100685721
C  C63  1  0.00270000  0.60660000  0.45010000  1.0 -0.1489497387
C  C64  1  0.99870000  0.69670000  0.45350000  1.0 -0.0910989946
C  C65  1  0.99570000  0.54890000  0.50190000  1.0 0.0788088912
C  C66  1  0.01880000  0.07210000  0.30710000  1.0 0.0608902927
C  C67  1  0.02880000  0.92140000  0.31750000  1.0 0.0886853074
C  C68  1  0.17590000  0.97520000  0.48900000  1.0 0.5700823025
C  C69  1  0.01450000  0.07340000  0.24740000  1.0 -0.2080485852
C  C70  1  0.02380000  0.91740000  0.25780000  1.0 -0.1905633652
C  C71  1  0.01140000  0.99500000  0.15640000  1.0 0.0693974105
C  C72  1  0.96140000  0.06510000  0.13070000  1.0 -0.1224664754
C  C73  1  0.00160000  0.99860000  0.03260000  1.0 0.0608902927
C  C74  1  0.95430000  0.06530000  0.07080000  1.0 -0.1843406353
C  C75  1  0.30050000  0.95670000  0.54480000  1.0 -0.112475286
C  C76  1  0.38750000  0.96520000  0.54820000  1.0 -0.1416293575
C  C77  1  0.45440000  0.99490000  0.49780000  1.0 0.0693974105
C  C78  1  0.01690000  0.99450000  0.22100000  1.0 0.0693974105
C  C79  1  0.33880000  0.00210000  0.44040000  1.0 -0.100685721
C  C80  1  0.05200000  0.92400000  0.12060000  1.0 -0.0599745045
C  C81  1  0.04700000  0.92570000  0.06020000  1.0 -0.0426529056
C  C82  1  0.27380000  0.97710000  0.49090000  1.0 -0.0281191187
C  C83  1  0.42760000  0.01110000  0.44380000  1.0 -0.1489497387
C  C84  1  0.07500000  0.94200000  0.11470000  1.0 -0.0599745045
C  C85  1  0.07200000  0.94500000  0.05370000  1.0 -0.0426529056
C  C86  1  0.94900000  0.06100000  0.07180000  1.0 -0.1843406353
C  C87  1  0.94800000  0.05400000  0.13380000  1.0 -0.1224664754
C  C88  1  0.01140000  0.16910000  0.48850000  1.0 0.5784215884
C  C89  1  0.01200000  0.26510000  0.49060000  1.0 -0.0494877845
C  C90  1  0.02030000  0.41120000  0.44200000  1.0 -0.1586038687
C  C91  1  0.02380000  0.32210000  0.43890000  1.0 -0.100685721
C  C92  1  0.99730000  0.39340000  0.54990000  1.0 -0.1489497387
C  C93  1  0.00130000  0.30330000  0.54650000  1.0 -0.0910989946
C  C94  1  0.00430000  0.45110000  0.49810000  1.0 0.0693974105
C  C95  1  0.98120000  0.92790000  0.69290000  1.0 0.0608902927
C  C96  1  0.97120000  0.07860000  0.68250000  1.0 0.0886853074
C  C97  1  0.82410000  0.02480000  0.51100000  1.0 0.5700823025
C  C98  1  0.98550000  0.92660000  0.75260000  1.0 -0.2080485852
C  C99  1  0.97620000  0.08260000  0.74220000  1.0 -0.1905633652
C  C100  1  0.98860000  0.00500000  0.84360000  1.0 0.0693974105
C  C101  1  0.03860000  0.93490000  0.86930000  1.0 -0.1224664754
C  C102  1  0.99840000  0.00140000  0.96740000  1.0 0.0608902927
C  C103  1  0.04570000  0.93470000  0.92920000  1.0 -0.1843406353
C  C104  1  0.69950000  0.04330000  0.45520000  1.0 -0.112475286
C  C105  1  0.61250000  0.03480000  0.45180000  1.0 -0.1416293575
C  C106  1  0.54560000  0.00510000  0.50220000  1.0 0.0693974105
C  C107  1  0.98310000  0.00550000  0.77900000  1.0 0.0693974105
C  C108  1  0.66120000  0.99790000  0.55960000  1.0 -0.100685721
C  C109  1  0.94800000  0.07600000  0.87940000  1.0 -0.0599745045
C  C110  1  0.95300000  0.07430000  0.93980000  1.0 -0.0426529056
C  C111  1  0.72620000  0.02290000  0.50910000  1.0 -0.0281191187
C  C112  1  0.57240000  0.98890000  0.55620000  1.0 -0.1489497387
C  C113  1  0.92500000  0.05800000  0.88530000  1.0 -0.0599745045
C  C114  1  0.92800000  0.05500000  0.94630000  1.0 -0.0426529056
C  C115  1  0.05100000  0.93900000  0.92820000  1.0 -0.1905633652
C  C116  1  0.05200000  0.94600000  0.86620000  1.0 -0.1260390871
C  C117  1  0.25640000  0.49920000  0.23620000  1.0 0.5784215884
C  C118  1  0.42930000  0.65100000  0.21910000  1.0 0.5854233062
C  C119  1  0.22810000  0.58780000  0.42540000  1.0 0.0886853074
C  C120  1  0.22710000  0.73870000  0.41580000  1.0 0.1012519733
C  C121  1  0.25690000  0.40160000  0.23520000  1.0 -0.0281191187
C  C122  1  0.52720000  0.64770000  0.22250000  1.0 -0.0281191187
C  C123  1  0.22530000  0.58540000  0.48690000  1.0 -0.1905633652
C  C124  1  0.22580000  0.74060000  0.47730000  1.0 -0.1905633652
C  C125  1  0.21890000  0.34950000  0.28740000  1.0 -0.0910989946
C  C126  1  0.29500000  0.35840000  0.18060000  1.0 -0.0910989946
C  C127  1  0.54870000  0.63540000  0.27970000  1.0 -0.100685721
C  C128  1  0.59820000  0.65630000  0.17100000  1.0 -0.0910989946
C  C129  1  0.22270000  0.66360000  0.51460000  1.0 0.0788088912
C  C130  1  0.21740000  0.26180000  0.28560000  1.0 -0.1489497387
C  C131  1  0.29520000  0.26920000  0.17910000  1.0 -0.1416293575
C  C132  1  0.63810000  0.63840000  0.28330000  1.0 -0.1689865111
C  C133  1  0.68700000  0.65730000  0.17540000  1.0 -0.1586038687
C  C134  1  0.22010000  0.66440000  0.58090000  1.0 0.0693974105
C  C135  1  0.25700000  0.21770000  0.23140000  1.0 0.0693974105
C  C136  1  0.70850000  0.65060000  0.23170000  1.0 0.0693974105
C  C137  1  0.18300000  0.73830000  0.61440000  1.0 -0.1961052747
C  C138  1  0.26600000  0.59220000  0.60950000  1.0 -0.0599745045
C  C139  1  0.25750000  0.12050000  0.22960000  1.0 0.0693974105
C  C140  1  0.80320000  0.65710000  0.23620000  1.0 0.0693974105
C  C141  1  0.18000000  0.74040000  0.67630000  1.0 -0.100685721
C  C142  1  0.26900000  0.59250000  0.67040000  1.0 -0.0426529056
C  C143  1  0.26110000  0.08180000  0.17410000  1.0 -0.1489497387
C  C144  1  0.25270000  0.06350000  0.28190000  1.0 -0.1416293575
C  C145  1  0.87560000  0.66480000  0.18290000  1.0 -0.1489497387
C  C146  1  0.82400000  0.65660000  0.29270000  1.0 -0.1586038687
C  C147  1  0.22520000  0.66666667  0.70460000  1.0 0.0693974105
C  C148  1  0.26000000  0.99320000  0.17260000  1.0 -0.112475286
C  C149  1  0.25210000  0.97390000  0.28020000  1.0 -0.0910989946
C  C150  1  0.96300000  0.67600000  0.18690000  1.0 -0.112475286
C  C151  1  0.91170000  0.66666667  0.29660000  1.0 -0.100685721
C  C152  1  0.22870000  0.66850000  0.76960000  1.0 0.0281607496
C  C153  1  0.25720000  0.93660000  0.22550000  1.0 -0.0281191187
C  C154  1  0.98200000  0.67700000  0.24310000  1.0 -0.023130397
C  C155  1  0.24410000  0.74550000  0.79140000  1.0 -0.1586038687
C  C156  1  0.21790000  0.59480000  0.80940000  1.0 -0.1689865111
C  C157  1  0.25440000  0.83940000  0.22420000  1.0 0.5700823025
C  C158  1  0.07850000  0.68230000  0.24680000  1.0 0.5700823025
C  C159  1  0.25270000  0.74720000  0.85090000  1.0 -0.1905633652
C  C160  1  0.22190000  0.59560000  0.87010000  1.0 -0.1689865111
C  C161  1  0.24240000  0.67090000  0.89210000  1.0 0.0440195842
C  C162  1  0.25410000  0.67180000  0.95460000  1.0 0.0693974105
C  C163  1  0.28900000  0.74410000  0.97300000  1.0 -0.010122096
C  C164  1  0.23800000  0.60150000  0.99790000  1.0 -0.1260390871
C  C165  1  0.29600000  0.74070000  0.03290000  1.0 -0.010122096
C  C166  1  0.25200000  0.60380000  0.05540000  1.0 -0.0701543049
C  C167  1  0.19600000  0.74300000  0.61060000  1.0 -0.1961052747
C  C168  1  0.20300000  0.74520000  0.67040000  1.0 -0.0910989946
C  C169  1  0.23600000  0.58450000  0.61580000  1.0 -0.0599745045
C  C170  1  0.23600000  0.58560000  0.67740000  1.0 -0.0494877845
C  C171  1  0.24700000  0.75240000  0.98400000  1.0 -0.0494877845
C  C172  1  0.26200000  0.74890000  0.04130000  1.0 -0.023130397
C  C173  1  0.27400000  0.59950000  0.04960000  1.0 -0.0701543049
C  C174  1  0.26300000  0.59430000  0.99170000  1.0 -0.1224664754
N  N1  1  0.77100000  0.33650000  0.61040000  1.0 -0.2219747746
N  N2  1  0.72350000  0.32680000  0.92570000  1.0 -0.112475286
N  N3  1  0.97440000  0.00260000  0.65730000  1.0 -0.2080485852
N  N4  1  0.02560000  0.99740000  0.34270000  1.0 -0.2080485852
N  N5  1  0.22900000  0.66350000  0.38960000  1.0 -0.2219747746
N  N6  1  0.27650000  0.67320000  0.07430000  1.0 -0.1224664754
O  O1  1  0.77500000  0.46650000  0.71240000  1.0 -0.5429635787
O  O2  1  0.62900000  0.36310000  0.73100000  1.0 -0.5494810869
O  O3  1  0.75680000  0.20640000  0.72533000  1.0 -0.5494810869
O  O4  1  0.90730000  0.31310000  0.70156000  1.0 -0.5263954246
O  O5  1  0.71330000  0.45910000  0.81495000  1.0 -0.5613630259
O  O6  1  0.58740000  0.33220000  0.83310000  1.0 -0.5236875856
O  O7  1  0.73560000  0.19110000  0.82774000  1.0 -0.5613630259
O  O8  1  0.86130000  0.32010000  0.80350000  1.0 -0.5613630259
O  O9  1  0.00640000  0.87650000  0.46115000  1.0 -0.5494810869
O  O10  1  0.97240000  0.86200000  0.56388000  1.0 -0.5429635787
O  O11  1  0.84150000  0.01600000  0.56300000  1.0 -0.5263954246
O  O12  1  0.11830000  0.96450000  0.53977000  1.0 -0.5494810869
O  O13  1  0.99360000  0.12350000  0.53885000  1.0 -0.5613630259
O  O14  1  0.02760000  0.13800000  0.43612000  1.0 -0.5429635787
O  O15  1  0.15850000  0.98400000  0.43700000  1.0 -0.5263954246
O  O16  1  0.88170000  0.03550000  0.46023000  1.0 -0.5494810869
O  O17  1  0.22500000  0.53350000  0.28760000  1.0 -0.5429635787
O  O18  1  0.37100000  0.63690000  0.26900000  1.0 -0.5494810869
O  O19  1  0.24320000  0.79360000  0.27467000  1.0 -0.5494810869
O  O20  1  0.09270000  0.68690000  0.29844000  1.0 -0.5263954246
O  O21  1  0.28670000  0.54090000  0.18505000  1.0 -0.5613630259
O  O22  1  0.41260000  0.66780000  0.16690000  1.0 -0.5236875856
O  O23  1  0.26440000  0.80890000  0.17226000  1.0 -0.5662899458
O  O24  1  0.13870000  0.67990000  0.19650000  1.0 -0.5613630259
