# DDEC6 charges by PACMAN v1.1 (https://github.com/mtap-research/PACMAN-charge/)
data_SINLAE_FSR_pacman
_symmetry_space_group_name_H-M   'P 1'
_cell_length_a   11.03200000
_cell_length_b   11.03200000
_cell_length_c   22.83800000
_cell_angle_alpha   90.00000000
_cell_angle_beta   90.00000000
_cell_angle_gamma   120.00000000
_symmetry_Int_Tables_number   1
_chemical_formula_structural   Co3P4H36C30(NO2)6
_chemical_formula_sum   'Co6 P8 H72 C60 N12 O24'
_cell_volume   2407.11703661
_cell_formula_units_Z   2
loop_
 _symmetry_equiv_pos_site_id
 _symmetry_equiv_pos_as_xyz
  1  'x, y, z'
loop_
 _atom_site_type_symbol
 _atom_site_label
 _atom_site_symmetry_multiplicity
 _atom_site_fract_x
 _atom_site_fract_y
 _atom_site_fract_z
 _atom_site_occupancy
 _atom_site_charge
Co  Co1  1  0.50000000  0.50000000  0.50000000  1.0 0.7897699002
Co  Co2  1  0.00000000  0.50000000  0.50000000  1.0 0.7897699002
Co  Co3  1  0.50000000  0.00000000  0.50000000  1.0 0.7897699002
Co  Co4  1  0.50000000  0.50000000  0.00000000  1.0 0.7897699002
Co  Co5  1  0.00000000  0.50000000  0.00000000  1.0 0.7897699002
Co  Co6  1  0.50000000  0.00000000  0.00000000  1.0 0.7897699002
P  P1  1  0.33333333  0.66666667  0.47793000  1.0 0.5254737211
P  P2  1  0.66666667  0.33333333  0.47793000  1.0 0.5254737211
P  P3  1  0.33333333  0.66666667  0.02207000  1.0 0.5254737211
P  P4  1  0.66666667  0.33333333  0.02207000  1.0 0.5254737211
P  P5  1  0.66666667  0.33333333  0.52207000  1.0 0.5254737211
P  P6  1  0.33333333  0.66666667  0.52207000  1.0 0.5254737211
P  P7  1  0.66666667  0.33333333  0.97793000  1.0 0.5254737211
P  P8  1  0.33333333  0.66666667  0.97793000  1.0 0.5254737211
H  H1  1  0.62800000  0.77890000  0.50000000  1.0 0.320524069
H  H2  1  0.84910000  0.62800000  0.50000000  1.0 0.320524069
H  H3  1  0.22110000  0.84910000  0.50000000  1.0 0.320524069
H  H4  1  0.37200000  0.22110000  0.50000000  1.0 0.320524069
H  H5  1  0.15090000  0.37200000  0.50000000  1.0 0.320524069
H  H6  1  0.77890000  0.15090000  0.50000000  1.0 0.320524069
H  H7  1  0.22110000  0.37200000  0.00000000  1.0 0.320524069
H  H8  1  0.84910000  0.22110000  0.00000000  1.0 0.320524069
H  H9  1  0.62800000  0.84910000  0.00000000  1.0 0.320524069
H  H10  1  0.77890000  0.62800000  0.00000000  1.0 0.320524069
H  H11  1  0.15090000  0.77890000  0.00000000  1.0 0.320524069
H  H12  1  0.37200000  0.15090000  0.00000000  1.0 0.320524069
H  H13  1  0.73550000  0.74700000  0.50000000  1.0 0.279160939
H  H14  1  0.98850000  0.73550000  0.50000000  1.0 0.279160939
H  H15  1  0.25300000  0.98850000  0.50000000  1.0 0.279160939
H  H16  1  0.26450000  0.25300000  0.50000000  1.0 0.279160939
H  H17  1  0.01150000  0.26450000  0.50000000  1.0 0.279160939
H  H18  1  0.74700000  0.01150000  0.50000000  1.0 0.279160939
H  H19  1  0.25300000  0.26450000  0.00000000  1.0 0.279160939
H  H20  1  0.98850000  0.25300000  0.00000000  1.0 0.279160939
H  H21  1  0.73550000  0.98850000  0.00000000  1.0 0.279160939
H  H22  1  0.74700000  0.73550000  0.00000000  1.0 0.279160939
H  H23  1  0.01150000  0.74700000  0.00000000  1.0 0.279160939
H  H24  1  0.26450000  0.01150000  0.00000000  1.0 0.279160939
H  H25  1  0.69670000  0.63410000  0.60470000  1.0 0.0890280677
H  H26  1  0.06260000  0.69670000  0.60470000  1.0 0.0890280677
H  H27  1  0.36590000  0.06260000  0.60470000  1.0 0.0890280677
H  H28  1  0.30330000  0.36590000  0.60470000  1.0 0.0890280677
H  H29  1  0.93740000  0.30330000  0.60470000  1.0 0.0890280677
H  H30  1  0.63410000  0.93740000  0.60470000  1.0 0.0890280677
H  H31  1  0.36590000  0.30330000  0.89530000  1.0 0.0890280677
H  H32  1  0.06260000  0.36590000  0.89530000  1.0 0.0890280677
H  H33  1  0.69670000  0.06260000  0.89530000  1.0 0.0890280677
H  H34  1  0.63410000  0.69670000  0.89530000  1.0 0.0890280677
H  H35  1  0.93740000  0.63410000  0.89530000  1.0 0.0890280677
H  H36  1  0.30330000  0.93740000  0.89530000  1.0 0.0890280677
H  H37  1  0.30330000  0.36590000  0.39530000  1.0 0.0890280677
H  H38  1  0.93740000  0.30330000  0.39530000  1.0 0.0890280677
H  H39  1  0.63410000  0.93740000  0.39530000  1.0 0.0890280677
H  H40  1  0.69670000  0.63410000  0.39530000  1.0 0.0890280677
H  H41  1  0.06260000  0.69670000  0.39530000  1.0 0.0890280677
H  H42  1  0.36590000  0.06260000  0.39530000  1.0 0.0890280677
H  H43  1  0.63410000  0.69670000  0.10470000  1.0 0.0890280677
H  H44  1  0.93740000  0.63410000  0.10470000  1.0 0.0890280677
H  H45  1  0.30330000  0.93740000  0.10470000  1.0 0.0890280677
H  H46  1  0.36590000  0.30330000  0.10470000  1.0 0.0890280677
H  H47  1  0.06260000  0.36590000  0.10470000  1.0 0.0890280677
H  H48  1  0.69670000  0.06260000  0.10470000  1.0 0.0890280677
H  H49  1  0.70360000  0.63870000  0.70520000  1.0 0.1158563866
H  H50  1  0.06490000  0.70360000  0.70520000  1.0 0.1158563866
H  H51  1  0.36130000  0.06490000  0.70520000  1.0 0.1158563866
H  H52  1  0.29640000  0.36130000  0.70520000  1.0 0.1158563866
H  H53  1  0.93510000  0.29640000  0.70520000  1.0 0.1158563866
H  H54  1  0.63870000  0.93510000  0.70520000  1.0 0.1158563866
H  H55  1  0.36130000  0.29640000  0.79480000  1.0 0.1158563866
H  H56  1  0.06490000  0.36130000  0.79480000  1.0 0.1158563866
H  H57  1  0.70360000  0.06490000  0.79480000  1.0 0.1158563866
H  H58  1  0.63870000  0.70360000  0.79480000  1.0 0.1158563866
H  H59  1  0.93510000  0.63870000  0.79480000  1.0 0.1158563866
H  H60  1  0.29640000  0.93510000  0.79480000  1.0 0.1158563866
H  H61  1  0.29640000  0.36130000  0.29480000  1.0 0.1158563866
H  H62  1  0.93510000  0.29640000  0.29480000  1.0 0.1158563866
H  H63  1  0.63870000  0.93510000  0.29480000  1.0 0.1158563866
H  H64  1  0.70360000  0.63870000  0.29480000  1.0 0.1158563866
H  H65  1  0.06490000  0.70360000  0.29480000  1.0 0.1158563866
H  H66  1  0.36130000  0.06490000  0.29480000  1.0 0.1158563866
H  H67  1  0.63870000  0.70360000  0.20520000  1.0 0.1158563866
H  H68  1  0.93510000  0.63870000  0.20520000  1.0 0.1158563866
H  H69  1  0.29640000  0.93510000  0.20520000  1.0 0.1158563866
H  H70  1  0.36130000  0.29640000  0.20520000  1.0 0.1158563866
H  H71  1  0.06490000  0.36130000  0.20520000  1.0 0.1158563866
H  H72  1  0.70360000  0.06490000  0.20520000  1.0 0.1158563866
C  C1  1  0.61430000  0.57790000  0.62510000  1.0 0.0685312765
C  C2  1  0.03640000  0.61430000  0.62510000  1.0 0.0685312765
C  C3  1  0.42210000  0.03640000  0.62510000  1.0 0.0685312765
C  C4  1  0.38570000  0.42210000  0.62510000  1.0 0.0685312765
C  C5  1  0.96360000  0.38570000  0.62510000  1.0 0.0685312765
C  C6  1  0.57790000  0.96360000  0.62510000  1.0 0.0685312765
C  C7  1  0.42210000  0.38570000  0.87490000  1.0 0.0685312765
C  C8  1  0.03640000  0.42210000  0.87490000  1.0 0.0685312765
C  C9  1  0.61430000  0.03640000  0.87490000  1.0 0.0685312765
C  C10  1  0.57790000  0.61430000  0.87490000  1.0 0.0685312765
C  C11  1  0.96360000  0.57790000  0.87490000  1.0 0.0685312765
C  C12  1  0.38570000  0.96360000  0.87490000  1.0 0.0685312765
C  C13  1  0.38570000  0.42210000  0.37490000  1.0 0.0685312765
C  C14  1  0.96360000  0.38570000  0.37490000  1.0 0.0685312765
C  C15  1  0.57790000  0.96360000  0.37490000  1.0 0.0685312765
C  C16  1  0.61430000  0.57790000  0.37490000  1.0 0.0685312765
C  C17  1  0.03640000  0.61430000  0.37490000  1.0 0.0685312765
C  C18  1  0.42210000  0.03640000  0.37490000  1.0 0.0685312765
C  C19  1  0.57790000  0.61430000  0.12510000  1.0 0.0685312765
C  C20  1  0.96360000  0.57790000  0.12510000  1.0 0.0685312765
C  C21  1  0.38570000  0.96360000  0.12510000  1.0 0.0685312765
C  C22  1  0.42210000  0.38570000  0.12510000  1.0 0.0685312765
C  C23  1  0.03640000  0.42210000  0.12510000  1.0 0.0685312765
C  C24  1  0.61430000  0.03640000  0.12510000  1.0 0.0685312765
C  C25  1  0.61960000  0.58150000  0.68600000  1.0 -0.2203153051
C  C26  1  0.03810000  0.61960000  0.68600000  1.0 -0.2203153051
C  C27  1  0.41850000  0.03810000  0.68600000  1.0 -0.2203153051
C  C28  1  0.38040000  0.41850000  0.68600000  1.0 -0.2203153051
C  C29  1  0.96190000  0.38040000  0.68600000  1.0 -0.2203153051
C  C30  1  0.58150000  0.96190000  0.68600000  1.0 -0.2203153051
C  C31  1  0.41850000  0.38040000  0.81400000  1.0 -0.2203153051
C  C32  1  0.03810000  0.41850000  0.81400000  1.0 -0.2203153051
C  C33  1  0.61960000  0.03810000  0.81400000  1.0 -0.2203153051
C  C34  1  0.58150000  0.61960000  0.81400000  1.0 -0.2203153051
C  C35  1  0.96190000  0.58150000  0.81400000  1.0 -0.2203153051
C  C36  1  0.38040000  0.96190000  0.81400000  1.0 -0.2203153051
C  C37  1  0.38040000  0.41850000  0.31400000  1.0 -0.2203153051
C  C38  1  0.96190000  0.38040000  0.31400000  1.0 -0.2203153051
C  C39  1  0.58150000  0.96190000  0.31400000  1.0 -0.2203153051
C  C40  1  0.61960000  0.58150000  0.31400000  1.0 -0.2203153051
C  C41  1  0.03810000  0.61960000  0.31400000  1.0 -0.2203153051
C  C42  1  0.41850000  0.03810000  0.31400000  1.0 -0.2203153051
C  C43  1  0.58150000  0.61960000  0.18600000  1.0 -0.2203153051
C  C44  1  0.96190000  0.58150000  0.18600000  1.0 -0.2203153051
C  C45  1  0.38040000  0.96190000  0.18600000  1.0 -0.2203153051
C  C46  1  0.41850000  0.38040000  0.18600000  1.0 -0.2203153051
C  C47  1  0.03810000  0.41850000  0.18600000  1.0 -0.2203153051
C  C48  1  0.61960000  0.03810000  0.18600000  1.0 -0.2203153051
C  C49  1  0.50000000  0.50000000  0.71740000  1.0 0.0890280677
C  C50  1  0.00000000  0.50000000  0.71740000  1.0 0.0890280677
C  C51  1  0.50000000  0.00000000  0.71740000  1.0 0.0890280677
C  C52  1  0.50000000  0.50000000  0.78260000  1.0 0.0890280677
C  C53  1  0.00000000  0.50000000  0.78260000  1.0 0.0890280677
C  C54  1  0.50000000  0.00000000  0.78260000  1.0 0.0890280677
C  C55  1  0.50000000  0.50000000  0.28260000  1.0 0.0890280677
C  C56  1  0.00000000  0.50000000  0.28260000  1.0 0.0890280677
C  C57  1  0.50000000  0.00000000  0.28260000  1.0 0.0890280677
C  C58  1  0.50000000  0.50000000  0.21740000  1.0 0.0890280677
C  C59  1  0.00000000  0.50000000  0.21740000  1.0 0.0890280677
C  C60  1  0.50000000  0.00000000  0.21740000  1.0 0.0890280677
N  N1  1  0.50000000  0.50000000  0.59480000  1.0 -0.2697528056
N  N2  1  0.00000000  0.50000000  0.59480000  1.0 -0.2697528056
N  N3  1  0.50000000  0.00000000  0.59480000  1.0 -0.2697528056
N  N4  1  0.50000000  0.50000000  0.90520000  1.0 -0.2697528056
N  N5  1  0.00000000  0.50000000  0.90520000  1.0 -0.2697528056
N  N6  1  0.50000000  0.00000000  0.90520000  1.0 -0.2697528056
N  N7  1  0.50000000  0.50000000  0.40520000  1.0 -0.2697528056
N  N8  1  0.00000000  0.50000000  0.40520000  1.0 -0.2697528056
N  N9  1  0.50000000  0.00000000  0.40520000  1.0 -0.2697528056
N  N10  1  0.50000000  0.50000000  0.09480000  1.0 -0.2697528056
N  N11  1  0.00000000  0.50000000  0.09480000  1.0 -0.2697528056
N  N12  1  0.50000000  0.00000000  0.09480000  1.0 -0.2697528056
O  O1  1  0.33740000  0.53680000  0.50000000  1.0 -0.5850443618
O  O2  1  0.80060000  0.33740000  0.50000000  1.0 -0.5850443618
O  O3  1  0.46320000  0.80060000  0.50000000  1.0 -0.5850443618
O  O4  1  0.66260000  0.46320000  0.50000000  1.0 -0.5850443618
O  O5  1  0.19940000  0.66260000  0.50000000  1.0 -0.5850443618
O  O6  1  0.53680000  0.19940000  0.50000000  1.0 -0.5850443618
O  O7  1  0.46320000  0.66260000  0.00000000  1.0 -0.5850443618
O  O8  1  0.80060000  0.46320000  0.00000000  1.0 -0.5850443618
O  O9  1  0.33740000  0.80060000  0.00000000  1.0 -0.5850443618
O  O10  1  0.53680000  0.33740000  0.00000000  1.0 -0.5850443618
O  O11  1  0.19940000  0.53680000  0.00000000  1.0 -0.5850443618
O  O12  1  0.66260000  0.19940000  0.00000000  1.0 -0.5850443618
O  O13  1  0.65200000  0.72030000  0.50000000  1.0 -0.6853175239
O  O14  1  0.93170000  0.65200000  0.50000000  1.0 -0.6853175239
O  O15  1  0.27970000  0.93170000  0.50000000  1.0 -0.6853175239
O  O16  1  0.34800000  0.27970000  0.50000000  1.0 -0.6853175239
O  O17  1  0.06830000  0.34800000  0.50000000  1.0 -0.6853175239
O  O18  1  0.72030000  0.06830000  0.50000000  1.0 -0.6853175239
O  O19  1  0.27970000  0.34800000  0.00000000  1.0 -0.6853175239
O  O20  1  0.93170000  0.27970000  0.00000000  1.0 -0.6853175239
O  O21  1  0.65200000  0.93170000  0.00000000  1.0 -0.6853175239
O  O22  1  0.72030000  0.65200000  0.00000000  1.0 -0.6853175239
O  O23  1  0.06830000  0.72030000  0.00000000  1.0 -0.6853175239
O  O24  1  0.34800000  0.06830000  0.00000000  1.0 -0.6853175239
