# DDEC6 charges by PACMAN v1.1 (https://github.com/mtap-research/PACMAN-charge/)
data_SINSER_FSR_pacman
_symmetry_space_group_name_H-M   'P 1'
_cell_length_a   10.92980000
_cell_length_b   25.54520000
_cell_length_c   13.02840000
_cell_angle_alpha   90.00000000
_cell_angle_beta   111.04400000
_cell_angle_gamma   90.00000000
_symmetry_Int_Tables_number   1
_chemical_formula_structural   MnH12C20S2(NO2)2
_chemical_formula_sum   'Mn6 H72 C120 S12 N12 O24'
_cell_volume   3394.97181222
_cell_formula_units_Z   6
loop_
 _symmetry_equiv_pos_site_id
 _symmetry_equiv_pos_as_xyz
  1  'x, y, z'
loop_
 _atom_site_type_symbol
 _atom_site_label
 _atom_site_symmetry_multiplicity
 _atom_site_fract_x
 _atom_site_fract_y
 _atom_site_fract_z
 _atom_site_occupancy
 _atom_site_charge
Mn  Mn1  1  0.74144000  0.54308000  0.39032000  1.0 0.8143006615
Mn  Mn2  1  0.25856000  0.04308000  0.10968000  1.0 0.8143006615
Mn  Mn3  1  0.25856000  0.45692000  0.60968000  1.0 0.8143006615
Mn  Mn4  1  0.74144000  0.95692000  0.89032000  1.0 0.8143006615
Mn  Mn5  1  0.50000000  0.50000000  0.50000000  1.0 1.0993477307
Mn  Mn6  1  0.50000000  0.00000000  0.00000000  1.0 1.0993477307
H  H1  1  0.08142000  0.54017000  0.74388000  1.0 0.1387338541
H  H2  1  0.91858000  0.04017000  0.75612000  1.0 0.1387338541
H  H3  1  0.91858000  0.45983000  0.25612000  1.0 0.1387338541
H  H4  1  0.08142000  0.95983000  0.24388000  1.0 0.1387338541
H  H5  1  0.17424000  0.52099000  0.94211000  1.0 0.1000375428
H  H6  1  0.82576000  0.02099000  0.55789000  1.0 0.1000375428
H  H7  1  0.82576000  0.47901000  0.05789000  1.0 0.1000375428
H  H8  1  0.17424000  0.97901000  0.44211000  1.0 0.1000375428
H  H9  1  0.32408000  0.67784000  0.45041000  1.0 0.130080042
H  H10  1  0.67592000  0.17784000  0.04959000  1.0 0.130080042
H  H11  1  0.67592000  0.32216000  0.54959000  1.0 0.130080042
H  H12  1  0.32408000  0.82216000  0.95041000  1.0 0.130080042
H  H13  1  0.29387000  0.76799000  0.38095000  1.0 0.130080042
H  H14  1  0.70613000  0.26799000  0.11905000  1.0 0.130080042
H  H15  1  0.70613000  0.23201000  0.61905000  1.0 0.130080042
H  H16  1  0.29387000  0.73201000  0.88095000  1.0 0.130080042
H  H17  1  0.63690000  0.81045000  0.26593000  1.0 0.130080042
H  H18  1  0.36310000  0.31045000  0.23407000  1.0 0.130080042
H  H19  1  0.36310000  0.18955000  0.73407000  1.0 0.130080042
H  H20  1  0.63690000  0.68955000  0.76593000  1.0 0.130080042
H  H21  1  0.59622000  0.89920000  0.18775000  1.0 0.1387338541
H  H22  1  0.40378000  0.39920000  0.31225000  1.0 0.1387338541
H  H23  1  0.40378000  0.10080000  0.81225000  1.0 0.1387338541
H  H24  1  0.59622000  0.60080000  0.68775000  1.0 0.1387338541
H  H25  1  0.04172000  0.56903000  0.49262000  1.0 0.130080042
H  H26  1  0.95828000  0.06903000  0.00738000  1.0 0.130080042
H  H27  1  0.95828000  0.43097000  0.50738000  1.0 0.130080042
H  H28  1  0.04172000  0.93097000  0.99262000  1.0 0.130080042
H  H29  1  0.21492000  0.59532000  0.44171000  1.0 0.1387338541
H  H30  1  0.78508000  0.09532000  0.05829000  1.0 0.1387338541
H  H31  1  0.78508000  0.40468000  0.55829000  1.0 0.1387338541
H  H32  1  0.21492000  0.90468000  0.94171000  1.0 0.1387338541
H  H33  1  0.17278000  0.62072000  0.25965000  1.0 0.1187718804
H  H34  1  0.82722000  0.12072000  0.24035000  1.0 0.1187718804
H  H35  1  0.82722000  0.37928000  0.74035000  1.0 0.1187718804
H  H36  1  0.17278000  0.87928000  0.75965000  1.0 0.1187718804
H  H37  1  0.95806000  0.61740000  0.13265000  1.0 0.1142517213
H  H38  1  0.04194000  0.11740000  0.36735000  1.0 0.1142517213
H  H39  1  0.04194000  0.38260000  0.86735000  1.0 0.1142517213
H  H40  1  0.95806000  0.88260000  0.63265000  1.0 0.1142517213
H  H41  1  0.76256000  0.60865000  0.02460000  1.0 0.1387338541
H  H42  1  0.23744000  0.10865000  0.47540000  1.0 0.1387338541
H  H43  1  0.23744000  0.39135000  0.97540000  1.0 0.1387338541
H  H44  1  0.76256000  0.89135000  0.52460000  1.0 0.1387338541
H  H45  1  0.54996000  0.58739000  0.90803000  1.0 0.0786733623
H  H46  1  0.45004000  0.08739000  0.59197000  1.0 0.0786733623
H  H47  1  0.45004000  0.41261000  0.09197000  1.0 0.0786733623
H  H48  1  0.54996000  0.91261000  0.40803000  1.0 0.0786733623
H  H49  1  0.40770000  0.54452000  0.97864000  1.0 0.058425924
H  H50  1  0.59230000  0.04452000  0.52136000  1.0 0.058425924
H  H51  1  0.59230000  0.45548000  0.02136000  1.0 0.058425924
H  H52  1  0.40770000  0.95548000  0.47864000  1.0 0.058425924
H  H53  1  0.48548000  0.52157000  0.16344000  1.0 0.0786733623
H  H54  1  0.51452000  0.02157000  0.33656000  1.0 0.0786733623
H  H55  1  0.51452000  0.47843000  0.83656000  1.0 0.0786733623
H  H56  1  0.48548000  0.97843000  0.66344000  1.0 0.0786733623
H  H57  1  0.75164000  0.62416000  0.03077000  1.0 0.1387338541
H  H58  1  0.24836000  0.12416000  0.46923000  1.0 0.1387338541
H  H59  1  0.24836000  0.37584000  0.96923000  1.0 0.1387338541
H  H60  1  0.75164000  0.87584000  0.53077000  1.0 0.1387338541
H  H61  1  0.52881000  0.61606000  0.92511000  1.0 0.0786733623
H  H62  1  0.47119000  0.11606000  0.57489000  1.0 0.0786733623
H  H63  1  0.47119000  0.38394000  0.07489000  1.0 0.0786733623
H  H64  1  0.52881000  0.88394000  0.42511000  1.0 0.0786733623
H  H65  1  0.38618000  0.58177000  0.00552000  1.0 0.058425924
H  H66  1  0.61382000  0.08177000  0.49448000  1.0 0.058425924
H  H67  1  0.61382000  0.41823000  0.99448000  1.0 0.058425924
H  H68  1  0.38618000  0.91823000  0.50552000  1.0 0.058425924
H  H69  1  0.47102000  0.55150000  0.18575000  1.0 0.0786733623
H  H70  1  0.52898000  0.05150000  0.31425000  1.0 0.0786733623
H  H71  1  0.52898000  0.44850000  0.81425000  1.0 0.0786733623
H  H72  1  0.47102000  0.94850000  0.68575000  1.0 0.0786733623
C  C1  1  0.80700000  0.52948000  0.62962000  1.0 0.5885423548
C  C2  1  0.19300000  0.02948000  0.87038000  1.0 0.5885423548
C  C3  1  0.19300000  0.47052000  0.37038000  1.0 0.5885423548
C  C4  1  0.80700000  0.97052000  0.12962000  1.0 0.5885423548
C  C5  1  0.89760000  0.52567000  0.74466000  1.0 -0.0674984499
C  C6  1  0.10240000  0.02567000  0.75534000  1.0 -0.0674984499
C  C7  1  0.10240000  0.47433000  0.25534000  1.0 -0.0674984499
C  C8  1  0.89760000  0.97433000  0.24466000  1.0 -0.0674984499
C  C9  1  0.03020000  0.53054000  0.78636000  1.0 -0.1226342119
C  C10  1  0.96980000  0.03054000  0.71364000  1.0 -0.1226342119
C  C11  1  0.96980000  0.46946000  0.21364000  1.0 -0.1226342119
C  C12  1  0.03020000  0.96946000  0.28636000  1.0 -0.1226342119
C  C13  1  0.08310000  0.51965000  0.90000000  1.0 -0.2302104853
C  C14  1  0.91690000  0.01965000  0.60000000  1.0 -0.2302104853
C  C15  1  0.91690000  0.48035000  0.10000000  1.0 -0.2302104853
C  C16  1  0.08310000  0.98035000  0.40000000  1.0 -0.2302104853
C  C17  1  0.99040000  0.50700000  0.94368000  1.0 0.0098587816
C  C18  1  0.00960000  0.00700000  0.55632000  1.0 0.0098587816
C  C19  1  0.00960000  0.49300000  0.05632000  1.0 0.0098587816
C  C20  1  0.99040000  0.99300000  0.44368000  1.0 0.0098587816
C  C21  1  0.52000000  0.61337000  0.41540000  1.0 0.5885423548
C  C22  1  0.48000000  0.11337000  0.08460000  1.0 0.5885423548
C  C23  1  0.48000000  0.38663000  0.58460000  1.0 0.5885423548
C  C24  1  0.52000000  0.88663000  0.91540000  1.0 0.5885423548
C  C25  1  0.47010000  0.66736000  0.38870000  1.0 -0.0994240925
C  C26  1  0.52990000  0.16736000  0.11130000  1.0 -0.0994240925
C  C27  1  0.52990000  0.33264000  0.61130000  1.0 -0.0994240925
C  C28  1  0.47010000  0.83264000  0.88870000  1.0 -0.0994240925
C  C29  1  0.37410000  0.69309000  0.41170000  1.0 -0.1101539009
C  C30  1  0.62590000  0.19309000  0.08830000  1.0 -0.1101539009
C  C31  1  0.62590000  0.30691000  0.58830000  1.0 -0.1101539009
C  C32  1  0.37410000  0.80691000  0.91170000  1.0 -0.1101539009
C  C33  1  0.35700000  0.74468000  0.37200000  1.0 -0.1813453756
C  C34  1  0.64300000  0.24468000  0.12800000  1.0 -0.1813453756
C  C35  1  0.64300000  0.25532000  0.62800000  1.0 -0.1813453756
C  C36  1  0.35700000  0.75532000  0.87200000  1.0 -0.1813453756
C  C37  1  0.43990000  0.75799000  0.31950000  1.0 0.0179273627
C  C38  1  0.56010000  0.25799000  0.18050000  1.0 0.0179273627
C  C39  1  0.56010000  0.24201000  0.68050000  1.0 0.0179273627
C  C40  1  0.43990000  0.74201000  0.81950000  1.0 0.0179273627
C  C41  1  0.45110000  0.80805000  0.27010000  1.0 -0.00311905
C  C42  1  0.54890000  0.30805000  0.22990000  1.0 -0.00311905
C  C43  1  0.54890000  0.19195000  0.72990000  1.0 -0.00311905
C  C44  1  0.45110000  0.69195000  0.77010000  1.0 -0.00311905
C  C45  1  0.55640000  0.82858000  0.25070000  1.0 -0.1813453756
C  C46  1  0.44360000  0.32858000  0.24930000  1.0 -0.1813453756
C  C47  1  0.44360000  0.17142000  0.74930000  1.0 -0.1813453756
C  C48  1  0.55640000  0.67142000  0.75070000  1.0 -0.1813453756
C  C49  1  0.53310000  0.87942000  0.20570000  1.0 -0.1298416447
C  C50  1  0.46690000  0.37942000  0.29430000  1.0 -0.1298416447
C  C51  1  0.46690000  0.12058000  0.79430000  1.0 -0.1298416447
C  C52  1  0.53310000  0.62058000  0.70570000  1.0 -0.1298416447
C  C53  1  0.40970000  0.89723000  0.19060000  1.0 -0.1298416447
C  C54  1  0.59030000  0.39723000  0.30940000  1.0 -0.1298416447
C  C55  1  0.59030000  0.10277000  0.80940000  1.0 -0.1298416447
C  C56  1  0.40970000  0.60277000  0.69060000  1.0 -0.1298416447
C  C57  1  0.35200000  0.94841000  0.15384000  1.0 0.5297763549
C  C58  1  0.64800000  0.44841000  0.34616000  1.0 0.5297763549
C  C59  1  0.64800000  0.05159000  0.84616000  1.0 0.5297763549
C  C60  1  0.35200000  0.55159000  0.65384000  1.0 0.5297763549
C  C61  1  0.02490000  0.57857000  0.41830000  1.0 0.1142517213
C  C62  1  0.97510000  0.07857000  0.08170000  1.0 0.1142517213
C  C63  1  0.97510000  0.42143000  0.58170000  1.0 0.1142517213
C  C64  1  0.02490000  0.92143000  0.91830000  1.0 0.1142517213
C  C65  1  0.12820000  0.59450000  0.38900000  1.0 -0.1226342119
C  C66  1  0.87180000  0.09450000  0.11100000  1.0 -0.1226342119
C  C67  1  0.87180000  0.40550000  0.61100000  1.0 -0.1226342119
C  C68  1  0.12820000  0.90550000  0.88900000  1.0 -0.1226342119
C  C69  1  0.10330000  0.60921000  0.28180000  1.0 -0.0323893003
C  C70  1  0.89670000  0.10921000  0.21820000  1.0 -0.0323893003
C  C71  1  0.89670000  0.39079000  0.71820000  1.0 -0.0323893003
C  C72  1  0.10330000  0.89079000  0.78180000  1.0 -0.0323893003
C  C73  1  0.97720000  0.60711000  0.20690000  1.0 -0.1813453756
C  C74  1  0.02280000  0.10711000  0.29310000  1.0 -0.1813453756
C  C75  1  0.02280000  0.39289000  0.79310000  1.0 -0.1813453756
C  C76  1  0.97720000  0.89289000  0.70690000  1.0 -0.1813453756
C  C77  1  0.87880000  0.58978000  0.24150000  1.0 0.130080042
C  C78  1  0.12120000  0.08978000  0.25850000  1.0 0.130080042
C  C79  1  0.12120000  0.41022000  0.75850000  1.0 0.130080042
C  C80  1  0.87880000  0.91022000  0.74150000  1.0 0.130080042
C  C81  1  0.74320000  0.57710000  0.16190000  1.0 0.058425924
C  C82  1  0.25680000  0.07710000  0.33810000  1.0 0.058425924
C  C83  1  0.25680000  0.42290000  0.83810000  1.0 0.058425924
C  C84  1  0.74320000  0.92290000  0.66190000  1.0 0.058425924
C  C85  1  0.70430000  0.59100000  0.05210000  1.0 -0.0674984499
C  C86  1  0.29570000  0.09100000  0.44790000  1.0 -0.0767383821
C  C87  1  0.29570000  0.40900000  0.94790000  1.0 -0.0767383821
C  C88  1  0.70430000  0.90900000  0.55210000  1.0 -0.0674984499
C  C89  1  0.57880000  0.57840000  0.98380000  1.0 -0.03715005
C  C90  1  0.42120000  0.07840000  0.51620000  1.0 -0.03715005
C  C91  1  0.42120000  0.42160000  0.01620000  1.0 -0.03715005
C  C92  1  0.57880000  0.92160000  0.48380000  1.0 -0.03715005
C  C93  1  0.49490000  0.55280000  0.02470000  1.0 -0.0674984499
C  C94  1  0.50510000  0.05280000  0.47530000  1.0 -0.0674984499
C  C95  1  0.50510000  0.44720000  0.97530000  1.0 -0.0674984499
C  C96  1  0.49490000  0.94720000  0.52470000  1.0 -0.0674984499
C  C97  1  0.54190000  0.53960000  0.13450000  1.0 0.0098587816
C  C98  1  0.45810000  0.03960000  0.36550000  1.0 0.0098587816
C  C99  1  0.45810000  0.46040000  0.86550000  1.0 0.0098587816
C  C100  1  0.54190000  0.96040000  0.63450000  1.0 0.0098587816
C  C101  1  0.73840000  0.58930000  0.16680000  1.0 0.0535255313
C  C102  1  0.26160000  0.08930000  0.33320000  1.0 0.0535255313
C  C103  1  0.26160000  0.41070000  0.83320000  1.0 0.0535255313
C  C104  1  0.73840000  0.91070000  0.66680000  1.0 0.0535255313
C  C105  1  0.69310000  0.60850000  0.06080000  1.0 -0.0674984499
C  C106  1  0.30690000  0.10850000  0.43920000  1.0 -0.0674984499
C  C107  1  0.30690000  0.39150000  0.93920000  1.0 -0.0674984499
C  C108  1  0.69310000  0.89150000  0.56080000  1.0 -0.0674984499
C  C109  1  0.56160000  0.60460000  0.99940000  1.0 -0.023825332
C  C110  1  0.43840000  0.10460000  0.50060000  1.0 -0.023825332
C  C111  1  0.43840000  0.39540000  0.00060000  1.0 -0.023825332
C  C112  1  0.56160000  0.89540000  0.49940000  1.0 -0.023825332
C  C113  1  0.47760000  0.58380000  0.04630000  1.0 -0.0452939742
C  C114  1  0.52240000  0.08380000  0.45370000  1.0 -0.0452939742
C  C115  1  0.52240000  0.41620000  0.95370000  1.0 -0.0452939742
C  C116  1  0.47760000  0.91620000  0.54630000  1.0 -0.0452939742
C  C117  1  0.52830000  0.56600000  0.15310000  1.0 0.0313966419
C  C118  1  0.47170000  0.06600000  0.34690000  1.0 0.0313966419
C  C119  1  0.47170000  0.43400000  0.84690000  1.0 0.0313966419
C  C120  1  0.52830000  0.93400000  0.65310000  1.0 0.0313966419
S  S1  1  0.83604000  0.50867000  0.84475000  1.0 -0.0323893003
S  S2  1  0.16396000  0.00867000  0.65525000  1.0 -0.0323893003
S  S3  1  0.16396000  0.49133000  0.15525000  1.0 -0.0323893003
S  S4  1  0.83604000  0.99133000  0.34475000  1.0 -0.0323893003
S  S5  1  0.53972000  0.70697000  0.31789000  1.0 0.0046376324
S  S6  1  0.46028000  0.20697000  0.18211000  1.0 0.0098587816
S  S7  1  0.46028000  0.29303000  0.68211000  1.0 0.0046376324
S  S8  1  0.53972000  0.79303000  0.81789000  1.0 0.0046376324
S  S9  1  0.32075000  0.85112000  0.23084000  1.0 0.0786733623
S  S10  1  0.67925000  0.35112000  0.26916000  1.0 0.0786733623
S  S11  1  0.67925000  0.14888000  0.76916000  1.0 0.0786733623
S  S12  1  0.32075000  0.64888000  0.73084000  1.0 0.0786733623
N  N1  1  0.90245000  0.57603000  0.34675000  1.0 -0.2988898851
N  N2  1  0.09755000  0.07603000  0.15325000  1.0 -0.2988898851
N  N3  1  0.09755000  0.42397000  0.65325000  1.0 -0.2988898851
N  N4  1  0.90245000  0.92397000  0.84675000  1.0 -0.2988898851
N  N5  1  0.66370000  0.55120000  0.20250000  1.0 -0.0767383821
N  N6  1  0.33630000  0.05120000  0.29750000  1.0 -0.0767383821
N  N7  1  0.33630000  0.44880000  0.79750000  1.0 -0.0767383821
N  N8  1  0.66370000  0.94880000  0.70250000  1.0 -0.0767383821
N  N9  1  0.65660000  0.56880000  0.21160000  1.0 -0.0323893003
N  N10  1  0.34340000  0.06880000  0.28840000  1.0 -0.0323893003
N  N11  1  0.34340000  0.43120000  0.78840000  1.0 -0.0323893003
N  N12  1  0.65660000  0.93120000  0.71160000  1.0 -0.0323893003
O  O1  1  0.85617000  0.53838000  0.55771000  1.0 -0.5204575457
O  O2  1  0.14383000  0.03838000  0.94229000  1.0 -0.5204575457
O  O3  1  0.14383000  0.46162000  0.44229000  1.0 -0.5204575457
O  O4  1  0.85617000  0.96162000  0.05771000  1.0 -0.5204575457
O  O5  1  0.68769000  0.52278000  0.61284000  1.0 -0.5494971322
O  O6  1  0.31231000  0.02278000  0.88716000  1.0 -0.5494971322
O  O7  1  0.31231000  0.47722000  0.38716000  1.0 -0.5494971322
O  O8  1  0.68769000  0.97722000  0.11284000  1.0 -0.5494971322
O  O9  1  0.62797000  0.60549000  0.40365000  1.0 -0.5494971322
O  O10  1  0.37203000  0.10549000  0.09635000  1.0 -0.5494971322
O  O11  1  0.37203000  0.39451000  0.59635000  1.0 -0.5494971322
O  O12  1  0.62797000  0.89451000  0.90365000  1.0 -0.5494971322
O  O13  1  0.45446000  0.58099000  0.44510000  1.0 -0.5373708405
O  O14  1  0.54554000  0.08099000  0.05490000  1.0 -0.5373708405
O  O15  1  0.54554000  0.41901000  0.55490000  1.0 -0.5373708405
O  O16  1  0.45446000  0.91901000  0.94510000  1.0 -0.5373708405
O  O17  1  0.23861000  0.95791000  0.15148000  1.0 -0.5074780979
O  O18  1  0.76139000  0.45791000  0.34852000  1.0 -0.5074780979
O  O19  1  0.76139000  0.04209000  0.84852000  1.0 -0.5074780979
O  O20  1  0.23861000  0.54209000  0.65148000  1.0 -0.5074780979
O  O21  1  0.41932000  0.98352000  0.12867000  1.0 -0.5494971322
O  O22  1  0.58068000  0.48352000  0.37133000  1.0 -0.5494971322
O  O23  1  0.58068000  0.01648000  0.87133000  1.0 -0.5494971322
O  O24  1  0.41932000  0.51648000  0.62867000  1.0 -0.5494971322
