# DDEC6 charges by PACMAN v1.1 (https://github.com/mtap-research/PACMAN-charge/)
data_SINVAM_FSR_pacman
_symmetry_space_group_name_H-M   'P 1'
_cell_length_a   8.63523000
_cell_length_b   8.63523000
_cell_length_c   8.63523000
_cell_angle_alpha   108.10700000
_cell_angle_beta   108.10700000
_cell_angle_gamma   112.23600000
_symmetry_Int_Tables_number   1
_chemical_formula_structural   Fe4P4O17
_chemical_formula_sum   'Fe4 P4 O17'
_cell_volume   494.80530309
_cell_formula_units_Z   1
loop_
 _symmetry_equiv_pos_site_id
 _symmetry_equiv_pos_as_xyz
  1  'x, y, z'
loop_
 _atom_site_type_symbol
 _atom_site_label
 _atom_site_symmetry_multiplicity
 _atom_site_fract_x
 _atom_site_fract_y
 _atom_site_fract_z
 _atom_site_occupancy
 _atom_site_charge
Fe  Fe1  1  0.49480000  0.49480000  0.74720000  1.0 1.3517718196
Fe  Fe2  1  0.25240000  0.50520000  0.00000000  1.0 1.3397621989
Fe  Fe3  1  0.74760000  0.74760000  0.25280000  1.0 1.3517718196
Fe  Fe4  1  0.50520000  0.25240000  0.00000000  1.0 1.3517718196
P  P1  1  0.52720000  0.86500000  0.00000000  1.0 1.4979602575
P  P2  1  0.47280000  0.47280000  0.33780000  1.0 1.4979602575
P  P3  1  0.13500000  0.13500000  0.66220000  1.0 1.4979602575
P  P4  1  0.86500000  0.52720000  0.00000000  1.0 1.4979602575
O  O1  1  0.52200000  0.74700000  0.82300000  1.0 -0.6857585281
O  O2  1  0.30100000  0.47800000  0.22500000  1.0 -0.6857585281
O  O3  1  0.07600000  0.25300000  0.77500000  1.0 -0.6857585281
O  O4  1  0.92400000  0.69900000  0.17700000  1.0 -0.6857585281
O  O5  1  0.69900000  0.92400000  0.17700000  1.0 -0.6857585281
O  O6  1  0.25300000  0.07600000  0.77500000  1.0 -0.6857585281
O  O7  1  0.47800000  0.30100000  0.22500000  1.0 -0.6857585281
O  O8  1  0.74700000  0.52200000  0.82300000  1.0 -0.6857585281
O  O9  1  0.50000000  0.50000000  0.00000000  1.0 -0.9184747458
O  O10  1  0.34800000  0.75600000  0.00000000  1.0 -0.6771599769
O  O11  1  0.65200000  0.65200000  0.40800000  1.0 -0.6771599769
O  O12  1  0.24400000  0.24400000  0.59200000  1.0 -0.6771599769
O  O13  1  0.75600000  0.34800000  0.00000000  1.0 -0.6771599769
O  O14  1  0.55600000  0.06400000  0.00000000  1.0 -0.5684339524
O  O15  1  0.44400000  0.44400000  0.50800000  1.0 -0.5684339524
O  O16  1  0.93600000  0.93600000  0.49200000  1.0 -0.5684339524
O  O17  1  0.06400000  0.55600000  0.00000000  1.0 -0.5684339524
