# DDEC6 charges by PACMAN v1.1 (https://github.com/mtap-research/PACMAN-charge/)
data_SINXET_ion_pacman
_symmetry_space_group_name_H-M   'P 1'
_cell_length_a   11.55900000
_cell_length_b   20.74800000
_cell_length_c   23.68400000
_cell_angle_alpha   90.00000000
_cell_angle_beta   90.00000000
_cell_angle_gamma   90.00000000
_symmetry_Int_Tables_number   1
_chemical_formula_structural   Eu4H23C22N6ClO32
_chemical_formula_sum   'Eu16 H92 C88 N24 Cl4 O128'
_cell_volume   5680.04211029
_cell_formula_units_Z   4
loop_
 _symmetry_equiv_pos_site_id
 _symmetry_equiv_pos_as_xyz
  1  'x, y, z'
loop_
 _atom_site_type_symbol
 _atom_site_label
 _atom_site_symmetry_multiplicity
 _atom_site_fract_x
 _atom_site_fract_y
 _atom_site_fract_z
 _atom_site_occupancy
 _atom_site_charge
Eu  Eu1  1  0.08672000  0.02309000  0.22335000  1.0 2.17028148
Eu  Eu2  1  0.41328000  0.97691000  0.72335000  1.0 2.17028148
Eu  Eu3  1  0.91328000  0.52309000  0.27665000  1.0 2.17028148
Eu  Eu4  1  0.58672000  0.47691000  0.77665000  1.0 2.17028148
Eu  Eu5  1  0.26048000  0.11548000  0.33073000  1.0 2.1048008902
Eu  Eu6  1  0.23952000  0.88452000  0.83073000  1.0 2.1048008902
Eu  Eu7  1  0.73952000  0.61548000  0.16927000  1.0 2.1048008902
Eu  Eu8  1  0.76048000  0.38452000  0.66927000  1.0 2.1048008902
Eu  Eu9  1  0.42202000  0.00927000  0.22632000  1.0 2.2011947138
Eu  Eu10  1  0.07798000  0.99073000  0.72632000  1.0 2.2011947138
Eu  Eu11  1  0.57798000  0.50927000  0.27368000  1.0 2.2011947138
Eu  Eu12  1  0.92202000  0.49073000  0.77368000  1.0 2.2011947138
Eu  Eu13  1  0.23788000  0.92810000  0.34095000  1.0 2.1583528025
Eu  Eu14  1  0.26212000  0.07190000  0.84095000  1.0 2.1583528025
Eu  Eu15  1  0.76212000  0.42810000  0.15905000  1.0 2.1583528025
Eu  Eu16  1  0.73788000  0.57190000  0.65905000  1.0 2.1583528025
H  H1  1  0.85740000  0.22030000  0.23880000  1.0 0.2820563808
H  H2  1  0.64260000  0.77970000  0.73880000  1.0 0.2820563808
H  H3  1  0.14260000  0.72030000  0.26120000  1.0 0.2820563808
H  H4  1  0.35740000  0.27970000  0.76120000  1.0 0.2820563808
H  H5  1  0.89590000  0.20610000  0.18170000  1.0 0.28742089
H  H6  1  0.60410000  0.79390000  0.68170000  1.0 0.28742089
H  H7  1  0.10410000  0.70610000  0.31830000  1.0 0.28742089
H  H8  1  0.39590000  0.29390000  0.81830000  1.0 0.28742089
H  H9  1  0.86090000  0.27120000  0.19670000  1.0 0.28742089
H  H10  1  0.63910000  0.72880000  0.69670000  1.0 0.28742089
H  H11  1  0.13910000  0.77120000  0.30330000  1.0 0.28742089
H  H12  1  0.36090000  0.22880000  0.80330000  1.0 0.28742089
H  H13  1  0.43090000  0.01540000  0.03370000  1.0 0.28742089
H  H14  1  0.06910000  0.98460000  0.53370000  1.0 0.28742089
H  H15  1  0.56910000  0.51540000  0.46630000  1.0 0.28742089
H  H16  1  0.93090000  0.48460000  0.96630000  1.0 0.28742089
H  H17  1  0.39560000  0.08250000  0.03690000  1.0 0.2820563808
H  H18  1  0.10440000  0.91750000  0.53690000  1.0 0.28742089
H  H19  1  0.60440000  0.58250000  0.46310000  1.0 0.28742089
H  H20  1  0.89560000  0.41750000  0.96310000  1.0 0.28742089
H  H21  1  0.37920000  0.04660000  0.98490000  1.0 0.3094879975
H  H22  1  0.12080000  0.95340000  0.48490000  1.0 0.3094879975
H  H23  1  0.62080000  0.54660000  0.51510000  1.0 0.3094879975
H  H24  1  0.87920000  0.45340000  0.01510000  1.0 0.3094879975
H  H25  1  0.34990000  0.30140000  0.24770000  1.0 0.2820563808
H  H26  1  0.15010000  0.69860000  0.74770000  1.0 0.2820563808
H  H27  1  0.65010000  0.80140000  0.25230000  1.0 0.2820563808
H  H28  1  0.84990000  0.19860000  0.75230000  1.0 0.2820563808
H  H29  1  0.38920000  0.33430000  0.29840000  1.0 0.2679043514
H  H30  1  0.11080000  0.66570000  0.79840000  1.0 0.2679043514
H  H31  1  0.61080000  0.83430000  0.20160000  1.0 0.2679043514
H  H32  1  0.88920000  0.16570000  0.70160000  1.0 0.2679043514
H  H33  1  0.36670000  0.26540000  0.29980000  1.0 0.28742089
H  H34  1  0.13330000  0.73460000  0.79980000  1.0 0.28742089
H  H35  1  0.63330000  0.76540000  0.20020000  1.0 0.28742089
H  H36  1  0.86670000  0.23460000  0.70020000  1.0 0.28742089
H  H37  1  0.79020000  0.82910000  0.46380000  1.0 0.3094879975
H  H38  1  0.70980000  0.17090000  0.96380000  1.0 0.3094879975
H  H39  1  0.20980000  0.32910000  0.03620000  1.0 0.3094879975
H  H40  1  0.29020000  0.67090000  0.53620000  1.0 0.3094879975
H  H41  1  0.68390000  0.80880000  0.43290000  1.0 0.3224716288
H  H42  1  0.81610000  0.19120000  0.93290000  1.0 0.3224716288
H  H43  1  0.31610000  0.30880000  0.06710000  1.0 0.3224716288
H  H44  1  0.18390000  0.69120000  0.56710000  1.0 0.3224716288
H  H45  1  0.05850000  0.26520000  0.19190000  1.0 0.1355178905
H  H46  1  0.44150000  0.73480000  0.69190000  1.0 0.1355178905
H  H47  1  0.94150000  0.76520000  0.30810000  1.0 0.1355178905
H  H48  1  0.55850000  0.23480000  0.80810000  1.0 0.1355178905
H  H49  1  0.97800000  0.28950000  0.30240000  1.0 0.1614290739
H  H50  1  0.52200000  0.71050000  0.80240000  1.0 0.1614290739
H  H51  1  0.02200000  0.78950000  0.19760000  1.0 0.1614290739
H  H52  1  0.47800000  0.21050000  0.69760000  1.0 0.1614290739
H  H53  1  0.10040000  0.30990000  0.28070000  1.0 0.1704912387
H  H54  1  0.39960000  0.69010000  0.78070000  1.0 0.1704912387
H  H55  1  0.89960000  0.80990000  0.21930000  1.0 0.1704912387
H  H56  1  0.60040000  0.19010000  0.71930000  1.0 0.1704912387
H  H57  1  0.20250000  0.05610000  0.03110000  1.0 0.0942581249
H  H58  1  0.29750000  0.94390000  0.53110000  1.0 0.0942581249
H  H59  1  0.79750000  0.55610000  0.46890000  1.0 0.0942581249
H  H60  1  0.70250000  0.44390000  0.96890000  1.0 0.0942581249
H  H61  1  0.15150000  0.94740000  0.03020000  1.0 0.1704912387
H  H62  1  0.34850000  0.05260000  0.53020000  1.0 0.1704912387
H  H63  1  0.84850000  0.44740000  0.46980000  1.0 0.1704912387
H  H64  1  0.65150000  0.55260000  0.96980000  1.0 0.1704912387
H  H65  1  0.28240000  0.92810000  0.02700000  1.0 0.1704912387
H  H66  1  0.21760000  0.07190000  0.52700000  1.0 0.1704912387
H  H67  1  0.71760000  0.42810000  0.47300000  1.0 0.1704912387
H  H68  1  0.78240000  0.57190000  0.97300000  1.0 0.1704912387
H  H69  1  0.47470000  0.24160000  0.18790000  1.0 0.1614290739
H  H70  1  0.02530000  0.75840000  0.68790000  1.0 0.1614290739
H  H71  1  0.52530000  0.74160000  0.31210000  1.0 0.1614290739
H  H72  1  0.97470000  0.25840000  0.81210000  1.0 0.1614290739
H  H73  1  0.60070000  0.22640000  0.20810000  1.0 0.1614290739
H  H74  1  0.89930000  0.77360000  0.70810000  1.0 0.1614290739
H  H75  1  0.39930000  0.72640000  0.29190000  1.0 0.1614290739
H  H76  1  0.10070000  0.27360000  0.79190000  1.0 0.1614290739
H  H77  1  0.55590000  0.27190000  0.29680000  1.0 0.1227728845
H  H78  1  0.94410000  0.72810000  0.79680000  1.0 0.1227728845
H  H79  1  0.44410000  0.77190000  0.20320000  1.0 0.1227728845
H  H80  1  0.05590000  0.22810000  0.70320000  1.0 0.1227728845
H  H81  1  0.84840000  0.94410000  0.45310000  1.0 0.1315496554
H  H82  1  0.65160000  0.05590000  0.95310000  1.0 0.1315496554
H  H83  1  0.15160000  0.44410000  0.04690000  1.0 0.1315496554
H  H84  1  0.34840000  0.55590000  0.54690000  1.0 0.1315496554
H  H85  1  0.85460000  0.96800000  0.39050000  1.0 0.1538719339
H  H86  1  0.64540000  0.03200000  0.89050000  1.0 0.1538719339
H  H87  1  0.14540000  0.46800000  0.10950000  1.0 0.1538719339
H  H88  1  0.35460000  0.53200000  0.60950000  1.0 0.1538719339
H  H89  1  0.68460000  0.91720000  0.40710000  1.0 0.1076158015
H  H90  1  0.81540000  0.08280000  0.90710000  1.0 0.1076158015
H  H91  1  0.31540000  0.41720000  0.09290000  1.0 0.1076158015
H  H92  1  0.18460000  0.58280000  0.59290000  1.0 0.1076158015
C  C1  1  0.07330000  0.18820000  0.24740000  1.0 0.5851301057
C  C2  1  0.42670000  0.81180000  0.74740000  1.0 0.5851301057
C  C3  1  0.92670000  0.68820000  0.25260000  1.0 0.5851301057
C  C4  1  0.57330000  0.31180000  0.75260000  1.0 0.5851301057
C  C5  1  0.01640000  0.25070000  0.22550000  1.0 0.061654979
C  C6  1  0.48360000  0.74930000  0.72550000  1.0 0.061654979
C  C7  1  0.98360000  0.75070000  0.27450000  1.0 0.061654979
C  C8  1  0.51640000  0.24930000  0.77450000  1.0 0.061654979
C  C9  1  0.02050000  0.30370000  0.26940000  1.0 -0.3577196918
C  C10  1  0.47950000  0.69630000  0.76940000  1.0 -0.3577196918
C  C11  1  0.97950000  0.80370000  0.23060000  1.0 -0.3577196918
C  C12  1  0.52050000  0.19630000  0.73060000  1.0 -0.3577196918
C  C13  1  0.97250000  0.36740000  0.25100000  1.0 0.7124170241
C  C14  1  0.52750000  0.63260000  0.75100000  1.0 0.7124170241
C  C15  1  0.02750000  0.86740000  0.24900000  1.0 0.7124170241
C  C16  1  0.47250000  0.13260000  0.74900000  1.0 0.7124170241
C  C17  1  0.25810000  0.01720000  0.10690000  1.0 0.6461997134
C  C18  1  0.24190000  0.98280000  0.60690000  1.0 0.6461997134
C  C19  1  0.74190000  0.51720000  0.39310000  1.0 0.6461997134
C  C20  1  0.75810000  0.48280000  0.89310000  1.0 0.6461997134
C  C21  1  0.25900000  0.02330000  0.04240000  1.0 0.0311018032
C  C22  1  0.24100000  0.97670000  0.54240000  1.0 0.0311018032
C  C23  1  0.74100000  0.52330000  0.45760000  1.0 0.0311018032
C  C24  1  0.75900000  0.47670000  0.95760000  1.0 0.0311018032
C  C25  1  0.22650000  0.96060000  0.01590000  1.0 -0.3989735442
C  C26  1  0.27350000  0.03940000  0.51590000  1.0 -0.3989735442
C  C27  1  0.77350000  0.46060000  0.48410000  1.0 -0.3989735442
C  C28  1  0.72650000  0.53940000  0.98410000  1.0 -0.3989735442
C  C29  1  0.22130000  0.96330000  0.95290000  1.0 0.7124170241
C  C30  1  0.27870000  0.03670000  0.45290000  1.0 0.7124170241
C  C31  1  0.77870000  0.46330000  0.54710000  1.0 0.7124170241
C  C32  1  0.72130000  0.53670000  0.04710000  1.0 0.7124170241
C  C33  1  0.48160000  0.16620000  0.24200000  1.0 0.7257943851
C  C34  1  0.01840000  0.83380000  0.74200000  1.0 0.7257943851
C  C35  1  0.51840000  0.66620000  0.25800000  1.0 0.7257943851
C  C36  1  0.98160000  0.33380000  0.75800000  1.0 0.7257943851
C  C37  1  0.52110000  0.23040000  0.22060000  1.0 -0.3687930825
C  C38  1  0.97890000  0.76960000  0.72060000  1.0 -0.3687930825
C  C39  1  0.47890000  0.73040000  0.27940000  1.0 -0.3687930825
C  C40  1  0.02110000  0.26960000  0.77940000  1.0 -0.3687930825
C  C41  1  0.51400000  0.28510000  0.26270000  1.0 0.0518355953
C  C42  1  0.98600000  0.71490000  0.76270000  1.0 0.0518355953
C  C43  1  0.48600000  0.78510000  0.23730000  1.0 0.0518355953
C  C44  1  0.01400000  0.21490000  0.73730000  1.0 0.0518355953
C  C45  1  0.56990000  0.34780000  0.24080000  1.0 0.611251573
C  C46  1  0.93010000  0.65220000  0.74080000  1.0 0.611251573
C  C47  1  0.43010000  0.84780000  0.25920000  1.0 0.611251573
C  C48  1  0.06990000  0.15220000  0.75920000  1.0 0.611251573
C  C49  1  0.96980000  0.89700000  0.40730000  1.0 0.6564998133
C  C50  1  0.53020000  0.10300000  0.90730000  1.0 0.6564998133
C  C51  1  0.03020000  0.39700000  0.09270000  1.0 0.6564998133
C  C52  1  0.46980000  0.60300000  0.59270000  1.0 0.6564998133
C  C53  1  0.85540000  0.92990000  0.41420000  1.0 -0.3577196918
C  C54  1  0.64460000  0.07010000  0.91420000  1.0 -0.3577196918
C  C55  1  0.14460000  0.42990000  0.08580000  1.0 -0.3577196918
C  C56  1  0.35540000  0.57010000  0.58580000  1.0 -0.3577196918
C  C57  1  0.75230000  0.88980000  0.40010000  1.0 0.0518355953
C  C58  1  0.74770000  0.11020000  0.90010000  1.0 0.0518355953
C  C59  1  0.24770000  0.38980000  0.09990000  1.0 0.0518355953
C  C60  1  0.25230000  0.61020000  0.59990000  1.0 0.0518355953
C  C61  1  0.74470000  0.86910000  0.33690000  1.0 0.5513991219
C  C62  1  0.75530000  0.13090000  0.83690000  1.0 0.5513991219
C  C63  1  0.25530000  0.36910000  0.16310000  1.0 0.5513991219
C  C64  1  0.24470000  0.63090000  0.66310000  1.0 0.5513991219
C  C65  1  0.90850000  0.17980000  0.42300000  1.0 0.061654979
C  C66  1  0.59150000  0.82020000  0.92300000  1.0 0.061654979
C  C67  1  0.09150000  0.67980000  0.07700000  1.0 0.061654979
C  C68  1  0.40850000  0.32020000  0.57700000  1.0 0.061654979
C  C69  1  0.78660000  0.16240000  0.33550000  1.0 0.4189329026
C  C70  1  0.71340000  0.83760000  0.83550000  1.0 0.4189329026
C  C71  1  0.21340000  0.66240000  0.16450000  1.0 0.4189329026
C  C72  1  0.28660000  0.33760000  0.66450000  1.0 0.4189329026
C  C73  1  0.02390000  0.18730000  0.40040000  1.0 0.2820563808
C  C74  1  0.47610000  0.81270000  0.90040000  1.0 0.2820563808
C  C75  1  0.97610000  0.68730000  0.09960000  1.0 0.2820563808
C  C76  1  0.52390000  0.31270000  0.59960000  1.0 0.2820563808
C  C77  1  0.83560000  0.13100000  0.38940000  1.0 0.1030992707
C  C78  1  0.66440000  0.86900000  0.88940000  1.0 0.1030992707
C  C79  1  0.16440000  0.63100000  0.11060000  1.0 0.1030992707
C  C80  1  0.33560000  0.36900000  0.61060000  1.0 0.1030992707
C  C81  1  0.98050000  0.13540000  0.39000000  1.0 0.2524746833
C  C82  1  0.51950000  0.86460000  0.89000000  1.0 0.2524746833
C  C83  1  0.01950000  0.63540000  0.11000000  1.0 0.2524746833
C  C84  1  0.48050000  0.36460000  0.61000000  1.0 0.2524746833
C  C85  1  0.78200000  0.17360000  0.40050000  1.0 0.0795566206
C  C86  1  0.71800000  0.82640000  0.90050000  1.0 0.0795566206
C  C87  1  0.21800000  0.67360000  0.09950000  1.0 0.0795566206
C  C88  1  0.28200000  0.32640000  0.59950000  1.0 0.0795566206
N  N1  1  0.89550000  0.23550000  0.20900000  1.0 -0.418702165
N  N2  1  0.60450000  0.76450000  0.70900000  1.0 -0.418702165
N  N3  1  0.10450000  0.73550000  0.29100000  1.0 -0.418702165
N  N4  1  0.39550000  0.26450000  0.79100000  1.0 -0.418702165
N  N5  1  0.37860000  0.04410000  0.02240000  1.0 -0.4300067621
N  N6  1  0.12140000  0.95590000  0.52240000  1.0 -0.4300067621
N  N7  1  0.62140000  0.54410000  0.47760000  1.0 -0.4300067621
N  N8  1  0.87860000  0.45590000  0.97760000  1.0 -0.4300067621
N  N9  1  0.39300000  0.29780000  0.27870000  1.0 -0.418702165
N  N10  1  0.10700000  0.70220000  0.77870000  1.0 -0.418702165
N  N11  1  0.60700000  0.79780000  0.22130000  1.0 -0.418702165
N  N12  1  0.89300000  0.20220000  0.72130000  1.0 -0.418702165
N  N13  1  0.74050000  0.83520000  0.43730000  1.0 -0.4612272727
N  N14  1  0.75950000  0.16480000  0.93730000  1.0 -0.4612272727
N  N15  1  0.25950000  0.33520000  0.06270000  1.0 -0.4612272727
N  N16  1  0.24050000  0.66480000  0.56270000  1.0 -0.4612272727
N  N17  1  0.85260000  0.24140000  0.43770000  1.0 -0.1581493291
N  N18  1  0.64740000  0.75860000  0.93770000  1.0 -0.1581493291
N  N19  1  0.14740000  0.74140000  0.06230000  1.0 -0.1581493291
N  N20  1  0.35260000  0.25860000  0.56230000  1.0 -0.1581493291
N  N21  1  0.75100000  0.11250000  0.43100000  1.0 -0.2154874513
N  N22  1  0.74900000  0.88750000  0.93100000  1.0 -0.2154874513
N  N23  1  0.24900000  0.61250000  0.06900000  1.0 -0.2154874513
N  N24  1  0.25100000  0.38750000  0.56900000  1.0 -0.2154874513
Cl  Cl1  1  0.18330000  0.19168000  0.01776000  1.0 -0.418702165
Cl  Cl2  1  0.31670000  0.80832000  0.51776000  1.0 -0.418702165
Cl  Cl3  1  0.81670000  0.69168000  0.48224000  1.0 -0.418702165
Cl  Cl4  1  0.68330000  0.30832000  0.98224000  1.0 -0.418702165
O  O1  1  0.13350000  0.02590000  0.32090000  1.0 -0.8659556406
O  O2  1  0.36650000  0.97410000  0.82090000  1.0 -0.8659556406
O  O3  1  0.86650000  0.52590000  0.17910000  1.0 -0.8659556406
O  O4  1  0.63350000  0.47410000  0.67910000  1.0 -0.8659556406
O  O5  1  0.26150000  0.08121000  0.23339000  1.0 -1.0330468314
O  O6  1  0.23850000  0.91879000  0.73339000  1.0 -1.0330468314
O  O7  1  0.73850000  0.58121000  0.26661000  1.0 -1.0330468314
O  O8  1  0.76150000  0.41879000  0.76661000  1.0 -1.0330468314
O  O9  1  0.24510000  0.95324000  0.24009000  1.0 -1.0577468472
O  O10  1  0.25490000  0.04676000  0.74009000  1.0 -1.0577468472
O  O11  1  0.75490000  0.45324000  0.25991000  1.0 -1.0577468472
O  O12  1  0.74510000  0.54676000  0.75991000  1.0 -1.0577468472
O  O13  1  0.37070000  0.01730000  0.32160000  1.0 -0.966081311
O  O14  1  0.12930000  0.98270000  0.82160000  1.0 -0.966081311
O  O15  1  0.62930000  0.51730000  0.17840000  1.0 -0.966081311
O  O16  1  0.87070000  0.48270000  0.67840000  1.0 -0.966081311
O  O17  1  0.02670000  0.13520000  0.23590000  1.0 -0.5637002634
O  O18  1  0.47330000  0.86480000  0.73590000  1.0 -0.5637002634
O  O19  1  0.97330000  0.63520000  0.26410000  1.0 -0.5637002634
O  O20  1  0.52670000  0.36480000  0.76410000  1.0 -0.5637002634
O  O21  1  0.16490000  0.19680000  0.27500000  1.0 -0.5375357168
O  O22  1  0.33510000  0.80320000  0.77500000  1.0 -0.5375357168
O  O23  1  0.83510000  0.69680000  0.22500000  1.0 -0.5375357168
O  O24  1  0.66490000  0.30320000  0.72500000  1.0 -0.5375357168
O  O25  1  0.91350000  0.37010000  0.20660000  1.0 -0.570584097
O  O26  1  0.58650000  0.62990000  0.70660000  1.0 -0.570584097
O  O27  1  0.08650000  0.87010000  0.29340000  1.0 -0.570584097
O  O28  1  0.41350000  0.12990000  0.79340000  1.0 -0.570584097
O  O29  1  0.99350000  0.41550000  0.28300000  1.0 -0.570584097
O  O30  1  0.50650000  0.58450000  0.78300000  1.0 -0.570584097
O  O31  1  0.00650000  0.91550000  0.21700000  1.0 -0.570584097
O  O32  1  0.49350000  0.08450000  0.71700000  1.0 -0.570584097
O  O33  1  0.16180000  0.01610000  0.12930000  1.0 -0.5794970179
O  O34  1  0.33820000  0.98390000  0.62930000  1.0 -0.5794970179
O  O35  1  0.83820000  0.51610000  0.37070000  1.0 -0.5794970179
O  O36  1  0.66180000  0.48390000  0.87070000  1.0 -0.5794970179
O  O37  1  0.35520000  0.01260000  0.13090000  1.0 -0.5794970179
O  O38  1  0.14480000  0.98740000  0.63090000  1.0 -0.5794970179
O  O39  1  0.64480000  0.51260000  0.36910000  1.0 -0.5794970179
O  O40  1  0.85520000  0.48740000  0.86910000  1.0 -0.5794970179
O  O41  1  0.23740000  0.01650000  0.92894000  1.0 -0.5637002634
O  O42  1  0.26260000  0.98350000  0.42894000  1.0 -0.5637002634
O  O43  1  0.76260000  0.51650000  0.57106000  1.0 -0.5637002634
O  O44  1  0.73740000  0.48350000  0.07106000  1.0 -0.5637002634
O  O45  1  0.20270000  0.91160000  0.92720000  1.0 -0.5794970179
O  O46  1  0.29730000  0.08840000  0.42720000  1.0 -0.5794970179
O  O47  1  0.79730000  0.41160000  0.57280000  1.0 -0.5794970179
O  O48  1  0.70270000  0.58840000  0.07280000  1.0 -0.5794970179
O  O49  1  0.43420000  0.16220000  0.28940000  1.0 -0.570584097
O  O50  1  0.06580000  0.83780000  0.78940000  1.0 -0.570584097
O  O51  1  0.56580000  0.66220000  0.21060000  1.0 -0.570584097
O  O52  1  0.93420000  0.33780000  0.71060000  1.0 -0.570584097
O  O53  1  0.49840000  0.11730000  0.21010000  1.0 -0.5897255438
O  O54  1  0.00160000  0.88270000  0.71010000  1.0 -0.5897255438
O  O55  1  0.50160000  0.61730000  0.28990000  1.0 -0.5897255438
O  O56  1  0.99840000  0.38270000  0.78990000  1.0 -0.5897255438
O  O57  1  0.52340000  0.39860000  0.25640000  1.0 -0.570584097
O  O58  1  0.97660000  0.60140000  0.75640000  1.0 -0.570584097
O  O59  1  0.47660000  0.89860000  0.24360000  1.0 -0.570584097
O  O60  1  0.02340000  0.10140000  0.74360000  1.0 -0.570584097
O  O61  1  0.65630000  0.34180000  0.21030000  1.0 -0.5284092101
O  O62  1  0.84370000  0.65820000  0.71030000  1.0 -0.5284092101
O  O63  1  0.34370000  0.84180000  0.28970000  1.0 -0.5284092101
O  O64  1  0.15630000  0.15820000  0.78970000  1.0 -0.5284092101
O  O65  1  0.05640000  0.93380000  0.40050000  1.0 -0.5794970179
O  O66  1  0.44360000  0.06620000  0.90050000  1.0 -0.5794970179
O  O67  1  0.94360000  0.43380000  0.09950000  1.0 -0.5794970179
O  O68  1  0.55640000  0.56620000  0.59950000  1.0 -0.5794970179
O  O69  1  0.97160000  0.83650000  0.40780000  1.0 -0.4384083646
O  O70  1  0.52840000  0.16350000  0.90780000  1.0 -0.4384083646
O  O71  1  0.02840000  0.33650000  0.09220000  1.0 -0.4384083646
O  O72  1  0.47160000  0.66350000  0.59220000  1.0 -0.4384083646
O  O73  1  0.76540000  0.91320000  0.30230000  1.0 -0.4300067621
O  O74  1  0.73460000  0.08680000  0.80230000  1.0 -0.4300067621
O  O75  1  0.23460000  0.41320000  0.19770000  1.0 -0.4300067621
O  O76  1  0.26540000  0.58680000  0.69770000  1.0 -0.4300067621
O  O77  1  0.71880000  0.81290000  0.32660000  1.0 -0.5284092101
O  O78  1  0.78120000  0.18710000  0.82660000  1.0 -0.5284092101
O  O79  1  0.28120000  0.31290000  0.17340000  1.0 -0.5284092101
O  O80  1  0.21880000  0.68710000  0.67340000  1.0 -0.5284092101
O  O81  1  0.08400000  0.14450000  0.38060000  1.0 -0.2820756259
O  O82  1  0.41600000  0.85550000  0.88060000  1.0 -0.2820756259
O  O83  1  0.91600000  0.64450000  0.11940000  1.0 -0.2820756259
O  O84  1  0.58400000  0.35550000  0.61940000  1.0 -0.2820756259
O  O85  1  0.80200000  0.21580000  0.31730000  1.0 -0.4142396944
O  O86  1  0.69800000  0.78420000  0.81730000  1.0 -0.4142396944
O  O87  1  0.19800000  0.71580000  0.18270000  1.0 -0.4142396944
O  O88  1  0.30200000  0.28420000  0.68270000  1.0 -0.4142396944
O  O89  1  0.75030000  0.11880000  0.30580000  1.0 -0.3315704586
O  O90  1  0.74970000  0.88120000  0.80580000  1.0 -0.3315704586
O  O91  1  0.24970000  0.61880000  0.19420000  1.0 -0.3315704586
O  O92  1  0.25030000  0.38120000  0.69420000  1.0 -0.3315704586
O  O93  1  0.93290000  0.03900000  0.15360000  1.0 -0.5036663907
O  O94  1  0.56710000  0.96100000  0.65360000  1.0 -0.5036663907
O  O95  1  0.06710000  0.53900000  0.34640000  1.0 -0.5036663907
O  O96  1  0.43290000  0.46100000  0.84640000  1.0 -0.5036663907
O  O97  1  0.90180000  0.02130000  0.27780000  1.0 0.0795566206
O  O98  1  0.59820000  0.97870000  0.77780000  1.0 0.0795566206
O  O99  1  0.09820000  0.52130000  0.22220000  1.0 0.0795566206
O  O100  1  0.40180000  0.47870000  0.72220000  1.0 0.0795566206
O  O101  1  0.30070000  0.22330000  0.37560000  1.0 -0.3378662738
O  O102  1  0.19930000  0.77670000  0.87560000  1.0 -0.3378662738
O  O103  1  0.69930000  0.72330000  0.12440000  1.0 -0.3378662738
O  O104  1  0.80070000  0.27670000  0.62440000  1.0 -0.3378662738
O  O105  1  0.58270000  0.99520000  0.15880000  1.0 -0.5083253579
O  O106  1  0.91730000  0.00480000  0.65880000  1.0 -0.5083253579
O  O107  1  0.41730000  0.49520000  0.34120000  1.0 -0.5083253579
O  O108  1  0.08270000  0.50480000  0.84120000  1.0 -0.5083253579
O  O109  1  0.60690000  0.01340000  0.28070000  1.0 0.0518355953
O  O110  1  0.89310000  0.98660000  0.78070000  1.0 0.061654979
O  O111  1  0.39310000  0.51340000  0.21930000  1.0 0.0518355953
O  O112  1  0.10690000  0.48660000  0.71930000  1.0 0.0518355953
O  O113  1  0.42540000  0.89750000  0.38860000  1.0 -0.346057986
O  O114  1  0.07460000  0.10250000  0.88860000  1.0 -0.346057986
O  O115  1  0.57460000  0.39750000  0.11140000  1.0 -0.346057986
O  O116  1  0.92540000  0.60250000  0.61140000  1.0 -0.346057986
O  O117  1  0.20270000  0.82260000  0.39290000  1.0 -0.3577196918
O  O118  1  0.29730000  0.17740000  0.89290000  1.0 -0.3577196918
O  O119  1  0.79730000  0.32260000  0.10710000  1.0 -0.3577196918
O  O120  1  0.70270000  0.67740000  0.60710000  1.0 -0.3577196918
O  O121  1  0.07020000  0.24460000  0.40160000  1.0 -0.3315704586
O  O122  1  0.42980000  0.75540000  0.90160000  1.0 -0.3315704586
O  O123  1  0.92980000  0.74460000  0.09840000  1.0 -0.3315704586
O  O124  1  0.57020000  0.25540000  0.59840000  1.0 -0.3315704586
O  O125  1  0.94890000  0.08090000  0.38160000  1.0 -0.1940381239
O  O126  1  0.55110000  0.91910000  0.88160000  1.0 -0.1940381239
O  O127  1  0.05110000  0.58090000  0.11840000  1.0 -0.1940381239
O  O128  1  0.44890000  0.41910000  0.61840000  1.0 -0.1940381239
