# DDEC6 charges by PACMAN v1.1 (https://github.com/mtap-research/PACMAN-charge/)
data_SIQCUS_FSR_pacman
_symmetry_space_group_name_H-M   'P 1'
_cell_length_a   13.07500000
_cell_length_b   13.86000000
_cell_length_c   14.25600000
_cell_angle_alpha   90.00000000
_cell_angle_beta   108.00100000
_cell_angle_gamma   90.00000000
_symmetry_Int_Tables_number   1
_chemical_formula_structural   CsCd2H26C35NO17
_chemical_formula_sum   'Cs2 Cd4 H52 C70 N2 O34'
_cell_volume   2457.00747153
_cell_formula_units_Z   2
loop_
 _symmetry_equiv_pos_site_id
 _symmetry_equiv_pos_as_xyz
  1  'x, y, z'
loop_
 _atom_site_type_symbol
 _atom_site_label
 _atom_site_symmetry_multiplicity
 _atom_site_fract_x
 _atom_site_fract_y
 _atom_site_fract_z
 _atom_site_occupancy
 _atom_site_charge
Cs  Cs1  1  0.75505000  0.13542000  0.76083000  1.0 0.8803826015
Cs  Cs2  1  0.24495000  0.63542000  0.23917000  1.0 0.8803826015
Cd  Cd1  1  0.99762000  0.30858000  0.74313000  1.0 0.9724878114
Cd  Cd2  1  0.00238000  0.80858000  0.25687000  1.0 0.9724878114
Cd  Cd3  1  0.48833000  0.96610000  0.76273000  1.0 0.961070035
Cd  Cd4  1  0.51167000  0.46610000  0.23727000  1.0 0.961070035
H  H1  1  0.02650000  0.59570000  0.54930000  1.0 0.1290304886
H  H2  1  0.97350000  0.09570000  0.45070000  1.0 0.1290304886
H  H3  1  0.30600000  0.70830000  0.54000000  1.0 0.1290304886
H  H4  1  0.69400000  0.20830000  0.46000000  1.0 0.1290304886
H  H5  1  0.39620000  0.61550000  0.67350000  1.0 0.1216378023
H  H6  1  0.60380000  0.11550000  0.32650000  1.0 0.1216378023
H  H7  1  0.30420000  0.50590000  0.73920000  1.0 0.1216378023
H  H8  1  0.69580000  0.00590000  0.26080000  1.0 0.1216378023
H  H9  1  0.02360000  0.03320000  0.00020000  1.0 0.1290304886
H  H10  1  0.97640000  0.53320000  0.99980000  1.0 0.1216378023
H  H11  1  0.27130000  0.08010000  0.89560000  1.0 0.1428151395
H  H12  1  0.72870000  0.58010000  0.10440000  1.0 0.1428151395
H  H13  1  0.36660000  0.95760000  0.99580000  1.0 0.1290304886
H  H14  1  0.63340000  0.45760000  0.00420000  1.0 0.1290304886
H  H15  1  0.29560000  0.88200000  0.10570000  1.0 0.1216378023
H  H16  1  0.70440000  0.38200000  0.89430000  1.0 0.1216378023
H  H17  1  0.45830000  0.67790000  0.95560000  1.0 0.1290304886
H  H18  1  0.54170000  0.17790000  0.04440000  1.0 0.1290304886
H  H19  1  0.18370000  0.57000000  0.97600000  1.0 0.1216378023
H  H20  1  0.81630000  0.07000000  0.02400000  1.0 0.1216378023
H  H21  1  0.08690000  0.67010000  0.84800000  1.0 0.1290304886
H  H22  1  0.91310000  0.17010000  0.15200000  1.0 0.1290304886
H  H23  1  0.17730000  0.77890000  0.77970000  1.0 0.1290304886
H  H24  1  0.82270000  0.27890000  0.22030000  1.0 0.1290304886
H  H25  1  0.50550000  0.23820000  0.53870000  1.0 0.1290304886
H  H26  1  0.49450000  0.73820000  0.46130000  1.0 0.1290304886
H  H27  1  0.24240000  0.23730000  0.62540000  1.0 0.1428151395
H  H28  1  0.75760000  0.73730000  0.37460000  1.0 0.1428151395
H  H29  1  0.17220000  0.36430000  0.52040000  1.0 0.1290304886
H  H30  1  0.82780000  0.86430000  0.47960000  1.0 0.1290304886
H  H31  1  0.26390000  0.42140000  0.41690000  1.0 0.1216378023
H  H32  1  0.73610000  0.92140000  0.58310000  1.0 0.1216378023
H  H33  1  0.88370000  0.79020000  0.78790000  1.0 0.1123571213
H  H34  1  0.11630000  0.29020000  0.21210000  1.0 0.1216378023
H  H35  1  0.94880000  0.85730000  0.87420000  1.0 0.1123571213
H  H36  1  0.05120000  0.35730000  0.12580000  1.0 0.1123571213
H  H37  1  0.88290000  0.73780000  0.94610000  1.0 0.0696170371
H  H38  1  0.11710000  0.23780000  0.05390000  1.0 0.0696170371
H  H39  1  0.70110000  0.69870000  0.90710000  1.0 0.1428151395
H  H40  1  0.29890000  0.19870000  0.09290000  1.0 0.1428151395
H  H41  1  0.67320000  0.77190000  0.81900000  1.0 0.151480541
H  H42  1  0.32680000  0.27190000  0.18100000  1.0 0.151480541
H  H43  1  0.74090000  0.67940000  0.81580000  1.0 0.1428151395
H  H44  1  0.25910000  0.17940000  0.18420000  1.0 0.1428151395
H  H45  1  0.86750000  0.88930000  0.00660000  1.0 0.2776085477
H  H46  1  0.13250000  0.38930000  0.99340000  1.0 0.2776085477
H  H47  1  0.75680000  0.89760000  0.94350000  1.0 0.2686032395
H  H48  1  0.24320000  0.39760000  0.05650000  1.0 0.2686032395
H  H49  1  0.78520000  0.82660000  0.02240000  1.0 0.2686032395
H  H50  1  0.21480000  0.32660000  0.97760000  1.0 0.2686032395
H  H51  1  0.75400000  0.89550000  0.79340000  1.0 0.3104984503
H  H52  1  0.24600000  0.39550000  0.20660000  1.0 0.3104984503
C  C1  1  0.10120000  0.59760000  0.57240000  1.0 -0.100033833
C  C2  1  0.89880000  0.09760000  0.42760000  1.0 -0.100033833
C  C3  1  0.15660000  0.66000000  0.52850000  1.0 -0.0088732849
C  C4  1  0.84340000  0.16000000  0.47150000  1.0 -0.0088732849
C  C5  1  0.26800000  0.66610000  0.56760000  1.0 -0.0796706328
C  C6  1  0.73200000  0.16610000  0.43240000  1.0 -0.0796706328
C  C7  1  0.32190000  0.60990000  0.64670000  1.0 -0.0887230724
C  C8  1  0.67810000  0.10990000  0.35330000  1.0 -0.0887230724
C  C9  1  0.26640000  0.54500000  0.68700000  1.0 -0.100033833
C  C10  1  0.73360000  0.04500000  0.31300000  1.0 -0.100033833
C  C11  1  0.15630000  0.53780000  0.65060000  1.0 -0.0210928081
C  C12  1  0.84370000  0.03780000  0.34940000  1.0 -0.0210928081
C  C13  1  0.09610000  0.71420000  0.43740000  1.0 0.5503262769
C  C14  1  0.90390000  0.21420000  0.56260000  1.0 0.5503262769
C  C15  1  0.09620000  0.46250000  0.68760000  1.0 0.5403199982
C  C16  1  0.90380000  0.96250000  0.31240000  1.0 0.5403199982
C  C17  1  0.09330000  0.01910000  0.00060000  1.0 -0.1230333444
C  C18  1  0.90670000  0.51910000  0.99940000  1.0 -0.1230333444
C  C19  1  0.13770000  0.06870000  0.93830000  1.0 -0.0210928081
C  C20  1  0.86230000  0.56870000  0.06170000  1.0 -0.0210928081
C  C21  1  0.24110000  0.04670000  0.93710000  1.0 -0.0796706328
C  C22  1  0.75890000  0.54670000  0.06290000  1.0 -0.0796706328
C  C23  1  0.29860000  0.97460000  0.99810000  1.0 -0.0796706328
C  C24  1  0.70140000  0.47460000  0.00190000  1.0 -0.0796706328
C  C25  1  0.25500000  0.92790000  0.06250000  1.0 -0.100033833
C  C26  1  0.74500000  0.42790000  0.93750000  1.0 -0.100033833
C  C27  1  0.15190000  0.94840000  0.06360000  1.0 -0.0210928081
C  C28  1  0.84810000  0.44840000  0.93640000  1.0 -0.0210928081
C  C29  1  0.07400000  0.14690000  0.87270000  1.0 0.5503262769
C  C30  1  0.92600000  0.64690000  0.12730000  1.0 0.5503262769
C  C31  1  0.10530000  0.89870000  0.13500000  1.0 0.5563579242
C  C32  1  0.89470000  0.39870000  0.86500000  1.0 0.5563579242
C  C33  1  0.38350000  0.67790000  0.93540000  1.0 -0.100033833
C  C34  1  0.61650000  0.17790000  0.06460000  1.0 -0.100033833
C  C35  1  0.32910000  0.61450000  0.97860000  1.0 -0.025508491
C  C36  1  0.67090000  0.11450000  0.02140000  1.0 -0.025508491
C  C37  1  0.22010000  0.61230000  0.94690000  1.0 -0.1101426441
C  C38  1  0.77990000  0.11230000  0.05310000  1.0 -0.1101426441
C  C39  1  0.16160000  0.67320000  0.87070000  1.0 -0.0796706328
C  C40  1  0.83840000  0.17320000  0.12930000  1.0 -0.0796706328
C  C41  1  0.21580000  0.73760000  0.82960000  1.0 -0.0887230724
C  C42  1  0.78420000  0.23760000  0.17040000  1.0 -0.0887230724
C  C43  1  0.32680000  0.74140000  0.86210000  1.0 -0.0088732849
C  C44  1  0.67320000  0.24140000  0.13790000  1.0 -0.0088732849
C  C45  1  0.38660000  0.81530000  0.82330000  1.0 0.5403199982
C  C46  1  0.61340000  0.31530000  0.17670000  1.0 0.5403199982
C  C47  1  0.39340000  0.55330000  0.06410000  1.0 0.5503262769
C  C48  1  0.60660000  0.05330000  0.93590000  1.0 0.5503262769
C  C49  1  0.43730000  0.26180000  0.53340000  1.0 -0.100033833
C  C50  1  0.56270000  0.76180000  0.46660000  1.0 -0.100033833
C  C51  1  0.37970000  0.22250000  0.59070000  1.0 -0.0088732849
C  C52  1  0.62030000  0.72250000  0.40930000  1.0 -0.0088732849
C  C53  1  0.28070000  0.26200000  0.58560000  1.0 -0.0701113998
C  C54  1  0.71930000  0.76200000  0.41440000  1.0 -0.0701113998
C  C55  1  0.23800000  0.33750000  0.52230000  1.0 -0.0701113998
C  C56  1  0.76200000  0.83750000  0.47770000  1.0 -0.0701113998
C  C57  1  0.29400000  0.37270000  0.46190000  1.0 -0.100033833
C  C58  1  0.70600000  0.87270000  0.53810000  1.0 -0.100033833
C  C59  1  0.39400000  0.33650000  0.46750000  1.0 -0.0022927637
C  C60  1  0.60600000  0.83650000  0.53250000  1.0 -0.0022927637
C  C61  1  0.45760000  0.37410000  0.40040000  1.0 0.5503262769
C  C62  1  0.54240000  0.87410000  0.59960000  1.0 0.5503262769
C  C63  1  0.42490000  0.13680000  0.65550000  1.0 0.5563579242
C  C64  1  0.57510000  0.63680000  0.34450000  1.0 0.5563579242
C  C65  1  0.87710000  0.83520000  0.83780000  1.0 -0.0701113998
C  C66  1  0.12290000  0.33520000  0.16220000  1.0 -0.0701113998
C  C67  1  0.82930000  0.78360000  0.90730000  1.0 0.151480541
C  C68  1  0.17070000  0.28360000  0.09270000  1.0 0.151480541
C  C69  1  0.72670000  0.72830000  0.85780000  1.0 -0.4609606225
C  C70  1  0.27330000  0.22830000  0.14220000  1.0 -0.4609606225
N  N1  1  0.80750000  0.85680000  0.97710000  1.0 -0.4475464258
N  N2  1  0.19250000  0.35680000  0.02290000  1.0 -0.4475464258
O  O1  1  0.99500000  0.72290000  0.41720000  1.0 -0.4801102041
O  O2  1  0.00500000  0.22290000  0.58280000  1.0 -0.4801102041
O  O3  1  0.14630000  0.74760000  0.38270000  1.0 -0.5391751288
O  O4  1  0.85370000  0.24760000  0.61730000  1.0 -0.5391751288
O  O5  1  0.14900000  0.39760000  0.74380000  1.0 -0.5016136725
O  O6  1  0.85100000  0.89760000  0.25620000  1.0 -0.5016136725
O  O7  1  0.99440000  0.46210000  0.65824000  1.0 -0.4870545128
O  O8  1  0.00560000  0.96210000  0.34176000  1.0 -0.4801102041
O  O9  1  0.98310000  0.16980000  0.87670000  1.0 -0.6104757894
O  O10  1  0.01690000  0.66980000  0.12330000  1.0 -0.6104757894
O  O11  1  0.11570000  0.18970000  0.81450000  1.0 -0.5016136725
O  O12  1  0.88430000  0.68970000  0.18550000  1.0 -0.5016136725
O  O13  1  0.16720000  0.85540000  0.20766000  1.0 -0.5346345265
O  O14  1  0.83280000  0.35540000  0.79234000  1.0 -0.5391751288
O  O15  1  0.00450000  0.90200000  0.11850000  1.0 -0.5517592389
O  O16  1  0.99550000  0.40200000  0.88150000  1.0 -0.5517592389
O  O17  1  0.33460000  0.87300000  0.75720000  1.0 -0.4609606225
O  O18  1  0.66540000  0.37300000  0.24280000  1.0 -0.4609606225
O  O19  1  0.48630000  0.82130000  0.85710000  1.0 -0.5132977326
O  O20  1  0.51370000  0.32130000  0.14290000  1.0 -0.5132977326
O  O21  1  0.49380000  0.55320000  0.08960000  1.0 -0.4870545128
O  O22  1  0.50620000  0.05320000  0.91040000  1.0 -0.4870545128
O  O23  1  0.34160000  0.50590000  0.11180000  1.0 -0.6104757894
O  O24  1  0.65840000  0.00590000  0.88820000  1.0 -0.6104757894
O  O25  1  0.40030000  0.40790000  0.31740000  1.0 -0.5590986271
O  O26  1  0.59970000  0.90790000  0.68260000  1.0 -0.5590986271
O  O27  1  0.55480000  0.37060000  0.42840000  1.0 -0.4320297648
O  O28  1  0.44520000  0.87060000  0.57160000  1.0 -0.4320297648
O  O29  1  0.52180000  0.12100000  0.67980000  1.0 -0.5590986271
O  O30  1  0.47820000  0.62100000  0.32020000  1.0 -0.5590986271
O  O31  1  0.36140000  0.08330000  0.68180000  1.0 -0.4320297648
O  O32  1  0.63860000  0.58330000  0.31820000  1.0 -0.4320297648
O  O33  1  0.81440000  0.91560000  0.79070000  1.0 -0.4475464258
O  O34  1  0.18560000  0.41560000  0.20930000  1.0 -0.4475464258
