# DDEC6 charges by PACMAN v1.1 (https://github.com/mtap-research/PACMAN-charge/)
data_SIQFIH_ASR_pacman
_symmetry_space_group_name_H-M   'P 1'
_cell_length_a   9.27774000
_cell_length_b   9.27774000
_cell_length_c   11.54000000
_cell_angle_alpha   84.94530000
_cell_angle_beta   95.05470000
_cell_angle_gamma   138.29300000
_symmetry_Int_Tables_number   1
_chemical_formula_structural   Zr2P3O12F
_chemical_formula_sum   'Zr4 P6 O24 F2'
_cell_volume   657.93485968
_cell_formula_units_Z   2
loop_
 _symmetry_equiv_pos_site_id
 _symmetry_equiv_pos_as_xyz
  1  'x, y, z'
loop_
 _atom_site_type_symbol
 _atom_site_label
 _atom_site_symmetry_multiplicity
 _atom_site_fract_x
 _atom_site_fract_y
 _atom_site_fract_z
 _atom_site_occupancy
 _atom_site_charge
Zr  Zr1  1  0.28534000  0.00492000  0.89983000  1.0 2.4944765452
Zr  Zr2  1  0.00492000  0.28534000  0.10017000  1.0 2.4944765452
Zr  Zr3  1  0.93103000  0.37395000  0.64946000  1.0 2.4967523698
Zr  Zr4  1  0.37395000  0.93103000  0.35054000  1.0 2.4967523698
P  P1  1  0.91928000  0.37552000  0.36092000  1.0 1.6324779872
P  P2  1  0.37552000  0.91928000  0.63908000  1.0 1.6324779872
P  P3  1  0.45254000  0.83726000  0.08562000  1.0 1.62147795
P  P4  1  0.83726000  0.45254000  0.91438000  1.0 1.62147795
P  P5  1  0.15688000  0.27252000  0.83308000  1.0 1.5515364888
P  P6  1  0.27252000  0.15688000  0.16692000  1.0 1.5515364888
O  O1  1  0.04450000  0.25670000  0.72280000  1.0 -0.758089852
O  O2  1  0.25670000  0.04450000  0.27720000  1.0 -0.758089852
O  O3  1  0.39790000  0.89350000  0.97470000  1.0 -0.8202698049
O  O4  1  0.89350000  0.39790000  0.02530000  1.0 -0.8202698049
O  O5  1  0.96640000  0.33280000  0.48200000  1.0 -0.7997665223
O  O6  1  0.33280000  0.96640000  0.51800000  1.0 -0.7997665223
O  O7  1  0.16560000  0.11600000  0.82850000  1.0 -0.7712000724
O  O8  1  0.11600000  0.16560000  0.17150000  1.0 -0.7712000724
O  O9  1  0.39050000  0.50870000  0.82870000  1.0 -0.5406983313
O  O10  1  0.50870000  0.39050000  0.17130000  1.0 -0.5406983313
O  O11  1  0.31520000  0.59940000  0.09240000  1.0 -0.7784658191
O  O12  1  0.59940000  0.31520000  0.90760000  1.0 -0.7784658191
O  O13  1  0.96990000  0.31270000  0.26710000  1.0 -0.7904088116
O  O14  1  0.31270000  0.96990000  0.73290000  1.0 -0.7904088116
O  O15  1  0.68400000  0.24800000  0.34890000  1.0 -0.7904088116
O  O16  1  0.24800000  0.68400000  0.65110000  1.0 -0.7904088116
O  O17  1  0.69290000  0.96910000  0.08550000  1.0 -0.7535352823
O  O18  1  0.96910000  0.69290000  0.91450000  1.0 -0.758089852
O  O19  1  0.06300000  0.61800000  0.34670000  1.0 -0.7904088116
O  O20  1  0.61800000  0.06300000  0.65330000  1.0 -0.7904088116
O  O21  1  0.05290000  0.23570000  0.94140000  1.0 -0.7997665223
O  O22  1  0.23570000  0.05290000  0.05860000  1.0 -0.7997665223
O  O23  1  0.41890000  0.89730000  0.19040000  1.0 -0.8416789886
O  O24  1  0.89730000  0.41890000  0.80960000  1.0 -0.8416789886
F  F1  1  0.83230000  0.49030000  0.57780000  1.0 -0.559746426
F  F2  1  0.49030000  0.83230000  0.42220000  1.0 -0.559746426
