# DDEC6 charges by PACMAN v1.1 (https://github.com/mtap-research/PACMAN-charge/)
data_SIQFED_ASR_pacman
_symmetry_space_group_name_H-M   'P 1'
_cell_length_a   9.22799000
_cell_length_b   9.22799000
_cell_length_c   23.18100000
_cell_angle_alpha   85.77300000
_cell_angle_beta   94.22700000
_cell_angle_gamma   137.89400000
_symmetry_Int_Tables_number   1
_chemical_formula_structural   Zr2P3HO12F
_chemical_formula_sum   'Zr8 P12 H4 O48 F4'
_cell_volume   1319.43863006
_cell_formula_units_Z   4
loop_
 _symmetry_equiv_pos_site_id
 _symmetry_equiv_pos_as_xyz
  1  'x, y, z'
loop_
 _atom_site_type_symbol
 _atom_site_label
 _atom_site_symmetry_multiplicity
 _atom_site_fract_x
 _atom_site_fract_y
 _atom_site_fract_z
 _atom_site_occupancy
 _atom_site_charge
Zr  Zr1  1  0.64233000  0.36067000  0.70025000  1.0 2.4816609104
Zr  Zr2  1  0.36067000  0.64233000  0.79975000  1.0 2.4816609104
Zr  Zr3  1  0.35767000  0.63933000  0.29975000  1.0 2.4816609104
Zr  Zr4  1  0.63933000  0.35767000  0.20025000  1.0 2.4816609104
Zr  Zr5  1  0.28537000  0.72563000  0.57461000  1.0 2.4960261662
Zr  Zr6  1  0.72563000  0.28537000  0.92539000  1.0 2.4960261662
Zr  Zr7  1  0.71463000  0.27437000  0.42539000  1.0 2.4960261662
Zr  Zr8  1  0.27437000  0.71463000  0.07461000  1.0 2.4960261662
P  P1  1  0.19338000  0.80942000  0.70688000  1.0 1.6301256327
P  P2  1  0.80942000  0.19338000  0.79312000  1.0 1.6301256327
P  P3  1  0.80662000  0.19058000  0.29312000  1.0 1.6301256327
P  P4  1  0.19058000  0.80662000  0.20688000  1.0 1.6301256327
P  P5  1  0.73363000  0.27177000  0.56956000  1.0 1.6301256327
P  P6  1  0.27177000  0.73363000  0.93044000  1.0 1.6364402849
P  P7  1  0.26637000  0.72823000  0.43044000  1.0 1.6301256327
P  P8  1  0.72823000  0.26637000  0.06956000  1.0 1.6301256327
P  P9  1  0.48530000  0.36970000  0.83401000  1.0 1.613373049
P  P10  1  0.36970000  0.48530000  0.66599000  1.0 1.6151478369
P  P11  1  0.51470000  0.63030000  0.16599000  1.0 1.613373049
P  P12  1  0.63030000  0.51470000  0.33401000  1.0 1.613373049
H  H1  1  0.15880000  0.06920000  0.80540000  1.0 0.4613386322
H  H2  1  0.06920000  0.15880000  0.69460000  1.0 0.4613386322
H  H3  1  0.84120000  0.93080000  0.19460000  1.0 0.4613386322
H  H4  1  0.93080000  0.84120000  0.30540000  1.0 0.4613386322
O  O1  1  0.95510000  0.68010000  0.70680000  1.0 -0.8120358508
O  O2  1  0.68010000  0.95510000  0.79320000  1.0 -0.8120358508
O  O3  1  0.04490000  0.31990000  0.29320000  1.0 -0.8120358508
O  O4  1  0.31990000  0.04490000  0.20680000  1.0 -0.8120358508
O  O5  1  0.25150000  0.75770000  0.76270000  1.0 -0.8474939983
O  O6  1  0.75770000  0.25150000  0.73730000  1.0 -0.8474939983
O  O7  1  0.74850000  0.24230000  0.23730000  1.0 -0.8474939983
O  O8  1  0.24230000  0.74850000  0.26270000  1.0 -0.8474939983
O  O9  1  0.23030000  0.75010000  0.65480000  1.0 -0.8601610284
O  O10  1  0.75010000  0.23030000  0.84520000  1.0 -0.8601610284
O  O11  1  0.76970000  0.24990000  0.34520000  1.0 -0.8601610284
O  O12  1  0.24990000  0.76970000  0.15480000  1.0 -0.8601610284
O  O13  1  0.33150000  0.04970000  0.70350000  1.0 -0.8601610284
O  O14  1  0.04970000  0.33150000  0.79650000  1.0 -0.8601610284
O  O15  1  0.66850000  0.95030000  0.29650000  1.0 -0.8601610284
O  O16  1  0.95030000  0.66850000  0.20350000  1.0 -0.8601610284
O  O17  1  0.67420000  0.30660000  0.51020000  1.0 -0.8397518989
O  O18  1  0.30660000  0.67420000  0.98980000  1.0 -0.8397518989
O  O19  1  0.32580000  0.69340000  0.48980000  1.0 -0.8397518989
O  O20  1  0.69340000  0.32580000  0.01020000  1.0 -0.8397518989
O  O21  1  0.97260000  0.40960000  0.57200000  1.0 -0.8397518989
O  O22  1  0.40960000  0.97260000  0.92800000  1.0 -0.8397518989
O  O23  1  0.02740000  0.59040000  0.42800000  1.0 -0.8397518989
O  O24  1  0.59040000  0.02740000  0.07200000  1.0 -0.8397518989
O  O25  1  0.68260000  0.33460000  0.61710000  1.0 -0.8120358508
O  O26  1  0.33460000  0.68260000  0.88290000  1.0 -0.8120358508
O  O27  1  0.31740000  0.66540000  0.38290000  1.0 -0.8120358508
O  O28  1  0.66540000  0.31740000  0.11710000  1.0 -0.8120358508
O  O29  1  0.60300000  0.03420000  0.57770000  1.0 -0.8312406462
O  O30  1  0.03420000  0.60300000  0.92230000  1.0 -0.8312406462
O  O31  1  0.39700000  0.96580000  0.42230000  1.0 -0.8312406462
O  O32  1  0.96580000  0.39700000  0.07770000  1.0 -0.8312406462
O  O33  1  0.59470000  0.40970000  0.77980000  1.0 -0.8312406462
O  O34  1  0.40970000  0.59470000  0.72020000  1.0 -0.8312406462
O  O35  1  0.40530000  0.59030000  0.22020000  1.0 -0.8312406462
O  O36  1  0.59030000  0.40530000  0.27980000  1.0 -0.8312406462
O  O37  1  0.59980000  0.39020000  0.88930000  1.0 -0.786152355
O  O38  1  0.39020000  0.59980000  0.61070000  1.0 -0.786152355
O  O39  1  0.40020000  0.60980000  0.11070000  1.0 -0.786152355
O  O40  1  0.60980000  0.40020000  0.38930000  1.0 -0.786152355
O  O41  1  0.47520000  0.52720000  0.83590000  1.0 -0.8036729615
O  O42  1  0.52720000  0.47520000  0.66410000  1.0 -0.8036729615
O  O43  1  0.52480000  0.47280000  0.16410000  1.0 -0.8036729615
O  O44  1  0.47280000  0.52480000  0.33590000  1.0 -0.8036729615
O  O45  1  0.25190000  0.13210000  0.83620000  1.0 -0.5837641876
O  O46  1  0.13210000  0.25190000  0.66380000  1.0 -0.5837641876
O  O47  1  0.74810000  0.86790000  0.16380000  1.0 -0.5837641876
O  O48  1  0.86790000  0.74810000  0.33620000  1.0 -0.5837641876
F  F1  1  0.18430000  0.84490000  0.54150000  1.0 -0.6072100323
F  F2  1  0.84490000  0.18430000  0.95850000  1.0 -0.6072100323
F  F3  1  0.81570000  0.15510000  0.45850000  1.0 -0.6072100323
F  F4  1  0.15510000  0.81570000  0.04150000  1.0 -0.6072100323
