# DDEC6 charges by PACMAN v1.1 (https://github.com/mtap-research/PACMAN-charge/)
data_SIRBIG07_FSR_pacman
_symmetry_space_group_name_H-M   'P 1'
_cell_length_a   8.66944000
_cell_length_b   8.66944000
_cell_length_c   8.66944000
_cell_angle_alpha   121.20500000
_cell_angle_beta   117.53800000
_cell_angle_gamma   91.12020000
_symmetry_Int_Tables_number   1
_chemical_formula_structural   Mg(CO2)3
_chemical_formula_sum   'Mg2 C6 O12'
_cell_volume   464.44441955
_cell_formula_units_Z   2
loop_
 _symmetry_equiv_pos_site_id
 _symmetry_equiv_pos_as_xyz
  1  'x, y, z'
loop_
 _atom_site_type_symbol
 _atom_site_label
 _atom_site_symmetry_multiplicity
 _atom_site_fract_x
 _atom_site_fract_y
 _atom_site_fract_z
 _atom_site_occupancy
 _atom_site_charge
Mg  Mg1  1  0.50000000  0.50000000  0.00000000  1.0 1.2941338077
Mg  Mg2  1  0.00000000  0.00000000  0.00000000  1.0 1.296717073
C  C1  1  0.25000000  0.30440000  0.05440000  1.0 0.6582241908
C  C2  1  0.75000000  0.69560000  0.94560000  1.0 0.6582241908
C  C3  1  0.75150000  0.75150000  0.50000000  1.0 0.6894721791
C  C4  1  0.74850000  0.24850000  0.00000000  1.0 0.6894721791
C  C5  1  0.24850000  0.24850000  0.50000000  1.0 0.6894721791
C  C6  1  0.25150000  0.75150000  0.00000000  1.0 0.6894721791
O  O1  1  0.33990000  0.42090000  0.08100000  1.0 -0.50292697
O  O2  1  0.16010000  0.24110000  0.08100000  1.0 -0.5075311407
O  O3  1  0.83990000  0.75890000  0.91900000  1.0 -0.50292697
O  O4  1  0.66010000  0.57910000  0.91900000  1.0 -0.50292697
O  O5  1  0.70820000  0.71010000  0.32490000  1.0 -0.581109491
O  O6  1  0.79180000  0.11670000  0.00190000  1.0 -0.581109491
O  O7  1  0.88520000  0.88330000  0.67510000  1.0 -0.581109491
O  O8  1  0.61480000  0.28990000  0.99810000  1.0 -0.581109491
O  O9  1  0.29180000  0.28990000  0.67510000  1.0 -0.581109491
O  O10  1  0.20820000  0.88330000  0.99810000  1.0 -0.581109491
O  O11  1  0.11480000  0.11670000  0.32490000  1.0 -0.581109491
O  O12  1  0.38520000  0.71010000  0.00190000  1.0 -0.581109491
