# DDEC6 charges by PACMAN v1.1 (https://github.com/mtap-research/PACMAN-charge/)
data_SIRZUQ_ASR_pacman
_symmetry_space_group_name_H-M   'P 1'
_cell_length_a   15.90040000
_cell_length_b   15.90040000
_cell_length_c   15.90040000
_cell_angle_alpha   114.75600000
_cell_angle_beta   114.75600000
_cell_angle_gamma   114.75600000
_symmetry_Int_Tables_number   1
_chemical_formula_structural   CdH8C14(NO2)2
_chemical_formula_sum   'Cd6 H48 C84 N12 O24'
_cell_volume   2299.03330422
_cell_formula_units_Z   6
loop_
 _symmetry_equiv_pos_site_id
 _symmetry_equiv_pos_as_xyz
  1  'x, y, z'
loop_
 _atom_site_type_symbol
 _atom_site_label
 _atom_site_symmetry_multiplicity
 _atom_site_fract_x
 _atom_site_fract_y
 _atom_site_fract_z
 _atom_site_occupancy
 _atom_site_charge
Cd  Cd1  1  0.22804000  0.85975000  0.47107000  1.0 0.9497936019
Cd  Cd2  1  0.85975000  0.47107000  0.22804000  1.0 0.9497936019
Cd  Cd3  1  0.47107000  0.22804000  0.85975000  1.0 0.9497936019
Cd  Cd4  1  0.77196000  0.14025000  0.52893000  1.0 0.9497936019
Cd  Cd5  1  0.14025000  0.52893000  0.77196000  1.0 0.9497936019
Cd  Cd6  1  0.52893000  0.77196000  0.14025000  1.0 0.9497936019
H  H1  1  0.28350000  0.05460000  0.31970000  1.0 0.1194594563
H  H2  1  0.05460000  0.31970000  0.28350000  1.0 0.1194594563
H  H3  1  0.31970000  0.28350000  0.05460000  1.0 0.1194594563
H  H4  1  0.71650000  0.94540000  0.68030000  1.0 0.1194594563
H  H5  1  0.94540000  0.68030000  0.71650000  1.0 0.1194594563
H  H6  1  0.68030000  0.71650000  0.94540000  1.0 0.1194594563
H  H7  1  0.38590000  0.18760000  0.30030000  1.0 0.1194594563
H  H8  1  0.18760000  0.30030000  0.38590000  1.0 0.1194594563
H  H9  1  0.30030000  0.38590000  0.18760000  1.0 0.1194594563
H  H10  1  0.61410000  0.81240000  0.69970000  1.0 0.1194594563
H  H11  1  0.81240000  0.69970000  0.61410000  1.0 0.1194594563
H  H12  1  0.69970000  0.61410000  0.81240000  1.0 0.1194594563
H  H13  1  0.61470000  0.34380000  0.44750000  1.0 0.1090828092
H  H14  1  0.34380000  0.44750000  0.61470000  1.0 0.1090828092
H  H15  1  0.44750000  0.61470000  0.34380000  1.0 0.1090828092
H  H16  1  0.38530000  0.65620000  0.55250000  1.0 0.1090828092
H  H17  1  0.65620000  0.55250000  0.38530000  1.0 0.1090828092
H  H18  1  0.55250000  0.38530000  0.65620000  1.0 0.1090828092
H  H19  1  0.74150000  0.36400000  0.61160000  1.0 0.1296141991
H  H20  1  0.36400000  0.61160000  0.74150000  1.0 0.1296141991
H  H21  1  0.61160000  0.74150000  0.36400000  1.0 0.1296141991
H  H22  1  0.25850000  0.63600000  0.38840000  1.0 0.1296141991
H  H23  1  0.63600000  0.38840000  0.25850000  1.0 0.1296141991
H  H24  1  0.38840000  0.25850000  0.63600000  1.0 0.1296141991
H  H25  1  0.70360000  0.18320000  0.80120000  1.0 0.1359897801
H  H26  1  0.18320000  0.80120000  0.70360000  1.0 0.1359897801
H  H27  1  0.80120000  0.70360000  0.18320000  1.0 0.1359897801
H  H28  1  0.29640000  0.81680000  0.19880000  1.0 0.1359897801
H  H29  1  0.81680000  0.19880000  0.29640000  1.0 0.1359897801
H  H30  1  0.19880000  0.29640000  0.81680000  1.0 0.1359897801
H  H31  1  0.84690000  0.24070000  0.99190000  1.0 0.1194594563
H  H32  1  0.24070000  0.99190000  0.84690000  1.0 0.1194594563
H  H33  1  0.99190000  0.84690000  0.24070000  1.0 0.1194594563
H  H34  1  0.15310000  0.75930000  0.00810000  1.0 0.1194594563
H  H35  1  0.75930000  0.00810000  0.15310000  1.0 0.1194594563
H  H36  1  0.00810000  0.15310000  0.75930000  1.0 0.1194594563
H  H37  1  0.06980000  0.37650000  0.11410000  1.0 0.1090828092
H  H38  1  0.37650000  0.11410000  0.06980000  1.0 0.1090828092
H  H39  1  0.11410000  0.06980000  0.37650000  1.0 0.1090828092
H  H40  1  0.93020000  0.62350000  0.88590000  1.0 0.1090828092
H  H41  1  0.62350000  0.88590000  0.93020000  1.0 0.1090828092
H  H42  1  0.88590000  0.93020000  0.62350000  1.0 0.1090828092
H  H43  1  0.15100000  0.45350000  0.04590000  1.0 0.1194594563
H  H44  1  0.45350000  0.04590000  0.15100000  1.0 0.1194594563
H  H45  1  0.04590000  0.15100000  0.45350000  1.0 0.1194594563
H  H46  1  0.84900000  0.54650000  0.95410000  1.0 0.1194594563
H  H47  1  0.54650000  0.95410000  0.84900000  1.0 0.1194594563
H  H48  1  0.95410000  0.84900000  0.54650000  1.0 0.1194594563
C  C1  1  0.37740000  0.04141000  0.48766000  1.0 0.5486376533
C  C2  1  0.04141000  0.48766000  0.37740000  1.0 0.5486376533
C  C3  1  0.48766000  0.37740000  0.04141000  1.0 0.5486376533
C  C4  1  0.62260000  0.95859000  0.51234000  1.0 0.5486376533
C  C5  1  0.95859000  0.51234000  0.62260000  1.0 0.5486376533
C  C6  1  0.51234000  0.62260000  0.95859000  1.0 0.5486376533
C  C7  1  0.44986000  0.12986000  0.47948000  1.0 -0.0723919584
C  C8  1  0.12986000  0.47948000  0.44986000  1.0 -0.0723919584
C  C9  1  0.47948000  0.44986000  0.12986000  1.0 -0.0723919584
C  C10  1  0.55014000  0.87014000  0.52052000  1.0 -0.0723919584
C  C11  1  0.87014000  0.52052000  0.55014000  1.0 -0.0723919584
C  C12  1  0.52052000  0.55014000  0.87014000  1.0 -0.0723919584
C  C13  1  0.37574000  0.11737000  0.37949000  1.0 -0.107849785
C  C14  1  0.11737000  0.37949000  0.37574000  1.0 -0.107849785
C  C15  1  0.37949000  0.37574000  0.11737000  1.0 -0.107849785
C  C16  1  0.62426000  0.88263000  0.62051000  1.0 -0.107849785
C  C17  1  0.88263000  0.62051000  0.62426000  1.0 -0.107849785
C  C18  1  0.62051000  0.62426000  0.88263000  1.0 -0.107849785
C  C19  1  0.43686000  0.19675000  0.36739000  1.0 -0.107849785
C  C20  1  0.19675000  0.36739000  0.43686000  1.0 -0.107849785
C  C21  1  0.36739000  0.43686000  0.19675000  1.0 -0.107849785
C  C22  1  0.56314000  0.80325000  0.63261000  1.0 -0.107849785
C  C23  1  0.80325000  0.63261000  0.56314000  1.0 -0.107849785
C  C24  1  0.63261000  0.56314000  0.80325000  1.0 -0.107849785
C  C25  1  0.57346000  0.28948000  0.45486000  1.0 -0.0804290897
C  C26  1  0.28948000  0.45486000  0.57346000  1.0 -0.0804290897
C  C27  1  0.45486000  0.57346000  0.28948000  1.0 -0.0804290897
C  C28  1  0.42654000  0.71052000  0.54514000  1.0 -0.0804290897
C  C29  1  0.71052000  0.54514000  0.42654000  1.0 -0.0804290897
C  C30  1  0.54514000  0.42654000  0.71052000  1.0 -0.0804290897
C  C31  1  0.64954000  0.30219000  0.55357000  1.0 -0.1819889745
C  C32  1  0.30219000  0.55357000  0.64954000  1.0 -0.1819889745
C  C33  1  0.55357000  0.64954000  0.30219000  1.0 -0.1819889745
C  C34  1  0.35046000  0.69781000  0.44643000  1.0 -0.1819889745
C  C35  1  0.69781000  0.44643000  0.35046000  1.0 -0.1819889745
C  C36  1  0.44643000  0.35046000  0.69781000  1.0 -0.1819889745
C  C37  1  0.58830000  0.22241000  0.56583000  1.0 0.1296141991
C  C38  1  0.22241000  0.56583000  0.58830000  1.0 0.1296141991
C  C39  1  0.56583000  0.58830000  0.22241000  1.0 0.1296141991
C  C40  1  0.41170000  0.77759000  0.43417000  1.0 0.1296141991
C  C41  1  0.77759000  0.43417000  0.41170000  1.0 0.1296141991
C  C42  1  0.43417000  0.41170000  0.77759000  1.0 0.1296141991
C  C43  1  0.84287000  0.28539000  0.81024000  1.0 0.1296141991
C  C44  1  0.28539000  0.81024000  0.84287000  1.0 0.1296141991
C  C45  1  0.81024000  0.84287000  0.28539000  1.0 0.1296141991
C  C46  1  0.15713000  0.71461000  0.18976000  1.0 0.1296141991
C  C47  1  0.71461000  0.18976000  0.15713000  1.0 0.1296141991
C  C48  1  0.18976000  0.15713000  0.71461000  1.0 0.1296141991
C  C49  1  0.79362000  0.23779000  0.85039000  1.0 -0.1349423728
C  C50  1  0.23779000  0.85039000  0.79362000  1.0 -0.1349423728
C  C51  1  0.85039000  0.79362000  0.23779000  1.0 -0.1349423728
C  C52  1  0.20638000  0.76221000  0.14961000  1.0 -0.1349423728
C  C53  1  0.76221000  0.14961000  0.20638000  1.0 -0.1349423728
C  C54  1  0.14961000  0.20638000  0.76221000  1.0 -0.1349423728
C  C55  1  0.87933000  0.27215000  0.96432000  1.0 -0.0511856037
C  C56  1  0.27215000  0.96432000  0.87933000  1.0 -0.0511856037
C  C57  1  0.96432000  0.87933000  0.27215000  1.0 -0.0511856037
C  C58  1  0.12067000  0.72785000  0.03568000  1.0 -0.0511856037
C  C59  1  0.72785000  0.03568000  0.12067000  1.0 -0.0511856037
C  C60  1  0.03568000  0.12067000  0.72785000  1.0 -0.0511856037
C  C61  1  0.01245000  0.35283000  0.03702000  1.0 -0.1000879955
C  C62  1  0.35283000  0.03702000  0.01245000  1.0 -0.1000879955
C  C63  1  0.03702000  0.01245000  0.35283000  1.0 -0.1000879955
C  C64  1  0.98755000  0.64717000  0.96298000  1.0 -0.1000879955
C  C65  1  0.64717000  0.96298000  0.98755000  1.0 -0.1000879955
C  C66  1  0.96298000  0.98755000  0.64717000  1.0 -0.1000879955
C  C67  1  0.06090000  0.39874000  0.99588000  1.0 -0.1000879955
C  C68  1  0.39874000  0.99588000  0.06090000  1.0 -0.1000879955
C  C69  1  0.99588000  0.06090000  0.39874000  1.0 -0.1000879955
C  C70  1  0.93910000  0.60126000  0.00412000  1.0 -0.1000879955
C  C71  1  0.60126000  0.00412000  0.93910000  1.0 -0.1000879955
C  C72  1  0.00412000  0.93910000  0.60126000  1.0 -0.1000879955
C  C73  1  0.97689000  0.36431000  0.88083000  1.0 -0.0886165153
C  C74  1  0.36431000  0.88083000  0.97689000  1.0 -0.0886165153
C  C75  1  0.88083000  0.97689000  0.36431000  1.0 -0.0886165153
C  C76  1  0.02311000  0.63569000  0.11917000  1.0 -0.0886165153
C  C77  1  0.63569000  0.11917000  0.02311000  1.0 -0.0886165153
C  C78  1  0.11917000  0.02311000  0.63569000  1.0 -0.0886165153
C  C79  1  0.03496000  0.41684000  0.84079000  1.0 0.571126903
C  C80  1  0.41684000  0.84079000  0.03496000  1.0 0.571126903
C  C81  1  0.84079000  0.03496000  0.41684000  1.0 0.571126903
C  C82  1  0.96504000  0.58316000  0.15921000  1.0 0.571126903
C  C83  1  0.58316000  0.15921000  0.96504000  1.0 0.571126903
C  C84  1  0.15921000  0.96504000  0.58316000  1.0 0.571126903
N  N1  1  0.67094000  0.24879000  0.67857000  1.0 -0.0511856037
N  N2  1  0.24879000  0.67857000  0.67094000  1.0 -0.0511856037
N  N3  1  0.67857000  0.67094000  0.24879000  1.0 -0.0511856037
N  N4  1  0.32906000  0.75121000  0.32143000  1.0 -0.0511856037
N  N5  1  0.75121000  0.32143000  0.32906000  1.0 -0.0511856037
N  N6  1  0.32143000  0.32906000  0.75121000  1.0 -0.0511856037
N  N7  1  0.75472000  0.25024000  0.69174000  1.0 -0.0804290897
N  N8  1  0.25024000  0.69174000  0.75472000  1.0 -0.0804290897
N  N9  1  0.69174000  0.75472000  0.25024000  1.0 -0.0804290897
N  N10  1  0.24528000  0.74976000  0.30826000  1.0 -0.0804290897
N  N11  1  0.74976000  0.30826000  0.24528000  1.0 -0.0804290897
N  N12  1  0.30826000  0.24528000  0.74976000  1.0 -0.0804290897
O  O1  1  0.25344000  0.96633000  0.40830000  1.0 -0.5482746314
O  O2  1  0.96633000  0.40830000  0.25344000  1.0 -0.5482746314
O  O3  1  0.40830000  0.25344000  0.96633000  1.0 -0.5482746314
O  O4  1  0.74656000  0.03367000  0.59170000  1.0 -0.5482746314
O  O5  1  0.03367000  0.59170000  0.74656000  1.0 -0.5482746314
O  O6  1  0.59170000  0.74656000  0.03367000  1.0 -0.5482746314
O  O7  1  0.43987000  0.04273000  0.57051000  1.0 -0.5360673419
O  O8  1  0.04273000  0.57051000  0.43987000  1.0 -0.5360673419
O  O9  1  0.57051000  0.43987000  0.04273000  1.0 -0.5360673419
O  O10  1  0.56013000  0.95727000  0.42949000  1.0 -0.5360673419
O  O11  1  0.95727000  0.42949000  0.56013000  1.0 -0.5360673419
O  O12  1  0.42949000  0.56013000  0.95727000  1.0 -0.5360673419
O  O13  1  0.96345000  0.35535000  0.72029000  1.0 -0.5482746314
O  O14  1  0.35535000  0.72029000  0.96345000  1.0 -0.5482746314
O  O15  1  0.72029000  0.96345000  0.35535000  1.0 -0.5482746314
O  O16  1  0.03655000  0.64465000  0.27971000  1.0 -0.5482746314
O  O17  1  0.64465000  0.27971000  0.03655000  1.0 -0.5482746314
O  O18  1  0.27971000  0.03655000  0.64465000  1.0 -0.5482746314
O  O19  1  0.15549000  0.52288000  0.92733000  1.0 -0.5007326058
O  O20  1  0.52288000  0.92733000  0.15549000  1.0 -0.5007326058
O  O21  1  0.92733000  0.15549000  0.52288000  1.0 -0.5007326058
O  O22  1  0.84451000  0.47712000  0.07267000  1.0 -0.5007326058
O  O23  1  0.47712000  0.07267000  0.84451000  1.0 -0.5007326058
O  O24  1  0.07267000  0.84451000  0.47712000  1.0 -0.5007326058
