# DDEC6 charges by PACMAN v1.1 (https://github.com/mtap-research/PACMAN-charge/)
data_SISFEH_FSR_pacman
_symmetry_space_group_name_H-M   'P 1'
_cell_length_a   11.46780000
_cell_length_b   11.46780000
_cell_length_c   8.76350000
_cell_angle_alpha   76.17370000
_cell_angle_beta   103.82600000
_cell_angle_gamma   106.05600000
_symmetry_Int_Tables_number   1
_chemical_formula_structural   SrNiH14C14(NO6)2
_chemical_formula_sum   'Sr2 Ni2 H28 C28 N4 O24'
_cell_volume   1056.82680955
_cell_formula_units_Z   2
loop_
 _symmetry_equiv_pos_site_id
 _symmetry_equiv_pos_as_xyz
  1  'x, y, z'
loop_
 _atom_site_type_symbol
 _atom_site_label
 _atom_site_symmetry_multiplicity
 _atom_site_fract_x
 _atom_site_fract_y
 _atom_site_fract_z
 _atom_site_occupancy
 _atom_site_charge
Sr  Sr1  1  0.53835000  0.53835000  0.75000000  1.0 1.4612523153
Sr  Sr2  1  0.46165000  0.46165000  0.25000000  1.0 1.4612523153
Ni  Ni1  1  0.50000000  0.00000000  0.00000000  1.0 0.7544339135
Ni  Ni2  1  0.00000000  0.50000000  0.50000000  1.0 0.7544339135
H  H1  1  0.69370000  0.54010000  0.47570000  1.0 0.3527884915
H  H2  1  0.54010000  0.69370000  0.02430000  1.0 0.3527884915
H  H3  1  0.30630000  0.45990000  0.52430000  1.0 0.3527884915
H  H4  1  0.45990000  0.30630000  0.97570000  1.0 0.3527884915
H  H5  1  0.65270000  0.64490000  0.46390000  1.0 0.3604811191
H  H6  1  0.64490000  0.65270000  0.03610000  1.0 0.3604811191
H  H7  1  0.34730000  0.35510000  0.53610000  1.0 0.3604811191
H  H8  1  0.35510000  0.34730000  0.96390000  1.0 0.3604811191
H  H9  1  0.30820000  0.02100000  0.77820000  1.0 0.3359285354
H  H10  1  0.02100000  0.30820000  0.72180000  1.0 0.3359285354
H  H11  1  0.69180000  0.97900000  0.22180000  1.0 0.3359285354
H  H12  1  0.97900000  0.69180000  0.27820000  1.0 0.3359285354
H  H13  1  0.27360000  0.00460000  0.91670000  1.0 0.3178661078
H  H14  1  0.00460000  0.27360000  0.58330000  1.0 0.3178661078
H  H15  1  0.72640000  0.99540000  0.08330000  1.0 0.3178661078
H  H16  1  0.99540000  0.72640000  0.41670000  1.0 0.3178661078
H  H17  1  0.70270000  0.25830000  0.57030000  1.0 0.1434069857
H  H18  1  0.25830000  0.70270000  0.92970000  1.0 0.1434069857
H  H19  1  0.29730000  0.74170000  0.42970000  1.0 0.1434069857
H  H20  1  0.74170000  0.29730000  0.07030000  1.0 0.1434069857
H  H21  1  0.73330000  0.10410000  0.46200000  1.0 0.1252750217
H  H22  1  0.10410000  0.73330000  0.03800000  1.0 0.1252750217
H  H23  1  0.26670000  0.89590000  0.53800000  1.0 0.1252750217
H  H24  1  0.89590000  0.26670000  0.96200000  1.0 0.1252750217
H  H25  1  0.54730000  0.85210000  0.77350000  1.0 0.1237400904
H  H26  1  0.85210000  0.54730000  0.72650000  1.0 0.1237400904
H  H27  1  0.45270000  0.14790000  0.22650000  1.0 0.1237400904
H  H28  1  0.14790000  0.45270000  0.27350000  1.0 0.1237400904
C  C1  1  0.60903000  0.14081000  0.73510000  1.0 0.0964150711
C  C2  1  0.14081000  0.60903000  0.76490000  1.0 0.0964150711
C  C3  1  0.39097000  0.85919000  0.26490000  1.0 0.0964150711
C  C4  1  0.85919000  0.39097000  0.23510000  1.0 0.0964150711
C  C5  1  0.67224000  0.17536000  0.61030000  1.0 -0.1141956166
C  C6  1  0.17536000  0.67224000  0.88970000  1.0 -0.1141956166
C  C7  1  0.32776000  0.82464000  0.38970000  1.0 -0.1141956166
C  C8  1  0.82464000  0.32776000  0.11030000  1.0 -0.1141956166
C  C9  1  0.68972000  0.08328000  0.54530000  1.0 -0.0654851065
C  C10  1  0.08328000  0.68972000  0.95470000  1.0 -0.0654851065
C  C11  1  0.31028000  0.91672000  0.45470000  1.0 -0.0654851065
C  C12  1  0.91672000  0.31028000  0.04530000  1.0 -0.0654851065
C  C13  1  0.64176000  0.96056000  0.60550000  1.0 -0.0573931538
C  C14  1  0.96056000  0.64176000  0.89450000  1.0 -0.0573931538
C  C15  1  0.35824000  0.03944000  0.39450000  1.0 -0.0573931538
C  C16  1  0.03944000  0.35824000  0.10550000  1.0 -0.0573931538
C  C17  1  0.57985000  0.93429000  0.73200000  1.0 0.0648310393
C  C18  1  0.93429000  0.57985000  0.76800000  1.0 0.0648310393
C  C19  1  0.42015000  0.06571000  0.26800000  1.0 0.0651911556
C  C20  1  0.06571000  0.42015000  0.23200000  1.0 0.0648310393
C  C21  1  0.57981000  0.23303000  0.80970000  1.0 0.5454465583
C  C22  1  0.23303000  0.57981000  0.69030000  1.0 0.5454465583
C  C23  1  0.42019000  0.76697000  0.19030000  1.0 0.5454465583
C  C24  1  0.76697000  0.42019000  0.30970000  1.0 0.5454465583
C  C25  1  0.65302000  0.85518000  0.54010000  1.0 0.5725005105
C  C26  1  0.85518000  0.65302000  0.95990000  1.0 0.5725005105
C  C27  1  0.34698000  0.14482000  0.45990000  1.0 0.5725005105
C  C28  1  0.14482000  0.34698000  0.04010000  1.0 0.5725005105
N  N1  1  0.56523000  0.02235000  0.79670000  1.0 -0.2501219042
N  N2  1  0.02235000  0.56523000  0.70330000  1.0 -0.2501219042
N  N3  1  0.43477000  0.97765000  0.20330000  1.0 -0.2501219042
N  N4  1  0.97765000  0.43477000  0.29670000  1.0 -0.2501219042
O  O1  1  0.52770000  0.18732000  0.93070000  1.0 -0.5392933503
O  O2  1  0.18732000  0.52770000  0.56930000  1.0 -0.5392933503
O  O3  1  0.47230000  0.81268000  0.06930000  1.0 -0.5392933503
O  O4  1  0.81268000  0.47230000  0.43070000  1.0 -0.5392933503
O  O5  1  0.60742000  0.34348000  0.75160000  1.0 -0.5493102238
O  O6  1  0.34348000  0.60742000  0.74840000  1.0 -0.5493102238
O  O7  1  0.39258000  0.65652000  0.24840000  1.0 -0.5493102238
O  O8  1  0.65652000  0.39258000  0.25160000  1.0 -0.5493102238
O  O9  1  0.70777000  0.87783000  0.42640000  1.0 -0.5392933503
O  O10  1  0.87783000  0.70777000  0.07360000  1.0 -0.5392933503
O  O11  1  0.29223000  0.12217000  0.57360000  1.0 -0.5392933503
O  O12  1  0.12217000  0.29223000  0.92640000  1.0 -0.5392933503
O  O13  1  0.60459000  0.75035000  0.60390000  1.0 -0.6185020074
O  O14  1  0.75035000  0.60459000  0.89610000  1.0 -0.6185020074
O  O15  1  0.39541000  0.24965000  0.39610000  1.0 -0.6185020074
O  O16  1  0.24965000  0.39541000  0.10390000  1.0 -0.6185020074
O  O17  1  0.63023000  0.56731000  0.46720000  1.0 -0.7726001159
O  O18  1  0.56731000  0.63023000  0.03280000  1.0 -0.7726001159
O  O19  1  0.36977000  0.43269000  0.53280000  1.0 -0.7726001159
O  O20  1  0.43269000  0.36977000  0.96720000  1.0 -0.7726001159
O  O21  1  0.31807000  0.97925000  0.87260000  1.0 -0.6404178456
O  O22  1  0.97925000  0.31807000  0.62740000  1.0 -0.6404178456
O  O23  1  0.68193000  0.02075000  0.12740000  1.0 -0.6404178456
O  O24  1  0.02075000  0.68193000  0.37260000  1.0 -0.6404178456
