# DDEC6 charges by PACMAN v1.1 (https://github.com/mtap-research/PACMAN-charge/)
data_SISZIG_FSR_pacman
_symmetry_space_group_name_H-M   'P 1'
_cell_length_a   10.22820000
_cell_length_b   13.56410000
_cell_length_c   15.91400000
_cell_angle_alpha   108.46400000
_cell_angle_beta   98.42100000
_cell_angle_gamma   97.46900000
_symmetry_Int_Tables_number   1
_chemical_formula_structural   Cd3H50C58S2(N7O8)2
_chemical_formula_sum   'Cd3 H50 C58 S2 N14 O16'
_cell_volume   2034.69142242
_cell_formula_units_Z   1
loop_
 _symmetry_equiv_pos_site_id
 _symmetry_equiv_pos_as_xyz
  1  'x, y, z'
loop_
 _atom_site_type_symbol
 _atom_site_label
 _atom_site_symmetry_multiplicity
 _atom_site_fract_x
 _atom_site_fract_y
 _atom_site_fract_z
 _atom_site_occupancy
 _atom_site_charge
Cd  Cd1  1  0.66970000  0.10253000  0.54774000  1.0 0.8718945198
Cd  Cd2  1  0.33030000  0.89747000  0.45226000  1.0 0.8718945198
Cd  Cd3  1  0.50000000  0.50000000  0.00000000  1.0 0.9298212342
H  H1  1  0.15410000  0.10950000  0.54880000  1.0 0.1310179524
H  H2  1  0.44330000  0.36510000  0.68700000  1.0 0.1358334236
H  H3  1  0.05850000  0.37600000  0.70820000  1.0 0.1310179524
H  H4  1  0.62200000  0.26490000  0.44810000  1.0 0.1310179524
H  H5  1  0.61680000  0.29530000  0.31470000  1.0 0.1463091672
H  H6  1  0.68240000  0.99980000  0.20410000  1.0 0.1181790791
H  H7  1  0.68930000  0.97960000  0.34120000  1.0 0.1102322768
H  H8  1  0.63450000  0.23280000  0.15120000  1.0 0.1181790791
H  H9  1  0.66710000  0.97850000  0.94710000  1.0 0.0992189161
H  H10  1  0.61180000  0.20320000  0.88290000  1.0 0.1310179524
H  H11  1  0.61320000  0.21660000  0.74300000  1.0 0.1102322768
H  H12  1  0.70090000  0.93500000  0.65130000  1.0 0.1181790791
H  H13  1  0.70710000  0.91520000  0.79050000  1.0 0.1310179524
H  H14  1  0.39770000  0.35280000  0.10640000  1.0 0.1181790791
H  H15  1  0.24040000  0.20780000  0.09280000  1.0 0.1310179524
H  H16  1  0.16200000  0.14320000  0.82390000  1.0 0.1463091672
H  H17  1  0.32300000  0.28930000  0.84510000  1.0 0.1102322768
H  H18  1  0.02600000  0.02830000  0.88690000  1.0 0.1102322768
H  H19  1  0.25780000  0.60560000  0.99210000  1.0 0.1181790791
H  H20  1  0.96320000  0.68420000  0.03620000  1.0 0.1181790791
H  H21  1  0.09430000  0.73660000  0.01480000  1.0 0.1181790791
H  H22  1  0.01860000  0.62320000  0.95160000  1.0 0.1310179524
H  H23  1  0.05880000  0.60400000  0.17650000  1.0 0.1310179524
H  H24  1  0.14230000  0.51740000  0.13660000  1.0 0.1310179524
H  H25  1  0.21640000  0.63260000  0.19620000  1.0 0.1310179524
H  H26  1  0.84590000  0.89050000  0.45120000  1.0 0.1310179524
H  H27  1  0.55670000  0.63490000  0.31300000  1.0 0.1358334236
H  H28  1  0.94150000  0.62400000  0.29180000  1.0 0.1310179524
H  H29  1  0.37800000  0.73510000  0.55190000  1.0 0.1310179524
H  H30  1  0.38320000  0.70470000  0.68530000  1.0 0.1463091672
H  H31  1  0.31760000  0.00020000  0.79590000  1.0 0.1181790791
H  H32  1  0.31070000  0.02040000  0.65880000  1.0 0.1102322768
H  H33  1  0.36550000  0.76720000  0.84880000  1.0 0.1181790791
H  H34  1  0.33290000  0.02150000  0.05290000  1.0 0.0992189161
H  H35  1  0.38820000  0.79680000  0.11710000  1.0 0.1310179524
H  H36  1  0.38680000  0.78340000  0.25700000  1.0 0.1102322768
H  H37  1  0.29910000  0.06500000  0.34870000  1.0 0.1181790791
H  H38  1  0.29290000  0.08480000  0.20950000  1.0 0.1310179524
H  H39  1  0.60230000  0.64720000  0.89360000  1.0 0.1181790791
H  H40  1  0.75960000  0.79220000  0.90720000  1.0 0.1310179524
H  H41  1  0.83800000  0.85680000  0.17610000  1.0 0.1463091672
H  H42  1  0.67700000  0.71070000  0.15490000  1.0 0.1102322768
H  H43  1  0.97400000  0.97170000  0.11310000  1.0 0.1102322768
H  H44  1  0.74220000  0.39440000  0.00790000  1.0 0.1181790791
H  H45  1  0.03680000  0.31580000  0.96380000  1.0 0.1181790791
H  H46  1  0.90570000  0.26340000  0.98520000  1.0 0.1181790791
H  H47  1  0.98140000  0.37680000  0.04840000  1.0 0.1310179524
H  H48  1  0.94120000  0.39600000  0.82350000  1.0 0.1310179524
H  H49  1  0.85770000  0.48260000  0.86340000  1.0 0.1310179524
H  H50  1  0.78360000  0.36740000  0.80380000  1.0 0.1310179524
C  C1  1  0.08300000  0.23430000  0.62470000  1.0 -0.0041099819
C  C2  1  0.17970000  0.17920000  0.58790000  1.0 -0.1300064735
C  C3  1  0.31430000  0.22920000  0.61010000  1.0 -0.0300605334
C  C4  1  0.35330000  0.33220000  0.67130000  1.0 -0.1170311011
C  C5  1  0.25690000  0.38570000  0.70900000  1.0 -0.0927935243
C  C6  1  0.12260000  0.33850000  0.68470000  1.0 -0.1137772575
C  C7  1  0.93610000  0.18510000  0.59910000  1.0 0.54084168
C  C8  1  0.42120000  0.17400000  0.57010000  1.0 0.554659646
C  C9  1  0.63480000  0.21140000  0.39820000  1.0 0.0821675323
C  C10  1  0.63130000  0.23040000  0.31840000  1.0 -0.1697676182
C  C11  1  0.64980000  0.15100000  0.24290000  1.0 0.1181790791
C  C12  1  0.67070000  0.05510000  0.25310000  1.0 -0.1792181892
C  C13  1  0.67390000  0.04340000  0.33530000  1.0 0.0726651214
C  C14  1  0.64590000  0.16770000  0.15600000  1.0 0.0471554883
C  C15  1  0.66130000  0.04390000  0.94110000  1.0 0.0405982388
C  C16  1  0.65990000  0.05640000  0.85290000  1.0 0.1181790791
C  C17  1  0.63110000  0.14810000  0.83710000  1.0 -0.1792181892
C  C18  1  0.63170000  0.15530000  0.75280000  1.0 0.0726651214
C  C19  1  0.68400000  0.98970000  0.69870000  1.0 0.0992189161
C  C20  1  0.68700000  0.97690000  0.78230000  1.0 -0.1924818791
C  C21  1  0.34930000  0.31040000  0.04930000  1.0 0.0908657126
C  C22  1  0.25490000  0.22360000  0.04170000  1.0 -0.1697676182
C  C23  1  0.18180000  0.16010000  0.95630000  1.0 0.1181790791
C  C24  1  0.20820000  0.18480000  0.88190000  1.0 -0.1981284804
C  C25  1  0.30500000  0.27310000  0.89530000  1.0 0.0908657126
C  C26  1  0.07580000  0.06830000  0.94420000  1.0 0.0405982388
C  C27  1  0.25020000  0.59700000  0.04700000  1.0 0.2516000383
C  C28  1  0.04300000  0.67100000  0.01290000  1.0 -0.3626536317
C  C29  1  0.13800000  0.59110000  0.15200000  1.0 -0.330232013
C  C30  1  0.91700000  0.76570000  0.37530000  1.0 -0.0041099819
C  C31  1  0.82030000  0.82080000  0.41210000  1.0 -0.1300064735
C  C32  1  0.68570000  0.77080000  0.38990000  1.0 -0.0300605334
C  C33  1  0.64670000  0.66780000  0.32870000  1.0 -0.1170311011
C  C34  1  0.74310000  0.61430000  0.29100000  1.0 -0.0927935243
C  C35  1  0.87740000  0.66150000  0.31530000  1.0 -0.1137772575
C  C36  1  0.06390000  0.81490000  0.40090000  1.0 0.54084168
C  C37  1  0.57880000  0.82600000  0.42990000  1.0 0.554659646
C  C38  1  0.36520000  0.78860000  0.60180000  1.0 0.0821675323
C  C39  1  0.36870000  0.76960000  0.68160000  1.0 -0.1697676182
C  C40  1  0.35020000  0.84900000  0.75710000  1.0 0.1181790791
C  C41  1  0.32930000  0.94490000  0.74690000  1.0 -0.1792181892
C  C42  1  0.32610000  0.95660000  0.66470000  1.0 0.0726651214
C  C43  1  0.35410000  0.83230000  0.84400000  1.0 0.0471554883
C  C44  1  0.33870000  0.95610000  0.05890000  1.0 0.0405982388
C  C45  1  0.34010000  0.94360000  0.14710000  1.0 0.1181790791
C  C46  1  0.36890000  0.85190000  0.16290000  1.0 -0.1792181892
C  C47  1  0.36830000  0.84470000  0.24720000  1.0 0.0726651214
C  C48  1  0.31600000  0.01030000  0.30130000  1.0 0.0992189161
C  C49  1  0.31300000  0.02310000  0.21770000  1.0 -0.1924818791
C  C50  1  0.65070000  0.68960000  0.95070000  1.0 0.0908657126
C  C51  1  0.74510000  0.77640000  0.95830000  1.0 -0.1697676182
C  C52  1  0.81820000  0.83990000  0.04370000  1.0 0.1181790791
C  C53  1  0.79180000  0.81520000  0.11810000  1.0 -0.1981284804
C  C54  1  0.69500000  0.72690000  0.10470000  1.0 0.0908657126
C  C55  1  0.92420000  0.93170000  0.05580000  1.0 0.0405982388
C  C56  1  0.74980000  0.40300000  0.95300000  1.0 0.2516000383
C  C57  1  0.95700000  0.32900000  0.98710000  1.0 -0.3626536317
C  C58  1  0.86200000  0.40890000  0.84800000  1.0 -0.330232013
S  S1  1  0.30969000  0.51461000  0.79067000  1.0 1.1657165103
S  S2  1  0.69031000  0.48539000  0.20933000  1.0 1.1657165103
N  N1  1  0.65570000  0.12000000  0.40860000  1.0 -0.2323315479
N  N2  1  0.65840000  0.09250000  0.08720000  1.0 -0.1924818791
N  N3  1  0.65470000  0.12210000  0.00990000  1.0 -0.1792181892
N  N4  1  0.65790000  0.07720000  0.68360000  1.0 -0.2323315479
N  N5  1  0.37360000  0.33580000  0.97710000  1.0 -0.2428915314
N  N6  1  0.05330000  0.04460000  0.01270000  1.0 -0.1924818791
N  N7  1  0.13200000  0.61970000  0.07340000  1.0 0.0104279183
N  N8  1  0.34430000  0.88000000  0.59140000  1.0 -0.2323315479
N  N9  1  0.34160000  0.90750000  0.91280000  1.0 -0.1924818791
N  N10  1  0.34530000  0.87790000  0.99010000  1.0 -0.1792181892
N  N11  1  0.34210000  0.92280000  0.31640000  1.0 -0.2323315479
N  N12  1  0.62640000  0.66420000  0.02290000  1.0 -0.2428915314
N  N13  1  0.94670000  0.95540000  0.98730000  1.0 -0.1924818791
N  N14  1  0.86800000  0.38030000  0.92660000  1.0 0.0104279183
O  O1  1  0.90190000  0.08600000  0.56020000  1.0 -0.5486597605
O  O2  1  0.85280000  0.24480000  0.61670000  1.0 -0.5359328575
O  O3  1  0.39170000  0.07790000  0.52270000  1.0 -0.5808983631
O  O4  1  0.53790000  0.22840000  0.58870000  1.0 -0.5359328575
O  O5  1  0.37210000  0.49810000  0.87000000  1.0 -0.6335686632
O  O6  1  0.40670000  0.57150000  0.75740000  1.0 -0.5988772101
O  O7  1  0.19250000  0.56070000  0.79950000  1.0 -0.5808983631
O  O8  1  0.34440000  0.56890000  0.07890000  1.0 -0.4016699679
O  O9  1  0.09810000  0.91400000  0.43980000  1.0 -0.5486597605
O  O10  1  0.14720000  0.75520000  0.38330000  1.0 -0.5359328575
O  O11  1  0.60830000  0.92210000  0.47730000  1.0 -0.5808983631
O  O12  1  0.46210000  0.77160000  0.41130000  1.0 -0.5359328575
O  O13  1  0.62790000  0.50190000  0.13000000  1.0 -0.6335686632
O  O14  1  0.59330000  0.42850000  0.24260000  1.0 -0.5988772101
O  O15  1  0.80750000  0.43930000  0.20050000  1.0 -0.5808983631
O  O16  1  0.65560000  0.43110000  0.92110000  1.0 -0.4016699679
