# DDEC6 charges by PACMAN v1.1 (https://github.com/mtap-research/PACMAN-charge/)
data_SISZEC_FSR_pacman
_symmetry_space_group_name_H-M   'P 1'
_cell_length_a   10.13920000
_cell_length_b   13.60800000
_cell_length_c   13.64700000
_cell_angle_alpha   73.33000000
_cell_angle_beta   82.47000000
_cell_angle_gamma   81.92200000
_symmetry_Int_Tables_number   1
_chemical_formula_structural   Cd3H44C52S2(N7O8)2
_chemical_formula_sum   'Cd3 H44 C52 S2 N14 O16'
_cell_volume   1777.71112502
_cell_formula_units_Z   1
loop_
 _symmetry_equiv_pos_site_id
 _symmetry_equiv_pos_as_xyz
  1  'x, y, z'
loop_
 _atom_site_type_symbol
 _atom_site_label
 _atom_site_symmetry_multiplicity
 _atom_site_fract_x
 _atom_site_fract_y
 _atom_site_fract_z
 _atom_site_occupancy
 _atom_site_charge
Cd  Cd1  1  0.66134000  0.40435000  0.53674000  1.0 0.8688837467
Cd  Cd2  1  0.33866000  0.59565000  0.46326000  1.0 0.8688837467
Cd  Cd3  1  0.00000000  0.00000000  0.00000000  1.0 0.9281259654
H  H1  1  0.98702000  0.12517000  0.67989000  1.0 0.1422310338
H  H2  1  0.38313000  0.13469000  0.67107000  1.0 0.1234956151
H  H3  1  0.14883000  0.38966000  0.53618000  1.0 0.1298383552
H  H4  1  0.66249000  0.25545000  0.39978000  1.0 0.1298383552
H  H5  1  0.67121000  0.24130000  0.23461000  1.0 0.1520400224
H  H6  1  0.70341000  0.54659000  0.13172000  1.0 0.1298383552
H  H7  1  0.70067000  0.54924000  0.29960000  1.0 0.1096541581
H  H8  1  0.63629000  0.29418000  0.93719000  1.0 0.1298383552
H  H9  1  0.63094000  0.28513000  0.77158000  1.0 0.1096541581
H  H10  1  0.66376000  0.57906000  0.65978000  1.0 0.1096541581
H  H11  1  0.67144000  0.59696000  0.82191000  1.0 0.1422310338
H  H12  1  0.99185000  0.22487000  0.83628000  1.0 0.1096541581
H  H13  1  0.98751000  0.39834000  0.82133000  1.0 0.1422310338
H  H14  1  0.04561000  0.32333000  0.12098000  1.0 0.1298383552
H  H15  1  0.04860000  0.15191000  0.12630000  1.0 0.1234956151
H  H16  1  0.58132000  0.06006000  0.71386000  1.0 0.1422310338
H  H17  1  0.72237000  0.09844000  0.70439000  1.0 0.1520400224
H  H18  1  0.70318000  0.98200000  0.75642000  1.0 0.1422310338
H  H19  1  0.43575000  0.10388000  0.82239000  1.0 0.1422310338
H  H20  1  0.45875000  0.05557000  0.93861000  1.0 0.1234956151
H  H21  1  0.47929000  0.17160000  0.88558000  1.0 0.1298383552
H  H22  1  0.69717000  0.08111000  0.97067000  1.0 0.1096541581
H  H23  1  0.01298000  0.87483000  0.32011000  1.0 0.1422310338
H  H24  1  0.61687000  0.86531000  0.32893000  1.0 0.1234956151
H  H25  1  0.85117000  0.61034000  0.46382000  1.0 0.1298383552
H  H26  1  0.33751000  0.74455000  0.60022000  1.0 0.1298383552
H  H27  1  0.32879000  0.75870000  0.76539000  1.0 0.1552667646
H  H28  1  0.29659000  0.45341000  0.86828000  1.0 0.1298383552
H  H29  1  0.29933000  0.45076000  0.70040000  1.0 0.1096541581
H  H30  1  0.36371000  0.70582000  0.06281000  1.0 0.1298383552
H  H31  1  0.36906000  0.71487000  0.22842000  1.0 0.1096541581
H  H32  1  0.33624000  0.42094000  0.34022000  1.0 0.1096541581
H  H33  1  0.32856000  0.40304000  0.17809000  1.0 0.1422310338
H  H34  1  0.00815000  0.77513000  0.16372000  1.0 0.1096541581
H  H35  1  0.01249000  0.60166000  0.17867000  1.0 0.1422310338
H  H36  1  0.95439000  0.67667000  0.87902000  1.0 0.1298383552
H  H37  1  0.95140000  0.84809000  0.87370000  1.0 0.1234956151
H  H38  1  0.41868000  0.93994000  0.28614000  1.0 0.1422310338
H  H39  1  0.27763000  0.90156000  0.29561000  1.0 0.1520400224
H  H40  1  0.29682000  0.01800000  0.24358000  1.0 0.1422310338
H  H41  1  0.56425000  0.89612000  0.17761000  1.0 0.1422310338
H  H42  1  0.54125000  0.94443000  0.06139000  1.0 0.1234956151
H  H43  1  0.52071000  0.82840000  0.11442000  1.0 0.1298383552
H  H44  1  0.30283000  0.91889000  0.02933000  1.0 0.1096541581
C  C1  1  0.04780000  0.26520000  0.60290000  1.0 -0.0067914331
C  C2  1  0.06130000  0.16190000  0.66000000  1.0 -0.1102593532
C  C3  1  0.18720000  0.11430000  0.68690000  1.0 -0.0833102325
C  C4  1  0.29890000  0.16790000  0.65490000  1.0 -0.1102593532
C  C5  1  0.28520000  0.27140000  0.59870000  1.0 -0.0336133251
C  C6  1  0.15880000  0.32050000  0.57300000  1.0 -0.132747096
C  C7  1  0.91130000  0.31590000  0.57410000  1.0 0.5378158567
C  C8  1  0.40720000  0.32770000  0.56800000  1.0 0.555769789
C  C9  1  0.67150000  0.31410000  0.34500000  1.0 0.0977043388
C  C10  1  0.67530000  0.30490000  0.24610000  1.0 -0.1737231882
C  C11  1  0.68520000  0.39330000  0.16470000  1.0 0.1824285155
C  C12  1  0.69530000  0.48650000  0.18490000  1.0 -0.2106250199
C  C13  1  0.69300000  0.48730000  0.28590000  1.0 0.0814839462
C  C14  1  0.65720000  0.44730000  0.89710000  1.0 0.1870068787
C  C15  1  0.64290000  0.35280000  0.88200000  1.0 -0.2106250199
C  C16  1  0.63870000  0.34850000  0.78230000  1.0 0.0814839462
C  C17  1  0.65820000  0.52140000  0.71610000  1.0 0.0977043388
C  C18  1  0.66360000  0.53270000  0.81340000  1.0 -0.199703333
C  C19  1  0.00200000  0.24530000  0.89410000  1.0 0.0892677186
C  C20  1  0.99870000  0.34970000  0.88410000  1.0 -0.2106250199
C  C21  1  0.01260000  0.37910000  0.97090000  1.0 0.1824285155
C  C22  1  0.03330000  0.30490000  0.06250000  1.0 -0.199703333
C  C23  1  0.03530000  0.20220000  0.06480000  1.0 0.1096541581
C  C24  1  0.66190000  0.05160000  0.74670000  1.0 -0.3180894377
C  C25  1  0.48870000  0.10380000  0.87580000  1.0 -0.3366136672
C  C26  1  0.72290000  0.06750000  0.90750000  1.0 0.2836980699
C  C27  1  0.95220000  0.73480000  0.39710000  1.0 -0.0067914331
C  C28  1  0.93870000  0.83810000  0.34000000  1.0 -0.1102593532
C  C29  1  0.81280000  0.88570000  0.31310000  1.0 -0.0833102325
C  C30  1  0.70110000  0.83210000  0.34510000  1.0 -0.1102593532
C  C31  1  0.71480000  0.72860000  0.40130000  1.0 -0.0336133251
C  C32  1  0.84120000  0.67950000  0.42700000  1.0 -0.132747096
C  C33  1  0.08870000  0.68410000  0.42590000  1.0 0.5378158567
C  C34  1  0.59280000  0.67230000  0.43200000  1.0 0.555769789
C  C35  1  0.32850000  0.68590000  0.65500000  1.0 0.0977043388
C  C36  1  0.32470000  0.69510000  0.75390000  1.0 -0.1737231882
C  C37  1  0.31480000  0.60670000  0.83530000  1.0 0.1824285155
C  C38  1  0.30470000  0.51350000  0.81510000  1.0 -0.2106250199
C  C39  1  0.30700000  0.51270000  0.71410000  1.0 0.0814839462
C  C40  1  0.34280000  0.55270000  0.10290000  1.0 0.1870068787
C  C41  1  0.35710000  0.64720000  0.11800000  1.0 -0.2106250199
C  C42  1  0.36130000  0.65150000  0.21770000  1.0 0.0814839462
C  C43  1  0.34180000  0.47860000  0.28390000  1.0 0.0977043388
C  C44  1  0.33640000  0.46730000  0.18660000  1.0 -0.199703333
C  C45  1  0.99800000  0.75470000  0.10590000  1.0 0.0892677186
C  C46  1  0.00130000  0.65030000  0.11590000  1.0 -0.2106250199
C  C47  1  0.98740000  0.62090000  0.02910000  1.0 0.1824285155
C  C48  1  0.96670000  0.69510000  0.93750000  1.0 -0.199703333
C  C49  1  0.96470000  0.79780000  0.93520000  1.0 0.1096541581
C  C50  1  0.33810000  0.94840000  0.25330000  1.0 -0.3180894377
C  C51  1  0.51130000  0.89620000  0.12420000  1.0 -0.3366136672
C  C52  1  0.27710000  0.93250000  0.09250000  1.0 0.2836980699
S  S1  1  0.20284000  0.98560000  0.76617000  1.0 1.1679471014
S  S2  1  0.79716000  0.01440000  0.23383000  1.0 1.1679471014
N  N1  1  0.68020000  0.40290000  0.36540000  1.0 -0.2293718901
N  N2  1  0.68380000  0.38000000  0.06430000  1.0 -0.1102593532
N  N3  1  0.66130000  0.46260000  0.99640000  1.0 -0.1183841797
N  N4  1  0.64530000  0.43120000  0.70030000  1.0 -0.2293718901
N  N5  1  0.01890000  0.17220000  0.98210000  1.0 -0.2293718901
N  N6  1  0.00460000  0.48920000  0.95830000  1.0 -0.1102593532
N  N7  1  0.62950000  0.07360000  0.84670000  1.0 0.0304800672
N  N8  1  0.31980000  0.59710000  0.63460000  1.0 -0.2293718901
N  N9  1  0.31620000  0.62000000  0.93570000  1.0 -0.1102593532
N  N10  1  0.33870000  0.53740000  0.00360000  1.0 -0.1183841797
N  N11  1  0.35470000  0.56880000  0.29970000  1.0 -0.2293718901
N  N12  1  0.98110000  0.82780000  0.01790000  1.0 -0.2293718901
N  N13  1  0.99540000  0.51080000  0.04170000  1.0 -0.1102593532
N  N14  1  0.37050000  0.92640000  0.15330000  1.0 0.0304800672
O  O1  1  0.89550000  0.41160000  0.53370000  1.0 -0.531073642
O  O2  1  0.81730000  0.26020000  0.59280000  1.0 -0.5409319522
O  O3  1  0.39780000  0.42110000  0.51760000  1.0 -0.5800808491
O  O4  1  0.51790000  0.27920000  0.59570000  1.0 -0.531073642
O  O5  1  0.34250000  0.94510000  0.74830000  1.0 -0.6103238287
O  O6  1  0.10760000  0.93200000  0.73720000  1.0 -0.5938189151
O  O7  1  0.17310000  0.99520000  0.87200000  1.0 -0.661774409
O  O8  1  0.84450000  0.04430000  0.88440000  1.0 -0.4619027497
O  O9  1  0.10450000  0.58840000  0.46630000  1.0 -0.531073642
O  O10  1  0.18270000  0.73980000  0.40720000  1.0 -0.5409319522
O  O11  1  0.60220000  0.57890000  0.48240000  1.0 -0.5800808491
O  O12  1  0.48210000  0.72080000  0.40430000  1.0 -0.531073642
O  O13  1  0.65750000  0.05490000  0.25170000  1.0 -0.6103238287
O  O14  1  0.89240000  0.06800000  0.26280000  1.0 -0.5938189151
O  O15  1  0.82690000  0.00480000  0.12800000  1.0 -0.661774409
O  O16  1  0.15550000  0.95570000  0.11560000  1.0 -0.4619027497
