# DDEC6 charges by PACMAN v1.1 (https://github.com/mtap-research/PACMAN-charge/)
data_SITDEH_ASR_pacman
_symmetry_space_group_name_H-M   'P 1'
_cell_length_a   14.10330000
_cell_length_b   13.47550000
_cell_length_c   21.70690000
_cell_angle_alpha   90.00000000
_cell_angle_beta   125.04300000
_cell_angle_gamma   90.00000000
_symmetry_Int_Tables_number   1
_chemical_formula_structural   ZnH3(C2O)4
_chemical_formula_sum   'Zn8 H24 C64 O32'
_cell_volume   3377.53263064
_cell_formula_units_Z   8
loop_
 _symmetry_equiv_pos_site_id
 _symmetry_equiv_pos_as_xyz
  1  'x, y, z'
loop_
 _atom_site_type_symbol
 _atom_site_label
 _atom_site_symmetry_multiplicity
 _atom_site_fract_x
 _atom_site_fract_y
 _atom_site_fract_z
 _atom_site_occupancy
 _atom_site_charge
Zn  Zn1  1  0.71347000  0.45048000  0.72436000  1.0 0.9147644365
Zn  Zn2  1  0.78288000  0.30325000  0.86458000  1.0 1.013608309
Zn  Zn3  1  0.28653000  0.95048000  0.77564000  1.0 0.9153598273
Zn  Zn4  1  0.21712000  0.80325000  0.63542000  1.0 1.0161951904
Zn  Zn5  1  0.28653000  0.54952000  0.27564000  1.0 0.9153598273
Zn  Zn6  1  0.21712000  0.69675000  0.13542000  1.0 1.0161951904
Zn  Zn7  1  0.71347000  0.04952000  0.22436000  1.0 0.9153598273
Zn  Zn8  1  0.78288000  0.19675000  0.36458000  1.0 1.0161951904
H  H1  1  0.20120000  0.42820000  0.01430000  1.0 0.1154183578
H  H2  1  0.39500000  0.18700000  0.04420000  1.0 0.1154183578
H  H3  1  0.48120000  0.35770000  0.22300000  1.0 0.129322656
H  H4  1  0.06400000  0.35810000  0.91590000  1.0 0.1141819854
H  H5  1  0.30580000  0.18150000  0.92680000  1.0 0.1141819854
H  H6  1  0.98360000  0.20200000  0.73260000  1.0 0.129322656
H  H7  1  0.79880000  0.92820000  0.48570000  1.0 0.1141819854
H  H8  1  0.60500000  0.68700000  0.45580000  1.0 0.1154183578
H  H9  1  0.51880000  0.85770000  0.27700000  1.0 0.129322656
H  H10  1  0.93600000  0.85810000  0.58410000  1.0 0.1141819854
H  H11  1  0.69420000  0.68150000  0.57320000  1.0 0.1141819854
H  H12  1  0.01640000  0.70200000  0.76740000  1.0 0.129322656
H  H13  1  0.79880000  0.57180000  0.98570000  1.0 0.1154183578
H  H14  1  0.60500000  0.81300000  0.95580000  1.0 0.1154183578
H  H15  1  0.51880000  0.64230000  0.77700000  1.0 0.129322656
H  H16  1  0.93600000  0.64190000  0.08410000  1.0 0.1141819854
H  H17  1  0.69420000  0.81850000  0.07320000  1.0 0.1141819854
H  H18  1  0.01640000  0.79800000  0.26740000  1.0 0.129322656
H  H19  1  0.20120000  0.07180000  0.51430000  1.0 0.1154183578
H  H20  1  0.39500000  0.31300000  0.54420000  1.0 0.1154183578
H  H21  1  0.48120000  0.14230000  0.72300000  1.0 0.129322656
H  H22  1  0.06400000  0.14190000  0.41590000  1.0 0.1141819854
H  H23  1  0.30580000  0.31850000  0.42680000  1.0 0.1141819854
H  H24  1  0.98360000  0.29800000  0.23260000  1.0 0.129322656
C  C1  1  0.18042000  0.10375000  0.78853000  1.0 0.5413254225
C  C2  1  0.15067000  0.18155000  0.82450000  1.0 -0.010607312
C  C3  1  0.56226000  0.20262000  0.19007000  1.0 0.5926453197
C  C4  1  0.30799000  0.48751000  0.15585000  1.0 0.6010961109
C  C5  1  0.33655000  0.40410000  0.12332000  1.0 -0.0193508607
C  C6  1  0.26394000  0.38475000  0.04628000  1.0 -0.1406188335
C  C7  1  0.28281000  0.30187000  0.01571000  1.0 0.0645090962
C  C8  1  0.38013000  0.24312000  0.06391000  1.0 -0.1406188335
C  C9  1  0.45589000  0.26514000  0.14035000  1.0 -0.0193508607
C  C10  1  0.43235000  0.34439000  0.17057000  1.0 -0.0967321782
C  C11  1  0.19959000  0.27548000  0.93473000  1.0 0.0668013695
C  C12  1  0.08714000  0.31395000  0.89273000  1.0 -0.1576442322
C  C13  1  0.00844000  0.28854000  0.81741000  1.0 -0.010607312
C  C14  1  0.04051000  0.22303000  0.78294000  1.0 -0.0967321782
C  C15  1  0.22991000  0.20872000  0.89934000  1.0 -0.1406188335
C  C16  1  0.89001000  0.33297000  0.77172000  1.0 0.5664293194
C  C17  1  0.81958000  0.60375000  0.71147000  1.0 0.5413254225
C  C18  1  0.84933000  0.68155000  0.67550000  1.0 -0.010607312
C  C19  1  0.43774000  0.70262000  0.30993000  1.0 0.5926453197
C  C20  1  0.69201000  0.98751000  0.34415000  1.0 0.6010961109
C  C21  1  0.66345000  0.90410000  0.37668000  1.0 -0.0193508607
C  C22  1  0.73606000  0.88475000  0.45372000  1.0 -0.1406188335
C  C23  1  0.71719000  0.80187000  0.48429000  1.0 0.0668013695
C  C24  1  0.61987000  0.74312000  0.43609000  1.0 -0.1406188335
C  C25  1  0.54411000  0.76514000  0.35965000  1.0 -0.0193508607
C  C26  1  0.56765000  0.84439000  0.32943000  1.0 -0.0967321782
C  C27  1  0.80041000  0.77548000  0.56527000  1.0 0.0668013695
C  C28  1  0.91286000  0.81395000  0.60727000  1.0 -0.1576442322
C  C29  1  0.99156000  0.78854000  0.68259000  1.0 -0.010607312
C  C30  1  0.95949000  0.72303000  0.71706000  1.0 -0.0967321782
C  C31  1  0.77009000  0.70872000  0.60066000  1.0 -0.1406188335
C  C32  1  0.10999000  0.83297000  0.72828000  1.0 0.5664293194
C  C33  1  0.81958000  0.89625000  0.21147000  1.0 0.5413254225
C  C34  1  0.84933000  0.81845000  0.17550000  1.0 -0.010607312
C  C35  1  0.43774000  0.79738000  0.80993000  1.0 0.5926453197
C  C36  1  0.69201000  0.51249000  0.84415000  1.0 0.6010961109
C  C37  1  0.66345000  0.59590000  0.87668000  1.0 -0.0193508607
C  C38  1  0.73606000  0.61525000  0.95372000  1.0 -0.1406188335
C  C39  1  0.71719000  0.69813000  0.98429000  1.0 0.0668013695
C  C40  1  0.61987000  0.75688000  0.93609000  1.0 -0.1406188335
C  C41  1  0.54411000  0.73486000  0.85965000  1.0 -0.0193508607
C  C42  1  0.56765000  0.65561000  0.82943000  1.0 -0.0967321782
C  C43  1  0.80041000  0.72452000  0.06527000  1.0 0.0668013695
C  C44  1  0.91286000  0.68605000  0.10727000  1.0 -0.1576442322
C  C45  1  0.99156000  0.71146000  0.18259000  1.0 -0.010607312
C  C46  1  0.95949000  0.77697000  0.21706000  1.0 -0.0967321782
C  C47  1  0.77009000  0.79128000  0.10066000  1.0 -0.1406188335
C  C48  1  0.10999000  0.66703000  0.22828000  1.0 0.5664293194
C  C49  1  0.18042000  0.39625000  0.28853000  1.0 0.5413254225
C  C50  1  0.15067000  0.31845000  0.32450000  1.0 -0.010607312
C  C51  1  0.56226000  0.29738000  0.69007000  1.0 0.5926453197
C  C52  1  0.30799000  0.01249000  0.65585000  1.0 0.6010961109
C  C53  1  0.33655000  0.09590000  0.62332000  1.0 -0.0193508607
C  C54  1  0.26394000  0.11525000  0.54628000  1.0 -0.1406188335
C  C55  1  0.28281000  0.19813000  0.51571000  1.0 0.0668013695
C  C56  1  0.38013000  0.25688000  0.56391000  1.0 -0.1406188335
C  C57  1  0.45589000  0.23486000  0.64035000  1.0 -0.0193508607
C  C58  1  0.43235000  0.15561000  0.67057000  1.0 -0.0967321782
C  C59  1  0.19959000  0.22452000  0.43473000  1.0 0.0668013695
C  C60  1  0.08714000  0.18605000  0.39273000  1.0 -0.1576442322
C  C61  1  0.00844000  0.21146000  0.31741000  1.0 -0.010607312
C  C62  1  0.04051000  0.27697000  0.28294000  1.0 -0.0967321782
C  C63  1  0.22991000  0.29128000  0.39934000  1.0 -0.1406188335
C  C64  1  0.89001000  0.16703000  0.27172000  1.0 0.5664293194
O  O1  1  0.27431000  0.05539000  0.83255000  1.0 -0.5254298276
O  O2  1  0.11338000  0.08847000  0.72042000  1.0 -0.4805218057
O  O3  1  0.57901000  0.13405000  0.15723000  1.0 -0.5190225145
O  O4  1  0.62582000  0.22279000  0.25860000  1.0 -0.5827792114
O  O5  1  0.24684000  0.55753000  0.11286000  1.0 -0.5704788989
O  O6  1  0.85029000  0.37316000  0.80702000  1.0 -0.6123582697
O  O7  1  0.34669000  0.47940000  0.22416000  1.0 -0.5190225145
O  O8  1  0.83451000  0.33528000  0.70267000  1.0 -0.4452173984
O  O9  1  0.72569000  0.55539000  0.66745000  1.0 -0.5254298276
O  O10  1  0.88662000  0.58847000  0.77958000  1.0 -0.4805218057
O  O11  1  0.42099000  0.63405000  0.34277000  1.0 -0.5190225145
O  O12  1  0.37418000  0.72279000  0.24140000  1.0 -0.5827792114
O  O13  1  0.75316000  0.05753000  0.38714000  1.0 -0.5704788989
O  O14  1  0.14971000  0.87316000  0.69298000  1.0 -0.6123582697
O  O15  1  0.65331000  0.97940000  0.27584000  1.0 -0.5190225145
O  O16  1  0.16549000  0.83528000  0.79733000  1.0 -0.4452173984
O  O17  1  0.72569000  0.94461000  0.16745000  1.0 -0.5254298276
O  O18  1  0.88662000  0.91153000  0.27958000  1.0 -0.4744367277
O  O19  1  0.42099000  0.86595000  0.84277000  1.0 -0.5190225145
O  O20  1  0.37418000  0.77721000  0.74140000  1.0 -0.5827792114
O  O21  1  0.75316000  0.44247000  0.88714000  1.0 -0.5704788989
O  O22  1  0.14971000  0.62684000  0.19298000  1.0 -0.6123582697
O  O23  1  0.65331000  0.52060000  0.77584000  1.0 -0.5190225145
O  O24  1  0.16549000  0.66472000  0.29733000  1.0 -0.4384805834
O  O25  1  0.27431000  0.44461000  0.33255000  1.0 -0.5254298276
O  O26  1  0.11338000  0.41153000  0.22042000  1.0 -0.4805218057
O  O27  1  0.57901000  0.36595000  0.65723000  1.0 -0.5190225145
O  O28  1  0.62582000  0.27721000  0.75860000  1.0 -0.5827792114
O  O29  1  0.24684000  0.94247000  0.61286000  1.0 -0.5704788989
O  O30  1  0.85029000  0.12684000  0.30702000  1.0 -0.6123582697
O  O31  1  0.34669000  0.02060000  0.72416000  1.0 -0.5190225145
O  O32  1  0.83451000  0.16472000  0.20267000  1.0 -0.4384805834
