# DDEC6 charges by PACMAN v1.1 (https://github.com/mtap-research/PACMAN-charge/)
data_SIVGAH_ASR_pacman
_symmetry_space_group_name_H-M   'P 1'
_cell_length_a   10.28850000
_cell_length_b   10.28850000
_cell_length_c   15.16350000
_cell_angle_alpha   90.00000000
_cell_angle_beta   90.00000000
_cell_angle_gamma   121.73500000
_symmetry_Int_Tables_number   1
_chemical_formula_structural   ZnH9(CN2)4
_chemical_formula_sum   'Zn4 H36 C16 N32'
_cell_volume   1365.12609895
_cell_formula_units_Z   4
loop_
 _symmetry_equiv_pos_site_id
 _symmetry_equiv_pos_as_xyz
  1  'x, y, z'
loop_
 _atom_site_type_symbol
 _atom_site_label
 _atom_site_symmetry_multiplicity
 _atom_site_fract_x
 _atom_site_fract_y
 _atom_site_fract_z
 _atom_site_occupancy
 _atom_site_charge
Zn  Zn1  1  0.50067000  0.17493000  0.95159000  1.0 0.6032720205
Zn  Zn2  1  0.17493000  0.50067000  0.04841000  1.0 0.6032720205
Zn  Zn3  1  0.17493000  0.50067000  0.45159000  1.0 0.6032720205
Zn  Zn4  1  0.50067000  0.17493000  0.54841000  1.0 0.6032720205
H  H1  1  0.71380000  0.41900000  0.09990000  1.0 0.1559587565
H  H2  1  0.41900000  0.71380000  0.90010000  1.0 0.1559587565
H  H3  1  0.41900000  0.71380000  0.59990000  1.0 0.1559587565
H  H4  1  0.71380000  0.41900000  0.40010000  1.0 0.1559587565
H  H5  1  0.84720000  0.41960000  0.15020000  1.0 0.1523863298
H  H6  1  0.41960000  0.84720000  0.84980000  1.0 0.1523863298
H  H7  1  0.41960000  0.84720000  0.65020000  1.0 0.1523863298
H  H8  1  0.84720000  0.41960000  0.34980000  1.0 0.1523863298
H  H9  1  0.88310000  0.55330000  0.08540000  1.0 0.1795717624
H  H10  1  0.55330000  0.88310000  0.91460000  1.0 0.1795717624
H  H11  1  0.55330000  0.88310000  0.58540000  1.0 0.1795717624
H  H12  1  0.88310000  0.55330000  0.41460000  1.0 0.1795717624
H  H13  1  0.07620000  0.17560000  0.00930000  1.0 0.0709853945
H  H14  1  0.17560000  0.07620000  0.99070000  1.0 0.0635215544
H  H15  1  0.17560000  0.07620000  0.50930000  1.0 0.0635215544
H  H16  1  0.07620000  0.17560000  0.49070000  1.0 0.0709853945
H  H17  1  0.14400000  0.10780000  0.94430000  1.0 0.0884876943
H  H18  1  0.10780000  0.14400000  0.05570000  1.0 0.0790160221
H  H19  1  0.10780000  0.14400000  0.44430000  1.0 0.0790160221
H  H20  1  0.14400000  0.10780000  0.55570000  1.0 0.0884876943
H  H21  1  0.15760000  0.09420000  0.04640000  1.0 0.0790160221
H  H22  1  0.09420000  0.15760000  0.95360000  1.0 0.0709853945
H  H23  1  0.09420000  0.15760000  0.54640000  1.0 0.0709853945
H  H24  1  0.15760000  0.09420000  0.45360000  1.0 0.0790160221
H  H25  1  0.72270000  0.39750000  0.69030000  1.0 0.0709853945
H  H26  1  0.39750000  0.72270000  0.30970000  1.0 0.0709853945
H  H27  1  0.39750000  0.72270000  0.19030000  1.0 0.0709853945
H  H28  1  0.72270000  0.39750000  0.80970000  1.0 0.0709853945
H  H29  1  0.68330000  0.44450000  0.78000000  1.0 0.0884876943
H  H30  1  0.44450000  0.68330000  0.22000000  1.0 0.0884876943
H  H31  1  0.44450000  0.68330000  0.28000000  1.0 0.0884876943
H  H32  1  0.68330000  0.44450000  0.72000000  1.0 0.0884876943
H  H33  1  0.76270000  0.34970000  0.77960000  1.0 0.0709853945
H  H34  1  0.34970000  0.76270000  0.22040000  1.0 0.0709853945
H  H35  1  0.34970000  0.76270000  0.27960000  1.0 0.0709853945
H  H36  1  0.76270000  0.34970000  0.72040000  1.0 0.0709853945
C  C1  1  0.54030000  0.22450000  0.75000000  1.0 0.2187807184
C  C2  1  0.22450000  0.54030000  0.25000000  1.0 0.2187807184
C  C3  1  0.81810000  0.44550000  0.09590000  1.0 -0.494284809
C  C4  1  0.44550000  0.81810000  0.90410000  1.0 -0.494284809
C  C5  1  0.44550000  0.81810000  0.59590000  1.0 -0.494284809
C  C6  1  0.81810000  0.44550000  0.40410000  1.0 -0.494284809
C  C7  1  0.83380000  0.35980000  0.02210000  1.0 0.3088659343
C  C8  1  0.35980000  0.83380000  0.97790000  1.0 0.3088659343
C  C9  1  0.35980000  0.83380000  0.52210000  1.0 0.3088659343
C  C10  1  0.83380000  0.35980000  0.47790000  1.0 0.3088659343
C  C11  1  0.15790000  0.15790000  0.00000000  1.0 -0.2738008353
C  C12  1  0.15790000  0.15790000  0.50000000  1.0 -0.2738008353
C  C13  1  0.30470000  0.30470000  0.00000000  1.0 0.2329635468
C  C14  1  0.30470000  0.30470000  0.50000000  1.0 0.2377691117
C  C15  1  0.69010000  0.36630000  0.75000000  1.0 -0.30186657
C  C16  1  0.36630000  0.69010000  0.25000000  1.0 -0.30186657
N  N1  1  0.45937000  0.14963000  0.82120000  1.0 -0.30186657
N  N2  1  0.14963000  0.45937000  0.17880000  1.0 -0.30186657
N  N3  1  0.14963000  0.45937000  0.32120000  1.0 -0.30186657
N  N4  1  0.45937000  0.14963000  0.67880000  1.0 -0.30186657
N  N5  1  0.43769000  0.31931000  0.98820000  1.0 -0.291502219
N  N6  1  0.31931000  0.43769000  0.01180000  1.0 -0.291502219
N  N7  1  0.31931000  0.43769000  0.48820000  1.0 -0.291502219
N  N8  1  0.43769000  0.31931000  0.51180000  1.0 -0.291502219
N  N9  1  0.96363000  0.37197000  0.99970000  1.0 -0.291502219
N  N10  1  0.37197000  0.96363000  0.00030000  1.0 -0.291502219
N  N11  1  0.37197000  0.96363000  0.49970000  1.0 -0.291502219
N  N12  1  0.96363000  0.37197000  0.50030000  1.0 -0.291502219
N  N13  1  0.72346000  0.26094000  0.97050000  1.0 -0.30186657
N  N14  1  0.26094000  0.72346000  0.02950000  1.0 -0.3058109584
N  N15  1  0.26094000  0.72346000  0.47050000  1.0 -0.3058109584
N  N16  1  0.72346000  0.26094000  0.52950000  1.0 -0.3058109584
N  N17  1  0.32460000  0.02720000  0.79290000  1.0 -0.0276073816
N  N18  1  0.02720000  0.32460000  0.20710000  1.0 -0.0276073816
N  N19  1  0.02720000  0.32460000  0.29290000  1.0 -0.0276073816
N  N20  1  0.32460000  0.02720000  0.70710000  1.0 -0.0276073816
N  N21  1  0.78799000  0.20621000  0.91370000  1.0 -0.0384501911
N  N22  1  0.20621000  0.78799000  0.08630000  1.0 -0.0384501911
N  N23  1  0.20621000  0.78799000  0.41370000  1.0 -0.0384501911
N  N24  1  0.78799000  0.20621000  0.58630000  1.0 -0.0384501911
N  N25  1  0.93088000  0.27412000  0.93140000  1.0 -0.0181135166
N  N26  1  0.27412000  0.93088000  0.06860000  1.0 -0.0181135166
N  N27  1  0.27412000  0.93088000  0.43140000  1.0 -0.0181135166
N  N28  1  0.93088000  0.27412000  0.56860000  1.0 -0.0181135166
N  N29  1  0.54227000  0.47133000  0.99300000  1.0 -0.0276073816
N  N30  1  0.47133000  0.54227000  0.00700000  1.0 -0.0276073816
N  N31  1  0.47133000  0.54227000  0.49300000  1.0 -0.0276073816
N  N32  1  0.54227000  0.47133000  0.50700000  1.0 -0.0276073816
