# DDEC6 charges by PACMAN v1.1 (https://github.com/mtap-research/PACMAN-charge/)
data_SIVKAK_ASR_pacman
_symmetry_space_group_name_H-M   'P 1'
_cell_length_a   7.58310000
_cell_length_b   13.79890000
_cell_length_c   31.08640000
_cell_angle_alpha   90.00000000
_cell_angle_beta   90.00000000
_cell_angle_gamma   90.00000000
_symmetry_Int_Tables_number   1
_chemical_formula_structural   MnAg2H4(C5N3)2
_chemical_formula_sum   'Mn8 Ag16 H32 C80 N48'
_cell_volume   3252.83235738
_cell_formula_units_Z   8
loop_
 _symmetry_equiv_pos_site_id
 _symmetry_equiv_pos_as_xyz
  1  'x, y, z'
loop_
 _atom_site_type_symbol
 _atom_site_label
 _atom_site_symmetry_multiplicity
 _atom_site_fract_x
 _atom_site_fract_y
 _atom_site_fract_z
 _atom_site_occupancy
 _atom_site_charge
Mn  Mn1  1  0.05400000  0.91298000  0.75000000  1.0 0.9466436291
Mn  Mn2  1  0.44600000  0.41298000  0.25000000  1.0 0.9466436291
Mn  Mn3  1  0.94600000  0.08702000  0.25000000  1.0 0.9466436291
Mn  Mn4  1  0.55400000  0.58702000  0.75000000  1.0 0.9466436291
Mn  Mn5  1  0.50000000  0.50000000  0.50000000  1.0 0.8084206814
Mn  Mn6  1  0.00000000  0.00000000  0.50000000  1.0 0.8084206814
Mn  Mn7  1  0.50000000  0.50000000  0.00000000  1.0 0.8084206814
Mn  Mn8  1  0.00000000  0.00000000  0.00000000  1.0 0.8084206814
Ag  Ag1  1  0.50415000  0.94381000  0.61871000  1.0 0.1400925014
Ag  Ag2  1  0.99585000  0.44381000  0.38129000  1.0 0.1400925014
Ag  Ag3  1  0.49585000  0.05619000  0.11871000  1.0 0.1400925014
Ag  Ag4  1  0.00415000  0.55619000  0.88129000  1.0 0.1400925014
Ag  Ag5  1  0.49585000  0.05619000  0.38129000  1.0 0.1400925014
Ag  Ag6  1  0.00415000  0.55619000  0.61871000  1.0 0.1400925014
Ag  Ag7  1  0.50415000  0.94381000  0.88129000  1.0 0.1400925014
Ag  Ag8  1  0.99585000  0.44381000  0.11871000  1.0 0.1400925014
Ag  Ag9  1  0.76296000  0.75794000  0.61026000  1.0 0.0973521238
Ag  Ag10  1  0.73704000  0.25794000  0.38974000  1.0 0.0973521238
Ag  Ag11  1  0.23704000  0.24206000  0.11026000  1.0 0.0973521238
Ag  Ag12  1  0.26296000  0.74206000  0.88974000  1.0 0.0973521238
Ag  Ag13  1  0.23704000  0.24206000  0.38974000  1.0 0.0973521238
Ag  Ag14  1  0.26296000  0.74206000  0.61026000  1.0 0.0973521238
Ag  Ag15  1  0.76296000  0.75794000  0.88974000  1.0 0.0973521238
Ag  Ag16  1  0.73704000  0.25794000  0.11026000  1.0 0.0973521238
H  H1  1  0.35630000  0.62870000  0.34590000  1.0 0.1488088528
H  H2  1  0.14370000  0.12870000  0.65410000  1.0 0.1488088528
H  H3  1  0.64370000  0.37130000  0.84590000  1.0 0.1488088528
H  H4  1  0.85630000  0.87130000  0.15410000  1.0 0.1488088528
H  H5  1  0.64370000  0.37130000  0.65410000  1.0 0.1488088528
H  H6  1  0.85630000  0.87130000  0.34590000  1.0 0.1488088528
H  H7  1  0.35630000  0.62870000  0.15410000  1.0 0.1488088528
H  H8  1  0.14370000  0.12870000  0.84590000  1.0 0.1488088528
H  H9  1  0.30370000  0.83240000  0.43700000  1.0 0.1400925014
H  H10  1  0.19630000  0.33240000  0.56300000  1.0 0.1400925014
H  H11  1  0.69630000  0.16760000  0.93700000  1.0 0.1400925014
H  H12  1  0.80370000  0.66760000  0.06300000  1.0 0.1400925014
H  H13  1  0.69630000  0.16760000  0.56300000  1.0 0.1400925014
H  H14  1  0.80370000  0.66760000  0.43700000  1.0 0.1400925014
H  H15  1  0.30370000  0.83240000  0.06300000  1.0 0.1400925014
H  H16  1  0.19630000  0.33240000  0.93700000  1.0 0.1400925014
H  H17  1  0.42570000  0.52010000  0.39900000  1.0 0.1127784634
H  H18  1  0.07430000  0.02010000  0.60100000  1.0 0.1127784634
H  H19  1  0.57430000  0.47990000  0.89900000  1.0 0.1127784634
H  H20  1  0.92570000  0.97990000  0.10100000  1.0 0.1127784634
H  H21  1  0.57430000  0.47990000  0.60100000  1.0 0.1127784634
H  H22  1  0.92570000  0.97990000  0.39900000  1.0 0.1127784634
H  H23  1  0.42570000  0.52010000  0.10100000  1.0 0.1127784634
H  H24  1  0.07430000  0.02010000  0.89900000  1.0 0.1127784634
H  H25  1  0.36320000  0.71640000  0.48760000  1.0 0.1202131892
H  H26  1  0.13680000  0.21640000  0.51240000  1.0 0.1202131892
H  H27  1  0.63680000  0.28360000  0.98760000  1.0 0.1202131892
H  H28  1  0.86320000  0.78360000  0.01240000  1.0 0.1202131892
H  H29  1  0.63680000  0.28360000  0.51240000  1.0 0.1202131892
H  H30  1  0.86320000  0.78360000  0.48760000  1.0 0.1202131892
H  H31  1  0.36320000  0.71640000  0.01240000  1.0 0.1202131892
H  H32  1  0.13680000  0.21640000  0.98760000  1.0 0.1202131892
C  C1  1  0.34280000  0.94350000  0.67173000  1.0 0.0459479624
C  C2  1  0.15720000  0.44350000  0.32827000  1.0 0.0459479624
C  C3  1  0.65720000  0.05650000  0.17173000  1.0 0.0443741092
C  C4  1  0.84280000  0.55650000  0.82827000  1.0 0.0443741092
C  C5  1  0.65720000  0.05650000  0.32827000  1.0 0.0459479624
C  C6  1  0.84280000  0.55650000  0.67173000  1.0 0.0459479624
C  C7  1  0.34280000  0.94350000  0.82827000  1.0 0.0459479624
C  C8  1  0.15720000  0.44350000  0.17173000  1.0 0.0459479624
C  C9  1  0.66380000  0.96077000  0.56589000  1.0 0.0072919983
C  C10  1  0.83620000  0.46077000  0.43411000  1.0 0.0072919983
C  C11  1  0.33620000  0.03923000  0.06589000  1.0 0.0072919983
C  C12  1  0.16380000  0.53923000  0.93411000  1.0 0.0072919983
C  C13  1  0.33620000  0.03923000  0.43411000  1.0 0.0072919983
C  C14  1  0.16380000  0.53923000  0.56589000  1.0 0.0072919983
C  C15  1  0.66380000  0.96077000  0.93411000  1.0 0.0072919983
C  C16  1  0.83620000  0.46077000  0.06589000  1.0 0.0072919983
C  C17  1  0.36050000  0.64820000  0.37449000  1.0 -0.1684091445
C  C18  1  0.13950000  0.14820000  0.62551000  1.0 -0.1684091445
C  C19  1  0.63950000  0.35180000  0.87449000  1.0 -0.1684091445
C  C20  1  0.86050000  0.85180000  0.12551000  1.0 -0.1684091445
C  C21  1  0.63950000  0.35180000  0.62551000  1.0 -0.1684091445
C  C22  1  0.86050000  0.85180000  0.37449000  1.0 -0.1684091445
C  C23  1  0.36050000  0.64820000  0.12551000  1.0 -0.1684091445
C  C24  1  0.13950000  0.14820000  0.87449000  1.0 -0.1684091445
C  C25  1  0.29170000  0.81450000  0.35276000  1.0 0.2543568546
C  C26  1  0.20830000  0.31450000  0.64724000  1.0 0.2543568546
C  C27  1  0.70830000  0.18550000  0.85276000  1.0 0.2543568546
C  C28  1  0.79170000  0.68550000  0.14724000  1.0 0.2543568546
C  C29  1  0.70830000  0.18550000  0.64724000  1.0 0.2543568546
C  C30  1  0.79170000  0.68550000  0.35276000  1.0 0.2543568546
C  C31  1  0.29170000  0.81450000  0.14724000  1.0 0.2543568546
C  C32  1  0.20830000  0.31450000  0.85276000  1.0 0.2543568546
C  C33  1  0.32740000  0.74330000  0.38604000  1.0 0.0973521238
C  C34  1  0.17260000  0.24330000  0.61396000  1.0 0.0973521238
C  C35  1  0.67260000  0.25670000  0.88604000  1.0 0.0973521238
C  C36  1  0.82740000  0.75670000  0.11396000  1.0 0.0973521238
C  C37  1  0.67260000  0.25670000  0.61396000  1.0 0.0973521238
C  C38  1  0.82740000  0.75670000  0.38604000  1.0 0.0973521238
C  C39  1  0.32740000  0.74330000  0.11396000  1.0 0.0973521238
C  C40  1  0.17260000  0.24330000  0.88604000  1.0 0.0973521238
C  C41  1  0.32780000  0.76900000  0.42865000  1.0 -0.1684091445
C  C42  1  0.17220000  0.26900000  0.57135000  1.0 -0.1684091445
C  C43  1  0.67220000  0.23100000  0.92865000  1.0 -0.1684091445
C  C44  1  0.82780000  0.73100000  0.07135000  1.0 -0.1684091445
C  C45  1  0.67220000  0.23100000  0.57135000  1.0 -0.1684091445
C  C46  1  0.82780000  0.73100000  0.42865000  1.0 -0.1684091445
C  C47  1  0.32780000  0.76900000  0.07135000  1.0 -0.1684091445
C  C48  1  0.17220000  0.26900000  0.92865000  1.0 -0.1684091445
C  C49  1  0.39990000  0.58370000  0.40662000  1.0 0.08031051
C  C50  1  0.10010000  0.08370000  0.59338000  1.0 0.08031051
C  C51  1  0.60010000  0.41630000  0.90662000  1.0 0.08031051
C  C52  1  0.89990000  0.91630000  0.09338000  1.0 0.08031051
C  C53  1  0.60010000  0.41630000  0.59338000  1.0 0.08031051
C  C54  1  0.89990000  0.91630000  0.40662000  1.0 0.08031051
C  C55  1  0.39990000  0.58370000  0.09338000  1.0 0.08031051
C  C56  1  0.10010000  0.08370000  0.90662000  1.0 0.08031051
C  C57  1  0.83720000  0.83356000  0.66439000  1.0 0.028502847
C  C58  1  0.66280000  0.33356000  0.33561000  1.0 0.028502847
C  C59  1  0.16280000  0.16644000  0.16439000  1.0 0.028502847
C  C60  1  0.33720000  0.66644000  0.83561000  1.0 0.028502847
C  C61  1  0.16280000  0.16644000  0.33561000  1.0 0.028502847
C  C62  1  0.33720000  0.66644000  0.66439000  1.0 0.028502847
C  C63  1  0.83720000  0.83356000  0.83561000  1.0 0.028502847
C  C64  1  0.66280000  0.33356000  0.16439000  1.0 0.028502847
C  C65  1  0.68060000  0.67260000  0.55986000  1.0 0.0007804991
C  C66  1  0.81940000  0.17260000  0.44014000  1.0 0.0007804991
C  C67  1  0.31940000  0.32740000  0.05986000  1.0 0.0007804991
C  C68  1  0.18060000  0.82740000  0.94014000  1.0 0.0007804991
C  C69  1  0.31940000  0.32740000  0.44014000  1.0 0.0007804991
C  C70  1  0.18060000  0.82740000  0.55986000  1.0 0.0007804991
C  C71  1  0.68060000  0.67260000  0.94014000  1.0 0.0007804991
C  C72  1  0.81940000  0.17260000  0.05986000  1.0 0.0007804991
C  C73  1  0.36480000  0.69925000  0.45866000  1.0 0.08031051
C  C74  1  0.13520000  0.19925000  0.54134000  1.0 0.08031051
C  C75  1  0.63520000  0.30075000  0.95866000  1.0 0.08031051
C  C76  1  0.86480000  0.80075000  0.04134000  1.0 0.08031051
C  C77  1  0.63520000  0.30075000  0.54134000  1.0 0.08031051
C  C78  1  0.86480000  0.80075000  0.45866000  1.0 0.08031051
C  C79  1  0.36480000  0.69925000  0.04134000  1.0 0.08031051
C  C80  1  0.13520000  0.19925000  0.95866000  1.0 0.08031051
N  N1  1  0.24920000  0.94440000  0.70016000  1.0 -0.3410379479
N  N2  1  0.25080000  0.44440000  0.29984000  1.0 -0.3410379479
N  N3  1  0.75080000  0.05560000  0.20016000  1.0 -0.3410379479
N  N4  1  0.74920000  0.55560000  0.79984000  1.0 -0.3410379479
N  N5  1  0.75080000  0.05560000  0.29984000  1.0 -0.3410379479
N  N6  1  0.74920000  0.55560000  0.70016000  1.0 -0.3410379479
N  N7  1  0.24920000  0.94440000  0.79984000  1.0 -0.3410379479
N  N8  1  0.25080000  0.44440000  0.20016000  1.0 -0.3410379479
N  N9  1  0.62980000  0.62105000  0.53429000  1.0 -0.3410379479
N  N10  1  0.87020000  0.12105000  0.46571000  1.0 -0.3410379479
N  N11  1  0.37020000  0.37895000  0.03429000  1.0 -0.3410379479
N  N12  1  0.12980000  0.87895000  0.96571000  1.0 -0.3410379479
N  N13  1  0.37020000  0.37895000  0.46571000  1.0 -0.3410379479
N  N14  1  0.12980000  0.87895000  0.53429000  1.0 -0.3410379479
N  N15  1  0.62980000  0.62105000  0.96571000  1.0 -0.3410379479
N  N16  1  0.87020000  0.12105000  0.03429000  1.0 -0.3410379479
N  N17  1  0.26330000  0.86910000  0.32651000  1.0 -0.3410379479
N  N18  1  0.23670000  0.36910000  0.67349000  1.0 -0.3455166286
N  N19  1  0.73670000  0.13090000  0.82651000  1.0 -0.3410379479
N  N20  1  0.76330000  0.63090000  0.17349000  1.0 -0.3455166286
N  N21  1  0.73670000  0.13090000  0.67349000  1.0 -0.3410379479
N  N22  1  0.76330000  0.63090000  0.32651000  1.0 -0.3410379479
N  N23  1  0.26330000  0.86910000  0.17349000  1.0 -0.3455166286
N  N24  1  0.23670000  0.36910000  0.82651000  1.0 -0.3410379479
N  N25  1  0.40320000  0.60753000  0.44819000  1.0 -0.211485493
N  N26  1  0.09680000  0.10753000  0.55181000  1.0 -0.211485493
N  N27  1  0.59680000  0.39247000  0.94819000  1.0 -0.211485493
N  N28  1  0.90320000  0.89247000  0.05181000  1.0 -0.211485493
N  N29  1  0.59680000  0.39247000  0.55181000  1.0 -0.211485493
N  N30  1  0.90320000  0.89247000  0.44819000  1.0 -0.211485493
N  N31  1  0.40320000  0.60753000  0.05181000  1.0 -0.211485493
N  N32  1  0.09680000  0.10753000  0.94819000  1.0 -0.211485493
N  N33  1  0.76470000  0.97231000  0.53933000  1.0 -0.3410379479
N  N34  1  0.73530000  0.47231000  0.46067000  1.0 -0.3410379479
N  N35  1  0.23530000  0.02769000  0.03933000  1.0 -0.3410379479
N  N36  1  0.26470000  0.52769000  0.96067000  1.0 -0.3410379479
N  N37  1  0.23530000  0.02769000  0.46067000  1.0 -0.3410379479
N  N38  1  0.26470000  0.52769000  0.53933000  1.0 -0.3410379479
N  N39  1  0.76470000  0.97231000  0.96067000  1.0 -0.3410379479
N  N40  1  0.73530000  0.47231000  0.03933000  1.0 -0.3410379479
N  N41  1  0.87910000  0.86995000  0.69540000  1.0 -0.3171945503
N  N42  1  0.62090000  0.36995000  0.30460000  1.0 -0.3171945503
N  N43  1  0.12090000  0.13005000  0.19540000  1.0 -0.3171945503
N  N44  1  0.37910000  0.63005000  0.80460000  1.0 -0.3171945503
N  N45  1  0.12090000  0.13005000  0.30460000  1.0 -0.3171945503
N  N46  1  0.37910000  0.63005000  0.69540000  1.0 -0.3171945503
N  N47  1  0.87910000  0.86995000  0.80460000  1.0 -0.3171945503
N  N48  1  0.62090000  0.36995000  0.19540000  1.0 -0.3171945503
