# DDEC6 charges by PACMAN v1.1 (https://github.com/mtap-research/PACMAN-charge/)
data_SIWPAS02_ASR_pacman
_symmetry_space_group_name_H-M   'P 1'
_cell_length_a   18.98000000
_cell_length_b   18.98000000
_cell_length_c   11.79500000
_cell_angle_alpha   90.00000000
_cell_angle_beta   90.00000000
_cell_angle_gamma   120.00000000
_symmetry_Int_Tables_number   1
_chemical_formula_structural   CuH9C10SO4
_chemical_formula_sum   'Cu6 H54 C60 S6 O24'
_cell_volume   3679.77270017
_cell_formula_units_Z   6
loop_
 _symmetry_equiv_pos_site_id
 _symmetry_equiv_pos_as_xyz
  1  'x, y, z'
loop_
 _atom_site_type_symbol
 _atom_site_label
 _atom_site_symmetry_multiplicity
 _atom_site_fract_x
 _atom_site_fract_y
 _atom_site_fract_z
 _atom_site_occupancy
 _atom_site_charge
Cu  Cu1  1  0.47553000  0.52448000  0.90835000  1.0 0.879572169
Cu  Cu2  1  0.04895000  0.52448000  0.90835000  1.0 0.879572169
Cu  Cu3  1  0.47552000  0.95105000  0.90835000  1.0 0.879572169
Cu  Cu4  1  0.95105000  0.47552000  0.09165000  1.0 0.879572169
Cu  Cu5  1  0.52448000  0.47552000  0.09165000  1.0 0.879572169
Cu  Cu6  1  0.52448000  0.04895000  0.09165000  1.0 0.879572169
H  H1  1  0.63720000  0.71020000  0.29450000  1.0 0.1425319146
H  H2  1  0.69140000  0.96430000  0.44790000  1.0 0.1005923584
H  H3  1  0.66860000  0.92450000  0.57160000  1.0 0.1163651537
H  H4  1  0.76130000  0.97080000  0.53040000  1.0 0.0704413427
H  H5  1  0.07300000  0.36280000  0.29450000  1.0 0.1425319146
H  H6  1  0.27290000  0.30860000  0.44790000  1.0 0.1005923584
H  H7  1  0.25590000  0.33140000  0.57160000  1.0 0.1163651537
H  H8  1  0.20950000  0.23870000  0.53040000  1.0 0.0704413427
H  H9  1  0.28980000  0.92700000  0.29450000  1.0 0.1425319146
H  H10  1  0.03570000  0.72710000  0.44790000  1.0 0.1005923584
H  H11  1  0.07550000  0.74410000  0.57160000  1.0 0.1163651537
H  H12  1  0.02920000  0.79050000  0.53040000  1.0 0.0704413427
H  H13  1  0.92700000  0.28980000  0.70550000  1.0 0.1425319146
H  H14  1  0.72710000  0.03570000  0.55210000  1.0 0.1005923584
H  H15  1  0.74410000  0.07550000  0.42840000  1.0 0.1163651537
H  H16  1  0.79050000  0.02920000  0.46960000  1.0 0.0704413427
H  H17  1  0.71020000  0.63720000  0.70550000  1.0 0.1425319146
H  H18  1  0.96430000  0.69140000  0.55210000  1.0 0.1005923584
H  H19  1  0.92450000  0.66860000  0.42840000  1.0 0.1163651537
H  H20  1  0.97080000  0.76130000  0.46960000  1.0 0.0704413427
H  H21  1  0.36280000  0.07300000  0.70550000  1.0 0.1425319146
H  H22  1  0.30860000  0.27290000  0.55210000  1.0 0.1005923584
H  H23  1  0.33140000  0.25590000  0.42840000  1.0 0.1163651537
H  H24  1  0.23870000  0.20950000  0.46960000  1.0 0.0704413427
H  H25  1  0.36280000  0.28980000  0.70550000  1.0 0.1425319146
H  H26  1  0.30860000  0.03570000  0.55210000  1.0 0.1005923584
H  H27  1  0.33140000  0.07550000  0.42840000  1.0 0.1163651537
H  H28  1  0.23870000  0.02920000  0.46960000  1.0 0.0704413427
H  H29  1  0.92700000  0.63720000  0.70550000  1.0 0.1425319146
H  H30  1  0.72710000  0.69140000  0.55210000  1.0 0.1005923584
H  H31  1  0.74410000  0.66860000  0.42840000  1.0 0.1163651537
H  H32  1  0.79050000  0.76130000  0.46960000  1.0 0.0704413427
H  H33  1  0.71020000  0.07300000  0.70550000  1.0 0.1425319146
H  H34  1  0.96430000  0.27290000  0.55210000  1.0 0.1005923584
H  H35  1  0.92450000  0.25590000  0.42840000  1.0 0.1163651537
H  H36  1  0.97080000  0.20950000  0.46960000  1.0 0.0704413427
H  H37  1  0.07300000  0.71020000  0.29450000  1.0 0.1425319146
H  H38  1  0.27290000  0.96430000  0.44790000  1.0 0.1005923584
H  H39  1  0.25590000  0.92450000  0.57160000  1.0 0.1163651537
H  H40  1  0.20950000  0.97080000  0.53040000  1.0 0.0704413427
H  H41  1  0.28980000  0.36280000  0.29450000  1.0 0.1425319146
H  H42  1  0.03570000  0.30860000  0.44790000  1.0 0.1005923584
H  H43  1  0.07550000  0.33140000  0.57160000  1.0 0.1163651537
H  H44  1  0.02920000  0.23870000  0.53040000  1.0 0.0704413427
H  H45  1  0.63720000  0.92700000  0.29450000  1.0 0.1425319146
H  H46  1  0.69140000  0.72710000  0.44790000  1.0 0.1005923584
H  H47  1  0.66860000  0.74410000  0.57160000  1.0 0.1163651537
H  H48  1  0.76130000  0.79050000  0.53040000  1.0 0.0704413427
H  H49  1  0.53150000  0.76575000  0.02980000  1.0 0.1455095768
H  H50  1  0.23425000  0.46850000  0.02980000  1.0 0.1425319146
H  H51  1  0.23425000  0.76575000  0.02980000  1.0 0.1425319146
H  H52  1  0.76575000  0.23425000  0.97020000  1.0 0.1425319146
H  H53  1  0.76575000  0.53150000  0.97020000  1.0 0.1425319146
H  H54  1  0.46850000  0.23425000  0.97020000  1.0 0.1425319146
C  C1  1  0.57890000  0.72300000  0.15680000  1.0 0.036500238
C  C2  1  0.54910000  0.63860000  0.09290000  1.0 0.5859611094
C  C3  1  0.62040000  0.74450000  0.25970000  1.0 -0.1599452684
C  C4  1  0.70500000  0.93600000  0.50600000  1.0 -0.3832179612
C  C5  1  0.14410000  0.42110000  0.15680000  1.0 0.036500238
C  C6  1  0.08950000  0.45090000  0.09290000  1.0 0.5859611094
C  C7  1  0.12410000  0.37960000  0.25970000  1.0 -0.1599452684
C  C8  1  0.23100000  0.29500000  0.50600000  1.0 -0.3832179612
C  C9  1  0.27700000  0.85590000  0.15680000  1.0 0.036500238
C  C10  1  0.36140000  0.91050000  0.09290000  1.0 0.5859611094
C  C11  1  0.25550000  0.87590000  0.25970000  1.0 -0.1599452684
C  C12  1  0.06400000  0.76900000  0.50600000  1.0 -0.3857842425
C  C13  1  0.85590000  0.27700000  0.84320000  1.0 0.036500238
C  C14  1  0.91050000  0.36140000  0.90710000  1.0 0.5859611094
C  C15  1  0.87590000  0.25550000  0.74030000  1.0 -0.1599452684
C  C16  1  0.76900000  0.06400000  0.49400000  1.0 -0.3832179612
C  C17  1  0.72300000  0.57890000  0.84320000  1.0 0.036500238
C  C18  1  0.63860000  0.54910000  0.90710000  1.0 0.5859611094
C  C19  1  0.74450000  0.62040000  0.74030000  1.0 -0.1599452684
C  C20  1  0.93600000  0.70500000  0.49400000  1.0 -0.3832179612
C  C21  1  0.42110000  0.14410000  0.84320000  1.0 0.036500238
C  C22  1  0.45090000  0.08950000  0.90710000  1.0 0.5859611094
C  C23  1  0.37960000  0.12410000  0.74030000  1.0 -0.1599452684
C  C24  1  0.29500000  0.23100000  0.49400000  1.0 -0.3857842425
C  C25  1  0.42110000  0.27700000  0.84320000  1.0 0.036500238
C  C26  1  0.45090000  0.36140000  0.90710000  1.0 0.5859611094
C  C27  1  0.37960000  0.25550000  0.74030000  1.0 -0.1599452684
C  C28  1  0.29500000  0.06400000  0.49400000  1.0 -0.3832179612
C  C29  1  0.85590000  0.57890000  0.84320000  1.0 0.036500238
C  C30  1  0.91050000  0.54910000  0.90710000  1.0 0.5859611094
C  C31  1  0.87590000  0.62040000  0.74030000  1.0 -0.1599452684
C  C32  1  0.76900000  0.70500000  0.49400000  1.0 -0.3832179612
C  C33  1  0.72300000  0.14410000  0.84320000  1.0 0.036500238
C  C34  1  0.63860000  0.08950000  0.90710000  1.0 0.5859611094
C  C35  1  0.74450000  0.12410000  0.74030000  1.0 -0.1599452684
C  C36  1  0.93600000  0.23100000  0.49400000  1.0 -0.3857842425
C  C37  1  0.14410000  0.72300000  0.15680000  1.0 0.036500238
C  C38  1  0.08950000  0.63860000  0.09290000  1.0 0.5848984778
C  C39  1  0.12410000  0.74450000  0.25970000  1.0 -0.1599452684
C  C40  1  0.23100000  0.93600000  0.50600000  1.0 -0.3832179612
C  C41  1  0.27700000  0.42110000  0.15680000  1.0 0.036500238
C  C42  1  0.36140000  0.45090000  0.09290000  1.0 0.5848984778
C  C43  1  0.25550000  0.37960000  0.25970000  1.0 -0.1599452684
C  C44  1  0.06400000  0.29500000  0.50600000  1.0 -0.3832179612
C  C45  1  0.57890000  0.85590000  0.15680000  1.0 0.036500238
C  C46  1  0.54910000  0.91050000  0.09290000  1.0 0.5859611094
C  C47  1  0.62040000  0.87590000  0.25970000  1.0 -0.1599452684
C  C48  1  0.70500000  0.76900000  0.50600000  1.0 -0.3832179612
C  C49  1  0.63720000  0.81860000  0.31120000  1.0 0.0194698606
C  C50  1  0.55820000  0.77910000  0.10120000  1.0 -0.1027401924
C  C51  1  0.18140000  0.36280000  0.31120000  1.0 0.0194698606
C  C52  1  0.22090000  0.44180000  0.10120000  1.0 -0.1027401924
C  C53  1  0.18140000  0.81860000  0.31120000  1.0 0.0194698606
C  C54  1  0.22090000  0.77910000  0.10120000  1.0 -0.1027401924
C  C55  1  0.81860000  0.18140000  0.68880000  1.0 0.0194698606
C  C56  1  0.77910000  0.22090000  0.89880000  1.0 -0.1027401924
C  C57  1  0.81860000  0.63720000  0.68880000  1.0 0.0194698606
C  C58  1  0.77910000  0.55820000  0.89880000  1.0 -0.1027401924
C  C59  1  0.36280000  0.18140000  0.68880000  1.0 0.0194698606
C  C60  1  0.44180000  0.22090000  0.89880000  1.0 -0.1027401924
S  S1  1  0.69240000  0.84620000  0.45220000  1.0 0.188397488
S  S2  1  0.15380000  0.30760000  0.45220000  1.0 0.188397488
S  S3  1  0.15380000  0.84620000  0.45220000  1.0 0.2003162265
S  S4  1  0.84620000  0.15380000  0.54780000  1.0 0.2051628292
S  S5  1  0.84620000  0.69240000  0.54780000  1.0 0.2003162265
S  S6  1  0.30760000  0.15380000  0.54780000  1.0 0.2003162265
O  O1  1  0.56380000  0.58790000  0.15330000  1.0 -0.5502555261
O  O2  1  0.52090000  0.62940000  0.99260000  1.0 -0.5265656162
O  O3  1  0.02410000  0.43620000  0.15330000  1.0 -0.5502555261
O  O4  1  0.10850000  0.47910000  0.99260000  1.0 -0.5265656162
O  O5  1  0.41210000  0.97590000  0.15330000  1.0 -0.5502555261
O  O6  1  0.37060000  0.89150000  0.99260000  1.0 -0.5265656162
O  O7  1  0.97590000  0.41210000  0.84670000  1.0 -0.5502555261
O  O8  1  0.89150000  0.37060000  0.00740000  1.0 -0.5265656162
O  O9  1  0.58790000  0.56380000  0.84670000  1.0 -0.5502555261
O  O10  1  0.62940000  0.52090000  0.00740000  1.0 -0.5265656162
O  O11  1  0.43620000  0.02410000  0.84670000  1.0 -0.5502555261
O  O12  1  0.47910000  0.10850000  0.00740000  1.0 -0.5245211065
O  O13  1  0.43620000  0.41210000  0.84670000  1.0 -0.5502555261
O  O14  1  0.47910000  0.37060000  0.00740000  1.0 -0.5265656162
O  O15  1  0.97590000  0.56380000  0.84670000  1.0 -0.5502555261
O  O16  1  0.89150000  0.52090000  0.00740000  1.0 -0.5265656162
O  O17  1  0.58790000  0.02410000  0.84670000  1.0 -0.5502555261
O  O18  1  0.62940000  0.10850000  0.00740000  1.0 -0.5265656162
O  O19  1  0.02410000  0.58790000  0.15330000  1.0 -0.5502555261
O  O20  1  0.10850000  0.62940000  0.99260000  1.0 -0.5265656162
O  O21  1  0.41210000  0.43620000  0.15330000  1.0 -0.5502555261
O  O22  1  0.37060000  0.47910000  0.99260000  1.0 -0.5265656162
O  O23  1  0.56380000  0.97590000  0.15330000  1.0 -0.5502555261
O  O24  1  0.52090000  0.89150000  0.99260000  1.0 -0.5265656162
