# DDEC6 charges by PACMAN v1.1 (https://github.com/mtap-research/PACMAN-charge/)
data_SIWPAS01_ASR_pacman
_symmetry_space_group_name_H-M   'P 1'
_cell_length_a   18.84000000
_cell_length_b   18.84000000
_cell_length_c   10.81000000
_cell_angle_alpha   90.00000000
_cell_angle_beta   90.00000000
_cell_angle_gamma   120.00000000
_symmetry_Int_Tables_number   1
_chemical_formula_structural   CuH9C10SO4
_chemical_formula_sum   'Cu6 H54 C60 S6 O24'
_cell_volume   3322.90650993
_cell_formula_units_Z   6
loop_
 _symmetry_equiv_pos_site_id
 _symmetry_equiv_pos_as_xyz
  1  'x, y, z'
loop_
 _atom_site_type_symbol
 _atom_site_label
 _atom_site_symmetry_multiplicity
 _atom_site_fract_x
 _atom_site_fract_y
 _atom_site_fract_z
 _atom_site_occupancy
 _atom_site_charge
Cu  Cu1  1  0.47640000  0.95280000  0.09907000  1.0 0.8332455254
Cu  Cu2  1  0.47640000  0.52360000  0.09907000  1.0 0.8332455254
Cu  Cu3  1  0.04720000  0.52360000  0.09907000  1.0 0.8332455254
Cu  Cu4  1  0.52360000  0.04720000  0.90093000  1.0 0.8332455254
Cu  Cu5  1  0.95280000  0.47640000  0.90093000  1.0 0.8332455254
Cu  Cu6  1  0.52360000  0.47640000  0.90093000  1.0 0.8350291109
H  H1  1  0.36260000  0.07440000  0.30640000  1.0 0.1331445419
H  H2  1  0.29670000  0.07630000  0.66280000  1.0 0.1511522239
H  H3  1  0.30680000  0.03070000  0.54480000  1.0 0.1053987934
H  H4  1  0.38560000  0.10720000  0.60490000  1.0 0.1590849726
H  H5  1  0.71180000  0.63740000  0.30640000  1.0 0.1331445419
H  H6  1  0.77960000  0.70330000  0.66280000  1.0 0.1511522239
H  H7  1  0.72390000  0.69320000  0.54480000  1.0 0.1053987934
H  H8  1  0.72160000  0.61440000  0.60490000  1.0 0.1590849726
H  H9  1  0.92560000  0.28820000  0.30640000  1.0 0.1331445419
H  H10  1  0.92370000  0.22040000  0.66280000  1.0 0.1511522239
H  H11  1  0.96930000  0.27610000  0.54480000  1.0 0.1053987934
H  H12  1  0.89280000  0.27840000  0.60490000  1.0 0.1590849726
H  H13  1  0.28820000  0.92560000  0.69360000  1.0 0.1331445419
H  H14  1  0.22040000  0.92370000  0.33720000  1.0 0.1511522239
H  H15  1  0.27610000  0.96930000  0.45520000  1.0 0.1053987934
H  H16  1  0.27840000  0.89280000  0.39510000  1.0 0.1590849726
H  H17  1  0.07440000  0.36260000  0.69360000  1.0 0.1331445419
H  H18  1  0.07630000  0.29670000  0.33720000  1.0 0.1511522239
H  H19  1  0.03070000  0.30680000  0.45520000  1.0 0.1053987934
H  H20  1  0.10720000  0.38560000  0.39510000  1.0 0.1590849726
H  H21  1  0.63740000  0.71180000  0.69360000  1.0 0.1331445419
H  H22  1  0.70330000  0.77960000  0.33720000  1.0 0.1511522239
H  H23  1  0.69320000  0.72390000  0.45520000  1.0 0.1053987934
H  H24  1  0.61440000  0.72160000  0.39510000  1.0 0.1590849726
H  H25  1  0.63740000  0.92560000  0.69360000  1.0 0.1331445419
H  H26  1  0.70330000  0.92370000  0.33720000  1.0 0.1511522239
H  H27  1  0.69320000  0.96930000  0.45520000  1.0 0.1053987934
H  H28  1  0.61440000  0.89280000  0.39510000  1.0 0.1590849726
H  H29  1  0.28820000  0.36260000  0.69360000  1.0 0.1331445419
H  H30  1  0.22040000  0.29670000  0.33720000  1.0 0.1511522239
H  H31  1  0.27610000  0.30680000  0.45520000  1.0 0.1053987934
H  H32  1  0.27840000  0.38560000  0.39510000  1.0 0.1590849726
H  H33  1  0.07440000  0.71180000  0.69360000  1.0 0.1331445419
H  H34  1  0.07630000  0.77960000  0.33720000  1.0 0.1511522239
H  H35  1  0.03070000  0.72390000  0.45520000  1.0 0.1053987934
H  H36  1  0.10720000  0.72160000  0.39510000  1.0 0.1590849726
H  H37  1  0.71180000  0.07440000  0.30640000  1.0 0.1331445419
H  H38  1  0.77960000  0.07630000  0.66280000  1.0 0.1511522239
H  H39  1  0.72390000  0.03070000  0.54480000  1.0 0.1053987934
H  H40  1  0.72160000  0.10720000  0.60490000  1.0 0.1590849726
H  H41  1  0.92560000  0.63740000  0.30640000  1.0 0.1331445419
H  H42  1  0.92370000  0.70330000  0.66280000  1.0 0.1511522239
H  H43  1  0.96930000  0.69320000  0.54480000  1.0 0.1053987934
H  H44  1  0.89280000  0.61440000  0.60490000  1.0 0.1590849726
H  H45  1  0.36260000  0.28820000  0.30640000  1.0 0.1331445419
H  H46  1  0.29670000  0.22040000  0.66280000  1.0 0.1511522239
H  H47  1  0.30680000  0.27610000  0.54480000  1.0 0.1053987934
H  H48  1  0.38560000  0.27840000  0.60490000  1.0 0.1590849726
H  H49  1  0.46860000  0.23430000  0.01400000  1.0 0.1421724415
H  H50  1  0.76570000  0.53140000  0.01400000  1.0 0.1421724415
H  H51  1  0.76570000  0.23430000  0.01400000  1.0 0.1421724415
H  H52  1  0.23430000  0.76570000  0.98600000  1.0 0.1421724415
H  H53  1  0.23430000  0.46860000  0.98600000  1.0 0.1421724415
H  H54  1  0.53140000  0.76570000  0.98600000  1.0 0.1421724415
C  C1  1  0.45080000  0.08990000  0.09490000  1.0 0.5732678429
C  C2  1  0.42440000  0.14770000  0.16250000  1.0 0.0193073498
C  C3  1  0.38100000  0.12690000  0.27050000  1.0 -0.1595315456
C  C4  1  0.32700000  0.08400000  0.58600000  1.0 -0.4701890393
C  C5  1  0.63910000  0.54920000  0.09490000  1.0 0.5732678429
C  C6  1  0.72330000  0.57560000  0.16250000  1.0 0.0193073498
C  C7  1  0.74590000  0.61900000  0.27050000  1.0 -0.1595315456
C  C8  1  0.75700000  0.67300000  0.58600000  1.0 -0.4701890393
C  C9  1  0.91010000  0.36090000  0.09490000  1.0 0.5732678429
C  C10  1  0.85230000  0.27670000  0.16250000  1.0 0.0193073498
C  C11  1  0.87310000  0.25410000  0.27050000  1.0 -0.1595315456
C  C12  1  0.91600000  0.24300000  0.58600000  1.0 -0.4701890393
C  C13  1  0.36090000  0.91010000  0.90510000  1.0 0.5732678429
C  C14  1  0.27670000  0.85230000  0.83750000  1.0 0.0193073498
C  C15  1  0.25410000  0.87310000  0.72950000  1.0 -0.1595315456
C  C16  1  0.24300000  0.91600000  0.41400000  1.0 -0.4701890393
C  C17  1  0.08990000  0.45080000  0.90510000  1.0 0.5732678429
C  C18  1  0.14770000  0.42440000  0.83750000  1.0 0.0193073498
C  C19  1  0.12690000  0.38100000  0.72950000  1.0 -0.1595315456
C  C20  1  0.08400000  0.32700000  0.41400000  1.0 -0.4701890393
C  C21  1  0.54920000  0.63910000  0.90510000  1.0 0.5732678429
C  C22  1  0.57560000  0.72330000  0.83750000  1.0 0.0193073498
C  C23  1  0.61900000  0.74590000  0.72950000  1.0 -0.1595315456
C  C24  1  0.67300000  0.75700000  0.41400000  1.0 -0.4701890393
C  C25  1  0.54920000  0.91010000  0.90510000  1.0 0.5732678429
C  C26  1  0.57560000  0.85230000  0.83750000  1.0 0.0193073498
C  C27  1  0.61900000  0.87310000  0.72950000  1.0 -0.1595315456
C  C28  1  0.67300000  0.91600000  0.41400000  1.0 -0.4701890393
C  C29  1  0.36090000  0.45080000  0.90510000  1.0 0.5732678429
C  C30  1  0.27670000  0.42440000  0.83750000  1.0 0.0193073498
C  C31  1  0.25410000  0.38100000  0.72950000  1.0 -0.1595315456
C  C32  1  0.24300000  0.32700000  0.41400000  1.0 -0.4701890393
C  C33  1  0.08990000  0.63910000  0.90510000  1.0 0.5732678429
C  C34  1  0.14770000  0.72330000  0.83750000  1.0 0.0193073498
C  C35  1  0.12690000  0.74590000  0.72950000  1.0 -0.1595315456
C  C36  1  0.08400000  0.75700000  0.41400000  1.0 -0.4701890393
C  C37  1  0.63910000  0.08990000  0.09490000  1.0 0.5732678429
C  C38  1  0.72330000  0.14770000  0.16250000  1.0 0.0193073498
C  C39  1  0.74590000  0.12690000  0.27050000  1.0 -0.1595315456
C  C40  1  0.75700000  0.08400000  0.58600000  1.0 -0.4701890393
C  C41  1  0.91010000  0.54920000  0.09490000  1.0 0.5732678429
C  C42  1  0.85230000  0.57560000  0.16250000  1.0 0.0193073498
C  C43  1  0.87310000  0.61900000  0.27050000  1.0 -0.1595315456
C  C44  1  0.91600000  0.67300000  0.58600000  1.0 -0.4701890393
C  C45  1  0.45080000  0.36090000  0.09490000  1.0 0.5732678429
C  C46  1  0.42440000  0.27670000  0.16250000  1.0 0.0193073498
C  C47  1  0.38100000  0.25410000  0.27050000  1.0 -0.1595315456
C  C48  1  0.32700000  0.24300000  0.58600000  1.0 -0.4701890393
C  C49  1  0.44480000  0.22240000  0.09420000  1.0 -0.1371659382
C  C50  1  0.36390000  0.18195000  0.32710000  1.0 0.0027411081
C  C51  1  0.77760000  0.55520000  0.09420000  1.0 -0.1371659382
C  C52  1  0.81805000  0.63610000  0.32710000  1.0 0.0027411081
C  C53  1  0.77760000  0.22240000  0.09420000  1.0 -0.1371659382
C  C54  1  0.81805000  0.18195000  0.32710000  1.0 0.0027411081
C  C55  1  0.22240000  0.77760000  0.90580000  1.0 -0.1371659382
C  C56  1  0.18195000  0.81805000  0.67290000  1.0 0.0027411081
C  C57  1  0.22240000  0.44480000  0.90580000  1.0 -0.1371659382
C  C58  1  0.18195000  0.36390000  0.67290000  1.0 0.0027411081
C  C59  1  0.55520000  0.77760000  0.90580000  1.0 -0.1371659382
C  C60  1  0.63610000  0.81805000  0.67290000  1.0 0.0027411081
S  S1  1  0.31300000  0.15650000  0.47920000  1.0 0.2486038006
S  S2  1  0.84350000  0.68700000  0.47920000  1.0 0.2486038006
S  S3  1  0.84350000  0.15650000  0.47920000  1.0 0.2486038006
S  S4  1  0.15650000  0.84350000  0.52080000  1.0 0.2486038006
S  S5  1  0.15650000  0.31300000  0.52080000  1.0 0.2486038006
S  S6  1  0.68700000  0.84350000  0.52080000  1.0 0.2625501013
O  O1  1  0.44060000  0.02940000  0.16590000  1.0 -0.5423309797
O  O2  1  0.48040000  0.10930000  0.98860000  1.0 -0.5156769763
O  O3  1  0.58880000  0.55940000  0.16590000  1.0 -0.5423309797
O  O4  1  0.62890000  0.51960000  0.98860000  1.0 -0.5156769763
O  O5  1  0.97060000  0.41120000  0.16590000  1.0 -0.5423309797
O  O6  1  0.89070000  0.37110000  0.98860000  1.0 -0.5146228814
O  O7  1  0.41120000  0.97060000  0.83410000  1.0 -0.5423309797
O  O8  1  0.37110000  0.89070000  0.01140000  1.0 -0.5156769763
O  O9  1  0.02940000  0.44060000  0.83410000  1.0 -0.5423309797
O  O10  1  0.10930000  0.48040000  0.01140000  1.0 -0.5156769763
O  O11  1  0.55940000  0.58880000  0.83410000  1.0 -0.5423309797
O  O12  1  0.51960000  0.62890000  0.01140000  1.0 -0.5156769763
O  O13  1  0.55940000  0.97060000  0.83410000  1.0 -0.5423309797
O  O14  1  0.51960000  0.89070000  0.01140000  1.0 -0.5156769763
O  O15  1  0.41120000  0.44060000  0.83410000  1.0 -0.5423309797
O  O16  1  0.37110000  0.48040000  0.01140000  1.0 -0.5156769763
O  O17  1  0.02940000  0.58880000  0.83410000  1.0 -0.5423309797
O  O18  1  0.10930000  0.62890000  0.01140000  1.0 -0.5146228814
O  O19  1  0.58880000  0.02940000  0.16590000  1.0 -0.5423309797
O  O20  1  0.62890000  0.10930000  0.98860000  1.0 -0.5156769763
O  O21  1  0.97060000  0.55940000  0.16590000  1.0 -0.5423309797
O  O22  1  0.89070000  0.51960000  0.98860000  1.0 -0.5156769763
O  O23  1  0.44060000  0.41120000  0.16590000  1.0 -0.5423309797
O  O24  1  0.48040000  0.37110000  0.98860000  1.0 -0.5146228814
