# DDEC6 charges by PACMAN v1.1 (https://github.com/mtap-research/PACMAN-charge/)
data_SIWZOP04_FSR_pacman
_symmetry_space_group_name_H-M   'P 1'
_cell_length_a   7.46000000
_cell_length_b   7.87000000
_cell_length_c   13.69000000
_cell_angle_alpha   90.00000000
_cell_angle_beta   90.00000000
_cell_angle_gamma   90.00000000
_symmetry_Int_Tables_number   1
_chemical_formula_structural   MgH6(CO2)3
_chemical_formula_sum   'Mg4 H24 C12 O24'
_cell_volume   803.74263800
_cell_formula_units_Z   4
loop_
 _symmetry_equiv_pos_site_id
 _symmetry_equiv_pos_as_xyz
  1  'x, y, z'
loop_
 _atom_site_type_symbol
 _atom_site_label
 _atom_site_symmetry_multiplicity
 _atom_site_fract_x
 _atom_site_fract_y
 _atom_site_fract_z
 _atom_site_occupancy
 _atom_site_charge
Mg  Mg1  1  0.75500000  0.73000000  0.66500000  1.0 1.2706306066
Mg  Mg2  1  0.74500000  0.27000000  0.16500000  1.0 1.2706306066
Mg  Mg3  1  0.24500000  0.23000000  0.83500000  1.0 1.2706306066
Mg  Mg4  1  0.25500000  0.77000000  0.33500000  1.0 1.2706306066
H  H1  1  0.92700000  0.48000000  0.79000000  1.0 0.0258934077
H  H2  1  0.57300000  0.52000000  0.29000000  1.0 0.0258934077
H  H3  1  0.07300000  0.98000000  0.71000000  1.0 0.0258934077
H  H4  1  0.42700000  0.02000000  0.21000000  1.0 0.0258934077
H  H5  1  0.45500000  0.82500000  0.53000000  1.0 0.020119948
H  H6  1  0.04500000  0.17500000  0.03000000  1.0 0.020119948
H  H7  1  0.54500000  0.32500000  0.97000000  1.0 0.020119948
H  H8  1  0.95500000  0.67500000  0.47000000  1.0 0.020119948
H  H9  1  0.50300000  0.91300000  0.79900000  1.0 0.0130900113
H  H10  1  0.99700000  0.08700000  0.29900000  1.0 0.0130900113
H  H11  1  0.49700000  0.41300000  0.70100000  1.0 0.0130900113
H  H12  1  0.00300000  0.58700000  0.20100000  1.0 0.0130900113
H  H13  1  0.05500000  0.54000000  0.78200000  1.0 0.0130900113
H  H14  1  0.44500000  0.46000000  0.28200000  1.0 0.0130900113
H  H15  1  0.94500000  0.04000000  0.71800000  1.0 0.0130900113
H  H16  1  0.55500000  0.96000000  0.21800000  1.0 0.0130900113
H  H17  1  0.59700000  0.00100000  0.79900000  1.0 0.020119948
H  H18  1  0.90300000  0.99900000  0.29900000  1.0 0.020119948
H  H19  1  0.40300000  0.50100000  0.70100000  1.0 0.020119948
H  H20  1  0.09700000  0.49900000  0.20100000  1.0 0.020119948
H  H21  1  0.54000000  0.83700000  0.47900000  1.0 0.020119948
H  H22  1  0.96000000  0.16300000  0.97900000  1.0 0.020119948
H  H23  1  0.46000000  0.33700000  0.02100000  1.0 0.020119948
H  H24  1  0.04000000  0.66300000  0.52100000  1.0 0.020119948
C  C1  1  0.00400000  0.45400000  0.71570000  1.0 0.4144526209
C  C2  1  0.49600000  0.54600000  0.21570000  1.0 0.4181930561
C  C3  1  0.99600000  0.95400000  0.78430000  1.0 0.4181930561
C  C4  1  0.50400000  0.04600000  0.28430000  1.0 0.4181930561
C  C5  1  0.50200000  0.69300000  0.49670000  1.0 0.4181930561
C  C6  1  0.99800000  0.30700000  0.99670000  1.0 0.4181930561
C  C7  1  0.49800000  0.19300000  0.00330000  1.0 0.4181930561
C  C8  1  0.00200000  0.80700000  0.50330000  1.0 0.4181930561
C  C9  1  0.50000000  0.00300000  0.72890000  1.0 0.4181930561
C  C10  1  0.00000000  0.99700000  0.22890000  1.0 0.4181930561
C  C11  1  0.50000000  0.50300000  0.77110000  1.0 0.4181930561
C  C12  1  0.00000000  0.49700000  0.27110000  1.0 0.4181930561
O  O1  1  0.09500000  0.32500000  0.71500000  1.0 -0.4125908528
O  O2  1  0.40500000  0.67500000  0.21500000  1.0 -0.4125908528
O  O3  1  0.90500000  0.82500000  0.78500000  1.0 -0.4125908528
O  O4  1  0.59500000  0.17500000  0.28500000  1.0 -0.4125908528
O  O5  1  0.61600000  0.62200000  0.55380000  1.0 -0.4882611101
O  O6  1  0.88400000  0.37800000  0.05380000  1.0 -0.4882611101
O  O7  1  0.38400000  0.12200000  0.94620000  1.0 -0.4882611101
O  O8  1  0.11600000  0.87800000  0.44620000  1.0 -0.4882611101
O  O9  1  0.41600000  0.63400000  0.42920000  1.0 -0.43393319
O  O10  1  0.08400000  0.36600000  0.92920000  1.0 -0.43393319
O  O11  1  0.58400000  0.13400000  0.07080000  1.0 -0.43393319
O  O12  1  0.91600000  0.86600000  0.57080000  1.0 -0.43393319
O  O13  1  0.91600000  0.51300000  0.65240000  1.0 -0.3876078789
O  O14  1  0.58400000  0.48700000  0.15240000  1.0 -0.3876078789
O  O15  1  0.08400000  0.01300000  0.84760000  1.0 -0.3876078789
O  O16  1  0.41600000  0.98700000  0.34760000  1.0 -0.3876078789
O  O17  1  0.39800000  0.12400000  0.72830000  1.0 -0.4455297505
O  O18  1  0.10200000  0.87600000  0.22830000  1.0 -0.4455297505
O  O19  1  0.60200000  0.62400000  0.77170000  1.0 -0.4455297505
O  O20  1  0.89800000  0.37600000  0.27170000  1.0 -0.4455297505
O  O21  1  0.59800000  0.94400000  0.66150000  1.0 -0.4687851583
O  O22  1  0.90200000  0.05600000  0.16150000  1.0 -0.4687851583
O  O23  1  0.40200000  0.44400000  0.83850000  1.0 -0.4687851583
O  O24  1  0.09800000  0.55600000  0.33850000  1.0 -0.4687851583
