# DDEC6 charges by PACMAN v1.1 (https://github.com/mtap-research/PACMAN-charge/)
data_SIXNIZ_FSR_pacman
_symmetry_space_group_name_H-M   'P 1'
_cell_length_a   26.12020000
_cell_length_b   26.12020000
_cell_length_c   26.12020000
_cell_angle_alpha   134.02200000
_cell_angle_beta   98.77390000
_cell_angle_gamma   98.77390000
_symmetry_Int_Tables_number   1
_chemical_formula_structural   Cu3H30C42Cl2O15
_chemical_formula_sum   'Cu12 H120 C168 Cl8 O60'
_cell_volume   11796.75223798
_cell_formula_units_Z   4
loop_
 _symmetry_equiv_pos_site_id
 _symmetry_equiv_pos_as_xyz
  1  'x, y, z'
loop_
 _atom_site_type_symbol
 _atom_site_label
 _atom_site_symmetry_multiplicity
 _atom_site_fract_x
 _atom_site_fract_y
 _atom_site_fract_z
 _atom_site_occupancy
 _atom_site_charge
Cu  Cu1  1  0.99985000  0.05855000  0.56726000  1.0 0.8589239793
Cu  Cu2  1  0.00015000  0.56741000  0.05870000  1.0 0.8589239793
Cu  Cu3  1  0.49129000  0.43259000  0.43274000  1.0 0.8589239793
Cu  Cu4  1  0.50871000  0.94145000  0.94130000  1.0 0.8589239793
Cu  Cu5  1  0.00015000  0.94145000  0.43274000  1.0 0.8589239793
Cu  Cu6  1  0.99985000  0.43259000  0.94130000  1.0 0.8589239793
Cu  Cu7  1  0.50871000  0.56741000  0.56726000  1.0 0.8589239793
Cu  Cu8  1  0.49129000  0.05855000  0.05870000  1.0 0.8589239793
Cu  Cu9  1  0.53850000  0.53850000  0.00000000  1.0 0.8394774574
Cu  Cu10  1  0.46150000  0.46150000  0.00000000  1.0 0.8394774574
Cu  Cu11  1  0.96088000  0.50000000  0.46088000  1.0 0.904336341
Cu  Cu12  1  0.03912000  0.50000000  0.53912000  1.0 0.9050557691
H  H1  1  0.65310000  0.69180000  0.22750000  1.0 0.1367497009
H  H2  1  0.96640000  0.26860000  0.42060000  1.0 0.1367497009
H  H3  1  0.84290000  0.77540000  0.31510000  1.0 0.1090636516
H  H4  1  0.01610000  0.16960000  0.72210000  1.0 0.3957194167
H  H5  1  0.98520000  0.19410000  0.69010000  1.0 0.382711314
H  H6  1  0.75240000  0.69580000  0.27060000  1.0 0.1209871492
H  H7  1  0.73200000  0.87510000  0.46030000  1.0 0.1003550277
H  H8  1  0.82270000  0.94430000  0.50380000  1.0 0.1209871492
H  H9  1  0.91250000  0.04230000  0.27340000  1.0 0.1090636516
H  H10  1  0.95940000  0.18260000  0.52600000  1.0 0.1090636516
H  H11  1  0.94370000  0.99260000  0.31330000  1.0 0.1209871492
H  H12  1  0.92700000  0.23000000  0.48400000  1.0 0.1209871492
H  H13  1  0.63030000  0.59200000  0.00630000  1.0 0.1003550277
H  H14  1  0.90110000  0.54330000  0.41580000  1.0 0.1003550277
H  H15  1  0.34690000  0.57440000  0.03870000  1.0 0.1367497009
H  H16  1  0.03360000  0.45420000  0.30220000  1.0 0.1367497009
H  H17  1  0.15710000  0.47220000  0.93250000  1.0 0.1090636516
H  H18  1  0.98390000  0.70600000  0.15350000  1.0 0.3946447151
H  H19  1  0.01480000  0.70490000  0.20890000  1.0 0.382711314
H  H20  1  0.24760000  0.51820000  0.94340000  1.0 0.1209871492
H  H21  1  0.26800000  0.72830000  0.14310000  1.0 0.1003550277
H  H22  1  0.17730000  0.68110000  0.12160000  1.0 0.1209871492
H  H23  1  0.08750000  0.36090000  0.12980000  1.0 0.1090636516
H  H24  1  0.04060000  0.56660000  0.22320000  1.0 0.1090636516
H  H25  1  0.05630000  0.36960000  0.04890000  1.0 0.1209871492
H  H26  1  0.07300000  0.55700000  0.30300000  1.0 0.1209871492
H  H27  1  0.36970000  0.37600000  0.96170000  1.0 0.1003550277
H  H28  1  0.09890000  0.51470000  0.64220000  1.0 0.1003550277
H  H29  1  0.46430000  0.42560000  0.77250000  1.0 0.1367497009
H  H30  1  0.84800000  0.54580000  0.57940000  1.0 0.1367497009
H  H31  1  0.46030000  0.52780000  0.68490000  1.0 0.1090636516
H  H32  1  0.44750000  0.29400000  0.27790000  1.0 0.3946447151
H  H33  1  0.50400000  0.29510000  0.30990000  1.0 0.382711314
H  H34  1  0.42520000  0.48180000  0.72940000  1.0 0.1209871492
H  H35  1  0.41480000  0.27170000  0.53970000  1.0 0.1003550277
H  H36  1  0.44050000  0.31890000  0.49620000  1.0 0.1209871492
H  H37  1  0.76890000  0.63910000  0.72660000  1.0 0.1090636516
H  H38  1  0.65660000  0.43340000  0.47400000  1.0 0.1090636516
H  H39  1  0.67930000  0.63040000  0.68670000  1.0 0.1209871492
H  H40  1  0.74600000  0.44300000  0.51600000  1.0 0.1209871492
H  H41  1  0.58570000  0.62400000  0.99370000  1.0 0.1003550277
H  H42  1  0.12750000  0.48530000  0.58420000  1.0 0.1003550277
H  H43  1  0.53570000  0.30820000  0.96130000  1.0 0.1367497009
H  H44  1  0.15200000  0.73140000  0.69780000  1.0 0.1367497009
H  H45  1  0.53970000  0.22460000  0.06750000  1.0 0.1090636516
H  H46  1  0.55250000  0.83040000  0.84650000  1.0 0.3946447151
H  H47  1  0.49600000  0.80590000  0.79110000  1.0 0.382711314
H  H48  1  0.57480000  0.30420000  0.05660000  1.0 0.1209871492
H  H49  1  0.58520000  0.12490000  0.85690000  1.0 0.1003550277
H  H50  1  0.55950000  0.05570000  0.87840000  1.0 0.1209871492
H  H51  1  0.23110000  0.95770000  0.87020000  1.0 0.1090636516
H  H52  1  0.34340000  0.81740000  0.77680000  1.0 0.1090636516
H  H53  1  0.32070000  0.00740000  0.95110000  1.0 0.1209871492
H  H54  1  0.25400000  0.77000000  0.69700000  1.0 0.1209871492
H  H55  1  0.41430000  0.40800000  0.03830000  1.0 0.1003550277
H  H56  1  0.87250000  0.45670000  0.35780000  1.0 0.0939926284
H  H57  1  0.34690000  0.30820000  0.77250000  1.0 0.1367497009
H  H58  1  0.03360000  0.73140000  0.57940000  1.0 0.1367497009
H  H59  1  0.15710000  0.22460000  0.68490000  1.0 0.1090636516
H  H60  1  0.98390000  0.83040000  0.27790000  1.0 0.3946447151
H  H61  1  0.01480000  0.80590000  0.30990000  1.0 0.382711314
H  H62  1  0.24760000  0.30420000  0.72940000  1.0 0.1209871492
H  H63  1  0.26800000  0.12490000  0.53970000  1.0 0.1003550277
H  H64  1  0.17730000  0.05570000  0.49620000  1.0 0.1209871492
H  H65  1  0.08750000  0.95770000  0.72660000  1.0 0.1003550277
H  H66  1  0.04060000  0.81740000  0.47400000  1.0 0.1090636516
H  H67  1  0.05630000  0.00740000  0.68670000  1.0 0.1209871492
H  H68  1  0.07300000  0.77000000  0.51600000  1.0 0.1209871492
H  H69  1  0.36970000  0.40800000  0.99370000  1.0 0.1003550277
H  H70  1  0.09890000  0.45670000  0.58420000  1.0 0.1003550277
H  H71  1  0.65310000  0.42560000  0.96130000  1.0 0.1367497009
H  H72  1  0.96640000  0.54580000  0.69780000  1.0 0.1367497009
H  H73  1  0.84290000  0.52780000  0.06750000  1.0 0.1090636516
H  H74  1  0.01610000  0.29400000  0.84650000  1.0 0.3946447151
H  H75  1  0.98520000  0.29510000  0.79110000  1.0 0.382711314
H  H76  1  0.75240000  0.48180000  0.05660000  1.0 0.1209871492
H  H77  1  0.73200000  0.27170000  0.85690000  1.0 0.1003550277
H  H78  1  0.82270000  0.31890000  0.87840000  1.0 0.1209871492
H  H79  1  0.91250000  0.63910000  0.87020000  1.0 0.1090636516
H  H80  1  0.95940000  0.43340000  0.77680000  1.0 0.1090636516
H  H81  1  0.94370000  0.63040000  0.95110000  1.0 0.1209871492
H  H82  1  0.92700000  0.44300000  0.69700000  1.0 0.1209871492
H  H83  1  0.63030000  0.62400000  0.03830000  1.0 0.1003550277
H  H84  1  0.90110000  0.48530000  0.35780000  1.0 0.0939926284
H  H85  1  0.53570000  0.57440000  0.22750000  1.0 0.1367497009
H  H86  1  0.15200000  0.45420000  0.42060000  1.0 0.1367497009
H  H87  1  0.53970000  0.47220000  0.31510000  1.0 0.1090636516
H  H88  1  0.55250000  0.70600000  0.72210000  1.0 0.3946447151
H  H89  1  0.49600000  0.70490000  0.69010000  1.0 0.382711314
H  H90  1  0.57480000  0.51820000  0.27060000  1.0 0.1209871492
H  H91  1  0.58520000  0.72830000  0.46030000  1.0 0.1003550277
H  H92  1  0.55950000  0.68110000  0.50380000  1.0 0.1209871492
H  H93  1  0.23110000  0.36090000  0.27340000  1.0 0.1090636516
H  H94  1  0.34340000  0.56660000  0.52600000  1.0 0.1090636516
H  H95  1  0.32070000  0.36960000  0.31330000  1.0 0.1209871492
H  H96  1  0.25400000  0.55700000  0.48400000  1.0 0.1209871492
H  H97  1  0.41430000  0.37600000  0.00630000  1.0 0.1003550277
H  H98  1  0.87250000  0.51470000  0.41580000  1.0 0.1003550277
H  H99  1  0.46430000  0.69180000  0.03870000  1.0 0.1367497009
H  H100  1  0.84800000  0.26860000  0.30220000  1.0 0.1367497009
H  H101  1  0.46030000  0.77540000  0.93250000  1.0 0.1090636516
H  H102  1  0.44750000  0.16960000  0.15350000  1.0 0.3946447151
H  H103  1  0.50400000  0.19410000  0.20890000  1.0 0.382711314
H  H104  1  0.42520000  0.69580000  0.94340000  1.0 0.1209871492
H  H105  1  0.41480000  0.87510000  0.14310000  1.0 0.1003550277
H  H106  1  0.44050000  0.94430000  0.12160000  1.0 0.1209871492
H  H107  1  0.76890000  0.04230000  0.12980000  1.0 0.1090636516
H  H108  1  0.65660000  0.18260000  0.22320000  1.0 0.1090636516
H  H109  1  0.67930000  0.99260000  0.04890000  1.0 0.1209871492
H  H110  1  0.74600000  0.23000000  0.30300000  1.0 0.1209871492
H  H111  1  0.58570000  0.59200000  0.96170000  1.0 0.1003550277
H  H112  1  0.12750000  0.54330000  0.64220000  1.0 0.1003550277
H  H113  1  0.60800000  0.64830000  0.04030000  1.0 0.1090636516
H  H114  1  0.39200000  0.43230000  0.04030000  1.0 0.1090636516
H  H115  1  0.60800000  0.56770000  0.95970000  1.0 0.1090636516
H  H116  1  0.39200000  0.35170000  0.95970000  1.0 0.1090636516
H  H117  1  0.86440000  0.47750000  0.38690000  1.0 0.1090636516
H  H118  1  0.13560000  0.52250000  0.61310000  1.0 0.1090636516
H  H119  1  0.09060000  0.47750000  0.61310000  1.0 0.1090636516
H  H120  1  0.90940000  0.52250000  0.38690000  1.0 0.1090636516
C  C1  1  0.90151000  0.92662000  0.45429000  1.0 0.5694889541
C  C2  1  0.64079000  0.68302000  0.25317000  1.0 -0.1579273961
C  C3  1  0.93086000  0.24481000  0.38525000  1.0 -0.1579273961
C  C4  1  0.84250000  0.87202000  0.41848000  1.0 -0.0485224283
C  C5  1  0.73262000  0.77966000  0.36316000  1.0 0.060899401
C  C6  1  0.91698000  0.13947000  0.37291000  1.0 0.0734202576
C  C7  1  0.67593000  0.72465000  0.32948000  1.0 -0.0123544154
C  C8  1  0.89646000  0.17151000  0.34755000  1.0 -0.0123544154
C  C9  1  0.82105000  0.79478000  0.34507000  1.0 -0.115480229
C  C10  1  0.76630000  0.74722000  0.31748000  1.0 -0.1579273961
C  C11  1  0.75345000  0.85256000  0.43049000  1.0 -0.127430693
C  C12  1  0.97156000  0.05187000  0.45189000  1.0 0.5694889541
C  C13  1  0.80845000  0.89420000  0.45505000  1.0 -0.0998514443
C  C14  1  0.92188000  0.07069000  0.32459000  1.0 -0.1414776284
C  C15  1  0.95392000  0.08391000  0.42521000  1.0 -0.0389458059
C  C16  1  0.94951000  0.15358000  0.47453000  1.0 -0.0998514443
C  C17  1  0.94044000  0.04018000  0.34786000  1.0 -0.0998514443
C  C18  1  0.93058000  0.18255000  0.44983000  1.0 -0.1414776284
C  C19  1  0.09849000  0.55278000  0.02511000  1.0 0.5694889541
C  C20  1  0.35921000  0.61238000  0.04223000  1.0 -0.1538037779
C  C21  1  0.06914000  0.45439000  0.31395000  1.0 -0.1579273961
C  C22  1  0.15750000  0.57598000  0.02952000  1.0 -0.0485224283
C  C23  1  0.26738000  0.63054000  0.04704000  1.0 0.060899401
C  C24  1  0.08302000  0.45593000  0.22249000  1.0 0.0734202576
C  C25  1  0.32407000  0.65355000  0.04872000  1.0 -0.0123544154
C  C26  1  0.10354000  0.45109000  0.27505000  1.0 -0.0123544154
C  C27  1  0.17895000  0.52402000  0.97373000  1.0 -0.115480229
C  C28  1  0.23370000  0.55118000  0.98092000  1.0 -0.1538037779
C  C29  1  0.24655000  0.67704000  0.09911000  1.0 -0.127430693
C  C30  1  0.02844000  0.48033000  0.08031000  1.0 0.5694889541
C  C31  1  0.19155000  0.64660000  0.08575000  1.0 -0.0998514443
C  C32  1  0.07812000  0.40271000  0.14881000  1.0 -0.1414776284
C  C33  1  0.04608000  0.47129000  0.12999000  1.0 -0.0389458059
C  C34  1  0.05049000  0.52502000  0.20407000  1.0 -0.0998514443
C  C35  1  0.05956000  0.40742000  0.09974000  1.0 -0.0998514443
C  C36  1  0.06942000  0.51925000  0.25197000  1.0 -0.1414776284
C  C37  1  0.47233000  0.44722000  0.54571000  1.0 0.5694889541
C  C38  1  0.42985000  0.38762000  0.74683000  1.0 -0.1538037779
C  C39  1  0.85956000  0.54561000  0.61475000  1.0 -0.1579273961
C  C40  1  0.45354000  0.42402000  0.58152000  1.0 -0.0485224283
C  C41  1  0.41650000  0.36946000  0.63684000  1.0 0.060899401
C  C42  1  0.76656000  0.54407000  0.62709000  1.0 0.0734202576
C  C43  1  0.39517000  0.34645000  0.67052000  1.0 -0.0123544154
C  C44  1  0.82396000  0.54891000  0.65245000  1.0 -0.0123544154
C  C45  1  0.44971000  0.47598000  0.65493000  1.0 -0.115480229
C  C46  1  0.42974000  0.44882000  0.68252000  1.0 -0.1538037779
C  C47  1  0.42207000  0.32296000  0.56951000  1.0 -0.127430693
C  C48  1  0.59998000  0.51967000  0.54811000  1.0 0.5694889541
C  C49  1  0.43915000  0.35340000  0.54495000  1.0 -0.0998514443
C  C50  1  0.74610000  0.59729000  0.67541000  1.0 -0.1414776284
C  C51  1  0.65870000  0.52871000  0.57479000  1.0 -0.0389458059
C  C52  1  0.67905000  0.47498000  0.52547000  1.0 -0.0998514443
C  C53  1  0.69232000  0.59258000  0.65214000  1.0 -0.0998514443
C  C54  1  0.73272000  0.48075000  0.55017000  1.0 -0.1414776284
C  C55  1  0.52767000  0.07338000  0.97489000  1.0 0.5694889541
C  C56  1  0.57015000  0.31698000  0.95777000  1.0 -0.1538037779
C  C57  1  0.14044000  0.75519000  0.68605000  1.0 -0.1579273961
C  C58  1  0.54646000  0.12798000  0.97048000  1.0 -0.0485224283
C  C59  1  0.58350000  0.22034000  0.95296000  1.0 0.060899401
C  C60  1  0.23344000  0.86053000  0.77751000  1.0 0.0734202576
C  C61  1  0.60483000  0.27535000  0.95128000  1.0 -0.0123544154
C  C62  1  0.17604000  0.82849000  0.72495000  1.0 -0.0123544154
C  C63  1  0.55029000  0.20522000  0.02627000  1.0 -0.1096247655
C  C64  1  0.57026000  0.25278000  0.01908000  1.0 -0.1579273961
C  C65  1  0.57793000  0.14744000  0.90089000  1.0 -0.127430693
C  C66  1  0.40002000  0.94813000  0.91969000  1.0 0.5694889541
C  C67  1  0.56085000  0.10580000  0.91425000  1.0 -0.0998514443
C  C68  1  0.25390000  0.92931000  0.85119000  1.0 -0.1414776284
C  C69  1  0.34130000  0.91609000  0.87001000  1.0 -0.0389458059
C  C70  1  0.32095000  0.84642000  0.79593000  1.0 -0.0998514443
C  C71  1  0.30768000  0.95982000  0.90026000  1.0 -0.0998514443
C  C72  1  0.26728000  0.81745000  0.74803000  1.0 -0.1414776284
C  C73  1  0.09849000  0.07338000  0.54571000  1.0 0.5694889541
C  C74  1  0.35921000  0.31698000  0.74683000  1.0 -0.1538037779
C  C75  1  0.06914000  0.75519000  0.61475000  1.0 -0.1579273961
C  C76  1  0.15750000  0.12798000  0.58152000  1.0 -0.0485224283
C  C77  1  0.26738000  0.22034000  0.63684000  1.0 0.060899401
C  C78  1  0.08302000  0.86053000  0.62709000  1.0 0.0734202576
C  C79  1  0.32407000  0.27535000  0.67052000  1.0 -0.0123544154
C  C80  1  0.10354000  0.82849000  0.65245000  1.0 -0.0123544154
C  C81  1  0.17895000  0.20522000  0.65493000  1.0 -0.115480229
C  C82  1  0.23370000  0.25278000  0.68252000  1.0 -0.1538037779
C  C83  1  0.24655000  0.14744000  0.56951000  1.0 -0.127430693
C  C84  1  0.02844000  0.94813000  0.54811000  1.0 0.5694889541
C  C85  1  0.19155000  0.10580000  0.54495000  1.0 -0.0998514443
C  C86  1  0.07812000  0.92931000  0.67541000  1.0 -0.1414776284
C  C87  1  0.04608000  0.91609000  0.57479000  1.0 -0.0389458059
C  C88  1  0.05049000  0.84642000  0.52547000  1.0 -0.0998514443
C  C89  1  0.05956000  0.95982000  0.65214000  1.0 -0.0998514443
C  C90  1  0.06942000  0.81745000  0.55017000  1.0 -0.1414776284
C  C91  1  0.90151000  0.44722000  0.97489000  1.0 0.5694889541
C  C92  1  0.64079000  0.38762000  0.95777000  1.0 -0.1538037779
C  C93  1  0.93086000  0.54561000  0.68605000  1.0 -0.1579273961
C  C94  1  0.84250000  0.42402000  0.97048000  1.0 -0.0485224283
C  C95  1  0.73262000  0.36946000  0.95296000  1.0 0.060899401
C  C96  1  0.91698000  0.54407000  0.77751000  1.0 0.0734202576
C  C97  1  0.67593000  0.34645000  0.95128000  1.0 -0.0123544154
C  C98  1  0.89646000  0.54891000  0.72495000  1.0 -0.0123544154
C  C99  1  0.82105000  0.47598000  0.02627000  1.0 -0.115480229
C  C100  1  0.76630000  0.44882000  0.01908000  1.0 -0.1538037779
C  C101  1  0.75345000  0.32296000  0.90089000  1.0 -0.127430693
C  C102  1  0.97156000  0.51967000  0.91969000  1.0 0.5694889541
C  C103  1  0.80845000  0.35340000  0.91425000  1.0 -0.0998514443
C  C104  1  0.92188000  0.59729000  0.85119000  1.0 -0.1414776284
C  C105  1  0.95392000  0.52871000  0.87001000  1.0 -0.0389458059
C  C106  1  0.94951000  0.47498000  0.79593000  1.0 -0.0998514443
C  C107  1  0.94044000  0.59258000  0.90026000  1.0 -0.0998514443
C  C108  1  0.93058000  0.48075000  0.74803000  1.0 -0.1414776284
C  C109  1  0.52767000  0.55278000  0.45429000  1.0 0.5694889541
C  C110  1  0.57015000  0.61238000  0.25317000  1.0 -0.1538037779
C  C111  1  0.14044000  0.45439000  0.38525000  1.0 -0.1579273961
C  C112  1  0.54646000  0.57598000  0.41848000  1.0 -0.0485224283
C  C113  1  0.58350000  0.63054000  0.36316000  1.0 0.060899401
C  C114  1  0.23344000  0.45593000  0.37291000  1.0 0.0734202576
C  C115  1  0.60483000  0.65355000  0.32948000  1.0 -0.0123544154
C  C116  1  0.17604000  0.45109000  0.34755000  1.0 -0.0123544154
C  C117  1  0.55029000  0.52402000  0.34507000  1.0 -0.115480229
C  C118  1  0.57026000  0.55118000  0.31748000  1.0 -0.1579273961
C  C119  1  0.57793000  0.67704000  0.43049000  1.0 -0.127430693
C  C120  1  0.40002000  0.48033000  0.45189000  1.0 0.5694889541
C  C121  1  0.56085000  0.64660000  0.45505000  1.0 -0.0998514443
C  C122  1  0.25390000  0.40271000  0.32459000  1.0 -0.1414776284
C  C123  1  0.34130000  0.47129000  0.42521000  1.0 -0.0389458059
C  C124  1  0.32095000  0.52502000  0.47453000  1.0 -0.0998514443
C  C125  1  0.30768000  0.40742000  0.34786000  1.0 -0.0998514443
C  C126  1  0.26728000  0.51925000  0.44983000  1.0 -0.1414776284
C  C127  1  0.47233000  0.92662000  0.02511000  1.0 0.5694889541
C  C128  1  0.42985000  0.68302000  0.04223000  1.0 -0.1538037779
C  C129  1  0.85956000  0.24481000  0.31395000  1.0 -0.1579273961
C  C130  1  0.45354000  0.87202000  0.02952000  1.0 -0.0485224283
C  C131  1  0.41650000  0.77966000  0.04704000  1.0 0.060899401
C  C132  1  0.76656000  0.13947000  0.22249000  1.0 0.0734202576
C  C133  1  0.39517000  0.72465000  0.04872000  1.0 -0.0123544154
C  C134  1  0.82396000  0.17151000  0.27505000  1.0 -0.0123544154
C  C135  1  0.44971000  0.79478000  0.97373000  1.0 -0.115480229
C  C136  1  0.42974000  0.74722000  0.98092000  1.0 -0.1538037779
C  C137  1  0.42207000  0.85256000  0.09911000  1.0 -0.127430693
C  C138  1  0.59998000  0.05187000  0.08031000  1.0 0.5694889541
C  C139  1  0.43915000  0.89420000  0.08575000  1.0 -0.0998514443
C  C140  1  0.74610000  0.07069000  0.14881000  1.0 -0.1414776284
C  C141  1  0.65870000  0.08391000  0.12999000  1.0 -0.0389458059
C  C142  1  0.67905000  0.15358000  0.20407000  1.0 -0.0998514443
C  C143  1  0.69232000  0.04018000  0.09974000  1.0 -0.0998514443
C  C144  1  0.73272000  0.18255000  0.25197000  1.0 -0.1414776284
C  C145  1  0.58950000  0.63080000  0.22030000  1.0 0.0022582358
C  C146  1  0.55404000  0.58490000  0.13894000  1.0 0.5382175821
C  C147  1  0.65570000  0.70660000  0.36230000  1.0 0.060899401
C  C148  1  0.41050000  0.63080000  0.04130000  1.0 0.0022582358
C  C149  1  0.44596000  0.58490000  0.03086000  1.0 0.5382175821
C  C150  1  0.34430000  0.70660000  0.05090000  1.0 0.054344714
C  C151  1  0.41050000  0.36920000  0.77970000  1.0 0.0022582358
C  C152  1  0.44596000  0.41510000  0.86106000  1.0 0.5382175821
C  C153  1  0.34430000  0.29340000  0.63770000  1.0 0.060899401
C  C154  1  0.58950000  0.36920000  0.95870000  1.0 0.0022582358
C  C155  1  0.55404000  0.41510000  0.96914000  1.0 0.5382175821
C  C156  1  0.65570000  0.29340000  0.94910000  1.0 0.060899401
C  C157  1  0.91152000  0.28102000  0.36950000  1.0 0.0254963081
C  C158  1  0.84431000  0.13851000  0.29420000  1.0 0.060899401
C  C159  1  0.94695000  0.36305000  0.41610000  1.0 0.5185828286
C  C160  1  0.08848000  0.45798000  0.36950000  1.0 0.0254963081
C  C161  1  0.15569000  0.44989000  0.29420000  1.0 0.060899401
C  C162  1  0.05305000  0.46915000  0.41610000  1.0 0.5185828286
C  C163  1  0.91152000  0.54202000  0.63050000  1.0 0.0254963081
C  C164  1  0.84431000  0.55011000  0.70580000  1.0 0.060899401
C  C165  1  0.94695000  0.53085000  0.58390000  1.0 0.5185828286
C  C166  1  0.08848000  0.71898000  0.63050000  1.0 0.0229807983
C  C167  1  0.15569000  0.86149000  0.70580000  1.0 0.060899401
C  C168  1  0.05305000  0.63695000  0.58390000  1.0 0.5185828286
Cl  Cl1  1  0.70001000  0.75023000  0.45024000  1.0 -0.1096247655
Cl  Cl2  1  0.29999000  0.75023000  0.05022000  1.0 -0.1096247655
Cl  Cl3  1  0.29999000  0.24977000  0.54976000  1.0 -0.0998514443
Cl  Cl4  1  0.70001000  0.24977000  0.94978000  1.0 -0.0998514443
Cl  Cl5  1  0.80002000  0.05107000  0.25105000  1.0 -0.0998514443
Cl  Cl6  1  0.19998000  0.45103000  0.25105000  1.0 -0.0998514443
Cl  Cl7  1  0.80002000  0.54897000  0.74895000  1.0 -0.0998514443
Cl  Cl8  1  0.19998000  0.94893000  0.74895000  1.0 -0.0998514443
O  O1  1  0.57522000  0.59963000  0.10839000  1.0 -0.5012027842
O  O2  1  0.92238000  0.89528000  0.40830000  1.0 -0.4492875186
O  O3  1  0.92120000  0.99551000  0.52369000  1.0 -0.549281202
O  O4  1  0.92683000  0.39270000  0.40045000  1.0 -0.4801081305
O  O5  1  0.97946000  0.08954000  0.51986000  1.0 -0.5314764787
O  O6  1  0.97828000  0.98864000  0.40356000  1.0 -0.5314764787
O  O7  1  0.99988000  0.15500000  0.67568000  1.0 -0.7336158377
O  O8  1  0.42478000  0.53317000  0.02441000  1.0 -0.5012027842
O  O9  1  0.07762000  0.48592000  0.97290000  1.0 -0.4492875186
O  O10  1  0.07880000  0.60249000  0.07431000  1.0 -0.549281202
O  O11  1  0.07317000  0.47362000  0.46587000  1.0 -0.4801081305
O  O12  1  0.02054000  0.54040000  0.11008000  1.0 -0.5314764787
O  O13  1  0.02172000  0.42528000  0.01036000  1.0 -0.5314764787
O  O14  1  0.00012000  0.67580000  0.15512000  1.0 -0.7336158377
O  O15  1  0.49124000  0.46683000  0.89161000  1.0 -0.5012027842
O  O16  1  0.48698000  0.51408000  0.59170000  1.0 -0.4492875186
O  O17  1  0.47182000  0.39751000  0.47631000  1.0 -0.549281202
O  O18  1  0.99225000  0.52638000  0.59955000  1.0 -0.4801081305
O  O19  1  0.56968000  0.45960000  0.48014000  1.0 -0.5314764787
O  O20  1  0.58508000  0.57472000  0.59644000  1.0 -0.5314764787
O  O21  1  0.47932000  0.32420000  0.32432000  1.0 -0.7336158377
O  O22  1  0.50876000  0.40037000  0.97559000  1.0 -0.5012027842
O  O23  1  0.51302000  0.10472000  0.02710000  1.0 -0.4492875186
O  O24  1  0.52818000  0.00449000  0.92569000  1.0 -0.549281202
O  O25  1  0.00775000  0.60730000  0.53413000  1.0 -0.4801081305
O  O26  1  0.43032000  0.91046000  0.88992000  1.0 -0.5314764787
O  O27  1  0.41492000  0.01136000  0.98964000  1.0 -0.5314764787
O  O28  1  0.52068000  0.84500000  0.84488000  1.0 -0.7336158377
O  O29  1  0.42478000  0.40037000  0.89161000  1.0 -0.5012027842
O  O30  1  0.07762000  0.10472000  0.59170000  1.0 -0.4492875186
O  O31  1  0.07880000  0.00449000  0.47631000  1.0 -0.549281202
O  O32  1  0.07317000  0.60730000  0.59955000  1.0 -0.4801081305
O  O33  1  0.02054000  0.91046000  0.48014000  1.0 -0.5314764787
O  O34  1  0.02172000  0.01136000  0.59644000  1.0 -0.5314764787
O  O35  1  0.00012000  0.84500000  0.32432000  1.0 -0.7336158377
O  O36  1  0.57522000  0.46683000  0.97559000  1.0 -0.5012027842
O  O37  1  0.92238000  0.51408000  0.02710000  1.0 -0.4492875186
O  O38  1  0.92120000  0.39751000  0.92569000  1.0 -0.549281202
O  O39  1  0.92683000  0.52638000  0.53413000  1.0 -0.4801081305
O  O40  1  0.97946000  0.45960000  0.88992000  1.0 -0.5314764787
O  O41  1  0.97828000  0.57472000  0.98964000  1.0 -0.5314764787
O  O42  1  0.99988000  0.32420000  0.84488000  1.0 -0.7336158377
O  O43  1  0.50876000  0.53317000  0.10839000  1.0 -0.5012027842
O  O44  1  0.51302000  0.48592000  0.40830000  1.0 -0.4492875186
O  O45  1  0.52818000  0.60249000  0.52369000  1.0 -0.549281202
O  O46  1  0.00775000  0.47362000  0.40045000  1.0 -0.4801081305
O  O47  1  0.43032000  0.54040000  0.51986000  1.0 -0.5314764787
O  O48  1  0.41492000  0.42528000  0.40356000  1.0 -0.5314764787
O  O49  1  0.52068000  0.67580000  0.67568000  1.0 -0.7336158377
O  O50  1  0.49124000  0.59963000  0.02441000  1.0 -0.5012027842
O  O51  1  0.48698000  0.89528000  0.97290000  1.0 -0.4492875186
O  O52  1  0.47182000  0.99551000  0.07431000  1.0 -0.549281202
O  O53  1  0.99225000  0.39270000  0.46587000  1.0 -0.4801081305
O  O54  1  0.56968000  0.08954000  0.11008000  1.0 -0.5314764787
O  O55  1  0.58508000  0.98864000  0.01036000  1.0 -0.5314764787
O  O56  1  0.47932000  0.15500000  0.15512000  1.0 -0.7336158377
O  O57  1  0.60218000  0.60218000  0.00000000  1.0 -0.3399595839
O  O58  1  0.39782000  0.39782000  0.00000000  1.0 -0.3399595839
O  O59  1  0.89803000  0.50000000  0.39803000  1.0 -0.2867655975
O  O60  1  0.10197000  0.50000000  0.60197000  1.0 -0.2867655975
