# DDEC6 charges by PACMAN v1.1 (https://github.com/mtap-research/PACMAN-charge/)
data_SIXNOF_ASR_pacman
_symmetry_space_group_name_H-M   'P 1'
_cell_length_a   26.16160000
_cell_length_b   26.16160000
_cell_length_c   26.16160000
_cell_angle_alpha   132.68300000
_cell_angle_beta   99.26670000
_cell_angle_gamma   99.26670000
_symmetry_Int_Tables_number   1
_chemical_formula_structural   Cu3H32(C11O3)4
_chemical_formula_sum   'Cu12 H128 C176 O48'
_cell_volume   12056.50787291
_cell_formula_units_Z   4
loop_
 _symmetry_equiv_pos_site_id
 _symmetry_equiv_pos_as_xyz
  1  'x, y, z'
loop_
 _atom_site_type_symbol
 _atom_site_label
 _atom_site_symmetry_multiplicity
 _atom_site_fract_x
 _atom_site_fract_y
 _atom_site_fract_z
 _atom_site_occupancy
 _atom_site_charge
Cu  Cu1  1  0.00148000  0.55668000  0.06590000  1.0 0.8468916007
Cu  Cu2  1  0.99852000  0.06442000  0.55520000  1.0 0.8468916007
Cu  Cu3  1  0.49078000  0.93558000  0.93410000  1.0 0.8468916007
Cu  Cu4  1  0.50922000  0.44332000  0.44480000  1.0 0.8468916007
Cu  Cu5  1  0.99852000  0.44332000  0.93410000  1.0 0.8468916007
Cu  Cu6  1  0.00148000  0.93558000  0.44480000  1.0 0.8468916007
Cu  Cu7  1  0.50922000  0.06442000  0.06590000  1.0 0.8468916007
Cu  Cu8  1  0.49078000  0.55668000  0.55520000  1.0 0.8468916007
Cu  Cu9  1  0.96100000  0.96100000  0.00000000  1.0 0.899736736
Cu  Cu10  1  0.03900000  0.03900000  0.00000000  1.0 0.899736736
Cu  Cu11  1  0.53870000  0.50000000  0.03870000  1.0 0.8631717302
Cu  Cu12  1  0.46130000  0.50000000  0.96130000  1.0 0.8631717302
H  H1  1  0.03490000  0.80690000  0.96040000  1.0 0.1318144542
H  H2  1  0.08620000  0.63710000  0.86590000  1.0 0.1318144542
H  H3  1  0.05330000  0.55510000  0.87320000  1.0 0.1194928376
H  H4  1  0.81940000  0.37540000  0.82120000  1.0 0.1318144542
H  H5  1  0.04100000  0.72130000  0.06630000  1.0 0.1194928376
H  H6  1  0.07060000  0.79970000  0.05430000  1.0 0.1194928376
H  H7  1  0.65320000  0.47050000  0.93590000  1.0 0.1318144542
H  H8  1  0.72960000  0.36860000  0.78100000  1.0 0.1318144542
H  H9  1  0.75140000  0.55330000  0.98030000  1.0 0.1117832689
H  H10  1  0.84190000  0.56610000  0.03240000  1.0 0.1117832689
H  H11  1  0.69910000  0.39950000  0.72660000  1.0 0.0194690428
H  H12  1  0.67350000  0.44390000  0.71700000  1.0 0.03156372
H  H13  1  0.72760000  0.48690000  0.78650000  1.0 0.03156372
H  H14  1  0.17880000  0.73830000  0.96910000  1.0 0.0194690428
H  H15  1  0.22940000  0.80200000  0.99500000  1.0 0.0141978209
H  H16  1  0.19790000  0.72740000  0.90950000  1.0 0.0194690428
H  H17  1  0.96510000  0.92550000  0.77200000  1.0 0.1318144542
H  H18  1  0.91380000  0.77970000  0.55090000  1.0 0.1318144542
H  H19  1  0.94670000  0.81990000  0.50180000  1.0 0.1194928376
H  H20  1  0.18060000  0.00180000  0.55600000  1.0 0.1318144542
H  H21  1  0.95900000  0.02530000  0.68030000  1.0 0.1194928376
H  H22  1  0.92940000  0.98370000  0.72910000  1.0 0.1194928376
H  H23  1  0.34680000  0.28270000  0.81730000  1.0 0.1318144542
H  H24  1  0.27040000  0.05140000  0.63900000  1.0 0.1318144542
H  H25  1  0.24860000  0.22890000  0.80190000  1.0 0.1117832689
H  H26  1  0.15810000  0.19050000  0.72420000  1.0 0.1117832689
H  H27  1  0.30090000  0.02750000  0.70040000  1.0 0.0194690428
H  H28  1  0.32650000  0.04350000  0.77040000  1.0 0.03156372
H  H29  1  0.27240000  0.05890000  0.75930000  1.0 0.03156372
H  H30  1  0.82120000  0.79030000  0.55950000  1.0 0.0194690428
H  H31  1  0.77060000  0.76560000  0.57260000  1.0 0.0194690428
H  H32  1  0.80210000  0.71160000  0.52950000  1.0 0.0194690428
H  H33  1  0.84650000  0.07450000  0.03960000  1.0 0.1318144542
H  H34  1  0.77120000  0.22030000  0.13410000  1.0 0.1318144542
H  H35  1  0.68190000  0.18010000  0.12680000  1.0 0.1318144542
H  H36  1  0.55420000  0.99820000  0.17880000  1.0 0.1318144542
H  H37  1  0.65500000  0.97470000  0.93370000  1.0 0.1194928376
H  H38  1  0.74540000  0.01630000  0.94570000  1.0 0.1194928376
H  H39  1  0.53460000  0.71730000  0.06410000  1.0 0.1318144542
H  H40  1  0.58760000  0.94860000  0.21900000  1.0 0.1318144542
H  H41  1  0.57300000  0.77110000  0.01970000  1.0 0.1117832689
H  H42  1  0.53370000  0.80950000  0.96760000  1.0 0.1117832689
H  H43  1  0.67290000  0.97250000  0.27340000  1.0 0.0194690428
H  H44  1  0.72690000  0.95650000  0.28300000  1.0 0.03156372
H  H45  1  0.70040000  0.94110000  0.21350000  1.0 0.03156372
H  H46  1  0.76920000  0.20970000  0.03090000  1.0 0.0194690428
H  H47  1  0.80700000  0.23440000  0.00500000  1.0 0.0194690428
H  H48  1  0.81790000  0.28840000  0.09050000  1.0 0.0194690428
H  H49  1  0.15350000  0.19310000  0.22800000  1.0 0.1318144542
H  H50  1  0.22880000  0.36290000  0.44910000  1.0 0.1318144542
H  H51  1  0.31810000  0.44490000  0.49820000  1.0 0.1194928376
H  H52  1  0.44580000  0.62460000  0.44400000  1.0 0.1318144542
H  H53  1  0.34500000  0.27870000  0.31970000  1.0 0.1194928376
H  H54  1  0.25460000  0.20030000  0.27090000  1.0 0.1194928376
H  H55  1  0.46540000  0.52950000  0.18270000  1.0 0.1318144542
H  H56  1  0.41240000  0.63140000  0.36100000  1.0 0.1318144542
H  H57  1  0.42700000  0.44670000  0.19810000  1.0 0.1194928376
H  H58  1  0.46630000  0.43390000  0.27580000  1.0 0.1117832689
H  H59  1  0.32710000  0.60050000  0.29960000  1.0 0.03156372
H  H60  1  0.27310000  0.55610000  0.22960000  1.0 0.03156372
H  H61  1  0.29960000  0.51310000  0.24070000  1.0 0.0366678967
H  H62  1  0.23080000  0.26170000  0.44050000  1.0 0.0194690428
H  H63  1  0.19300000  0.19800000  0.42740000  1.0 0.0141978209
H  H64  1  0.18210000  0.27260000  0.47050000  1.0 0.0194690428
H  H65  1  0.96510000  0.19310000  0.03960000  1.0 0.1318144542
H  H66  1  0.91380000  0.36290000  0.13410000  1.0 0.1318144542
H  H67  1  0.94670000  0.44490000  0.12680000  1.0 0.1194928376
H  H68  1  0.18060000  0.62460000  0.17880000  1.0 0.1318144542
H  H69  1  0.95900000  0.27870000  0.93370000  1.0 0.1194928376
H  H70  1  0.92940000  0.20030000  0.94570000  1.0 0.1194928376
H  H71  1  0.34680000  0.52950000  0.06410000  1.0 0.1318144542
H  H72  1  0.27040000  0.63140000  0.21900000  1.0 0.1318144542
H  H73  1  0.24860000  0.44670000  0.01970000  1.0 0.1117832689
H  H74  1  0.15810000  0.43390000  0.96760000  1.0 0.1117832689
H  H75  1  0.30090000  0.60050000  0.27340000  1.0 0.03156372
H  H76  1  0.32650000  0.55610000  0.28300000  1.0 0.03156372
H  H77  1  0.27240000  0.51310000  0.21350000  1.0 0.03156372
H  H78  1  0.82120000  0.26170000  0.03090000  1.0 0.0194690428
H  H79  1  0.77060000  0.19800000  0.00500000  1.0 0.0194690428
H  H80  1  0.80210000  0.27260000  0.09050000  1.0 0.0194690428
H  H81  1  0.03490000  0.07450000  0.22800000  1.0 0.1318144542
H  H82  1  0.08620000  0.22030000  0.44910000  1.0 0.1318144542
H  H83  1  0.05330000  0.18010000  0.49820000  1.0 0.1194928376
H  H84  1  0.81940000  0.99820000  0.44400000  1.0 0.1318144542
H  H85  1  0.04100000  0.97470000  0.31970000  1.0 0.1194928376
H  H86  1  0.07060000  0.01630000  0.27090000  1.0 0.1194928376
H  H87  1  0.65320000  0.71730000  0.18270000  1.0 0.1318144542
H  H88  1  0.72960000  0.94860000  0.36100000  1.0 0.1318144542
H  H89  1  0.75140000  0.77110000  0.19810000  1.0 0.1117832689
H  H90  1  0.84190000  0.80950000  0.27580000  1.0 0.1117832689
H  H91  1  0.69910000  0.97250000  0.29960000  1.0 0.0194690428
H  H92  1  0.67350000  0.95650000  0.22960000  1.0 0.03156372
H  H93  1  0.72760000  0.94110000  0.24070000  1.0 0.0366678967
H  H94  1  0.17880000  0.20970000  0.44050000  1.0 0.0194690428
H  H95  1  0.22940000  0.23440000  0.42740000  1.0 0.0141978209
H  H96  1  0.19790000  0.28840000  0.47050000  1.0 0.0194690428
H  H97  1  0.15350000  0.92550000  0.96040000  1.0 0.1318144542
H  H98  1  0.22880000  0.77970000  0.86590000  1.0 0.1318144542
H  H99  1  0.31810000  0.81990000  0.87320000  1.0 0.1194928376
H  H100  1  0.44580000  0.00180000  0.82120000  1.0 0.1318144542
H  H101  1  0.34500000  0.02530000  0.06630000  1.0 0.1194928376
H  H102  1  0.25460000  0.98370000  0.05430000  1.0 0.1194928376
H  H103  1  0.46540000  0.28270000  0.93590000  1.0 0.1318144542
H  H104  1  0.41240000  0.05140000  0.78100000  1.0 0.1318144542
H  H105  1  0.42700000  0.22890000  0.98030000  1.0 0.1117832689
H  H106  1  0.46630000  0.19050000  0.03240000  1.0 0.1117832689
H  H107  1  0.32710000  0.02750000  0.72660000  1.0 0.0194690428
H  H108  1  0.27310000  0.04350000  0.71700000  1.0 0.03156372
H  H109  1  0.29960000  0.05890000  0.78650000  1.0 0.03156372
H  H110  1  0.23080000  0.79030000  0.96910000  1.0 0.0194690428
H  H111  1  0.19300000  0.76560000  0.99500000  1.0 0.0141978209
H  H112  1  0.18210000  0.71160000  0.90950000  1.0 0.0194690428
H  H113  1  0.84650000  0.80690000  0.77200000  1.0 0.1318144542
H  H114  1  0.77120000  0.63710000  0.55090000  1.0 0.1318144542
H  H115  1  0.68190000  0.55510000  0.50180000  1.0 0.1194928376
H  H116  1  0.55420000  0.37540000  0.55600000  1.0 0.1318144542
H  H117  1  0.65500000  0.72130000  0.68030000  1.0 0.1194928376
H  H118  1  0.74540000  0.79970000  0.72910000  1.0 0.1194928376
H  H119  1  0.53460000  0.47050000  0.81730000  1.0 0.1318144542
H  H120  1  0.58760000  0.36860000  0.63900000  1.0 0.1318144542
H  H121  1  0.57300000  0.55330000  0.80190000  1.0 0.1117832689
H  H122  1  0.53370000  0.56610000  0.72420000  1.0 0.1117832689
H  H123  1  0.67290000  0.39950000  0.70040000  1.0 0.0194690428
H  H124  1  0.72690000  0.44390000  0.77040000  1.0 0.03156372
H  H125  1  0.70040000  0.48690000  0.75930000  1.0 0.03156372
H  H126  1  0.76920000  0.73830000  0.55950000  1.0 0.0194690428
H  H127  1  0.80700000  0.80200000  0.57260000  1.0 0.0141978209
H  H128  1  0.81790000  0.72740000  0.52950000  1.0 0.0194690428
C  C1  1  0.06992000  0.81787000  0.95885000  1.0 -0.1689019165
C  C2  1  0.10216000  0.77966000  0.95330000  1.0 0.03156372
C  C3  1  0.04471000  0.63078000  0.96973000  1.0 -0.0204369802
C  C4  1  0.08162000  0.72530000  0.95652000  1.0 0.0366678967
C  C5  1  0.02685000  0.57902000  0.97943000  1.0 0.5730864146
C  C6  1  0.07647000  0.65506000  0.90661000  1.0 -0.1568230544
C  C7  1  0.05720000  0.60503000  0.91077000  1.0 -0.0708950923
C  C8  1  0.80752000  0.41314000  0.85558000  1.0 -0.0708950923
C  C9  1  0.04955000  0.70357000  0.02498000  1.0 -0.0858930547
C  C10  1  0.06762000  0.75023000  0.01759000  1.0 -0.1402502648
C  C11  1  0.64033000  0.46427000  0.89606000  1.0 -0.1128880502
C  C12  1  0.75175000  0.40901000  0.83174000  1.0 -0.1497906329
C  C13  1  0.84020000  0.46854000  0.92366000  1.0 -0.0276757797
C  C14  1  0.67518000  0.45429000  0.85049000  1.0 0.0366678967
C  C15  1  0.89986000  0.47998000  0.95468000  1.0 0.5558502235
C  C16  1  0.73011000  0.45626000  0.87445000  1.0 0.0194690428
C  C17  1  0.76502000  0.51650000  0.94872000  1.0 -0.1402502648
C  C18  1  0.82055000  0.52720000  0.98135000  1.0 -0.0204369802
C  C19  1  0.93008000  0.88893000  0.74795000  1.0 -0.1689019165
C  C20  1  0.89784000  0.85114000  0.67750000  1.0 0.03156372
C  C21  1  0.95529000  0.92502000  0.58607000  1.0 -0.0204369802
C  C22  1  0.91838000  0.87490000  0.64368000  1.0 0.0366678967
C  C23  1  0.97315000  0.95258000  0.55217000  1.0 0.5730864146
C  C24  1  0.92353000  0.83014000  0.57859000  1.0 -0.1568230544
C  C25  1  0.94280000  0.85357000  0.54783000  1.0 -0.0708950923
C  C26  1  0.19248000  0.04806000  0.60562000  1.0 -0.0640942065
C  C27  1  0.95045000  0.97543000  0.65402000  1.0 -0.0858930547
C  C28  1  0.93238000  0.94997000  0.68261000  1.0 -0.1402502648
C  C29  1  0.35967000  0.25573000  0.82394000  1.0 -0.1128880502
C  C30  1  0.24825000  0.07999000  0.65726000  1.0 -0.1497906329
C  C31  1  0.15980000  0.08346000  0.62834000  1.0 -0.0276757797
C  C32  1  0.32482000  0.17531000  0.77911000  1.0 0.0366678967
C  C33  1  0.10014000  0.05482000  0.58012000  1.0 0.5558502235
C  C34  1  0.26989000  0.14434000  0.72615000  1.0 0.0194690428
C  C35  1  0.23498000  0.18370000  0.75148000  1.0 -0.1497906329
C  C36  1  0.17945000  0.16080000  0.70665000  1.0 -0.0204369802
C  C37  1  0.85902000  0.11107000  0.04115000  1.0 -0.1689019165
C  C38  1  0.82636000  0.14886000  0.04670000  1.0 0.03156372
C  C39  1  0.66105000  0.07498000  0.03027000  1.0 -0.0204369802
C  C40  1  0.76878000  0.12510000  0.04348000  1.0 0.03156372
C  C41  1  0.59959000  0.04742000  0.02057000  1.0 0.5730864146
C  C42  1  0.74845000  0.16986000  0.09339000  1.0 -0.1497906329
C  C43  1  0.69426000  0.14643000  0.08923000  1.0 -0.0708950923
C  C44  1  0.55756000  0.95194000  0.14442000  1.0 -0.0640942065
C  C45  1  0.67859000  0.02457000  0.97502000  1.0 -0.0858930547
C  C46  1  0.73264000  0.05003000  0.98241000  1.0 -0.1402502648
C  C47  1  0.56821000  0.74427000  0.10394000  1.0 -0.1128880502
C  C48  1  0.57727000  0.92001000  0.16826000  1.0 -0.1497906329
C  C49  1  0.54488000  0.91654000  0.07634000  1.0 -0.0276757797
C  C50  1  0.60380000  0.82469000  0.14951000  1.0 0.0366678967
C  C51  1  0.52530000  0.94518000  0.04532000  1.0 0.554462536
C  C52  1  0.58181000  0.85566000  0.12555000  1.0 0.0194690428
C  C53  1  0.56778000  0.81630000  0.05128000  1.0 -0.1497906329
C  C54  1  0.54585000  0.83920000  0.01865000  1.0 -0.0204369802
C  C55  1  0.14098000  0.18213000  0.25205000  1.0 -0.1689019165
C  C56  1  0.17364000  0.22034000  0.32250000  1.0 0.03156372
C  C57  1  0.33895000  0.36922000  0.41393000  1.0 -0.0204369802
C  C58  1  0.23122000  0.27470000  0.35632000  1.0 0.0366678967
C  C59  1  0.40041000  0.42098000  0.44783000  1.0 0.5730864146
C  C60  1  0.25155000  0.34494000  0.42141000  1.0 -0.1568230544
C  C61  1  0.30574000  0.39497000  0.45217000  1.0 -0.0708950923
C  C62  1  0.44244000  0.58686000  0.39438000  1.0 -0.0640942065
C  C63  1  0.32141000  0.29643000  0.34598000  1.0 -0.0858930547
C  C64  1  0.26736000  0.24977000  0.31739000  1.0 -0.1402502648
C  C65  1  0.43179000  0.53573000  0.17606000  1.0 -0.1128880502
C  C66  1  0.42273000  0.59099000  0.34274000  1.0 -0.1497906329
C  C67  1  0.45512000  0.53146000  0.37166000  1.0 -0.0276757797
C  C68  1  0.39620000  0.54571000  0.22089000  1.0 0.03156372
C  C69  1  0.47470000  0.52002000  0.41988000  1.0 0.554462536
C  C70  1  0.41819000  0.54374000  0.27385000  1.0 0.0194690428
C  C71  1  0.43222000  0.48350000  0.24852000  1.0 -0.1497906329
C  C72  1  0.45415000  0.47280000  0.29335000  1.0 -0.0204369802
C  C73  1  0.93008000  0.18213000  0.04115000  1.0 -0.1689019165
C  C74  1  0.89784000  0.22034000  0.04670000  1.0 0.03156372
C  C75  1  0.95529000  0.36922000  0.03027000  1.0 -0.0204369802
C  C76  1  0.91838000  0.27470000  0.04348000  1.0 0.0366678967
C  C77  1  0.97315000  0.42098000  0.02057000  1.0 0.5730864146
C  C78  1  0.92353000  0.34494000  0.09339000  1.0 -0.1568230544
C  C79  1  0.94280000  0.39497000  0.08923000  1.0 -0.0708950923
C  C80  1  0.19248000  0.58686000  0.14442000  1.0 -0.0640942065
C  C81  1  0.95045000  0.29643000  0.97502000  1.0 -0.08430266
C  C82  1  0.93238000  0.24977000  0.98241000  1.0 -0.1402502648
C  C83  1  0.35967000  0.53573000  0.10394000  1.0 -0.1128880502
C  C84  1  0.24825000  0.59099000  0.16826000  1.0 -0.1497906329
C  C85  1  0.15980000  0.53146000  0.07634000  1.0 -0.0276757797
C  C86  1  0.32482000  0.54571000  0.14951000  1.0 0.0366678967
C  C87  1  0.10014000  0.52002000  0.04532000  1.0 0.5558502235
C  C88  1  0.26989000  0.54374000  0.12555000  1.0 0.0141978209
C  C89  1  0.23498000  0.48350000  0.05128000  1.0 -0.1497906329
C  C90  1  0.17945000  0.47280000  0.01865000  1.0 -0.0204369802
C  C91  1  0.06992000  0.11107000  0.25205000  1.0 -0.1689019165
C  C92  1  0.10216000  0.14886000  0.32250000  1.0 0.03156372
C  C93  1  0.04471000  0.07498000  0.41393000  1.0 -0.0204369802
C  C94  1  0.08162000  0.12510000  0.35632000  1.0 0.0366678967
C  C95  1  0.02685000  0.04742000  0.44783000  1.0 0.5730864146
C  C96  1  0.07647000  0.16986000  0.42141000  1.0 -0.1568230544
C  C97  1  0.05720000  0.14643000  0.45217000  1.0 -0.0708950923
C  C98  1  0.80752000  0.95194000  0.39438000  1.0 -0.0640942065
C  C99  1  0.04955000  0.02457000  0.34598000  1.0 -0.0858930547
C  C100  1  0.06762000  0.05003000  0.31739000  1.0 -0.1402502648
C  C101  1  0.64033000  0.74427000  0.17606000  1.0 -0.1128880502
C  C102  1  0.75175000  0.92001000  0.34274000  1.0 -0.1497906329
C  C103  1  0.84020000  0.91654000  0.37166000  1.0 -0.0276757797
C  C104  1  0.67518000  0.82469000  0.22089000  1.0 0.0366678967
C  C105  1  0.89986000  0.94518000  0.41988000  1.0 0.5558502235
C  C106  1  0.73011000  0.85566000  0.27385000  1.0 0.0194690428
C  C107  1  0.76502000  0.81630000  0.24852000  1.0 -0.1497906329
C  C108  1  0.82055000  0.83920000  0.29335000  1.0 -0.0204369802
C  C109  1  0.14098000  0.88893000  0.95885000  1.0 -0.1689019165
C  C110  1  0.17364000  0.85114000  0.95330000  1.0 0.03156372
C  C111  1  0.33895000  0.92502000  0.96973000  1.0 -0.0204369802
C  C112  1  0.23122000  0.87490000  0.95652000  1.0 0.0366678967
C  C113  1  0.40041000  0.95258000  0.97943000  1.0 0.5730864146
C  C114  1  0.25155000  0.83014000  0.90661000  1.0 -0.1568230544
C  C115  1  0.30574000  0.85357000  0.91077000  1.0 -0.0708950923
C  C116  1  0.44244000  0.04806000  0.85558000  1.0 -0.0640942065
C  C117  1  0.32141000  0.97543000  0.02498000  1.0 -0.08430266
C  C118  1  0.26736000  0.94997000  0.01759000  1.0 -0.1402502648
C  C119  1  0.43179000  0.25573000  0.89606000  1.0 -0.1128880502
C  C120  1  0.42273000  0.07999000  0.83174000  1.0 -0.1497906329
C  C121  1  0.45512000  0.08346000  0.92366000  1.0 -0.0276757797
C  C122  1  0.39620000  0.17531000  0.85049000  1.0 0.0366678967
C  C123  1  0.47470000  0.05482000  0.95468000  1.0 0.554462536
C  C124  1  0.41819000  0.14434000  0.87445000  1.0 0.0194690428
C  C125  1  0.43222000  0.18370000  0.94872000  1.0 -0.1402502648
C  C126  1  0.45415000  0.16080000  0.98135000  1.0 -0.0204369802
C  C127  1  0.85902000  0.81787000  0.74795000  1.0 -0.1689019165
C  C128  1  0.82636000  0.77966000  0.67750000  1.0 0.03156372
C  C129  1  0.66105000  0.63078000  0.58607000  1.0 -0.0204369802
C  C130  1  0.76878000  0.72530000  0.64368000  1.0 0.0366678967
C  C131  1  0.59959000  0.57902000  0.55217000  1.0 0.5730864146
C  C132  1  0.74845000  0.65506000  0.57859000  1.0 -0.1568230544
C  C133  1  0.69426000  0.60503000  0.54783000  1.0 -0.0708950923
C  C134  1  0.55756000  0.41314000  0.60562000  1.0 -0.0640942065
C  C135  1  0.67859000  0.70357000  0.65402000  1.0 -0.0858930547
C  C136  1  0.73264000  0.75023000  0.68261000  1.0 -0.1402502648
C  C137  1  0.56821000  0.46427000  0.82394000  1.0 -0.1128880502
C  C138  1  0.57727000  0.40901000  0.65726000  1.0 -0.1497906329
C  C139  1  0.54488000  0.46854000  0.62834000  1.0 -0.0276757797
C  C140  1  0.60380000  0.45429000  0.77911000  1.0 0.0366678967
C  C141  1  0.52530000  0.47998000  0.58012000  1.0 0.5558502235
C  C142  1  0.58181000  0.45626000  0.72615000  1.0 0.0194690428
C  C143  1  0.56778000  0.51650000  0.75148000  1.0 -0.1497906329
C  C144  1  0.54585000  0.52720000  0.70665000  1.0 -0.0204369802
C  C145  1  0.08905000  0.87310000  0.96215000  1.0 -0.003416829
C  C146  1  0.05415000  0.91700000  0.97115000  1.0 0.5786227622
C  C147  1  0.15572000  0.79560000  0.95132000  1.0 0.0194690428
C  C148  1  0.19370000  0.76300000  0.95670000  1.0 -0.1689019165
C  C149  1  0.91095000  0.87310000  0.78405000  1.0 -0.0061441231
C  C150  1  0.94585000  0.91700000  0.86285000  1.0 0.5786227622
C  C151  1  0.84428000  0.79560000  0.63988000  1.0 0.0194690428
C  C152  1  0.80630000  0.76300000  0.56930000  1.0 -0.1689019165
C  C153  1  0.91095000  0.12690000  0.03785000  1.0 -0.003416829
C  C154  1  0.94585000  0.08300000  0.02885000  1.0 0.5786227622
C  C155  1  0.84428000  0.20440000  0.04868000  1.0 0.0194690428
C  C156  1  0.80630000  0.23700000  0.04330000  1.0 -0.1763122789
C  C157  1  0.08905000  0.12690000  0.21595000  1.0 -0.003416829
C  C158  1  0.05415000  0.08300000  0.13715000  1.0 0.5786227622
C  C159  1  0.15572000  0.20440000  0.36012000  1.0 0.0194690428
C  C160  1  0.19370000  0.23700000  0.43070000  1.0 -0.1689019165
C  C161  1  0.58910000  0.46330000  0.87420000  1.0 -0.0276757797
C  C162  1  0.65626000  0.45356000  0.79730000  1.0 -0.003416829
C  C163  1  0.69260000  0.44520000  0.75260000  1.0 -0.2394256032
C  C164  1  0.55240000  0.46510000  0.91270000  1.0 0.5786227622
C  C165  1  0.41090000  0.28510000  0.87420000  1.0 -0.0276757797
C  C166  1  0.34374000  0.14104000  0.79730000  1.0 -0.0061441231
C  C167  1  0.30740000  0.06000000  0.75260000  1.0 -0.2394256032
C  C168  1  0.44760000  0.36030000  0.91270000  1.0 0.5786227622
C  C169  1  0.58910000  0.71490000  0.12580000  1.0 -0.0276757797
C  C170  1  0.65626000  0.85896000  0.20270000  1.0 -0.003416829
C  C171  1  0.69260000  0.94000000  0.24740000  1.0 -0.2394256032
C  C172  1  0.55240000  0.63970000  0.08730000  1.0 0.5786227622
C  C173  1  0.41090000  0.53670000  0.12580000  1.0 -0.0276757797
C  C174  1  0.34374000  0.54644000  0.20270000  1.0 -0.003416829
C  C175  1  0.30740000  0.55480000  0.24740000  1.0 -0.2394256032
C  C176  1  0.44760000  0.53490000  0.08730000  1.0 0.5786227622
O  O1  1  0.01934000  0.51125000  0.92469000  1.0 -0.5172700247
O  O2  1  0.02070000  0.61023000  0.04167000  1.0 -0.5478846616
O  O3  1  0.00680000  0.90305000  0.97739000  1.0 -0.5478846616
O  O4  1  0.92069000  0.42889000  0.90300000  1.0 -0.5873152278
O  O5  1  0.57516000  0.47625000  0.96851000  1.0 -0.5260572098
O  O6  1  0.92152000  0.52627000  0.01405000  1.0 -0.3983069844
O  O7  1  0.98066000  0.90535000  0.49191000  1.0 -0.5172700247
O  O8  1  0.97930000  0.02097000  0.58953000  1.0 -0.5478846616
O  O9  1  0.99320000  0.97059000  0.89625000  1.0 -0.5478846616
O  O10  1  0.07931000  0.98231000  0.50820000  1.0 -0.5873152278
O  O11  1  0.42484000  0.39335000  0.90109000  1.0 -0.5260572098
O  O12  1  0.07848000  0.09253000  0.60475000  1.0 -0.3983069844
O  O13  1  0.58656000  0.09465000  0.07531000  1.0 -0.514434155
O  O14  1  0.56856000  0.97903000  0.95833000  1.0 -0.5478846616
O  O15  1  0.92566000  0.02941000  0.02261000  1.0 -0.5478846616
O  O16  1  0.52589000  0.01769000  0.09700000  1.0 -0.5873152278
O  O17  1  0.50774000  0.60665000  0.03149000  1.0 -0.5260572098
O  O18  1  0.51222000  0.90747000  0.98595000  1.0 -0.3983069844
O  O19  1  0.41344000  0.48875000  0.50809000  1.0 -0.5172700247
O  O20  1  0.43144000  0.38977000  0.41047000  1.0 -0.5478846616
O  O21  1  0.07434000  0.09695000  0.10375000  1.0 -0.5478846616
O  O22  1  0.47411000  0.57111000  0.49180000  1.0 -0.5873152278
O  O23  1  0.49226000  0.52375000  0.09891000  1.0 -0.5260572098
O  O24  1  0.48778000  0.47373000  0.39525000  1.0 -0.3983069844
O  O25  1  0.98066000  0.48875000  0.07531000  1.0 -0.5172700247
O  O26  1  0.97930000  0.38977000  0.95833000  1.0 -0.5478846616
O  O27  1  0.99320000  0.09695000  0.02261000  1.0 -0.5478846616
O  O28  1  0.07931000  0.57111000  0.09700000  1.0 -0.5873152278
O  O29  1  0.42484000  0.52375000  0.03149000  1.0 -0.5260572098
O  O30  1  0.07848000  0.47373000  0.98595000  1.0 -0.3983069844
O  O31  1  0.01934000  0.09465000  0.50809000  1.0 -0.5172700247
O  O32  1  0.02070000  0.97903000  0.41047000  1.0 -0.5478846616
O  O33  1  0.00680000  0.02941000  0.10375000  1.0 -0.5478846616
O  O34  1  0.92069000  0.01769000  0.49180000  1.0 -0.5873152278
O  O35  1  0.57516000  0.60665000  0.09891000  1.0 -0.5260572098
O  O36  1  0.92152000  0.90747000  0.39525000  1.0 -0.3983069844
O  O37  1  0.41344000  0.90535000  0.92469000  1.0 -0.5172700247
O  O38  1  0.43144000  0.02097000  0.04167000  1.0 -0.5478846616
O  O39  1  0.07434000  0.97059000  0.97739000  1.0 -0.5478846616
O  O40  1  0.47411000  0.98231000  0.90300000  1.0 -0.5873152278
O  O41  1  0.49226000  0.39335000  0.96851000  1.0 -0.5260572098
O  O42  1  0.48778000  0.09253000  0.01405000  1.0 -0.3983069844
O  O43  1  0.58656000  0.51125000  0.49191000  1.0 -0.5172700247
O  O44  1  0.56856000  0.61023000  0.58953000  1.0 -0.5478846616
O  O45  1  0.92566000  0.90305000  0.89625000  1.0 -0.5478846616
O  O46  1  0.52589000  0.42889000  0.50820000  1.0 -0.5873152278
O  O47  1  0.50774000  0.47625000  0.90109000  1.0 -0.5260572098
O  O48  1  0.51222000  0.52627000  0.60475000  1.0 -0.3983069844
