# DDEC6 charges by PACMAN v1.1 (https://github.com/mtap-research/PACMAN-charge/)
data_SIXNUL_ASR_pacman
_symmetry_space_group_name_H-M   'P 1'
_cell_length_a   26.21490000
_cell_length_b   26.21490000
_cell_length_c   26.21490000
_cell_angle_alpha   132.24600000
_cell_angle_beta   99.42980000
_cell_angle_gamma   99.42980000
_symmetry_Int_Tables_number   1
_chemical_formula_structural   Cu3H32(C22O7)2
_chemical_formula_sum   'Cu12 H128 C176 O56'
_cell_volume   12194.88427808
_cell_formula_units_Z   4
loop_
 _symmetry_equiv_pos_site_id
 _symmetry_equiv_pos_as_xyz
  1  'x, y, z'
loop_
 _atom_site_type_symbol
 _atom_site_label
 _atom_site_symmetry_multiplicity
 _atom_site_fract_x
 _atom_site_fract_y
 _atom_site_fract_z
 _atom_site_occupancy
 _atom_site_charge
Cu  Cu1  1  0.99074000  0.05455000  0.55643000  1.0 0.8405475045
Cu  Cu2  1  0.00926000  0.56569000  0.06381000  1.0 0.8405475045
Cu  Cu3  1  0.49812000  0.43431000  0.44357000  1.0 0.8405475045
Cu  Cu4  1  0.50188000  0.94545000  0.93619000  1.0 0.8405475045
Cu  Cu5  1  0.00926000  0.94545000  0.44357000  1.0 0.8405475045
Cu  Cu6  1  0.99074000  0.43431000  0.93619000  1.0 0.8405475045
Cu  Cu7  1  0.50188000  0.56569000  0.55643000  1.0 0.8405475045
Cu  Cu8  1  0.49812000  0.05455000  0.06381000  1.0 0.8405475045
Cu  Cu9  1  0.46100000  0.50000000  0.96100000  1.0 0.8853199566
Cu  Cu10  1  0.53900000  0.50000000  0.03900000  1.0 0.8853199566
Cu  Cu11  1  0.96113000  0.46113000  0.50000000  1.0 0.8405475045
Cu  Cu12  1  0.03887000  0.53887000  0.50000000  1.0 0.8405475045
H  H1  1  0.34590000  0.27380000  0.80910000  1.0 0.1300328555
H  H2  1  0.03420000  0.31080000  0.46280000  1.0 0.1300328555
H  H3  1  0.17870000  0.99740000  0.55890000  1.0 0.1300328555
H  H4  1  0.15470000  0.17990000  0.71900000  1.0 0.1228347549
H  H5  1  0.26830000  0.04300000  0.63890000  1.0 0.1228347549
H  H6  1  0.06410000  0.06430000  0.38640000  1.0 0.1300328555
H  H7  1  0.09880000  0.14270000  0.37690000  1.0 0.1300328555
H  H8  1  0.24790000  0.23230000  0.79760000  1.0 0.1228347549
H  H9  1  0.03260000  0.21810000  0.55990000  1.0 0.1228347549
H  H10  1  0.06140000  0.29660000  0.54660000  1.0 0.1228347549
H  H11  1  0.24020000  0.05920000  0.76720000  1.0 0.0378220521
H  H12  1  0.28980000  0.11940000  0.84460000  1.0 0.0378220521
H  H13  1  0.27810000  0.03490000  0.79380000  1.0 0.0378220521
H  H14  1  0.24460000  0.27510000  0.53030000  1.0 0.0603965701
H  H15  1  0.20350000  0.31640000  0.55990000  1.0 0.0478062062
H  H16  1  0.25430000  0.34990000  0.55360000  1.0 0.0603965701
H  H17  1  0.65410000  0.46320000  0.92790000  1.0 0.1300328555
H  H18  1  0.96580000  0.42860000  0.27660000  1.0 0.1300328555
H  H19  1  0.82130000  0.38020000  0.81870000  1.0 0.1300328555
H  H20  1  0.84530000  0.56430000  0.02520000  1.0 0.1228347549
H  H21  1  0.73170000  0.37060000  0.77470000  1.0 0.1228347549
H  H22  1  0.93590000  0.32230000  0.00020000  1.0 0.1300328555
H  H23  1  0.90120000  0.27810000  0.04390000  1.0 0.1300328555
H  H24  1  0.75210000  0.54970000  0.98440000  1.0 0.1228347549
H  H25  1  0.96740000  0.52730000  0.18550000  1.0 0.1228347549
H  H26  1  0.93860000  0.48520000  0.23520000  1.0 0.1228347549
H  H27  1  0.75980000  0.52700000  0.81900000  1.0 0.0378220521
H  H28  1  0.71020000  0.55480000  0.82960000  1.0 0.0378220521
H  H29  1  0.72190000  0.51570000  0.75680000  1.0 0.0378220521
H  H30  1  0.75540000  0.28570000  0.03050000  1.0 0.0603965701
H  H31  1  0.79650000  0.35640000  0.11290000  1.0 0.0478062062
H  H32  1  0.74570000  0.29930000  0.09560000  1.0 0.0603965701
H  H33  1  0.46470000  0.53680000  0.19090000  1.0 0.1300328555
H  H34  1  0.84800000  0.57140000  0.53720000  1.0 0.1300328555
H  H35  1  0.43850000  0.61980000  0.44110000  1.0 0.1300328555
H  H36  1  0.46090000  0.43570000  0.28100000  1.0 0.1228347549
H  H37  1  0.40410000  0.62940000  0.36110000  1.0 0.1228347549
H  H38  1  0.67790000  0.67770000  0.61360000  1.0 0.1300328555
H  H39  1  0.76580000  0.72190000  0.62310000  1.0 0.1300328555
H  H40  1  0.43470000  0.45030000  0.20240000  1.0 0.1228347549
H  H41  1  0.65820000  0.47270000  0.44010000  1.0 0.1228347549
H  H42  1  0.75000000  0.51480000  0.45340000  1.0 0.1228347549
H  H43  1  0.29200000  0.47300000  0.23280000  1.0 0.0378220521
H  H44  1  0.27480000  0.44520000  0.15540000  1.0 0.0378220521
H  H45  1  0.24110000  0.48430000  0.20620000  1.0 0.0378220521
H  H46  1  0.74480000  0.71430000  0.46970000  1.0 0.0603965701
H  H47  1  0.75650000  0.64360000  0.44010000  1.0 0.0478062062
H  H48  1  0.79630000  0.70070000  0.44640000  1.0 0.0603965701
H  H49  1  0.53530000  0.72620000  0.07210000  1.0 0.1300328555
H  H50  1  0.15200000  0.68920000  0.72340000  1.0 0.1300328555
H  H51  1  0.56150000  0.00260000  0.18130000  1.0 0.1300328555
H  H52  1  0.53910000  0.82010000  0.97480000  1.0 0.1228347549
H  H53  1  0.59590000  0.95700000  0.22530000  1.0 0.1228347549
H  H54  1  0.32210000  0.93570000  0.99980000  1.0 0.1300328555
H  H55  1  0.23420000  0.85730000  0.95610000  1.0 0.1300328555
H  H56  1  0.56530000  0.76770000  0.01560000  1.0 0.1228347549
H  H57  1  0.34180000  0.78190000  0.81450000  1.0 0.1228347549
H  H58  1  0.25000000  0.70340000  0.76480000  1.0 0.1228347549
H  H59  1  0.70800000  0.94080000  0.18100000  1.0 0.0378220521
H  H60  1  0.72520000  0.88060000  0.17040000  1.0 0.0378220521
H  H61  1  0.75890000  0.96510000  0.24320000  1.0 0.0378220521
H  H62  1  0.25520000  0.72490000  0.96950000  1.0 0.0603965701
H  H63  1  0.24350000  0.68360000  0.88710000  1.0 0.0478062062
H  H64  1  0.20370000  0.65010000  0.90440000  1.0 0.0603965701
H  H65  1  0.65410000  0.72620000  0.19090000  1.0 0.1300328555
H  H66  1  0.96580000  0.68920000  0.53720000  1.0 0.1300328555
H  H67  1  0.82130000  0.00260000  0.44110000  1.0 0.1300328555
H  H68  1  0.84530000  0.82010000  0.28100000  1.0 0.1228347549
H  H69  1  0.73170000  0.95700000  0.36110000  1.0 0.1228347549
H  H70  1  0.93590000  0.93570000  0.61360000  1.0 0.1300328555
H  H71  1  0.90120000  0.85730000  0.62310000  1.0 0.1300328555
H  H72  1  0.75210000  0.76770000  0.20240000  1.0 0.1228347549
H  H73  1  0.96740000  0.78190000  0.44010000  1.0 0.1228347549
H  H74  1  0.93860000  0.70340000  0.45340000  1.0 0.1228347549
H  H75  1  0.75980000  0.94080000  0.23280000  1.0 0.0378220521
H  H76  1  0.71020000  0.88060000  0.15540000  1.0 0.0378220521
H  H77  1  0.72190000  0.96510000  0.20620000  1.0 0.0378220521
H  H78  1  0.75540000  0.72490000  0.46970000  1.0 0.0603965701
H  H79  1  0.79650000  0.68360000  0.44010000  1.0 0.0478062062
H  H80  1  0.74570000  0.65010000  0.44640000  1.0 0.0603965701
H  H81  1  0.34590000  0.53680000  0.07210000  1.0 0.1300328555
H  H82  1  0.03420000  0.57140000  0.72340000  1.0 0.1300328555
H  H83  1  0.17870000  0.61980000  0.18130000  1.0 0.1300328555
H  H84  1  0.15470000  0.43570000  0.97480000  1.0 0.1228347549
H  H85  1  0.26830000  0.62940000  0.22530000  1.0 0.1228347549
H  H86  1  0.06410000  0.67770000  0.99980000  1.0 0.1300328555
H  H87  1  0.09880000  0.72190000  0.95610000  1.0 0.1300328555
H  H88  1  0.24790000  0.45030000  0.01560000  1.0 0.1228347549
H  H89  1  0.03260000  0.47270000  0.81450000  1.0 0.1228347549
H  H90  1  0.06140000  0.51480000  0.76480000  1.0 0.1228347549
H  H91  1  0.24020000  0.47300000  0.18100000  1.0 0.0378220521
H  H92  1  0.28980000  0.44520000  0.17040000  1.0 0.0378220521
H  H93  1  0.27810000  0.48430000  0.24320000  1.0 0.0378220521
H  H94  1  0.24460000  0.71430000  0.96950000  1.0 0.0603965701
H  H95  1  0.20350000  0.64360000  0.88710000  1.0 0.0478062062
H  H96  1  0.25430000  0.70070000  0.90440000  1.0 0.0603965701
H  H97  1  0.53530000  0.46320000  0.80910000  1.0 0.1300328555
H  H98  1  0.15200000  0.42860000  0.46280000  1.0 0.1300328555
H  H99  1  0.56150000  0.38020000  0.55890000  1.0 0.1300328555
H  H100  1  0.53910000  0.56430000  0.71900000  1.0 0.1228347549
H  H101  1  0.59590000  0.37060000  0.63890000  1.0 0.1228347549
H  H102  1  0.32210000  0.32230000  0.38640000  1.0 0.1300328555
H  H103  1  0.23420000  0.27810000  0.37690000  1.0 0.1300328555
H  H104  1  0.56530000  0.54970000  0.79760000  1.0 0.1228347549
H  H105  1  0.34180000  0.52730000  0.55990000  1.0 0.1228347549
H  H106  1  0.25000000  0.48520000  0.54660000  1.0 0.1228347549
H  H107  1  0.70800000  0.52700000  0.76720000  1.0 0.0378220521
H  H108  1  0.72520000  0.55480000  0.84460000  1.0 0.0378220521
H  H109  1  0.75890000  0.51570000  0.79380000  1.0 0.0378220521
H  H110  1  0.25520000  0.28570000  0.53030000  1.0 0.0603965701
H  H111  1  0.24350000  0.35640000  0.55990000  1.0 0.0478062062
H  H112  1  0.20370000  0.29930000  0.55360000  1.0 0.0603965701
H  H113  1  0.46470000  0.27380000  0.92790000  1.0 0.1300328555
H  H114  1  0.84800000  0.31080000  0.27660000  1.0 0.1300328555
H  H115  1  0.43850000  0.99740000  0.81870000  1.0 0.1300328555
H  H116  1  0.46090000  0.17990000  0.02520000  1.0 0.1228347549
H  H117  1  0.40410000  0.04300000  0.77470000  1.0 0.1228347549
H  H118  1  0.67790000  0.06430000  0.00020000  1.0 0.1300328555
H  H119  1  0.76580000  0.14270000  0.04390000  1.0 0.1300328555
H  H120  1  0.43470000  0.23230000  0.98440000  1.0 0.1228347549
H  H121  1  0.65820000  0.21810000  0.18550000  1.0 0.1228347549
H  H122  1  0.75000000  0.29660000  0.23520000  1.0 0.1228347549
H  H123  1  0.29200000  0.05920000  0.81900000  1.0 0.0378220521
H  H124  1  0.27480000  0.11940000  0.82960000  1.0 0.0378220521
H  H125  1  0.24110000  0.03490000  0.75680000  1.0 0.0378220521
H  H126  1  0.74480000  0.27510000  0.03050000  1.0 0.0603965701
H  H127  1  0.75650000  0.31640000  0.11290000  1.0 0.0478062062
H  H128  1  0.79630000  0.34990000  0.09560000  1.0 0.0603965701
C  C1  1  0.35885000  0.24927000  0.81898000  1.0 -0.174242693
C  C2  1  0.32537000  0.17767000  0.77990000  1.0 -0.0300500473
C  C3  1  0.16003000  0.08563000  0.63280000  1.0 -0.0167119053
C  C4  1  0.26855000  0.14667000  0.72908000  1.0 0.0676310176
C  C5  1  0.09893000  0.05218000  0.58275000  1.0 0.5800246383
C  C6  1  0.06943000  0.32164000  0.46199000  1.0 -0.151463024
C  C7  1  0.19266000  0.04423000  0.60763000  1.0 -0.1003741613
C  C8  1  0.17804000  0.15345000  0.70219000  1.0 -0.0907529757
C  C9  1  0.04813000  0.13261000  0.47272000  1.0 -0.0167119053
C  C10  1  0.24671000  0.07204000  0.65487000  1.0 -0.1245741164
C  C11  1  0.06505000  0.11268000  0.42117000  1.0 -0.0907529757
C  C12  1  0.08481000  0.15918000  0.41383000  1.0 -0.1312848096
C  C13  1  0.23438000  0.18419000  0.74999000  1.0 -0.151463024
C  C14  1  0.08384000  0.22845000  0.46039000  1.0 0.0676310176
C  C15  1  0.10289000  0.28053000  0.45516000  1.0 -0.0300500473
C  C16  1  0.04560000  0.20272000  0.52248000  1.0 -0.0907529757
C  C17  1  0.02775000  0.08298000  0.48377000  1.0 0.5521906252
C  C18  1  0.06346000  0.24978000  0.51448000  1.0 -0.151463024
C  C19  1  0.64115000  0.46013000  0.89042000  1.0 -0.174242693
C  C20  1  0.67463000  0.45453000  0.85230000  1.0 -0.0300500473
C  C21  1  0.83997000  0.47277000  0.92560000  1.0 -0.0167119053
C  C22  1  0.73145000  0.46053000  0.87812000  1.0 0.0676310176
C  C23  1  0.90107000  0.48382000  0.95325000  1.0 0.5800246383
C  C24  1  0.93057000  0.39256000  0.25221000  1.0 -0.151463024
C  C25  1  0.80734000  0.41497000  0.85157000  1.0 -0.1003741613
C  C26  1  0.82196000  0.52415000  0.97541000  1.0 -0.0907529757
C  C27  1  0.95187000  0.42459000  0.08448000  1.0 -0.0167119053
C  C28  1  0.75329000  0.40816000  0.82533000  1.0 -0.1245741164
C  C29  1  0.93495000  0.35612000  0.04763000  1.0 -0.0907529757
C  C30  1  0.91519000  0.32902000  0.07437000  1.0 -0.1312848096
C  C31  1  0.76562000  0.51561000  0.94981000  1.0 -0.151463024
C  C32  1  0.91616000  0.37655000  0.14461000  1.0 0.0676310176
C  C33  1  0.89711000  0.35227000  0.17764000  1.0 -0.0300500473
C  C34  1  0.95440000  0.47688000  0.15712000  1.0 -0.0907529757
C  C35  1  0.97225000  0.45602000  0.05523000  1.0 0.5521906252
C  C36  1  0.93654000  0.45102000  0.18632000  1.0 -0.151463024
C  C37  1  0.43029000  0.53987000  0.18102000  1.0 -0.174242693
C  C38  1  0.39777000  0.54547000  0.22010000  1.0 -0.0300500473
C  C39  1  0.45283000  0.52723000  0.36720000  1.0 -0.0167119053
C  C40  1  0.41759000  0.53947000  0.27092000  1.0 0.0676310176
C  C41  1  0.46943000  0.51618000  0.41725000  1.0 0.5800246383
C  C42  1  0.85965000  0.60744000  0.53801000  1.0 -0.151463024
C  C43  1  0.43660000  0.58503000  0.39237000  1.0 -0.1003741613
C  C44  1  0.45126000  0.47585000  0.29781000  1.0 -0.0907529757
C  C45  1  0.65989000  0.57541000  0.52728000  1.0 -0.0167119053
C  C46  1  0.41717000  0.59184000  0.34513000  1.0 -0.1245741164
C  C47  1  0.69151000  0.64388000  0.57883000  1.0 -0.0907529757
C  C48  1  0.74535000  0.67098000  0.58617000  1.0 -0.1312848096
C  C49  1  0.43420000  0.48439000  0.25001000  1.0 -0.151463024
C  C50  1  0.76806000  0.62345000  0.53961000  1.0 0.0676310176
C  C51  1  0.82537000  0.64773000  0.54484000  1.0 -0.0300500473
C  C52  1  0.68024000  0.52312000  0.47752000  1.0 -0.0907529757
C  C53  1  0.59921000  0.54398000  0.51623000  1.0 0.5521906252
C  C54  1  0.73530000  0.54898000  0.48552000  1.0 -0.151463024
C  C55  1  0.56971000  0.75073000  0.10958000  1.0 -0.174242693
C  C56  1  0.60223000  0.82233000  0.14770000  1.0 -0.0300500473
C  C57  1  0.54717000  0.91437000  0.07440000  1.0 -0.0167119053
C  C58  1  0.58241000  0.85333000  0.12188000  1.0 0.0676310176
C  C59  1  0.53057000  0.94782000  0.04675000  1.0 0.5800246383
C  C60  1  0.14035000  0.67836000  0.74779000  1.0 -0.151463024
C  C61  1  0.56340000  0.95577000  0.14843000  1.0 -0.1003741613
C  C62  1  0.54874000  0.84655000  0.02459000  1.0 -0.0907529757
C  C63  1  0.34011000  0.86739000  0.91552000  1.0 -0.0167119053
C  C64  1  0.58283000  0.92796000  0.17467000  1.0 -0.1245741164
C  C65  1  0.30849000  0.88732000  0.95237000  1.0 -0.0907529757
C  C66  1  0.25465000  0.84082000  0.92563000  1.0 -0.1312848096
C  C67  1  0.56580000  0.81581000  0.05019000  1.0 -0.151463024
C  C68  1  0.23194000  0.77155000  0.85539000  1.0 0.0676310176
C  C69  1  0.17463000  0.71947000  0.82236000  1.0 -0.0300500473
C  C70  1  0.31976000  0.79728000  0.84288000  1.0 -0.0907529757
C  C71  1  0.40079000  0.91702000  0.94477000  1.0 0.5521906252
C  C72  1  0.26470000  0.75022000  0.81368000  1.0 -0.151463024
C  C73  1  0.64115000  0.75073000  0.18102000  1.0 -0.174242693
C  C74  1  0.67463000  0.82233000  0.22010000  1.0 -0.0300500473
C  C75  1  0.83997000  0.91437000  0.36720000  1.0 -0.0167119053
C  C76  1  0.73145000  0.85333000  0.27092000  1.0 0.0676310176
C  C77  1  0.90107000  0.94782000  0.41725000  1.0 0.5800246383
C  C78  1  0.93057000  0.67836000  0.53801000  1.0 -0.151463024
C  C79  1  0.80734000  0.95577000  0.39237000  1.0 -0.1003741613
C  C80  1  0.82196000  0.84655000  0.29781000  1.0 -0.0907529757
C  C81  1  0.95187000  0.86739000  0.52728000  1.0 -0.0142581193
C  C82  1  0.75329000  0.92796000  0.34513000  1.0 -0.1245741164
C  C83  1  0.93495000  0.88732000  0.57883000  1.0 -0.0907529757
C  C84  1  0.91519000  0.84082000  0.58617000  1.0 -0.1312848096
C  C85  1  0.76562000  0.81581000  0.25001000  1.0 -0.151463024
C  C86  1  0.91616000  0.77155000  0.53961000  1.0 0.0676310176
C  C87  1  0.89711000  0.71947000  0.54484000  1.0 -0.0300500473
C  C88  1  0.95440000  0.79728000  0.47752000  1.0 -0.0907529757
C  C89  1  0.97225000  0.91702000  0.51623000  1.0 0.5521906252
C  C90  1  0.93654000  0.75022000  0.48552000  1.0 -0.151463024
C  C91  1  0.35885000  0.53987000  0.10958000  1.0 -0.174242693
C  C92  1  0.32537000  0.54547000  0.14770000  1.0 -0.0300500473
C  C93  1  0.16003000  0.52723000  0.07440000  1.0 -0.0167119053
C  C94  1  0.26855000  0.53947000  0.12188000  1.0 0.0603965701
C  C95  1  0.09893000  0.51618000  0.04675000  1.0 0.5800246383
C  C96  1  0.06943000  0.60744000  0.74779000  1.0 -0.151463024
C  C97  1  0.19266000  0.58503000  0.14843000  1.0 -0.1003741613
C  C98  1  0.17804000  0.47585000  0.02459000  1.0 -0.0907529757
C  C99  1  0.04813000  0.57541000  0.91552000  1.0 -0.0167119053
C  C100  1  0.24671000  0.59184000  0.17467000  1.0 -0.1245741164
C  C101  1  0.06505000  0.64388000  0.95237000  1.0 -0.0907529757
C  C102  1  0.08481000  0.67098000  0.92563000  1.0 -0.1312848096
C  C103  1  0.23438000  0.48439000  0.05019000  1.0 -0.151463024
C  C104  1  0.08384000  0.62345000  0.85539000  1.0 0.0676310176
C  C105  1  0.10289000  0.64773000  0.82236000  1.0 -0.0300500473
C  C106  1  0.04560000  0.52312000  0.84288000  1.0 -0.0907529757
C  C107  1  0.02775000  0.54398000  0.94477000  1.0 0.5521906252
C  C108  1  0.06346000  0.54898000  0.81368000  1.0 -0.151463024
C  C109  1  0.56971000  0.46013000  0.81898000  1.0 -0.174242693
C  C110  1  0.60223000  0.45453000  0.77990000  1.0 -0.0300500473
C  C111  1  0.54717000  0.47277000  0.63280000  1.0 -0.0167119053
C  C112  1  0.58241000  0.46053000  0.72908000  1.0 0.0676310176
C  C113  1  0.53057000  0.48382000  0.58275000  1.0 0.5800246383
C  C114  1  0.14035000  0.39256000  0.46199000  1.0 -0.151463024
C  C115  1  0.56340000  0.41497000  0.60763000  1.0 -0.1003741613
C  C116  1  0.54874000  0.52415000  0.70219000  1.0 -0.0907529757
C  C117  1  0.34011000  0.42459000  0.47272000  1.0 -0.0142581193
C  C118  1  0.58283000  0.40816000  0.65487000  1.0 -0.1245741164
C  C119  1  0.30849000  0.35612000  0.42117000  1.0 -0.0907529757
C  C120  1  0.25465000  0.32902000  0.41383000  1.0 -0.1312848096
C  C121  1  0.56580000  0.51561000  0.74999000  1.0 -0.151463024
C  C122  1  0.23194000  0.37655000  0.46039000  1.0 0.0676310176
C  C123  1  0.17463000  0.35227000  0.45516000  1.0 -0.0300500473
C  C124  1  0.31976000  0.47688000  0.52248000  1.0 -0.0907529757
C  C125  1  0.40079000  0.45602000  0.48377000  1.0 0.5521906252
C  C126  1  0.26470000  0.45102000  0.51448000  1.0 -0.151463024
C  C127  1  0.43029000  0.24927000  0.89042000  1.0 -0.174242693
C  C128  1  0.39777000  0.17767000  0.85230000  1.0 -0.0300500473
C  C129  1  0.45283000  0.08563000  0.92560000  1.0 -0.0167119053
C  C130  1  0.41759000  0.14667000  0.87812000  1.0 0.0676310176
C  C131  1  0.46943000  0.05218000  0.95325000  1.0 0.5800246383
C  C132  1  0.85965000  0.32164000  0.25221000  1.0 -0.151463024
C  C133  1  0.43660000  0.04423000  0.85157000  1.0 -0.1003741613
C  C134  1  0.45126000  0.15345000  0.97541000  1.0 -0.0907529757
C  C135  1  0.65989000  0.13261000  0.08448000  1.0 -0.0167119053
C  C136  1  0.41717000  0.07204000  0.82533000  1.0 -0.1245741164
C  C137  1  0.69151000  0.11268000  0.04763000  1.0 -0.0907529757
C  C138  1  0.74535000  0.15918000  0.07437000  1.0 -0.1312848096
C  C139  1  0.43420000  0.18419000  0.94981000  1.0 -0.151463024
C  C140  1  0.76806000  0.22845000  0.14461000  1.0 0.0676310176
C  C141  1  0.82537000  0.28053000  0.17764000  1.0 -0.0300500473
C  C142  1  0.68024000  0.20272000  0.15712000  1.0 -0.0907529757
C  C143  1  0.59921000  0.08298000  0.05523000  1.0 0.5521906252
C  C144  1  0.73530000  0.24978000  0.18632000  1.0 -0.151463024
C  C145  1  0.09035000  0.37700000  0.46735000  1.0 -0.0167119053
C  C146  1  0.15682000  0.30080000  0.45762000  1.0 0.1722346331
C  C147  1  0.05380000  0.41660000  0.47040000  1.0 0.5800246383
C  C148  1  0.22660000  0.30470000  0.53130000  1.0 -0.3329402273
C  C149  1  0.90965000  0.37700000  0.28665000  1.0 -0.0167119053
C  C150  1  0.84318000  0.30080000  0.14398000  1.0 0.1722346331
C  C151  1  0.94620000  0.41660000  0.36280000  1.0 0.5800246383
C  C152  1  0.77340000  0.30470000  0.07810000  1.0 -0.3329402273
C  C153  1  0.90965000  0.62300000  0.53265000  1.0 -0.0167119053
C  C154  1  0.84318000  0.69920000  0.54238000  1.0 0.1722346331
C  C155  1  0.94620000  0.58340000  0.52960000  1.0 0.5800246383
C  C156  1  0.77340000  0.69530000  0.46870000  1.0 -0.3329402273
C  C157  1  0.09035000  0.62300000  0.71335000  1.0 -0.0167119053
C  C158  1  0.15682000  0.69920000  0.85602000  1.0 0.1722346331
C  C159  1  0.05380000  0.58340000  0.63720000  1.0 0.5800246383
C  C160  1  0.22660000  0.69530000  0.92190000  1.0 -0.3329402273
C  C161  1  0.41210000  0.28550000  0.87340000  1.0 -0.0142581193
C  C162  1  0.44647000  0.36407000  0.91760000  1.0 0.5800246383
C  C163  1  0.34478000  0.14238000  0.79760000  1.0 0.1960235918
C  C164  1  0.27750000  0.07170000  0.79420000  1.0 -0.1411557151
C  C165  1  0.58790000  0.46130000  0.87340000  1.0 -0.0142581193
C  C166  1  0.55353000  0.47113000  0.91760000  1.0 0.5800246383
C  C167  1  0.65522000  0.45282000  0.79760000  1.0 0.1960235918
C  C168  1  0.72250000  0.51670000  0.79420000  1.0 -0.1411557151
C  C169  1  0.41210000  0.53870000  0.12660000  1.0 -0.0142581193
C  C170  1  0.44647000  0.52887000  0.08240000  1.0 0.5800246383
C  C171  1  0.34478000  0.54718000  0.20240000  1.0 0.1960235918
C  C172  1  0.27750000  0.48330000  0.20580000  1.0 -0.1411557151
C  C173  1  0.58790000  0.71450000  0.12660000  1.0 -0.0142581193
C  C174  1  0.55353000  0.63593000  0.08240000  1.0 0.5800246383
C  C175  1  0.65522000  0.85762000  0.20240000  1.0 0.1960235918
C  C176  1  0.72250000  0.92830000  0.20580000  1.0 -0.1411557151
O  O1  1  0.08666000  0.99361000  0.51413000  1.0 -0.5216945922
O  O2  1  0.42606000  0.39576000  0.90324000  1.0 -0.5321051693
O  O3  1  0.06791000  0.08646000  0.60907000  1.0 -0.5023309318
O  O4  1  0.02880000  0.01477000  0.43403000  1.0 -0.5445697522
O  O5  1  0.01425000  0.10612000  0.52913000  1.0 -0.391553401
O  O6  1  0.00892000  0.40196000  0.47732000  1.0 -0.5216945922
O  O7  1  0.91334000  0.42747000  0.90695000  1.0 -0.5216945922
O  O8  1  0.57394000  0.47718000  0.96970000  1.0 -0.5321051693
O  O9  1  0.93209000  0.54116000  0.01855000  1.0 -0.5023309318
O  O10  1  0.97120000  0.40523000  0.98597000  1.0 -0.5445697522
O  O11  1  0.98575000  0.51488000  0.09187000  1.0 -0.391553401
O  O12  1  0.99108000  0.46840000  0.39304000  1.0 -0.5216945922
O  O13  1  0.47948000  0.57253000  0.48587000  1.0 -0.5216945922
O  O14  1  0.49252000  0.52282000  0.09676000  1.0 -0.5321051693
O  O15  1  0.47739000  0.45884000  0.39093000  1.0 -0.5023309318
O  O16  1  0.58074000  0.59477000  0.56597000  1.0 -0.5445697522
O  O17  1  0.57699000  0.48512000  0.47087000  1.0 -0.391553401
O  O18  1  0.92464000  0.53160000  0.52268000  1.0 -0.5216945922
O  O19  1  0.52052000  0.00639000  0.09305000  1.0 -0.5216945922
O  O20  1  0.50748000  0.60424000  0.03030000  1.0 -0.5321051693
O  O21  1  0.52261000  0.91354000  0.98145000  1.0 -0.5023309318
O  O22  1  0.41926000  0.98523000  0.01403000  1.0 -0.5445697522
O  O23  1  0.42301000  0.89388000  0.90813000  1.0 -0.391553401
O  O24  1  0.07536000  0.59804000  0.60696000  1.0 -0.5216945922
O  O25  1  0.91334000  0.00639000  0.48587000  1.0 -0.5216945922
O  O26  1  0.57394000  0.60424000  0.09676000  1.0 -0.5321051693
O  O27  1  0.93209000  0.91354000  0.39093000  1.0 -0.5023309318
O  O28  1  0.97120000  0.98523000  0.56597000  1.0 -0.5445697522
O  O29  1  0.98575000  0.89388000  0.47087000  1.0 -0.391553401
O  O30  1  0.99108000  0.59804000  0.52268000  1.0 -0.5216945922
O  O31  1  0.08666000  0.57253000  0.09305000  1.0 -0.5216945922
O  O32  1  0.42606000  0.52282000  0.03030000  1.0 -0.5321051693
O  O33  1  0.06791000  0.45884000  0.98145000  1.0 -0.5023309318
O  O34  1  0.02880000  0.59477000  0.01403000  1.0 -0.5445697522
O  O35  1  0.01425000  0.48512000  0.90813000  1.0 -0.391553401
O  O36  1  0.00892000  0.53160000  0.60696000  1.0 -0.5216945922
O  O37  1  0.52052000  0.42747000  0.51413000  1.0 -0.5216945922
O  O38  1  0.50748000  0.47718000  0.90324000  1.0 -0.5321051693
O  O39  1  0.52261000  0.54116000  0.60907000  1.0 -0.5023309318
O  O40  1  0.41926000  0.40523000  0.43403000  1.0 -0.5445697522
O  O41  1  0.42301000  0.51488000  0.52913000  1.0 -0.391553401
O  O42  1  0.07536000  0.46840000  0.47732000  1.0 -0.5216945922
O  O43  1  0.47948000  0.99361000  0.90695000  1.0 -0.5216945922
O  O44  1  0.49252000  0.39576000  0.96970000  1.0 -0.5321051693
O  O45  1  0.47739000  0.08646000  0.01855000  1.0 -0.5023309318
O  O46  1  0.58074000  0.01477000  0.98597000  1.0 -0.5445697522
O  O47  1  0.57699000  0.10612000  0.09187000  1.0 -0.391553401
O  O48  1  0.92464000  0.40196000  0.39304000  1.0 -0.5216945922
O  O49  1  0.18722000  0.25810000  0.44532000  1.0 -0.269326142
O  O50  1  0.81278000  0.25810000  0.07088000  1.0 -0.269326142
O  O51  1  0.81278000  0.74190000  0.55468000  1.0 -0.269326142
O  O52  1  0.18722000  0.74190000  0.92912000  1.0 -0.269326142
O  O53  1  0.31172000  0.07372000  0.76200000  1.0 -0.1941471761
O  O54  1  0.68828000  0.45028000  0.76200000  1.0 -0.1965267723
O  O55  1  0.31172000  0.54972000  0.23800000  1.0 -0.1965267723
O  O56  1  0.68828000  0.92628000  0.23800000  1.0 -0.1965267723
