# DDEC6 charges by PACMAN v1.1 (https://github.com/mtap-research/PACMAN-charge/)
data_SIYFAK_ASR_pacman
_symmetry_space_group_name_H-M   'P 1'
_cell_length_a   16.99770000
_cell_length_b   16.99770000
_cell_length_c   15.34800000
_cell_angle_alpha   67.73110000
_cell_angle_beta   112.26900000
_cell_angle_gamma   132.95800000
_symmetry_Int_Tables_number   1
_chemical_formula_structural   CdH25C33N7O5
_chemical_formula_sum   'Cd4 H100 C132 N28 O20'
_cell_volume   2955.17236614
_cell_formula_units_Z   4
loop_
 _symmetry_equiv_pos_site_id
 _symmetry_equiv_pos_as_xyz
  1  'x, y, z'
loop_
 _atom_site_type_symbol
 _atom_site_label
 _atom_site_symmetry_multiplicity
 _atom_site_fract_x
 _atom_site_fract_y
 _atom_site_fract_z
 _atom_site_occupancy
 _atom_site_charge
Cd  Cd1  1  0.51343000  0.18731000  0.10348000  1.0 0.8181680487
Cd  Cd2  1  0.18731000  0.51343000  0.39652000  1.0 0.8181680487
Cd  Cd3  1  0.48657000  0.81269000  0.89652000  1.0 0.8181680487
Cd  Cd4  1  0.81269000  0.48657000  0.60348000  1.0 0.8181680487
H  H1  1  0.68000000  0.46540000  0.00550000  1.0 0.120277625
H  H2  1  0.71600000  0.33940000  0.27600000  1.0 0.127986298
H  H3  1  0.86310000  0.53370000  0.25900000  1.0 0.127986298
H  H4  1  0.01000000  0.67760000  0.14850000  1.0 0.127986298
H  H5  1  0.23520000  0.03280000  0.02600000  1.0 0.120277625
H  H6  1  0.38170000  0.90910000  0.18930000  1.0 0.120277625
H  H7  1  0.18640000  0.75700000  0.16700000  1.0 0.120277625
H  H8  1  0.05890000  0.93610000  0.95220000  1.0 0.1571075813
H  H9  1  0.75150000  0.66150000  0.97760000  1.0 0.1397445323
H  H10  1  0.80930000  0.86250000  0.90770000  1.0 0.120277625
H  H11  1  0.79840000  0.81560000  0.82910000  1.0 0.1125365297
H  H12  1  0.74690000  0.92830000  0.76110000  1.0 0.127986298
H  H13  1  0.72200000  0.05640000  0.66260000  1.0 0.127986298
H  H14  1  0.04590000  0.28790000  0.67310000  1.0 0.127986298
H  H15  1  0.06950000  0.15950000  0.76870000  1.0 0.1397445323
H  H16  1  0.77140000  0.24280000  0.65390000  1.0 0.1125365297
H  H17  1  0.97830000  0.51990000  0.50250000  1.0 0.1012970395
H  H18  1  0.03960000  0.41020000  0.55830000  1.0 0.0920565072
H  H19  1  0.51440000  0.94200000  0.39650000  1.0 0.1125365297
H  H20  1  0.49740000  0.14660000  0.44550000  1.0 0.1125365297
H  H21  1  0.41380000  0.26620000  0.75110000  1.0 0.120277625
H  H22  1  0.32050000  0.33630000  0.89190000  1.0 0.120277625
H  H23  1  0.93240000  0.35980000  0.67880000  1.0 0.1125365297
H  H24  1  0.70690000  0.32050000  0.45170000  1.0 0.127986298
H  H25  1  0.71430000  0.17110000  0.48590000  1.0 0.127986298
H  H26  1  0.46540000  0.68000000  0.49450000  1.0 0.120277625
H  H27  1  0.33940000  0.71600000  0.22400000  1.0 0.127986298
H  H28  1  0.53370000  0.86310000  0.24100000  1.0 0.127986298
H  H29  1  0.67760000  0.01000000  0.35150000  1.0 0.127986298
H  H30  1  0.03280000  0.23520000  0.47400000  1.0 0.120277625
H  H31  1  0.90910000  0.38170000  0.31070000  1.0 0.120277625
H  H32  1  0.75700000  0.18640000  0.33300000  1.0 0.120277625
H  H33  1  0.93610000  0.05890000  0.54780000  1.0 0.1571075813
H  H34  1  0.66150000  0.75150000  0.52240000  1.0 0.1397445323
H  H35  1  0.86250000  0.80930000  0.59230000  1.0 0.120277625
H  H36  1  0.81560000  0.79840000  0.67090000  1.0 0.1125365297
H  H37  1  0.92830000  0.74690000  0.73890000  1.0 0.127986298
H  H38  1  0.05640000  0.72200000  0.83740000  1.0 0.127986298
H  H39  1  0.28790000  0.04590000  0.82690000  1.0 0.127986298
H  H40  1  0.15950000  0.06950000  0.73130000  1.0 0.1397445323
H  H41  1  0.24280000  0.77140000  0.84610000  1.0 0.1125365297
H  H42  1  0.51990000  0.97830000  0.99750000  1.0 0.1012970395
H  H43  1  0.41020000  0.03960000  0.94170000  1.0 0.0920565072
H  H44  1  0.94200000  0.51440000  0.10350000  1.0 0.1125365297
H  H45  1  0.14660000  0.49740000  0.05450000  1.0 0.1125365297
H  H46  1  0.26620000  0.41380000  0.74890000  1.0 0.120277625
H  H47  1  0.33630000  0.32050000  0.60810000  1.0 0.120277625
H  H48  1  0.35980000  0.93240000  0.82120000  1.0 0.1125365297
H  H49  1  0.32050000  0.70690000  0.04830000  1.0 0.127986298
H  H50  1  0.17110000  0.71430000  0.01410000  1.0 0.127986298
H  H51  1  0.32000000  0.53460000  0.99450000  1.0 0.120277625
H  H52  1  0.28400000  0.66060000  0.72400000  1.0 0.127986298
H  H53  1  0.13690000  0.46630000  0.74100000  1.0 0.127986298
H  H54  1  0.99000000  0.32240000  0.85150000  1.0 0.127986298
H  H55  1  0.76480000  0.96720000  0.97400000  1.0 0.120277625
H  H56  1  0.61830000  0.09090000  0.81070000  1.0 0.120277625
H  H57  1  0.81360000  0.24300000  0.83300000  1.0 0.120277625
H  H58  1  0.94110000  0.06390000  0.04780000  1.0 0.1571075813
H  H59  1  0.24850000  0.33850000  0.02240000  1.0 0.1397445323
H  H60  1  0.19070000  0.13750000  0.09230000  1.0 0.120277625
H  H61  1  0.20160000  0.18440000  0.17090000  1.0 0.1125365297
H  H62  1  0.25310000  0.07170000  0.23890000  1.0 0.127986298
H  H63  1  0.27800000  0.94360000  0.33740000  1.0 0.127986298
H  H64  1  0.95410000  0.71210000  0.32690000  1.0 0.127986298
H  H65  1  0.93050000  0.84050000  0.23130000  1.0 0.1397445323
H  H66  1  0.22860000  0.75720000  0.34610000  1.0 0.1125365297
H  H67  1  0.02170000  0.48010000  0.49750000  1.0 0.1012970395
H  H68  1  0.96040000  0.58980000  0.44170000  1.0 0.0920565072
H  H69  1  0.48560000  0.05800000  0.60350000  1.0 0.1125365297
H  H70  1  0.50260000  0.85340000  0.55450000  1.0 0.1125365297
H  H71  1  0.58620000  0.73380000  0.24890000  1.0 0.120277625
H  H72  1  0.67950000  0.66370000  0.10810000  1.0 0.120277625
H  H73  1  0.06760000  0.64020000  0.32120000  1.0 0.1125365297
H  H74  1  0.29310000  0.67950000  0.54830000  1.0 0.127986298
H  H75  1  0.28570000  0.82890000  0.51410000  1.0 0.127986298
H  H76  1  0.53460000  0.32000000  0.50550000  1.0 0.120277625
H  H77  1  0.66060000  0.28400000  0.77600000  1.0 0.127986298
H  H78  1  0.46630000  0.13690000  0.75900000  1.0 0.127986298
H  H79  1  0.32240000  0.99000000  0.64850000  1.0 0.127986298
H  H80  1  0.96720000  0.76480000  0.52600000  1.0 0.120277625
H  H81  1  0.09090000  0.61830000  0.68930000  1.0 0.120277625
H  H82  1  0.24300000  0.81360000  0.66700000  1.0 0.120277625
H  H83  1  0.06390000  0.94110000  0.45220000  1.0 0.1571075813
H  H84  1  0.33850000  0.24850000  0.47760000  1.0 0.1397445323
H  H85  1  0.13750000  0.19070000  0.40770000  1.0 0.120277625
H  H86  1  0.18440000  0.20160000  0.32910000  1.0 0.1125365297
H  H87  1  0.07170000  0.25310000  0.26110000  1.0 0.127986298
H  H88  1  0.94360000  0.27800000  0.16260000  1.0 0.127986298
H  H89  1  0.71210000  0.95410000  0.17310000  1.0 0.127986298
H  H90  1  0.84050000  0.93050000  0.26870000  1.0 0.1397445323
H  H91  1  0.75720000  0.22860000  0.15390000  1.0 0.1125365297
H  H92  1  0.48010000  0.02170000  0.00250000  1.0 0.1012970395
H  H93  1  0.58980000  0.96040000  0.05830000  1.0 0.0920565072
H  H94  1  0.05800000  0.48560000  0.89650000  1.0 0.1125365297
H  H95  1  0.85340000  0.50260000  0.94550000  1.0 0.1125365297
H  H96  1  0.73380000  0.58620000  0.25110000  1.0 0.120277625
H  H97  1  0.66370000  0.67950000  0.39190000  1.0 0.120277625
H  H98  1  0.64020000  0.06760000  0.17880000  1.0 0.1125365297
H  H99  1  0.67950000  0.29310000  0.95170000  1.0 0.127986298
H  H100  1  0.82890000  0.28570000  0.98590000  1.0 0.127986298
C  C1  1  0.70740000  0.45760000  0.07070000  1.0 0.1012970395
C  C2  1  0.72690000  0.38910000  0.21890000  1.0 -0.0419767006
C  C3  1  0.80870000  0.49590000  0.20980000  1.0 -0.1170912153
C  C4  1  0.86860000  0.65100000  0.06990000  1.0 0.2047596769
C  C5  1  0.98240000  0.71000000  0.09940000  1.0 -0.2914446546
C  C6  1  0.05260000  0.81680000  0.05420000  1.0 0.1905880766
C  C7  1  0.24760000  0.98340000  0.06360000  1.0 0.1125365297
C  C8  1  0.32750000  0.91490000  0.15320000  1.0 -0.0762740812
C  C9  1  0.21960000  0.83040000  0.14160000  1.0 -0.1590346657
C  C10  1  0.01100000  0.86480000  0.98240000  1.0 -0.222880031
C  C11  1  0.90200000  0.81060000  0.95480000  1.0 0.1503372499
C  C12  1  0.82640000  0.70000000  0.99730000  1.0 -0.2759844913
C  C13  1  0.84900000  0.85960000  0.87890000  1.0 -0.0713727819
C  C14  1  0.91240000  0.03400000  0.77840000  1.0 0.2332422444
C  C15  1  0.80680000  0.00060000  0.74470000  1.0 -0.2119419976
C  C16  1  0.79200000  0.07780000  0.68560000  1.0 -0.2341495967
C  C17  1  0.88080000  0.18440000  0.66190000  1.0 0.1503372499
C  C18  1  0.98620000  0.21640000  0.69160000  1.0 -0.259916897
C  C19  1  0.99990000  0.13930000  0.74940000  1.0 -0.1965305498
C  C20  1  0.82680000  0.29720000  0.61800000  1.0 0.1125365297
C  C21  1  0.94180000  0.44900000  0.53720000  1.0 -0.1590346657
C  C22  1  0.97600000  0.38860000  0.56800000  1.0 -0.1590346657
C  C23  1  0.51770000  0.10990000  0.30210000  1.0 0.5427096831
C  C24  1  0.50640000  0.05240000  0.40460000  1.0 -0.0224228511
C  C25  1  0.50840000  0.96500000  0.43820000  1.0 -0.1590346657
C  C26  1  0.49830000  0.08830000  0.46700000  1.0 -0.1283042552
C  C27  1  0.42127000  0.25453000  0.92877000  1.0 0.5427096831
C  C28  1  0.37500000  0.29540000  0.83600000  1.0 -0.0081559858
C  C29  1  0.38060000  0.29240000  0.75130000  1.0 -0.1110028876
C  C30  1  0.32820000  0.33720000  0.83460000  1.0 -0.1170912153
C  C31  1  0.87710000  0.33290000  0.62570000  1.0 0.127986298
C  C32  1  0.75430000  0.31130000  0.50090000  1.0 -0.1866177833
C  C33  1  0.75700000  0.22700000  0.52080000  1.0 -0.1283042552
C  C34  1  0.45760000  0.70740000  0.42930000  1.0 0.1012970395
C  C35  1  0.38910000  0.72690000  0.28110000  1.0 -0.0419767006
C  C36  1  0.49590000  0.80870000  0.29020000  1.0 -0.1170912153
C  C37  1  0.65100000  0.86860000  0.43010000  1.0 0.2047596769
C  C38  1  0.71000000  0.98240000  0.40060000  1.0 -0.2914446546
C  C39  1  0.81680000  0.05260000  0.44580000  1.0 0.1905880766
C  C40  1  0.98340000  0.24760000  0.43640000  1.0 0.1125365297
C  C41  1  0.91490000  0.32750000  0.34680000  1.0 -0.0762740812
C  C42  1  0.83040000  0.21960000  0.35840000  1.0 -0.1590346657
C  C43  1  0.86480000  0.01100000  0.51760000  1.0 -0.222880031
C  C44  1  0.81060000  0.90200000  0.54520000  1.0 0.1503372499
C  C45  1  0.70000000  0.82640000  0.50270000  1.0 -0.2759844913
C  C46  1  0.85960000  0.84900000  0.62110000  1.0 -0.0713727819
C  C47  1  0.03400000  0.91240000  0.72160000  1.0 0.2332422444
C  C48  1  0.00060000  0.80680000  0.75530000  1.0 -0.2119419976
C  C49  1  0.07780000  0.79200000  0.81440000  1.0 -0.2341495967
C  C50  1  0.18440000  0.88080000  0.83810000  1.0 0.1503372499
C  C51  1  0.21640000  0.98620000  0.80840000  1.0 -0.259916897
C  C52  1  0.13930000  0.99990000  0.75060000  1.0 -0.1965305498
C  C53  1  0.29720000  0.82680000  0.88200000  1.0 0.1125365297
C  C54  1  0.44900000  0.94180000  0.96280000  1.0 -0.1590346657
C  C55  1  0.38860000  0.97600000  0.93200000  1.0 -0.1590346657
C  C56  1  0.10990000  0.51770000  0.19790000  1.0 0.5427096831
C  C57  1  0.05240000  0.50640000  0.09540000  1.0 -0.0224228511
C  C58  1  0.96500000  0.50840000  0.06180000  1.0 -0.1590346657
C  C59  1  0.08830000  0.49830000  0.03300000  1.0 -0.1283042552
C  C60  1  0.25453000  0.42127000  0.57123000  1.0 0.5427096831
C  C61  1  0.29540000  0.37500000  0.66400000  1.0 -0.0081559858
C  C62  1  0.29240000  0.38060000  0.74870000  1.0 -0.1110028876
C  C63  1  0.33720000  0.32820000  0.66540000  1.0 -0.1170912153
C  C64  1  0.33290000  0.87710000  0.87430000  1.0 0.120277625
C  C65  1  0.31130000  0.75430000  0.99910000  1.0 -0.1866177833
C  C66  1  0.22700000  0.75700000  0.97920000  1.0 -0.1283042552
C  C67  1  0.29260000  0.54240000  0.92930000  1.0 0.1012970395
C  C68  1  0.27310000  0.61090000  0.78110000  1.0 -0.0419767006
C  C69  1  0.19130000  0.50410000  0.79020000  1.0 -0.1170912153
C  C70  1  0.13140000  0.34900000  0.93010000  1.0 0.2057501571
C  C71  1  0.01760000  0.29000000  0.90060000  1.0 -0.2914446546
C  C72  1  0.94740000  0.18320000  0.94580000  1.0 0.1905880766
C  C73  1  0.75240000  0.01660000  0.93640000  1.0 0.1125365297
C  C74  1  0.67250000  0.08510000  0.84680000  1.0 -0.0762740812
C  C75  1  0.78040000  0.16960000  0.85840000  1.0 -0.1590346657
C  C76  1  0.98900000  0.13520000  0.01760000  1.0 -0.222880031
C  C77  1  0.09800000  0.18940000  0.04520000  1.0 0.1503372499
C  C78  1  0.17360000  0.30000000  0.00270000  1.0 -0.2759844913
C  C79  1  0.15100000  0.14040000  0.12110000  1.0 -0.0713727819
C  C80  1  0.08760000  0.96600000  0.22160000  1.0 0.2332422444
C  C81  1  0.19320000  0.99940000  0.25530000  1.0 -0.2119419976
C  C82  1  0.20800000  0.92220000  0.31440000  1.0 -0.2341495967
C  C83  1  0.11920000  0.81560000  0.33810000  1.0 0.1503372499
C  C84  1  0.01380000  0.78360000  0.30840000  1.0 -0.259916897
C  C85  1  0.00010000  0.86070000  0.25060000  1.0 -0.1965305498
C  C86  1  0.17320000  0.70280000  0.38200000  1.0 0.1125365297
C  C87  1  0.05820000  0.55100000  0.46280000  1.0 -0.1590346657
C  C88  1  0.02400000  0.61140000  0.43200000  1.0 -0.1590346657
C  C89  1  0.48230000  0.89010000  0.69790000  1.0 0.5427096831
C  C90  1  0.49360000  0.94760000  0.59540000  1.0 -0.0224228511
C  C91  1  0.49160000  0.03500000  0.56180000  1.0 -0.1590346657
C  C92  1  0.50170000  0.91170000  0.53300000  1.0 -0.1283042552
C  C93  1  0.57873000  0.74547000  0.07123000  1.0 0.5427096831
C  C94  1  0.62500000  0.70460000  0.16400000  1.0 -0.0081559858
C  C95  1  0.61940000  0.70760000  0.24870000  1.0 -0.1110028876
C  C96  1  0.67180000  0.66280000  0.16540000  1.0 -0.1170912153
C  C97  1  0.12290000  0.66710000  0.37430000  1.0 0.120277625
C  C98  1  0.24570000  0.68870000  0.49910000  1.0 -0.1866177833
C  C99  1  0.24300000  0.77300000  0.47920000  1.0 -0.1283042552
C  C100  1  0.54240000  0.29260000  0.57070000  1.0 0.1012970395
C  C101  1  0.61090000  0.27310000  0.71890000  1.0 -0.0419767006
C  C102  1  0.50410000  0.19130000  0.70980000  1.0 -0.1170912153
C  C103  1  0.34900000  0.13140000  0.56990000  1.0 0.2047596769
C  C104  1  0.29000000  0.01760000  0.59940000  1.0 -0.2914446546
C  C105  1  0.18320000  0.94740000  0.55420000  1.0 0.1905880766
C  C106  1  0.01660000  0.75240000  0.56360000  1.0 0.1125365297
C  C107  1  0.08510000  0.67250000  0.65320000  1.0 -0.0762740812
C  C108  1  0.16960000  0.78040000  0.64160000  1.0 -0.1590346657
C  C109  1  0.13520000  0.98900000  0.48240000  1.0 -0.222880031
C  C110  1  0.18940000  0.09800000  0.45480000  1.0 0.1503372499
C  C111  1  0.30000000  0.17360000  0.49730000  1.0 -0.2759844913
C  C112  1  0.14040000  0.15100000  0.37890000  1.0 -0.0713727819
C  C113  1  0.96600000  0.08760000  0.27840000  1.0 0.2332422444
C  C114  1  0.99940000  0.19320000  0.24470000  1.0 -0.2119419976
C  C115  1  0.92220000  0.20800000  0.18560000  1.0 -0.2341495967
C  C116  1  0.81560000  0.11920000  0.16190000  1.0 0.1503372499
C  C117  1  0.78360000  0.01380000  0.19160000  1.0 -0.259916897
C  C118  1  0.86070000  0.00010000  0.24940000  1.0 -0.1965305498
C  C119  1  0.70280000  0.17320000  0.11800000  1.0 0.1125365297
C  C120  1  0.55100000  0.05820000  0.03720000  1.0 -0.1590346657
C  C121  1  0.61140000  0.02400000  0.06800000  1.0 -0.1590346657
C  C122  1  0.89010000  0.48230000  0.80210000  1.0 0.5427096831
C  C123  1  0.94760000  0.49360000  0.90460000  1.0 -0.0224228511
C  C124  1  0.03500000  0.49160000  0.93820000  1.0 -0.1590346657
C  C125  1  0.91170000  0.50170000  0.96700000  1.0 -0.1283042552
C  C126  1  0.74547000  0.57873000  0.42877000  1.0 0.5427096831
C  C127  1  0.70460000  0.62500000  0.33600000  1.0 -0.0081559858
C  C128  1  0.70760000  0.61940000  0.25130000  1.0 -0.1110028876
C  C129  1  0.66280000  0.67180000  0.33460000  1.0 -0.1170912153
C  C130  1  0.66710000  0.12290000  0.12570000  1.0 0.120277625
C  C131  1  0.68870000  0.24570000  0.00090000  1.0 -0.1866177833
C  C132  1  0.77300000  0.24300000  0.02080000  1.0 -0.1283042552
N  N1  1  0.66050000  0.36250000  0.13110000  1.0 -0.2712196513
N  N2  1  0.79850000  0.54090000  0.11450000  1.0 0.0013235623
N  N3  1  0.16810000  0.87430000  0.08450000  1.0 0.0013235623
N  N4  1  0.34570000  0.01050000  0.10410000  1.0 -0.297873105
N  N5  1  0.89830000  0.28930000  0.61600000  1.0 0.0696494551
N  N6  1  0.83670000  0.38270000  0.56830000  1.0 -0.1804851229
N  N7  1  0.83200000  0.24020000  0.59990000  1.0 0.0920565072
N  N8  1  0.36250000  0.66050000  0.36890000  1.0 -0.2712196513
N  N9  1  0.54090000  0.79850000  0.38550000  1.0 0.0013235623
N  N10  1  0.87430000  0.16810000  0.41550000  1.0 0.0013235623
N  N11  1  0.01050000  0.34570000  0.39590000  1.0 -0.297873105
N  N12  1  0.28930000  0.89830000  0.88400000  1.0 0.0696494551
N  N13  1  0.38270000  0.83670000  0.93170000  1.0 -0.1804851229
N  N14  1  0.24020000  0.83200000  0.90010000  1.0 0.0920565072
N  N15  1  0.33950000  0.63750000  0.86890000  1.0 -0.2712196513
N  N16  1  0.20150000  0.45910000  0.88550000  1.0 0.0013235623
N  N17  1  0.83190000  0.12570000  0.91550000  1.0 0.0013235623
N  N18  1  0.65430000  0.98950000  0.89590000  1.0 -0.297873105
N  N19  1  0.10170000  0.71070000  0.38400000  1.0 0.0696494551
N  N20  1  0.16330000  0.61730000  0.43170000  1.0 -0.1804851229
N  N21  1  0.16800000  0.75980000  0.40010000  1.0 0.0920565072
N  N22  1  0.63750000  0.33950000  0.63110000  1.0 -0.2712196513
N  N23  1  0.45910000  0.20150000  0.61450000  1.0 0.0013235623
N  N24  1  0.12570000  0.83190000  0.58450000  1.0 0.0013235623
N  N25  1  0.98950000  0.65430000  0.60410000  1.0 -0.297873105
N  N26  1  0.71070000  0.10170000  0.11600000  1.0 0.0696494551
N  N27  1  0.61730000  0.16330000  0.06830000  1.0 -0.1804851229
N  N28  1  0.75980000  0.16800000  0.09990000  1.0 0.0920565072
O  O1  1  0.93480000  0.96620000  0.84010000  1.0 -0.1804851229
O  O2  1  0.48120000  0.16300000  0.26280000  1.0 -0.5429304792
O  O3  1  0.55940000  0.10020000  0.25910000  1.0 -0.5770114018
O  O4  1  0.47610000  0.23050000  0.92710000  1.0 -0.5584441675
O  O5  1  0.40410000  0.24530000  0.00690000  1.0 -0.5584441675
O  O6  1  0.96620000  0.93480000  0.65990000  1.0 -0.1804851229
O  O7  1  0.16300000  0.48120000  0.23720000  1.0 -0.5429304792
O  O8  1  0.10020000  0.55940000  0.24090000  1.0 -0.5770114018
O  O9  1  0.23050000  0.47610000  0.57290000  1.0 -0.5584441675
O  O10  1  0.24530000  0.40410000  0.49310000  1.0 -0.5584441675
O  O11  1  0.06520000  0.03380000  0.15990000  1.0 -0.1804851229
O  O12  1  0.51880000  0.83700000  0.73720000  1.0 -0.5429304792
O  O13  1  0.44060000  0.89980000  0.74090000  1.0 -0.5770114018
O  O14  1  0.52390000  0.76950000  0.07290000  1.0 -0.5584441675
O  O15  1  0.59590000  0.75470000  0.99310000  1.0 -0.5584441675
O  O16  1  0.03380000  0.06520000  0.34010000  1.0 -0.1804851229
O  O17  1  0.83700000  0.51880000  0.76280000  1.0 -0.5429304792
O  O18  1  0.89980000  0.44060000  0.75910000  1.0 -0.5770114018
O  O19  1  0.76950000  0.52390000  0.42710000  1.0 -0.5584441675
O  O20  1  0.75470000  0.59590000  0.50690000  1.0 -0.5584441675
