# DDEC6 charges by PACMAN v1.1 (https://github.com/mtap-research/PACMAN-charge/)
data_SIYKIX_FSR_pacman
_symmetry_space_group_name_H-M   'P 1'
_cell_length_a   7.30960000
_cell_length_b   16.90310000
_cell_length_c   14.26700000
_cell_angle_alpha   90.00000000
_cell_angle_beta   103.52900000
_cell_angle_gamma   90.00000000
_symmetry_Int_Tables_number   1
_chemical_formula_structural   CoH9C14N3O7
_chemical_formula_sum   'Co4 H36 C56 N12 O28'
_cell_volume   1713.84411552
_cell_formula_units_Z   4
loop_
 _symmetry_equiv_pos_site_id
 _symmetry_equiv_pos_as_xyz
  1  'x, y, z'
loop_
 _atom_site_type_symbol
 _atom_site_label
 _atom_site_symmetry_multiplicity
 _atom_site_fract_x
 _atom_site_fract_y
 _atom_site_fract_z
 _atom_site_occupancy
 _atom_site_charge
Co  Co1  1  0.81193000  0.06742000  0.11676000  1.0 0.9425549761
Co  Co2  1  0.68807000  0.56742000  0.88324000  1.0 0.9425549761
Co  Co3  1  0.18807000  0.93258000  0.88324000  1.0 0.9425549761
Co  Co4  1  0.31193000  0.43258000  0.11676000  1.0 0.9425549761
H  H1  1  0.33547000  0.16342000  0.59567000  1.0 0.2910854437
H  H2  1  0.14654000  0.15390000  0.47142000  1.0 0.2910854437
H  H3  1  0.50232000  0.12938000  0.73610000  1.0 0.1374435902
H  H4  1  0.82734000  0.35500000  0.21488000  1.0 0.1374435902
H  H5  1  0.44212000  0.36095000  0.67353000  1.0 0.130219506
H  H6  1  0.74900000  0.28800000  0.94300000  1.0 0.130219506
H  H7  1  0.73600000  0.24300000  0.11800000  1.0 0.111845623
H  H8  1  0.02600000  0.33900000  0.37300000  1.0 0.130219506
H  H9  1  0.01200000  0.10500000  0.33300000  1.0 0.1221226856
H  H10  1  0.16453000  0.66342000  0.40433000  1.0 0.2910854437
H  H11  1  0.35346000  0.65390000  0.52858000  1.0 0.2910854437
H  H12  1  0.99768000  0.62938000  0.26390000  1.0 0.1374435902
H  H13  1  0.67266000  0.85500000  0.78512000  1.0 0.1374435902
H  H14  1  0.05788000  0.86095000  0.32647000  1.0 0.130219506
H  H15  1  0.75100000  0.78800000  0.05700000  1.0 0.130219506
H  H16  1  0.76400000  0.74300000  0.88200000  1.0 0.111845623
H  H17  1  0.47400000  0.83900000  0.62700000  1.0 0.130219506
H  H18  1  0.48800000  0.60500000  0.66700000  1.0 0.1221226856
H  H19  1  0.66453000  0.83658000  0.40433000  1.0 0.2910854437
H  H20  1  0.85346000  0.84610000  0.52858000  1.0 0.2910854437
H  H21  1  0.49768000  0.87062000  0.26390000  1.0 0.1374435902
H  H22  1  0.17266000  0.64500000  0.78512000  1.0 0.1374435902
H  H23  1  0.55788000  0.63905000  0.32647000  1.0 0.130219506
H  H24  1  0.25100000  0.71200000  0.05700000  1.0 0.130219506
H  H25  1  0.26400000  0.75700000  0.88200000  1.0 0.111845623
H  H26  1  0.97400000  0.66100000  0.62700000  1.0 0.130219506
H  H27  1  0.98800000  0.89500000  0.66700000  1.0 0.1221226856
H  H28  1  0.83547000  0.33658000  0.59567000  1.0 0.2910854437
H  H29  1  0.64654000  0.34610000  0.47142000  1.0 0.2910854437
H  H30  1  0.00232000  0.37062000  0.73610000  1.0 0.1374435902
H  H31  1  0.32734000  0.14500000  0.21488000  1.0 0.1374435902
H  H32  1  0.94212000  0.13905000  0.67353000  1.0 0.130219506
H  H33  1  0.24900000  0.21200000  0.94300000  1.0 0.130219506
H  H34  1  0.23600000  0.25700000  0.11800000  1.0 0.111845623
H  H35  1  0.52600000  0.16100000  0.37300000  1.0 0.130219506
H  H36  1  0.51200000  0.39500000  0.33300000  1.0 0.1221226856
C  C1  1  0.66590000  0.27730000  0.87460000  1.0 -0.1283334054
C  C2  1  0.81170000  0.23950000  0.18110000  1.0 0.0405632903
C  C3  1  0.62950000  0.19850000  0.84620000  1.0 0.0028777064
C  C4  1  0.69860000  0.13060000  0.91340000  1.0 0.521661441
C  C5  1  0.23730000  0.25420000  0.52460000  1.0 0.6112666682
C  C6  1  0.52410000  0.18190000  0.75480000  1.0 -0.2273597538
C  C7  1  0.59780000  0.33690000  0.80910000  1.0 0.0028777064
C  C8  1  0.44960000  0.24150000  0.68960000  1.0 0.2190804921
C  C9  1  0.86550000  0.30490000  0.23860000  1.0 -0.1375537708
C  C10  1  0.48810000  0.32020000  0.71630000  1.0 -0.2273597538
C  C11  1  0.97610000  0.29700000  0.33170000  1.0 -0.1598476886
C  C12  1  0.64440000  0.42120000  0.83970000  1.0 0.4965708361
C  C13  1  0.02760000  0.22070000  0.36400000  1.0 0.1830628321
C  C14  1  0.96860000  0.15730000  0.30220000  1.0 -0.0810474202
C  C15  1  0.83410000  0.77730000  0.12540000  1.0 -0.1283334054
C  C16  1  0.68830000  0.73950000  0.81890000  1.0 0.0405632903
C  C17  1  0.87050000  0.69850000  0.15380000  1.0 0.0028777064
C  C18  1  0.80140000  0.63060000  0.08660000  1.0 0.521661441
C  C19  1  0.26270000  0.75420000  0.47540000  1.0 0.6112666682
C  C20  1  0.97590000  0.68190000  0.24520000  1.0 -0.2273597538
C  C21  1  0.90220000  0.83690000  0.19090000  1.0 0.005653619
C  C22  1  0.05040000  0.74150000  0.31040000  1.0 0.2190804921
C  C23  1  0.63450000  0.80490000  0.76140000  1.0 -0.1375537708
C  C24  1  0.01190000  0.82020000  0.28370000  1.0 -0.2273597538
C  C25  1  0.52390000  0.79700000  0.66830000  1.0 -0.1598476886
C  C26  1  0.85560000  0.92120000  0.16030000  1.0 0.4965708361
C  C27  1  0.47240000  0.72070000  0.63600000  1.0 0.1830628321
C  C28  1  0.53140000  0.65730000  0.69780000  1.0 -0.0810474202
C  C29  1  0.33410000  0.72270000  0.12540000  1.0 -0.1283334054
C  C30  1  0.18830000  0.76050000  0.81890000  1.0 0.0405632903
C  C31  1  0.37050000  0.80150000  0.15380000  1.0 0.0028777064
C  C32  1  0.30140000  0.86940000  0.08660000  1.0 0.521661441
C  C33  1  0.76270000  0.74580000  0.47540000  1.0 0.6112666682
C  C34  1  0.47590000  0.81810000  0.24520000  1.0 -0.2273597538
C  C35  1  0.40220000  0.66310000  0.19090000  1.0 0.0028777064
C  C36  1  0.55040000  0.75850000  0.31040000  1.0 0.2190804921
C  C37  1  0.13450000  0.69510000  0.76140000  1.0 -0.1375537708
C  C38  1  0.51190000  0.67980000  0.28370000  1.0 -0.2273597538
C  C39  1  0.02390000  0.70300000  0.66830000  1.0 -0.1598476886
C  C40  1  0.35560000  0.57880000  0.16030000  1.0 0.4965708361
C  C41  1  0.97240000  0.77930000  0.63600000  1.0 0.1830628321
C  C42  1  0.03140000  0.84270000  0.69780000  1.0 -0.0810474202
C  C43  1  0.16590000  0.22270000  0.87460000  1.0 -0.1283334054
C  C44  1  0.31170000  0.26050000  0.18110000  1.0 0.0405632903
C  C45  1  0.12950000  0.30150000  0.84620000  1.0 0.0028777064
C  C46  1  0.19860000  0.36940000  0.91340000  1.0 0.521661441
C  C47  1  0.73730000  0.24580000  0.52460000  1.0 0.6112666682
C  C48  1  0.02410000  0.31810000  0.75480000  1.0 -0.2273597538
C  C49  1  0.09780000  0.16310000  0.80910000  1.0 0.0028777064
C  C50  1  0.94960000  0.25850000  0.68960000  1.0 0.2190804921
C  C51  1  0.36550000  0.19510000  0.23860000  1.0 -0.1375537708
C  C52  1  0.98810000  0.17980000  0.71630000  1.0 -0.2273597538
C  C53  1  0.47610000  0.20300000  0.33170000  1.0 -0.1598476886
C  C54  1  0.14440000  0.07880000  0.83970000  1.0 0.4965708361
C  C55  1  0.52760000  0.27930000  0.36400000  1.0 0.1830628321
C  C56  1  0.46860000  0.34270000  0.30220000  1.0 -0.0810474202
N  N1  1  0.86380000  0.16570000  0.21160000  1.0 -0.2630707666
N  N2  1  0.33920000  0.21410000  0.60170000  1.0 -0.3918990835
N  N3  1  0.13890000  0.20320000  0.45600000  1.0 -0.4074854746
N  N4  1  0.63620000  0.66570000  0.78840000  1.0 -0.2630707666
N  N5  1  0.16080000  0.71410000  0.39830000  1.0 -0.3918990835
N  N6  1  0.36110000  0.70320000  0.54400000  1.0 -0.4074854746
N  N7  1  0.13620000  0.83430000  0.78840000  1.0 -0.2630707666
N  N8  1  0.66080000  0.78590000  0.39830000  1.0 -0.3918990835
N  N9  1  0.86110000  0.79680000  0.54400000  1.0 -0.4074854746
N  N10  1  0.36380000  0.33430000  0.21160000  1.0 -0.2630707666
N  N11  1  0.83920000  0.28590000  0.60170000  1.0 -0.3918990835
N  N12  1  0.63890000  0.29680000  0.45600000  1.0 -0.4074854746
O  O1  1  0.52310000  0.06150000  0.09840000  1.0 -0.0478448856
O  O2  1  0.08040000  0.06280000  0.09430000  1.0 0.0028777064
O  O3  1  0.70970000  0.43693000  0.92760000  1.0 -0.4299572453
O  O4  1  0.75450000  0.14593000  0.00170000  1.0 -0.5555855378
O  O5  1  0.69210000  0.06222000  0.87640000  1.0 -0.3837823316
O  O6  1  0.61670000  0.47621000  0.77690000  1.0 -0.5688820526
O  O7  1  0.23580000  0.32590000  0.51530000  1.0 -0.4932866215
O  O8  1  0.97690000  0.56150000  0.90160000  1.0 -0.0478448856
O  O9  1  0.41960000  0.56280000  0.90570000  1.0 -0.0023131212
O  O10  1  0.79030000  0.93693000  0.07240000  1.0 -0.4299572453
O  O11  1  0.74550000  0.64593000  0.99830000  1.0 -0.5536970243
O  O12  1  0.80790000  0.56222000  0.12360000  1.0 -0.3837823316
O  O13  1  0.88330000  0.97621000  0.22310000  1.0 -0.5688820526
O  O14  1  0.26420000  0.82590000  0.48470000  1.0 -0.4932866215
O  O15  1  0.47690000  0.93850000  0.90160000  1.0 -0.0478448856
O  O16  1  0.91960000  0.93720000  0.90570000  1.0 -0.0023131212
O  O17  1  0.29030000  0.56307000  0.07240000  1.0 -0.4299572453
O  O18  1  0.24550000  0.85407000  0.99830000  1.0 -0.5536970243
O  O19  1  0.30790000  0.93778000  0.12360000  1.0 -0.3837823316
O  O20  1  0.38330000  0.52379000  0.22310000  1.0 -0.5688820526
O  O21  1  0.76420000  0.67410000  0.48470000  1.0 -0.4932866215
O  O22  1  0.02310000  0.43850000  0.09840000  1.0 -0.0478448856
O  O23  1  0.58040000  0.43720000  0.09430000  1.0 -0.0023131212
O  O24  1  0.20970000  0.06307000  0.92760000  1.0 -0.4299572453
O  O25  1  0.25450000  0.35407000  0.00170000  1.0 -0.5536970243
O  O26  1  0.19210000  0.43778000  0.87640000  1.0 -0.3837823316
O  O27  1  0.11670000  0.02379000  0.77690000  1.0 -0.5688820526
O  O28  1  0.73580000  0.17410000  0.51530000  1.0 -0.4932866215
