# DDEC6 charges by PACMAN v1.1 (https://github.com/mtap-research/PACMAN-charge/)
data_SIZJUH_ASR_pacman
_symmetry_space_group_name_H-M   'P 1'
_cell_length_a   18.52430000
_cell_length_b   18.52430000
_cell_length_c   13.38400000
_cell_angle_alpha   70.40850000
_cell_angle_beta   109.59100000
_cell_angle_gamma   109.83100000
_symmetry_Int_Tables_number   1
_chemical_formula_structural   Na4Mo5H6C5NO22
_chemical_formula_sum   'Na16 Mo20 H24 C20 N4 O88'
_cell_volume   3941.00195440
_cell_formula_units_Z   4
loop_
 _symmetry_equiv_pos_site_id
 _symmetry_equiv_pos_as_xyz
  1  'x, y, z'
loop_
 _atom_site_type_symbol
 _atom_site_label
 _atom_site_symmetry_multiplicity
 _atom_site_fract_x
 _atom_site_fract_y
 _atom_site_fract_z
 _atom_site_occupancy
 _atom_site_charge
Na  Na1  1  0.78770000  0.14350000  0.74170000  1.0 1.0098665053
Na  Na2  1  0.14350000  0.78770000  0.75830000  1.0 1.0098665053
Na  Na3  1  0.21230000  0.85650000  0.25830000  1.0 1.0098665053
Na  Na4  1  0.85650000  0.21230000  0.24170000  1.0 1.0098665053
Na  Na5  1  0.80140000  0.26880000  0.49900000  1.0 1.1464048022
Na  Na6  1  0.26880000  0.80140000  0.00100000  1.0 1.1464048022
Na  Na7  1  0.19860000  0.73120000  0.50100000  1.0 1.1464048022
Na  Na8  1  0.73120000  0.19860000  0.99900000  1.0 1.1464048022
Na  Na9  1  0.48700000  0.77080000  0.99160000  1.0 1.05786246
Na  Na10  1  0.77080000  0.48700000  0.50840000  1.0 1.05786246
Na  Na11  1  0.51300000  0.22920000  0.00840000  1.0 1.0705214137
Na  Na12  1  0.22920000  0.51300000  0.49160000  1.0 1.0705214137
Na  Na13  1  0.37450000  0.16130000  0.73410000  1.0 0.9465226525
Na  Na14  1  0.16130000  0.37450000  0.76590000  1.0 0.9465226525
Na  Na15  1  0.62550000  0.83870000  0.26590000  1.0 0.943458944
Na  Na16  1  0.83870000  0.62550000  0.23410000  1.0 0.943458944
Mo  Mo1  1  0.56461000  0.01527000  0.62303000  1.0 2.0719981784
Mo  Mo2  1  0.01527000  0.56461000  0.87697000  1.0 2.0762520426
Mo  Mo3  1  0.43539000  0.98473000  0.37697000  1.0 2.0762520426
Mo  Mo4  1  0.98473000  0.43539000  0.12303000  1.0 2.0719981784
Mo  Mo5  1  0.76188000  0.93326000  0.90159000  1.0 1.9550190562
Mo  Mo6  1  0.93326000  0.76188000  0.59841000  1.0 1.9550190562
Mo  Mo7  1  0.23812000  0.06674000  0.09841000  1.0 1.953127324
Mo  Mo8  1  0.06674000  0.23812000  0.40159000  1.0 1.953127324
Mo  Mo9  1  0.37091000  0.03357000  0.53607000  1.0 2.147110998
Mo  Mo10  1  0.03357000  0.37091000  0.96393000  1.0 2.1391094321
Mo  Mo11  1  0.62909000  0.96643000  0.46393000  1.0 2.1391094321
Mo  Mo12  1  0.96643000  0.62909000  0.03607000  1.0 2.1391094321
Mo  Mo13  1  0.57526000  0.82586000  0.73652000  1.0 2.1987852448
Mo  Mo14  1  0.82586000  0.57526000  0.76348000  1.0 2.1987852448
Mo  Mo15  1  0.42474000  0.17414000  0.26348000  1.0 2.1987852448
Mo  Mo16  1  0.17414000  0.42474000  0.23652000  1.0 2.1987852448
Mo  Mo17  1  0.40160000  0.85940000  0.67552000  1.0 1.8191552752
Mo  Mo18  1  0.85940000  0.40160000  0.82448000  1.0 1.7981305712
Mo  Mo19  1  0.59840000  0.14060000  0.32448000  1.0 1.8103661531
Mo  Mo20  1  0.14060000  0.59840000  0.17552000  1.0 1.8103661531
H  H1  1  0.74810000  0.74970000  0.86010000  1.0 0.1597413774
H  H2  1  0.74970000  0.74810000  0.63990000  1.0 0.1597413774
H  H3  1  0.25190000  0.25030000  0.13990000  1.0 0.1597413774
H  H4  1  0.25030000  0.25190000  0.36010000  1.0 0.1597413774
H  H5  1  0.82580000  0.73740000  0.95050000  1.0 0.1597413774
H  H6  1  0.73740000  0.82580000  0.54950000  1.0 0.1597413774
H  H7  1  0.17420000  0.26260000  0.04950000  1.0 0.1597413774
H  H8  1  0.26260000  0.17420000  0.45050000  1.0 0.1597413774
H  H9  1  0.94270000  0.91710000  0.89180000  1.0 0.1750609273
H  H10  1  0.91710000  0.94270000  0.60820000  1.0 0.1750609273
H  H11  1  0.05730000  0.08290000  0.10820000  1.0 0.1750609273
H  H12  1  0.08290000  0.05730000  0.39180000  1.0 0.1750609273
H  H13  1  0.93510000  0.83070000  0.96730000  1.0 0.1597413774
H  H14  1  0.83070000  0.93510000  0.53270000  1.0 0.1597413774
H  H15  1  0.06490000  0.16930000  0.03270000  1.0 0.1597413774
H  H16  1  0.16930000  0.06490000  0.46730000  1.0 0.1597413774
H  H17  1  0.76810000  0.85450000  0.72150000  1.0 0.1234151417
H  H18  1  0.85450000  0.76810000  0.77850000  1.0 0.1234151417
H  H19  1  0.23190000  0.14550000  0.27850000  1.0 0.1234151417
H  H20  1  0.14550000  0.23190000  0.22150000  1.0 0.1234151417
H  H21  1  0.84420000  0.92500000  0.73240000  1.0 0.1389974871
H  H22  1  0.92500000  0.84420000  0.76760000  1.0 0.1389974871
H  H23  1  0.15580000  0.07500000  0.26760000  1.0 0.1389974871
H  H24  1  0.07500000  0.15580000  0.23240000  1.0 0.1389974871
C  C1  1  0.74760000  0.75700000  0.00680000  1.0 0.6461700493
C  C2  1  0.75700000  0.74760000  0.49320000  1.0 0.6461700493
C  C3  1  0.25240000  0.24300000  0.99320000  1.0 0.6461700493
C  C4  1  0.24300000  0.25240000  0.50680000  1.0 0.6461700493
C  C5  1  0.78730000  0.76890000  0.92090000  1.0 -0.2960906705
C  C6  1  0.76890000  0.78730000  0.57910000  1.0 -0.2960906705
C  C7  1  0.21270000  0.23110000  0.07910000  1.0 -0.2960906705
C  C8  1  0.23110000  0.21270000  0.42090000  1.0 -0.2960906705
C  C9  1  0.91290000  0.87610000  0.94120000  1.0 -0.2866221598
C  C10  1  0.87610000  0.91290000  0.55880000  1.0 -0.2866221598
C  C11  1  0.08710000  0.12390000  0.05880000  1.0 -0.2866221598
C  C12  1  0.12390000  0.08710000  0.44120000  1.0 -0.2866221598
C  C13  1  0.92210000  0.90610000  0.03650000  1.0 0.6326927835
C  C14  1  0.90610000  0.92210000  0.46350000  1.0 0.6326927835
C  C15  1  0.07790000  0.09390000  0.96350000  1.0 0.6326927835
C  C16  1  0.09390000  0.07790000  0.53650000  1.0 0.6326927835
C  C17  1  0.82330000  0.86870000  0.76070000  1.0 -0.1341001286
C  C18  1  0.86870000  0.82330000  0.73930000  1.0 -0.1341001286
C  C19  1  0.17670000  0.13130000  0.23930000  1.0 -0.1341001286
C  C20  1  0.13130000  0.17670000  0.26070000  1.0 -0.1341001286
N  N1  1  0.82819000  0.85261000  0.87960000  1.0 -0.1028366802
N  N2  1  0.85261000  0.82819000  0.62040000  1.0 -0.1028366802
N  N3  1  0.17181000  0.14739000  0.12040000  1.0 -0.1028366802
N  N4  1  0.14739000  0.17181000  0.37960000  1.0 -0.1028366802
O  O1  1  0.72830000  0.68990000  0.06530000  1.0 -0.4000458723
O  O2  1  0.68990000  0.72830000  0.43470000  1.0 -0.4000458723
O  O3  1  0.27170000  0.31010000  0.93470000  1.0 -0.4000458723
O  O4  1  0.31010000  0.27170000  0.56530000  1.0 -0.4000458723
O  O5  1  0.50645000  0.07495000  0.61680000  1.0 -0.6824758432
O  O6  1  0.07495000  0.50645000  0.88320000  1.0 -0.6824758432
O  O7  1  0.49355000  0.92505000  0.38320000  1.0 -0.6824758432
O  O8  1  0.92505000  0.49355000  0.11680000  1.0 -0.6824758432
O  O9  1  0.65760000  0.06040000  0.68530000  1.0 -0.6265224671
O  O10  1  0.06040000  0.65760000  0.81470000  1.0 -0.6265224671
O  O11  1  0.34240000  0.93960000  0.31470000  1.0 -0.6265224671
O  O12  1  0.93960000  0.34240000  0.18530000  1.0 -0.6232036954
O  O13  1  0.67940000  0.89200000  0.80000000  1.0 -0.8253192113
O  O14  1  0.89200000  0.67940000  0.70000000  1.0 -0.8245047337
O  O15  1  0.32060000  0.10800000  0.20000000  1.0 -0.8253192113
O  O16  1  0.10800000  0.32060000  0.30000000  1.0 -0.8253192113
O  O17  1  0.56140000  0.77140000  0.86310000  1.0 -0.6824758432
O  O18  1  0.77140000  0.56140000  0.63690000  1.0 -0.6824758432
O  O19  1  0.43860000  0.22860000  0.13690000  1.0 -0.6824758432
O  O20  1  0.22860000  0.43860000  0.36310000  1.0 -0.6824758432
O  O21  1  0.53107000  0.92553000  0.73240000  1.0 -0.9440233713
O  O22  1  0.92553000  0.53107000  0.76760000  1.0 -0.9440233713
O  O23  1  0.46893000  0.07447000  0.26760000  1.0 -0.945954681
O  O24  1  0.07447000  0.46893000  0.23240000  1.0 -0.945954681
O  O25  1  0.43328000  0.95114000  0.52960000  1.0 -1.0220370895
O  O26  1  0.95114000  0.43328000  0.97040000  1.0 -1.0220370895
O  O27  1  0.56672000  0.04886000  0.47040000  1.0 -1.0220370895
O  O28  1  0.04886000  0.56672000  0.02960000  1.0 -1.0220370895
O  O29  1  0.81442000  0.01198000  0.82380000  1.0 -0.6265224671
O  O30  1  0.01198000  0.81442000  0.67620000  1.0 -0.6232036954
O  O31  1  0.18558000  0.98802000  0.17620000  1.0 -0.6232036954
O  O32  1  0.98802000  0.18558000  0.32380000  1.0 -0.6232036954
O  O33  1  0.39910000  0.81290000  0.80940000  1.0 -0.6417334086
O  O34  1  0.81290000  0.39910000  0.69060000  1.0 -0.6417334086
O  O35  1  0.60090000  0.18710000  0.19060000  1.0 -0.6417334086
O  O36  1  0.18710000  0.60090000  0.30940000  1.0 -0.6417334086
O  O37  1  0.59284000  0.92296000  0.59300000  1.0 -0.9590772695
O  O38  1  0.92296000  0.59284000  0.90700000  1.0 -0.9590772695
O  O39  1  0.40716000  0.07704000  0.40700000  1.0 -0.9590772695
O  O40  1  0.07704000  0.40716000  0.09300000  1.0 -0.9590772695
O  O41  1  0.86461000  0.93259000  0.03300000  1.0 -0.5752540237
O  O42  1  0.93259000  0.86461000  0.46700000  1.0 -0.5736295587
O  O43  1  0.13539000  0.06741000  0.96700000  1.0 -0.5752540237
O  O44  1  0.06741000  0.13539000  0.53300000  1.0 -0.5736295587
O  O45  1  0.46541000  0.80379000  0.65640000  1.0 -0.8517621836
O  O46  1  0.80379000  0.46541000  0.84360000  1.0 -0.8517621836
O  O47  1  0.53459000  0.19621000  0.34360000  1.0 -0.8517621836
O  O48  1  0.19621000  0.53459000  0.15640000  1.0 -0.8517621836
O  O49  1  0.31320000  0.81680000  0.59970000  1.0 -0.5164303786
O  O50  1  0.81680000  0.31320000  0.90030000  1.0 -0.5164303786
O  O51  1  0.68680000  0.18320000  0.40030000  1.0 -0.5164303786
O  O52  1  0.18320000  0.68680000  0.09970000  1.0 -0.5164303786
O  O53  1  0.38049000  0.95491000  0.67540000  1.0 -0.8517621836
O  O54  1  0.95491000  0.38049000  0.82460000  1.0 -0.8517621836
O  O55  1  0.61951000  0.04509000  0.32460000  1.0 -0.8517621836
O  O56  1  0.04509000  0.61951000  0.17540000  1.0 -0.8517621836
O  O57  1  0.36744000  0.11376000  0.56970000  1.0 -0.7466680712
O  O58  1  0.11376000  0.36744000  0.93030000  1.0 -0.7466680712
O  O59  1  0.63256000  0.88624000  0.43030000  1.0 -0.7466680712
O  O60  1  0.88624000  0.63256000  0.06970000  1.0 -0.7466680712
O  O61  1  0.98270000  0.90810000  0.10960000  1.0 -0.4244347817
O  O62  1  0.90810000  0.98270000  0.39040000  1.0 -0.4265644556
O  O63  1  0.01730000  0.09190000  0.89040000  1.0 -0.4265644556
O  O64  1  0.09190000  0.01730000  0.60960000  1.0 -0.4265644556
O  O65  1  0.73394000  0.81806000  0.01460000  1.0 -0.4968380338
O  O66  1  0.81806000  0.73394000  0.48540000  1.0 -0.4968380338
O  O67  1  0.26606000  0.18194000  0.98540000  1.0 -0.4968380338
O  O68  1  0.18194000  0.26606000  0.51460000  1.0 -0.4968380338
O  O69  1  0.82670000  0.13570000  0.60120000  1.0 -0.6417334086
O  O70  1  0.13570000  0.82670000  0.89880000  1.0 -0.6468179232
O  O71  1  0.17330000  0.86430000  0.39880000  1.0 -0.6586557037
O  O72  1  0.86430000  0.17330000  0.10120000  1.0 -0.6586557037
O  O73  1  0.73880000  0.25240000  0.62950000  1.0 -0.6895713216
O  O74  1  0.25240000  0.73880000  0.87050000  1.0 -0.7009891874
O  O75  1  0.26120000  0.74760000  0.37050000  1.0 -0.7009891874
O  O76  1  0.74760000  0.26120000  0.12950000  1.0 -0.6895713216
O  O77  1  0.73660000  0.13600000  0.88930000  1.0 -0.8690551823
O  O78  1  0.13600000  0.73660000  0.61070000  1.0 -0.8690551823
O  O79  1  0.26340000  0.86400000  0.11070000  1.0 -0.8752822286
O  O80  1  0.86400000  0.26340000  0.38930000  1.0 -0.8865555531
O  O81  1  0.76360000  0.39300000  0.40300000  1.0 -0.5994111603
O  O82  1  0.39300000  0.76360000  0.09700000  1.0 -0.6070500022
O  O83  1  0.23640000  0.60700000  0.59700000  1.0 -0.5994111603
O  O84  1  0.60700000  0.23640000  0.90300000  1.0 -0.6070500022
O  O85  1  0.60810000  0.78290000  0.11600000  1.0 -1.0106708413
O  O86  1  0.78290000  0.60810000  0.38400000  1.0 -1.0348089343
O  O87  1  0.39190000  0.21710000  0.88400000  1.0 -1.0220370895
O  O88  1  0.21710000  0.39190000  0.61600000  1.0 -1.0220370895
