# DDEC6 charges by PACMAN v1.1 (https://github.com/mtap-research/PACMAN-charge/)
data_SOBTUY_ASR_pacman
_symmetry_space_group_name_H-M   'P 1'
_cell_length_a   19.17070000
_cell_length_b   19.17070000
_cell_length_c   9.36100000
_cell_angle_alpha   80.54980000
_cell_angle_beta   99.45020000
_cell_angle_gamma   51.04490000
_symmetry_Int_Tables_number   1
_chemical_formula_structural   Cd2Pd(C5N)8
_chemical_formula_sum   'Cd4 Pd2 C80 N16'
_cell_volume   2473.45760521
_cell_formula_units_Z   2
loop_
 _symmetry_equiv_pos_site_id
 _symmetry_equiv_pos_as_xyz
  1  'x, y, z'
loop_
 _atom_site_type_symbol
 _atom_site_label
 _atom_site_symmetry_multiplicity
 _atom_site_fract_x
 _atom_site_fract_y
 _atom_site_fract_z
 _atom_site_occupancy
 _atom_site_charge
Cd  Cd1  1  0.35160000  0.35160000  0.25000000  1.0 0.8124538749
Cd  Cd2  1  0.64840000  0.64840000  0.75000000  1.0 0.7907930106
Cd  Cd3  1  0.00000000  0.50000000  0.50000000  1.0 0.7595763892
Cd  Cd4  1  0.50000000  0.00000000  0.00000000  1.0 0.7907930106
Pd  Pd1  1  0.00000000  0.00000000  0.00000000  1.0 0.310316512
Pd  Pd2  1  0.00000000  0.00000000  0.50000000  1.0 0.310316512
C  C1  1  0.18300000  0.83700000  0.27100000  1.0 0.1318550325
C  C2  1  0.83700000  0.18300000  0.22900000  1.0 0.1318550325
C  C3  1  0.81700000  0.16300000  0.72900000  1.0 0.1318550325
C  C4  1  0.16300000  0.81700000  0.77100000  1.0 0.1318550325
C  C5  1  0.21900000  0.87500000  0.27700000  1.0 -0.0693346281
C  C6  1  0.87500000  0.21900000  0.22300000  1.0 -0.0693346281
C  C7  1  0.78100000  0.12500000  0.72300000  1.0 -0.0693346281
C  C8  1  0.12500000  0.78100000  0.77700000  1.0 -0.0693346281
C  C9  1  0.17600000  0.96600000  0.17900000  1.0 0.1318550325
C  C10  1  0.96600000  0.17600000  0.32100000  1.0 0.1318550325
C  C11  1  0.82400000  0.03400000  0.82100000  1.0 0.1318550325
C  C12  1  0.03400000  0.82400000  0.67900000  1.0 0.1318550325
C  C13  1  0.20800000  0.01600000  0.19200000  1.0 -0.128558353
C  C14  1  0.01600000  0.20800000  0.30800000  1.0 -0.128558353
C  C15  1  0.79200000  0.98400000  0.80800000  1.0 -0.128558353
C  C16  1  0.98400000  0.79200000  0.69200000  1.0 -0.128558353
C  C17  1  0.14400000  0.10400000  0.06900000  1.0 -0.0693346281
C  C18  1  0.10400000  0.14400000  0.43100000  1.0 -0.0693346281
C  C19  1  0.85600000  0.89600000  0.93100000  1.0 -0.0693346281
C  C20  1  0.89600000  0.85600000  0.56900000  1.0 -0.0693346281
C  C21  1  0.06600000  0.10800000  0.00600000  1.0 0.1701629772
C  C22  1  0.10800000  0.06600000  0.49400000  1.0 0.1701629772
C  C23  1  0.93400000  0.89200000  0.99400000  1.0 0.1701629772
C  C24  1  0.89200000  0.93400000  0.50600000  1.0 0.1701629772
C  C25  1  0.99000000  0.17800000  0.84900000  1.0 -0.0626675891
C  C26  1  0.17800000  0.99000000  0.65100000  1.0 -0.0626675891
C  C27  1  0.01000000  0.82200000  0.15100000  1.0 -0.0626675891
C  C28  1  0.82200000  0.01000000  0.34900000  1.0 -0.0626675891
C  C29  1  0.08700000  0.80900000  0.21500000  1.0 0.1588759734
C  C30  1  0.80900000  0.08700000  0.28500000  1.0 0.1588759734
C  C31  1  0.91300000  0.19100000  0.78500000  1.0 0.1588759734
C  C32  1  0.19100000  0.91300000  0.71500000  1.0 0.1588759734
C  C33  1  0.17100000  0.72700000  0.35200000  1.0 -0.0693346281
C  C34  1  0.72700000  0.17100000  0.14800000  1.0 -0.0693346281
C  C35  1  0.82900000  0.27300000  0.64800000  1.0 -0.0693346281
C  C36  1  0.27300000  0.82900000  0.85200000  1.0 -0.0763105847
C  C37  1  0.22800000  0.73800000  0.37800000  1.0 -0.0463657551
C  C38  1  0.73800000  0.22800000  0.12200000  1.0 -0.0463657551
C  C39  1  0.77200000  0.26200000  0.62200000  1.0 -0.0463657551
C  C40  1  0.26200000  0.77200000  0.87800000  1.0 -0.0463657551
C  C41  1  0.32500000  0.81300000  0.36900000  1.0 0.1318550325
C  C42  1  0.81300000  0.32500000  0.13100000  1.0 0.1318550325
C  C43  1  0.67500000  0.18700000  0.63100000  1.0 0.1318550325
C  C44  1  0.18700000  0.67500000  0.86900000  1.0 0.1318550325
C  C45  1  0.39600000  0.79600000  0.33300000  1.0 -0.1817150437
C  C46  1  0.79600000  0.39600000  0.16700000  1.0 -0.1817150437
C  C47  1  0.60400000  0.20400000  0.66700000  1.0 -0.1817150437
C  C48  1  0.20400000  0.60400000  0.83300000  1.0 -0.1817150437
C  C49  1  0.49300000  0.74300000  0.43200000  1.0 0.1701629772
C  C50  1  0.74300000  0.49300000  0.06800000  1.0 0.1782471477
C  C51  1  0.50700000  0.25700000  0.56800000  1.0 0.1701629772
C  C52  1  0.25700000  0.50700000  0.93200000  1.0 0.1782471477
C  C53  1  0.43000000  0.72800000  0.62300000  1.0 0.1990870047
C  C54  1  0.72800000  0.43000000  0.87700000  1.0 0.1990870047
C  C55  1  0.57000000  0.27200000  0.37700000  1.0 0.1990870047
C  C56  1  0.27200000  0.57000000  0.12300000  1.0 0.1990870047
C  C57  1  0.33500000  0.78300000  0.54200000  1.0 -0.3528098375
C  C58  1  0.78300000  0.33500000  0.95800000  1.0 -0.3528098375
C  C59  1  0.66500000  0.21700000  0.45800000  1.0 -0.3528098375
C  C60  1  0.21700000  0.66500000  0.04200000  1.0 -0.3528098375
C  C61  1  0.98700000  0.26100000  0.79600000  1.0 0.0837489716
C  C62  1  0.26100000  0.98700000  0.70400000  1.0 0.0837489716
C  C63  1  0.01300000  0.73900000  0.20400000  1.0 0.0837489716
C  C64  1  0.73900000  0.01300000  0.29600000  1.0 0.0837489716
C  C65  1  0.96500000  0.33300000  0.83100000  1.0 -0.1622705743
C  C66  1  0.33300000  0.96500000  0.66900000  1.0 -0.1622705743
C  C67  1  0.03500000  0.66700000  0.16900000  1.0 -0.1622705743
C  C68  1  0.66700000  0.03500000  0.33100000  1.0 -0.1622705743
C  C69  1  0.96300000  0.40500000  0.76500000  1.0 0.1353649536
C  C70  1  0.40500000  0.96300000  0.73500000  1.0 0.1353649536
C  C71  1  0.03700000  0.59500000  0.23500000  1.0 0.1353649536
C  C72  1  0.59500000  0.03700000  0.26500000  1.0 0.1318550325
C  C73  1  0.01100000  0.32700000  0.58500000  1.0 0.1990870047
C  C74  1  0.32700000  0.01100000  0.91500000  1.0 0.1990870047
C  C75  1  0.98900000  0.67300000  0.41500000  1.0 0.1990870047
C  C76  1  0.67300000  0.98900000  0.08500000  1.0 0.1990870047
C  C77  1  0.00100000  0.26300000  0.66300000  1.0 -0.1817150437
C  C78  1  0.26300000  0.00100000  0.83700000  1.0 -0.1817150437
C  C79  1  0.99900000  0.73700000  0.33700000  1.0 -0.1817150437
C  C80  1  0.73700000  0.99900000  0.16300000  1.0 -0.1817150437
N  N1  1  0.09700000  0.87100000  0.17000000  1.0 -0.2738459021
N  N2  1  0.87100000  0.09700000  0.33000000  1.0 -0.2738459021
N  N3  1  0.90300000  0.12900000  0.83000000  1.0 -0.2738459021
N  N4  1  0.12900000  0.90300000  0.67000000  1.0 -0.2738459021
N  N5  1  0.08300000  0.02700000  0.05500000  1.0 -0.2802951247
N  N6  1  0.02700000  0.08300000  0.44500000  1.0 -0.2802951247
N  N7  1  0.91700000  0.97300000  0.94500000  1.0 -0.2802951247
N  N8  1  0.97300000  0.91700000  0.55500000  1.0 -0.2802951247
N  N9  1  0.50000000  0.71400000  0.59200000  1.0 -0.2984956712
N  N10  1  0.71400000  0.50000000  0.90800000  1.0 -0.2984956712
N  N11  1  0.50000000  0.28600000  0.40800000  1.0 -0.2984956712
N  N12  1  0.28600000  0.50000000  0.09200000  1.0 -0.2984956712
N  N13  1  0.98900000  0.39900000  0.63000000  1.0 -0.2802951247
N  N14  1  0.39900000  0.98900000  0.87000000  1.0 -0.2802951247
N  N15  1  0.01100000  0.60100000  0.37000000  1.0 -0.2802951247
N  N16  1  0.60100000  0.01100000  0.13000000  1.0 -0.2802951247
