# DDEC6 charges by PACMAN v1.1 (https://github.com/mtap-research/PACMAN-charge/)
data_SOBZOY_ASR_pacman
_symmetry_space_group_name_H-M   'P 1'
_cell_length_a   7.04200000
_cell_length_b   7.65200000
_cell_length_c   11.34800000
_cell_angle_alpha   90.00000000
_cell_angle_beta   106.07000000
_cell_angle_gamma   90.00000000
_symmetry_Int_Tables_number   1
_chemical_formula_structural   CdNi(C2N)6
_chemical_formula_sum   'Cd1 Ni1 C12 N6'
_cell_volume   587.59683913
_cell_formula_units_Z   1
loop_
 _symmetry_equiv_pos_site_id
 _symmetry_equiv_pos_as_xyz
  1  'x, y, z'
loop_
 _atom_site_type_symbol
 _atom_site_label
 _atom_site_symmetry_multiplicity
 _atom_site_fract_x
 _atom_site_fract_y
 _atom_site_fract_z
 _atom_site_occupancy
 _atom_site_charge
Cd  Cd1  1  0.00000000  0.00000000  0.00000000  1.0 1.0062018708
Ni  Ni1  1  0.50000000  0.50000000  0.00000000  1.0 0.1533098892
C  C1  1  0.30570000  0.32850000  0.96130000  1.0 0.0973243173
C  C2  1  0.69430000  0.32850000  0.03870000  1.0 0.0973243173
C  C3  1  0.69430000  0.67150000  0.03870000  1.0 0.0973243173
C  C4  1  0.30570000  0.67150000  0.96130000  1.0 0.0973243173
C  C5  1  0.42730000  0.00000000  0.21120000  1.0 0.4021090344
C  C6  1  0.57270000  0.00000000  0.78880000  1.0 0.4021090344
C  C7  1  0.54840000  0.00000000  0.34300000  1.0 -0.073260583
C  C8  1  0.45160000  0.00000000  0.65700000  1.0 -0.073260583
C  C9  1  0.76870000  0.00000000  0.35880000  1.0 0.0215047558
C  C10  1  0.23130000  0.00000000  0.64120000  1.0 0.0215047558
C  C11  1  0.88730000  0.00000000  0.49350000  1.0 0.0938923881
C  C12  1  0.11270000  0.00000000  0.50650000  1.0 0.0938923881
N  N1  1  0.18830000  0.22160000  0.94170000  1.0 -0.2715015635
N  N2  1  0.81170000  0.22160000  0.05830000  1.0 -0.2715015635
N  N3  1  0.81170000  0.77840000  0.05830000  1.0 -0.2715015635
N  N4  1  0.18830000  0.77840000  0.94170000  1.0 -0.2715015635
N  N5  1  0.21060000  0.00000000  0.19590000  1.0 -0.6742232963
N  N6  1  0.78940000  0.00000000  0.80410000  1.0 -0.6770706698
