# DDEC6 charges by PACMAN v1.1 (https://github.com/mtap-research/PACMAN-charge/)
data_SOCNIK_FSR_pacman
_symmetry_space_group_name_H-M   'P 1'
_cell_length_a   10.71320000
_cell_length_b   12.34520000
_cell_length_c   19.17720000
_cell_angle_alpha   90.00000000
_cell_angle_beta   118.27700000
_cell_angle_gamma   90.00000000
_symmetry_Int_Tables_number   1
_chemical_formula_structural   ZnH8C7N6
_chemical_formula_sum   'Zn8 H64 C56 N48'
_cell_volume   2233.64708603
_cell_formula_units_Z   8
loop_
 _symmetry_equiv_pos_site_id
 _symmetry_equiv_pos_as_xyz
  1  'x, y, z'
loop_
 _atom_site_type_symbol
 _atom_site_label
 _atom_site_symmetry_multiplicity
 _atom_site_fract_x
 _atom_site_fract_y
 _atom_site_fract_z
 _atom_site_occupancy
 _atom_site_charge
Zn  Zn1  1  0.87400000  0.73440000  0.59954000  1.0 0.6815918102
Zn  Zn2  1  0.25166000  0.74529000  0.45765000  1.0 0.6815918102
Zn  Zn3  1  0.12600000  0.23440000  0.90046000  1.0 0.6815918102
Zn  Zn4  1  0.74834000  0.24529000  0.04235000  1.0 0.6815918102
Zn  Zn5  1  0.12600000  0.26560000  0.40046000  1.0 0.6815918102
Zn  Zn6  1  0.74834000  0.25471000  0.54235000  1.0 0.6815918102
Zn  Zn7  1  0.87400000  0.76560000  0.09954000  1.0 0.6815918102
Zn  Zn8  1  0.25166000  0.75471000  0.95765000  1.0 0.6815918102
H  H1  1  0.18130000  0.59290000  0.29750000  1.0 0.1609091613
H  H2  1  0.14280000  0.63600000  0.21280000  1.0 0.1609091613
H  H3  1  0.27670000  0.68090000  0.28710000  1.0 0.1609091613
H  H4  1  0.04500000  0.98460000  0.39780000  1.0 0.1609091613
H  H5  1  0.88580000  0.94870000  0.35750000  1.0 0.1609091613
H  H6  1  0.18800000  0.68050000  0.66150000  1.0 0.150776343
H  H7  1  0.24100000  0.63700000  0.60330000  1.0 0.1609091613
H  H8  1  0.30800000  0.74200000  0.65300000  1.0 0.1689408585
H  H9  1  0.77320000  0.99420000  0.64350000  1.0 0.150776343
H  H10  1  0.66220000  0.99110000  0.67490000  1.0 0.1609091613
H  H11  1  0.78610000  0.90660000  0.70580000  1.0 0.150776343
H  H12  1  0.58720000  0.69290000  0.41560000  1.0 0.1609091613
H  H13  1  0.46930000  0.63180000  0.42630000  1.0 0.150776343
H  H14  1  0.03830000  0.50320000  0.67270000  1.0 0.1609091613
H  H15  1  0.01620000  0.38600000  0.63730000  1.0 0.150776343
H  H16  1  0.06450000  0.47980000  0.60030000  1.0 0.1609091613
H  H17  1  0.81870000  0.09290000  0.20250000  1.0 0.1609091613
H  H18  1  0.85720000  0.13600000  0.28720000  1.0 0.1609091613
H  H19  1  0.72330000  0.18090000  0.21290000  1.0 0.1609091613
H  H20  1  0.95500000  0.48460000  0.10220000  1.0 0.1609091613
H  H21  1  0.11420000  0.44870000  0.14250000  1.0 0.1609091613
H  H22  1  0.81200000  0.18050000  0.83850000  1.0 0.150776343
H  H23  1  0.75900000  0.13700000  0.89670000  1.0 0.1609091613
H  H24  1  0.69200000  0.24200000  0.84700000  1.0 0.1689408585
H  H25  1  0.22680000  0.49420000  0.85650000  1.0 0.150776343
H  H26  1  0.33780000  0.49110000  0.82510000  1.0 0.1609091613
H  H27  1  0.21390000  0.40660000  0.79420000  1.0 0.150776343
H  H28  1  0.41280000  0.19290000  0.08440000  1.0 0.1609091613
H  H29  1  0.53070000  0.13180000  0.07370000  1.0 0.150776343
H  H30  1  0.96170000  0.00320000  0.82730000  1.0 0.1609091613
H  H31  1  0.98380000  0.88600000  0.86270000  1.0 0.150776343
H  H32  1  0.93550000  0.97980000  0.89970000  1.0 0.1609091613
H  H33  1  0.81870000  0.40710000  0.70250000  1.0 0.1609091613
H  H34  1  0.85720000  0.36400000  0.78720000  1.0 0.1609091613
H  H35  1  0.72330000  0.31910000  0.71290000  1.0 0.1609091613
H  H36  1  0.95500000  0.01540000  0.60220000  1.0 0.1609091613
H  H37  1  0.11420000  0.05130000  0.64250000  1.0 0.1609091613
H  H38  1  0.81200000  0.31950000  0.33850000  1.0 0.150776343
H  H39  1  0.75900000  0.36300000  0.39670000  1.0 0.1609091613
H  H40  1  0.69200000  0.25800000  0.34700000  1.0 0.1689408585
H  H41  1  0.22680000  0.00580000  0.35650000  1.0 0.150776343
H  H42  1  0.33780000  0.00890000  0.32510000  1.0 0.1609091613
H  H43  1  0.21390000  0.09340000  0.29420000  1.0 0.150776343
H  H44  1  0.41280000  0.30710000  0.58440000  1.0 0.1609091613
H  H45  1  0.53070000  0.36820000  0.57370000  1.0 0.150776343
H  H46  1  0.96170000  0.49680000  0.32730000  1.0 0.1609091613
H  H47  1  0.98380000  0.61400000  0.36270000  1.0 0.150776343
H  H48  1  0.93550000  0.52020000  0.39970000  1.0 0.1609091613
H  H49  1  0.18130000  0.90710000  0.79750000  1.0 0.1609091613
H  H50  1  0.14280000  0.86400000  0.71280000  1.0 0.1609091613
H  H51  1  0.27670000  0.81910000  0.78710000  1.0 0.1609091613
H  H52  1  0.04500000  0.51540000  0.89780000  1.0 0.1609091613
H  H53  1  0.88580000  0.55130000  0.85750000  1.0 0.1609091613
H  H54  1  0.18800000  0.81950000  0.16150000  1.0 0.150776343
H  H55  1  0.24100000  0.86300000  0.10330000  1.0 0.1609091613
H  H56  1  0.30800000  0.75800000  0.15300000  1.0 0.1689408585
H  H57  1  0.77320000  0.50580000  0.14350000  1.0 0.150776343
H  H58  1  0.66220000  0.50890000  0.17490000  1.0 0.1609091613
H  H59  1  0.78610000  0.59340000  0.20580000  1.0 0.1609091613
H  H60  1  0.58720000  0.80710000  0.91560000  1.0 0.1609091613
H  H61  1  0.46930000  0.86820000  0.92630000  1.0 0.150776343
H  H62  1  0.03830000  0.99680000  0.17270000  1.0 0.1609091613
H  H63  1  0.01620000  0.11400000  0.13730000  1.0 0.150776343
H  H64  1  0.06450000  0.02020000  0.10030000  1.0 0.1609091613
C  C1  1  0.18130000  0.65530000  0.26760000  1.0 -0.531127593
C  C2  1  0.09320000  0.74230000  0.27620000  1.0 0.3925250336
C  C3  1  0.00540000  0.85550000  0.32490000  1.0 0.3507714584
C  C4  1  0.98260000  0.92220000  0.38300000  1.0 -0.3730819658
C  C5  1  0.00910000  0.86200000  0.45660000  1.0 0.358777368
C  C6  1  0.11370000  0.76770000  0.56060000  1.0 0.3925250336
C  C7  1  0.22230000  0.70090000  0.62530000  1.0 -0.531127593
C  C8  1  0.72110000  0.94780000  0.66070000  1.0 -0.5147873298
C  C9  1  0.63090000  0.87290000  0.59540000  1.0 0.3985629543
C  C10  1  0.56480000  0.74920000  0.50810000  1.0 0.358777368
C  C11  1  0.56420000  0.66160000  0.45450000  1.0 -0.3829157189
C  C12  1  0.66520000  0.57210000  0.49590000  1.0 0.358777368
C  C13  1  0.85580000  0.48790000  0.56950000  1.0 0.3985629543
C  C14  1  0.00720000  0.46190000  0.62490000  1.0 -0.5398505167
C  C15  1  0.81870000  0.15530000  0.23240000  1.0 -0.531127593
C  C16  1  0.90680000  0.24230000  0.22380000  1.0 0.3925250336
C  C17  1  0.99460000  0.35550000  0.17510000  1.0 0.3507714584
C  C18  1  0.01740000  0.42220000  0.11700000  1.0 -0.3730819658
C  C19  1  0.99090000  0.36200000  0.04340000  1.0 0.358777368
C  C20  1  0.88630000  0.26770000  0.93940000  1.0 0.3925250336
C  C21  1  0.77770000  0.20090000  0.87470000  1.0 -0.531127593
C  C22  1  0.27890000  0.44780000  0.83930000  1.0 -0.5147873298
C  C23  1  0.36910000  0.37290000  0.90460000  1.0 0.3985629543
C  C24  1  0.43520000  0.24920000  0.99190000  1.0 0.358777368
C  C25  1  0.43580000  0.16160000  0.04550000  1.0 -0.3829157189
C  C26  1  0.33480000  0.07210000  0.00410000  1.0 0.358777368
C  C27  1  0.14420000  0.98790000  0.93050000  1.0 0.3985629543
C  C28  1  0.99280000  0.96190000  0.87510000  1.0 -0.5398505167
C  C29  1  0.81870000  0.34470000  0.73240000  1.0 -0.531127593
C  C30  1  0.90680000  0.25770000  0.72380000  1.0 0.3925250336
C  C31  1  0.99460000  0.14450000  0.67510000  1.0 0.3507714584
C  C32  1  0.01740000  0.07780000  0.61700000  1.0 -0.3730819658
C  C33  1  0.99090000  0.13800000  0.54340000  1.0 0.358777368
C  C34  1  0.88630000  0.23230000  0.43940000  1.0 0.3925250336
C  C35  1  0.77770000  0.29910000  0.37470000  1.0 -0.531127593
C  C36  1  0.27890000  0.05220000  0.33930000  1.0 -0.5147873298
C  C37  1  0.36910000  0.12710000  0.40460000  1.0 0.3985629543
C  C38  1  0.43520000  0.25080000  0.49190000  1.0 0.358777368
C  C39  1  0.43580000  0.33840000  0.54550000  1.0 -0.3829157189
C  C40  1  0.33480000  0.42790000  0.50410000  1.0 0.358777368
C  C41  1  0.14420000  0.51210000  0.43050000  1.0 0.3985629543
C  C42  1  0.99280000  0.53810000  0.37510000  1.0 -0.5398505167
C  C43  1  0.18130000  0.84470000  0.76760000  1.0 -0.531127593
C  C44  1  0.09320000  0.75770000  0.77620000  1.0 0.3925250336
C  C45  1  0.00540000  0.64450000  0.82490000  1.0 0.3507714584
C  C46  1  0.98260000  0.57780000  0.88300000  1.0 -0.3730819658
C  C47  1  0.00910000  0.63800000  0.95660000  1.0 0.358777368
C  C48  1  0.11370000  0.73230000  0.06060000  1.0 0.3925250336
C  C49  1  0.22230000  0.79910000  0.12530000  1.0 -0.531127593
C  C50  1  0.72110000  0.55220000  0.16070000  1.0 -0.5147873298
C  C51  1  0.63090000  0.62710000  0.09540000  1.0 0.3985629543
C  C52  1  0.56480000  0.75080000  0.00810000  1.0 0.358777368
C  C53  1  0.56420000  0.83840000  0.95450000  1.0 -0.3829157189
C  C54  1  0.66520000  0.92790000  0.99590000  1.0 0.358777368
C  C55  1  0.85580000  0.01210000  0.06950000  1.0 0.3985629543
C  C56  1  0.00720000  0.03810000  0.12490000  1.0 -0.5398505167
N  N1  1  0.68214000  0.79770000  0.56344000  1.0 -0.4384705335
N  N2  1  0.49210000  0.87260000  0.56250000  1.0 -0.2878533751
N  N3  1  0.44930000  0.79170000  0.50590000  1.0 -0.279389832
N  N4  1  0.80454000  0.58870000  0.54894000  1.0 -0.4384705335
N  N5  1  0.63125000  0.46950000  0.48345000  1.0 -0.279389832
N  N6  1  0.75559000  0.41450000  0.53219000  1.0 -0.279389832
N  N7  1  0.98981000  0.79860000  0.55431000  1.0 -0.2878533751
N  N8  1  0.92084000  0.85930000  0.48564000  1.0 -0.2878533751
N  N9  1  0.13112000  0.80770000  0.50082000  1.0 -0.4252101914
N  N10  1  0.11585000  0.78540000  0.34565000  1.0 -0.45416428
N  N11  1  0.92163000  0.85940000  0.24833000  1.0 -0.2878533751
N  N12  1  0.97951000  0.78490000  0.21651000  1.0 -0.2878533751
N  N13  1  0.31786000  0.29770000  0.93656000  1.0 -0.4384705335
N  N14  1  0.50790000  0.37260000  0.93750000  1.0 -0.2878533751
N  N15  1  0.55070000  0.29170000  0.99410000  1.0 -0.279389832
N  N16  1  0.19546000  0.08870000  0.95106000  1.0 -0.4384705335
N  N17  1  0.36875000  0.96950000  0.01655000  1.0 -0.279389832
N  N18  1  0.24441000  0.91450000  0.96781000  1.0 -0.279389832
N  N19  1  0.01019000  0.29860000  0.94569000  1.0 -0.2878533751
N  N20  1  0.07916000  0.35930000  0.01436000  1.0 -0.2878533751
N  N21  1  0.86888000  0.30770000  0.99918000  1.0 -0.4252101914
N  N22  1  0.88415000  0.28540000  0.15435000  1.0 -0.4552359716
N  N23  1  0.07837000  0.35940000  0.25167000  1.0 -0.2878533751
N  N24  1  0.02049000  0.28490000  0.28349000  1.0 -0.2878533751
N  N25  1  0.31786000  0.20230000  0.43656000  1.0 -0.4384705335
N  N26  1  0.50790000  0.12740000  0.43750000  1.0 -0.2878533751
N  N27  1  0.55070000  0.20830000  0.49410000  1.0 -0.279389832
N  N28  1  0.19546000  0.41130000  0.45106000  1.0 -0.4384705335
N  N29  1  0.36875000  0.53050000  0.51655000  1.0 -0.279389832
N  N30  1  0.24441000  0.58550000  0.46781000  1.0 -0.279389832
N  N31  1  0.01019000  0.20140000  0.44569000  1.0 -0.2878533751
N  N32  1  0.07916000  0.14070000  0.51436000  1.0 -0.2878533751
N  N33  1  0.86888000  0.19230000  0.49918000  1.0 -0.4252101914
N  N34  1  0.88415000  0.21460000  0.65435000  1.0 -0.45416428
N  N35  1  0.07837000  0.14060000  0.75167000  1.0 -0.2878533751
N  N36  1  0.02049000  0.21510000  0.78349000  1.0 -0.2878533751
N  N37  1  0.68214000  0.70230000  0.06344000  1.0 -0.4384705335
N  N38  1  0.49210000  0.62740000  0.06250000  1.0 -0.2878533751
N  N39  1  0.44930000  0.70830000  0.00590000  1.0 -0.279389832
N  N40  1  0.80454000  0.91130000  0.04894000  1.0 -0.4384705335
N  N41  1  0.63125000  0.03050000  0.98345000  1.0 -0.279389832
N  N42  1  0.75559000  0.08550000  0.03219000  1.0 -0.279389832
N  N43  1  0.98981000  0.70140000  0.05431000  1.0 -0.2878533751
N  N44  1  0.92084000  0.64070000  0.98564000  1.0 -0.2878533751
N  N45  1  0.13112000  0.69230000  0.00082000  1.0 -0.4252101914
N  N46  1  0.11585000  0.71460000  0.84565000  1.0 -0.45416428
N  N47  1  0.92163000  0.64060000  0.74833000  1.0 -0.2878533751
N  N48  1  0.97951000  0.71510000  0.71651000  1.0 -0.2878533751
