# DDEC6 charges by PACMAN v1.1 (https://github.com/mtap-research/PACMAN-charge/)
data_SODNUX_ASR_pacman
_symmetry_space_group_name_H-M   'P 1'
_cell_length_a   21.81720000
_cell_length_b   21.81720000
_cell_length_c   21.81720000
_cell_angle_alpha   60.00000000
_cell_angle_beta   60.00000000
_cell_angle_gamma   60.00000000
_symmetry_Int_Tables_number   1
_chemical_formula_structural   Tb3H24(C27O8)2
_chemical_formula_sum   'Tb6 H48 C108 O32'
_cell_volume   7343.14393054
_cell_formula_units_Z   2
loop_
 _symmetry_equiv_pos_site_id
 _symmetry_equiv_pos_as_xyz
  1  'x, y, z'
loop_
 _atom_site_type_symbol
 _atom_site_label
 _atom_site_symmetry_multiplicity
 _atom_site_fract_x
 _atom_site_fract_y
 _atom_site_fract_z
 _atom_site_occupancy
 _atom_site_charge
Tb  Tb1  1  0.91028000  0.91028000  0.08972000  1.0 2.1477204834
Tb  Tb2  1  0.08972000  0.08972000  0.91028000  1.0 2.1477204834
Tb  Tb3  1  0.91028000  0.08972000  0.91028000  1.0 2.1477204834
Tb  Tb4  1  0.08972000  0.91028000  0.08972000  1.0 2.1477204834
Tb  Tb5  1  0.08972000  0.91028000  0.91028000  1.0 2.1477204834
Tb  Tb6  1  0.91028000  0.08972000  0.08972000  1.0 2.1477204834
H  H1  1  0.08970000  0.70630000  0.91030000  1.0 0.1236541487
H  H2  1  0.08850000  0.59290000  0.91150000  1.0 0.1102905397
H  H3  1  0.91030000  0.29370000  0.08970000  1.0 0.1236541487
H  H4  1  0.91150000  0.40710000  0.08850000  1.0 0.1102905397
H  H5  1  0.70630000  0.08970000  0.29370000  1.0 0.1236541487
H  H6  1  0.59290000  0.08850000  0.40710000  1.0 0.1102905397
H  H7  1  0.29370000  0.91030000  0.70630000  1.0 0.1236541487
H  H8  1  0.40710000  0.91150000  0.59290000  1.0 0.1102905397
H  H9  1  0.70630000  0.91030000  0.08970000  1.0 0.1236541487
H  H10  1  0.59290000  0.91150000  0.08850000  1.0 0.1102905397
H  H11  1  0.29370000  0.08970000  0.91030000  1.0 0.1236541487
H  H12  1  0.40710000  0.08850000  0.91150000  1.0 0.1102905397
H  H13  1  0.08970000  0.29370000  0.70630000  1.0 0.1236541487
H  H14  1  0.08850000  0.40710000  0.59290000  1.0 0.1102905397
H  H15  1  0.91030000  0.70630000  0.29370000  1.0 0.1236541487
H  H16  1  0.91150000  0.59290000  0.40710000  1.0 0.1102905397
H  H17  1  0.91030000  0.08970000  0.70630000  1.0 0.1236541487
H  H18  1  0.91150000  0.08850000  0.59290000  1.0 0.1102905397
H  H19  1  0.08970000  0.91030000  0.29370000  1.0 0.1236541487
H  H20  1  0.08850000  0.91150000  0.40710000  1.0 0.1102905397
H  H21  1  0.29370000  0.70630000  0.08970000  1.0 0.1236541487
H  H22  1  0.40710000  0.59290000  0.08850000  1.0 0.1102905397
H  H23  1  0.70630000  0.29370000  0.91030000  1.0 0.1236541487
H  H24  1  0.59290000  0.40710000  0.91150000  1.0 0.1102905397
H  H25  1  0.91030000  0.70630000  0.08970000  1.0 0.1236541487
H  H26  1  0.91150000  0.59290000  0.08850000  1.0 0.1102905397
H  H27  1  0.08970000  0.29370000  0.91030000  1.0 0.1236541487
H  H28  1  0.08850000  0.40710000  0.91150000  1.0 0.1102905397
H  H29  1  0.29370000  0.08970000  0.70630000  1.0 0.1236541487
H  H30  1  0.40710000  0.08850000  0.59290000  1.0 0.1102905397
H  H31  1  0.70630000  0.91030000  0.29370000  1.0 0.1236541487
H  H32  1  0.59290000  0.91150000  0.40710000  1.0 0.1102905397
H  H33  1  0.29370000  0.70630000  0.91030000  1.0 0.1236541487
H  H34  1  0.40710000  0.59290000  0.91150000  1.0 0.1102905397
H  H35  1  0.70630000  0.29370000  0.08970000  1.0 0.1236541487
H  H36  1  0.59290000  0.40710000  0.08850000  1.0 0.1102905397
H  H37  1  0.91030000  0.08970000  0.29370000  1.0 0.1236541487
H  H38  1  0.91150000  0.08850000  0.40710000  1.0 0.1102905397
H  H39  1  0.08970000  0.91030000  0.70630000  1.0 0.1236541487
H  H40  1  0.08850000  0.91150000  0.59290000  1.0 0.1102905397
H  H41  1  0.08970000  0.70630000  0.29370000  1.0 0.1236541487
H  H42  1  0.08850000  0.59290000  0.40710000  1.0 0.1102905397
H  H43  1  0.91030000  0.29370000  0.70630000  1.0 0.1236541487
H  H44  1  0.91150000  0.40710000  0.59290000  1.0 0.1102905397
H  H45  1  0.70630000  0.08970000  0.91030000  1.0 0.1236541487
H  H46  1  0.59290000  0.08850000  0.91150000  1.0 0.1102905397
H  H47  1  0.29370000  0.91030000  0.08970000  1.0 0.1236541487
H  H48  1  0.40710000  0.91150000  0.08850000  1.0 0.1102905397
C  C1  1  0.05250000  0.68530000  0.94750000  1.0 -0.0357183481
C  C2  1  0.05120000  0.61360000  0.94880000  1.0 -0.112523256
C  C3  1  0.02050000  0.52430000  0.97950000  1.0 -0.0112128865
C  C4  1  0.94750000  0.31470000  0.05250000  1.0 -0.0338811366
C  C5  1  0.94880000  0.38640000  0.05120000  1.0 -0.112523256
C  C6  1  0.97950000  0.47570000  0.02050000  1.0 -0.0180111462
C  C7  1  0.68530000  0.05250000  0.31470000  1.0 -0.0338811366
C  C8  1  0.61360000  0.05120000  0.38640000  1.0 -0.112523256
C  C9  1  0.52430000  0.02050000  0.47570000  1.0 -0.0180111462
C  C10  1  0.31470000  0.94750000  0.68530000  1.0 -0.0338811366
C  C11  1  0.38640000  0.94880000  0.61360000  1.0 -0.112523256
C  C12  1  0.47570000  0.97950000  0.52430000  1.0 -0.0112128865
C  C13  1  0.68530000  0.94750000  0.05250000  1.0 -0.0338811366
C  C14  1  0.61360000  0.94880000  0.05120000  1.0 -0.112523256
C  C15  1  0.52430000  0.97950000  0.02050000  1.0 -0.0180111462
C  C16  1  0.31470000  0.05250000  0.94750000  1.0 -0.0338811366
C  C17  1  0.38640000  0.05120000  0.94880000  1.0 -0.112523256
C  C18  1  0.47570000  0.02050000  0.97950000  1.0 -0.0180111462
C  C19  1  0.05250000  0.31470000  0.68530000  1.0 -0.0338811366
C  C20  1  0.05120000  0.38640000  0.61360000  1.0 -0.112523256
C  C21  1  0.02050000  0.47570000  0.52430000  1.0 -0.0180111462
C  C22  1  0.94750000  0.68530000  0.31470000  1.0 -0.0338811366
C  C23  1  0.94880000  0.61360000  0.38640000  1.0 -0.112523256
C  C24  1  0.97950000  0.52430000  0.47570000  1.0 -0.0112128865
C  C25  1  0.94750000  0.05250000  0.68530000  1.0 -0.0357183481
C  C26  1  0.94880000  0.05120000  0.61360000  1.0 -0.112523256
C  C27  1  0.97950000  0.02050000  0.52430000  1.0 -0.0112128865
C  C28  1  0.05250000  0.94750000  0.31470000  1.0 -0.0338811366
C  C29  1  0.05120000  0.94880000  0.38640000  1.0 -0.1176560721
C  C30  1  0.02050000  0.97950000  0.47570000  1.0 -0.0112128865
C  C31  1  0.31470000  0.68530000  0.05250000  1.0 -0.0338811366
C  C32  1  0.38640000  0.61360000  0.05120000  1.0 -0.1176560721
C  C33  1  0.47570000  0.52430000  0.02050000  1.0 -0.0112128865
C  C34  1  0.68530000  0.31470000  0.94750000  1.0 -0.0357183481
C  C35  1  0.61360000  0.38640000  0.94880000  1.0 -0.112523256
C  C36  1  0.52430000  0.47570000  0.97950000  1.0 -0.0180111462
C  C37  1  0.94750000  0.68530000  0.05250000  1.0 -0.0338811366
C  C38  1  0.94880000  0.61360000  0.05120000  1.0 -0.112523256
C  C39  1  0.97950000  0.52430000  0.02050000  1.0 -0.0180111462
C  C40  1  0.05250000  0.31470000  0.94750000  1.0 -0.0357183481
C  C41  1  0.05120000  0.38640000  0.94880000  1.0 -0.112523256
C  C42  1  0.02050000  0.47570000  0.97950000  1.0 -0.0112128865
C  C43  1  0.31470000  0.05250000  0.68530000  1.0 -0.0357183481
C  C44  1  0.38640000  0.05120000  0.61360000  1.0 -0.112523256
C  C45  1  0.47570000  0.02050000  0.52430000  1.0 -0.0180111462
C  C46  1  0.68530000  0.94750000  0.31470000  1.0 -0.0338811366
C  C47  1  0.61360000  0.94880000  0.38640000  1.0 -0.112523256
C  C48  1  0.52430000  0.97950000  0.47570000  1.0 -0.0112128865
C  C49  1  0.31470000  0.68530000  0.94750000  1.0 -0.0338811366
C  C50  1  0.38640000  0.61360000  0.94880000  1.0 -0.1176560721
C  C51  1  0.47570000  0.52430000  0.97950000  1.0 -0.0112128865
C  C52  1  0.68530000  0.31470000  0.05250000  1.0 -0.0357183481
C  C53  1  0.61360000  0.38640000  0.05120000  1.0 -0.112523256
C  C54  1  0.52430000  0.47570000  0.02050000  1.0 -0.0180111462
C  C55  1  0.94750000  0.05250000  0.31470000  1.0 -0.0338811366
C  C56  1  0.94880000  0.05120000  0.38640000  1.0 -0.112523256
C  C57  1  0.97950000  0.02050000  0.47570000  1.0 -0.0180111462
C  C58  1  0.05250000  0.94750000  0.68530000  1.0 -0.0338811366
C  C59  1  0.05120000  0.94880000  0.61360000  1.0 -0.112523256
C  C60  1  0.02050000  0.97950000  0.52430000  1.0 -0.0112128865
C  C61  1  0.05250000  0.68530000  0.31470000  1.0 -0.0357183481
C  C62  1  0.05120000  0.61360000  0.38640000  1.0 -0.112523256
C  C63  1  0.02050000  0.52430000  0.47570000  1.0 -0.0180111462
C  C64  1  0.94750000  0.31470000  0.68530000  1.0 -0.0338811366
C  C65  1  0.94880000  0.38640000  0.61360000  1.0 -0.112523256
C  C66  1  0.97950000  0.47570000  0.52430000  1.0 -0.0180111462
C  C67  1  0.68530000  0.05250000  0.94750000  1.0 -0.0338811366
C  C68  1  0.61360000  0.05120000  0.94880000  1.0 -0.112523256
C  C69  1  0.52430000  0.02050000  0.97950000  1.0 -0.0112128865
C  C70  1  0.31470000  0.94750000  0.05250000  1.0 -0.0338811366
C  C71  1  0.38640000  0.94880000  0.05120000  1.0 -0.112523256
C  C72  1  0.47570000  0.97950000  0.02050000  1.0 -0.0112128865
C  C73  1  0.00000000  0.78240000  0.00000000  1.0 0.6595103914
C  C74  1  0.00000000  0.71620000  0.00000000  1.0 -0.112523256
C  C75  1  0.00000000  0.57980000  0.00000000  1.0 0.0488177445
C  C76  1  0.00000000  0.21760000  0.00000000  1.0 0.6595103914
C  C77  1  0.00000000  0.28380000  0.00000000  1.0 -0.112523256
C  C78  1  0.00000000  0.42020000  0.00000000  1.0 0.0401354724
C  C79  1  0.78240000  0.00000000  0.21760000  1.0 0.6595103914
C  C80  1  0.71620000  0.00000000  0.28380000  1.0 -0.112523256
C  C81  1  0.57980000  0.00000000  0.42020000  1.0 0.0488177445
C  C82  1  0.21760000  0.00000000  0.78240000  1.0 0.6595103914
C  C83  1  0.28380000  0.00000000  0.71620000  1.0 -0.112523256
C  C84  1  0.42020000  0.00000000  0.57980000  1.0 0.0401354724
C  C85  1  0.78240000  0.00000000  0.00000000  1.0 0.6595103914
C  C86  1  0.71620000  0.00000000  0.00000000  1.0 -0.112523256
C  C87  1  0.57980000  0.00000000  0.00000000  1.0 0.0488177445
C  C88  1  0.21760000  0.00000000  0.00000000  1.0 0.6595103914
C  C89  1  0.28380000  0.00000000  0.00000000  1.0 -0.112523256
C  C90  1  0.42020000  0.00000000  0.00000000  1.0 0.0488177445
C  C91  1  0.00000000  0.21760000  0.78240000  1.0 0.6595103914
C  C92  1  0.00000000  0.28380000  0.71620000  1.0 -0.112523256
C  C93  1  0.00000000  0.42020000  0.57980000  1.0 0.0488177445
C  C94  1  0.00000000  0.78240000  0.21760000  1.0 0.6595103914
C  C95  1  0.00000000  0.71620000  0.28380000  1.0 -0.112523256
C  C96  1  0.00000000  0.57980000  0.42020000  1.0 0.0401354724
C  C97  1  0.00000000  0.00000000  0.78240000  1.0 0.6595103914
C  C98  1  0.00000000  0.00000000  0.71620000  1.0 -0.112523256
C  C99  1  0.00000000  0.00000000  0.57980000  1.0 0.0401354724
C  C100  1  0.00000000  0.00000000  0.21760000  1.0 0.6595103914
C  C101  1  0.00000000  0.00000000  0.28380000  1.0 -0.112523256
C  C102  1  0.00000000  0.00000000  0.42020000  1.0 0.0488177445
C  C103  1  0.21760000  0.78240000  0.00000000  1.0 0.6595103914
C  C104  1  0.28380000  0.71620000  0.00000000  1.0 -0.112523256
C  C105  1  0.42020000  0.57980000  0.00000000  1.0 0.0488177445
C  C106  1  0.78240000  0.21760000  0.00000000  1.0 0.6595103914
C  C107  1  0.71620000  0.28380000  0.00000000  1.0 -0.112523256
C  C108  1  0.57980000  0.42020000  0.00000000  1.0 0.0401354724
O  O1  1  0.04141000  0.87577000  0.04141000  1.0 -0.9632939672
O  O2  1  0.04141000  0.04141000  0.04141000  1.0 -0.9662131196
O  O3  1  0.87577000  0.04141000  0.04141000  1.0 -0.9632939672
O  O4  1  0.04141000  0.04141000  0.87577000  1.0 -0.9534564739
O  O5  1  0.95859000  0.95859000  0.95859000  1.0 -0.9632939672
O  O6  1  0.95859000  0.12423000  0.95859000  1.0 -0.9662131196
O  O7  1  0.12423000  0.95859000  0.95859000  1.0 -0.9534564739
O  O8  1  0.95859000  0.95859000  0.12423000  1.0 -0.9632939672
O  O9  1  0.94740000  0.80920000  0.05260000  1.0 -0.5836241403
O  O10  1  0.05260000  0.19080000  0.94740000  1.0 -0.586140049
O  O11  1  0.80920000  0.94740000  0.19080000  1.0 -0.5836241403
O  O12  1  0.19080000  0.05260000  0.80920000  1.0 -0.586140049
O  O13  1  0.80920000  0.05260000  0.94740000  1.0 -0.5836241403
O  O14  1  0.19080000  0.94740000  0.05260000  1.0 -0.5836241403
O  O15  1  0.94740000  0.19080000  0.80920000  1.0 -0.5836241403
O  O16  1  0.05260000  0.80920000  0.19080000  1.0 -0.5836241403
O  O17  1  0.05260000  0.94740000  0.80920000  1.0 -0.586140049
O  O18  1  0.94740000  0.05260000  0.19080000  1.0 -0.5836241403
O  O19  1  0.19080000  0.80920000  0.94740000  1.0 -0.5836241403
O  O20  1  0.80920000  0.19080000  0.05260000  1.0 -0.5836241403
O  O21  1  0.05260000  0.80920000  0.94740000  1.0 -0.5836241403
O  O22  1  0.94740000  0.19080000  0.05260000  1.0 -0.5836241403
O  O23  1  0.19080000  0.94740000  0.80920000  1.0 -0.586140049
O  O24  1  0.80920000  0.05260000  0.19080000  1.0 -0.5836241403
O  O25  1  0.19080000  0.80920000  0.05260000  1.0 -0.586140049
O  O26  1  0.80920000  0.19080000  0.94740000  1.0 -0.5836241403
O  O27  1  0.05260000  0.94740000  0.19080000  1.0 -0.5836241403
O  O28  1  0.94740000  0.05260000  0.80920000  1.0 -0.586140049
O  O29  1  0.94740000  0.80920000  0.19080000  1.0 -0.5836241403
O  O30  1  0.05260000  0.19080000  0.80920000  1.0 -0.5836241403
O  O31  1  0.80920000  0.94740000  0.05260000  1.0 -0.5836241403
O  O32  1  0.19080000  0.05260000  0.94740000  1.0 -0.5836241403
