# DDEC6 charges by PACMAN v1.1 (https://github.com/mtap-research/PACMAN-charge/)
data_SOFKUW_ASR_pacman
_symmetry_space_group_name_H-M   'P 1'
_cell_length_a   23.24180000
_cell_length_b   23.24180000
_cell_length_c   11.53670000
_cell_angle_alpha   81.64160000
_cell_angle_beta   98.35840000
_cell_angle_gamma   35.58000000
_symmetry_Int_Tables_number   1
_chemical_formula_structural   CdH8C15S2(NO2)3
_chemical_formula_sum   'Cd4 H32 C60 S8 N12 O24'
_cell_volume   3189.27203580
_cell_formula_units_Z   4
loop_
 _symmetry_equiv_pos_site_id
 _symmetry_equiv_pos_as_xyz
  1  'x, y, z'
loop_
 _atom_site_type_symbol
 _atom_site_label
 _atom_site_symmetry_multiplicity
 _atom_site_fract_x
 _atom_site_fract_y
 _atom_site_fract_z
 _atom_site_occupancy
 _atom_site_charge
Cd  Cd1  1  0.64946000  0.64946000  0.75000000  1.0 0.9178058159
Cd  Cd2  1  0.04416000  0.04416000  0.75000000  1.0 0.8988476049
Cd  Cd3  1  0.35054000  0.35054000  0.25000000  1.0 0.9178058159
Cd  Cd4  1  0.95584000  0.95584000  0.25000000  1.0 0.8988476049
H  H1  1  0.89060000  0.43880000  0.16710000  1.0 0.3421494316
H  H2  1  0.81560000  0.24020000  0.32630000  1.0 0.353393371
H  H3  1  0.97540000  0.27340000  0.43740000  1.0 0.1424325507
H  H4  1  0.71800000  0.41960000  0.06000000  1.0 0.147414292
H  H5  1  0.59550000  0.81750000  0.56760000  1.0 0.1068752807
H  H6  1  0.64310000  0.87410000  0.56120000  1.0 0.1239060562
H  H7  1  0.99640000  0.87440000  0.94670000  1.0 0.1239060562
H  H8  1  0.04610000  0.92890000  0.94110000  1.0 0.1004151989
H  H9  1  0.43880000  0.89060000  0.33290000  1.0 0.3421494316
H  H10  1  0.24020000  0.81560000  0.17370000  1.0 0.353393371
H  H11  1  0.27340000  0.97540000  0.06260000  1.0 0.1424325507
H  H12  1  0.41960000  0.71800000  0.44000000  1.0 0.147414292
H  H13  1  0.81750000  0.59550000  0.93240000  1.0 0.1068752807
H  H14  1  0.87410000  0.64310000  0.93880000  1.0 0.1239060562
H  H15  1  0.87440000  0.99640000  0.55330000  1.0 0.1239060562
H  H16  1  0.92890000  0.04610000  0.55890000  1.0 0.1004151989
H  H17  1  0.10940000  0.56120000  0.83290000  1.0 0.3421494316
H  H18  1  0.18440000  0.75980000  0.67370000  1.0 0.353393371
H  H19  1  0.02460000  0.72660000  0.56260000  1.0 0.1424325507
H  H20  1  0.28200000  0.58040000  0.94000000  1.0 0.147414292
H  H21  1  0.40450000  0.18250000  0.43240000  1.0 0.1068752807
H  H22  1  0.35690000  0.12590000  0.43880000  1.0 0.1239060562
H  H23  1  0.00360000  0.12560000  0.05330000  1.0 0.1239060562
H  H24  1  0.95390000  0.07110000  0.05890000  1.0 0.1004151989
H  H25  1  0.56120000  0.10940000  0.66710000  1.0 0.3421494316
H  H26  1  0.75980000  0.18440000  0.82630000  1.0 0.353393371
H  H27  1  0.72660000  0.02460000  0.93740000  1.0 0.1424325507
H  H28  1  0.58040000  0.28200000  0.56000000  1.0 0.147414292
H  H29  1  0.18250000  0.40450000  0.06760000  1.0 0.1068752807
H  H30  1  0.12590000  0.35690000  0.06120000  1.0 0.1239060562
H  H31  1  0.12560000  0.00360000  0.44670000  1.0 0.1239060562
H  H32  1  0.07110000  0.95390000  0.44110000  1.0 0.1004151989
C  C1  1  0.75318000  0.49938000  0.99950000  1.0 0.5631901499
C  C2  1  0.80198000  0.42078000  0.12940000  1.0 -0.1701384682
C  C3  1  0.87959000  0.37639000  0.24360000  1.0 0.2319988933
C  C4  1  0.92296000  0.30356000  0.36150000  1.0 -0.2375396241
C  C5  1  0.88951000  0.27371000  0.36930000  1.0 -0.1568771947
C  C6  1  0.81291000  0.31731000  0.25520000  1.0 0.2493962895
C  C7  1  0.76945000  0.39045000  0.13620000  1.0 -0.2003412332
C  C8  1  0.93761000  0.19541000  0.49910000  1.0 0.5631901499
C  C9  1  0.65197000  0.78237000  0.64310000  1.0 0.0916882556
C  C10  1  0.68008000  0.81708000  0.63800000  1.0 -0.2003412332
C  C11  1  0.81305000  0.88145000  0.68460000  1.0 -0.0262288211
C  C12  1  0.98162000  0.90942000  0.86670000  1.0 -0.1890482951
C  C13  1  0.01147000  0.94227000  0.86260000  1.0 0.1004151989
C  C14  1  0.49938000  0.75318000  0.50050000  1.0 0.5631901499
C  C15  1  0.42078000  0.80198000  0.37060000  1.0 -0.1701384682
C  C16  1  0.37639000  0.87959000  0.25640000  1.0 0.2319988933
C  C17  1  0.30356000  0.92296000  0.13850000  1.0 -0.2375396241
C  C18  1  0.27371000  0.88951000  0.13070000  1.0 -0.1568771947
C  C19  1  0.31731000  0.81291000  0.24480000  1.0 0.2493962895
C  C20  1  0.39045000  0.76945000  0.36380000  1.0 -0.2003412332
C  C21  1  0.19541000  0.93761000  0.00090000  1.0 0.5631901499
C  C22  1  0.78237000  0.65197000  0.85690000  1.0 0.0916882556
C  C23  1  0.81708000  0.68008000  0.86200000  1.0 -0.2003412332
C  C24  1  0.88145000  0.81305000  0.81540000  1.0 -0.0262288211
C  C25  1  0.90942000  0.98162000  0.63330000  1.0 -0.1890482951
C  C26  1  0.94227000  0.01147000  0.63740000  1.0 0.1004151989
C  C27  1  0.76469000  0.76469000  0.75000000  1.0 0.0274060767
C  C28  1  0.79767000  0.79767000  0.75000000  1.0 0.062374654
C  C29  1  0.89645000  0.89645000  0.75000000  1.0 0.0536893148
C  C30  1  0.92949000  0.92949000  0.75000000  1.0 0.0160472065
C  C31  1  0.24682000  0.50062000  0.00050000  1.0 0.5631901499
C  C32  1  0.19802000  0.57922000  0.87060000  1.0 -0.1701384682
C  C33  1  0.12041000  0.62361000  0.75640000  1.0 0.2319988933
C  C34  1  0.07704000  0.69644000  0.63850000  1.0 -0.2375396241
C  C35  1  0.11049000  0.72629000  0.63070000  1.0 -0.1568771947
C  C36  1  0.18709000  0.68269000  0.74480000  1.0 0.2493962895
C  C37  1  0.23055000  0.60955000  0.86380000  1.0 -0.2003412332
C  C38  1  0.06239000  0.80459000  0.50090000  1.0 0.5631901499
C  C39  1  0.34803000  0.21763000  0.35690000  1.0 0.0916882556
C  C40  1  0.31992000  0.18292000  0.36200000  1.0 -0.2003412332
C  C41  1  0.18695000  0.11855000  0.31540000  1.0 -0.0262288211
C  C42  1  0.01838000  0.09058000  0.13330000  1.0 -0.1890482951
C  C43  1  0.98853000  0.05773000  0.13740000  1.0 0.1004151989
C  C44  1  0.50062000  0.24682000  0.49950000  1.0 0.5631901499
C  C45  1  0.57922000  0.19802000  0.62940000  1.0 -0.1701384682
C  C46  1  0.62361000  0.12041000  0.74360000  1.0 0.2319988933
C  C47  1  0.69644000  0.07704000  0.86150000  1.0 -0.2375396241
C  C48  1  0.72629000  0.11049000  0.86930000  1.0 -0.1568771947
C  C49  1  0.68269000  0.18709000  0.75520000  1.0 0.2493962895
C  C50  1  0.60955000  0.23055000  0.63620000  1.0 -0.2003412332
C  C51  1  0.80459000  0.06239000  0.99910000  1.0 0.5631901499
C  C52  1  0.21763000  0.34803000  0.14310000  1.0 0.0916882556
C  C53  1  0.18292000  0.31992000  0.13800000  1.0 -0.2003412332
C  C54  1  0.11855000  0.18695000  0.18460000  1.0 -0.0262288211
C  C55  1  0.09058000  0.01838000  0.36670000  1.0 -0.1890482951
C  C56  1  0.05773000  0.98853000  0.36260000  1.0 0.1004151989
C  C57  1  0.23531000  0.23531000  0.25000000  1.0 0.0274060767
C  C58  1  0.20233000  0.20233000  0.25000000  1.0 0.062374654
C  C59  1  0.10355000  0.10355000  0.25000000  1.0 0.0536893148
C  C60  1  0.07051000  0.07051000  0.25000000  1.0 0.0160472065
S  S1  1  0.80222000  0.95122000  0.59880000  1.0 0.2738730561
S  S2  1  0.73144000  0.90438000  0.59123000  1.0 0.2181105863
S  S3  1  0.95122000  0.80222000  0.90120000  1.0 0.2738730561
S  S4  1  0.90438000  0.73144000  0.90877000  1.0 0.2181105863
S  S5  1  0.19778000  0.04878000  0.40120000  1.0 0.2738730561
S  S6  1  0.26856000  0.09562000  0.40877000  1.0 0.2181105863
S  S7  1  0.04878000  0.19778000  0.09880000  1.0 0.2738730561
S  S8  1  0.09562000  0.26856000  0.09123000  1.0 0.2181105863
N  N1  1  0.76653000  0.86273000  0.65310000  1.0 -0.1100311663
N  N2  1  0.82070000  0.93730000  0.64900000  1.0 -0.1100311663
N  N3  1  0.86273000  0.76653000  0.84690000  1.0 -0.1100311663
N  N4  1  0.93730000  0.82070000  0.85100000  1.0 -0.1100311663
N  N5  1  0.70149000  0.70149000  0.75000000  1.0 -0.2617671836
N  N6  1  0.99229000  0.99229000  0.75000000  1.0 -0.2664268065
N  N7  1  0.23347000  0.13727000  0.34690000  1.0 -0.1100311663
N  N8  1  0.17930000  0.06270000  0.35100000  1.0 -0.1100311663
N  N9  1  0.13727000  0.23347000  0.15310000  1.0 -0.1100311663
N  N10  1  0.06270000  0.17930000  0.14900000  1.0 -0.1100311663
N  N11  1  0.29851000  0.29851000  0.25000000  1.0 -0.2617671836
N  N12  1  0.00771000  0.00771000  0.25000000  1.0 -0.2664268065
O  O1  1  0.78677000  0.52297000  0.99310000  1.0 -0.6055051733
O  O2  1  0.68179000  0.54019000  0.90100000  1.0 -0.4890554596
O  O3  1  0.00904000  0.15548000  0.59798000  1.0 -0.5079621125
O  O4  1  0.90546000  0.17088000  0.50509000  1.0 -0.5871163655
O  O5  1  0.91562000  0.40142000  0.24330000  1.0 -0.4527418662
O  O6  1  0.77826000  0.29046000  0.25390000  1.0 -0.4133849788
O  O7  1  0.52297000  0.78677000  0.50690000  1.0 -0.6055051733
O  O8  1  0.54019000  0.68179000  0.59900000  1.0 -0.4890554596
O  O9  1  0.15548000  0.00904000  0.90202000  1.0 -0.5079621125
O  O10  1  0.17088000  0.90546000  0.99491000  1.0 -0.5871163655
O  O11  1  0.40142000  0.91562000  0.25670000  1.0 -0.4527418662
O  O12  1  0.29046000  0.77826000  0.24610000  1.0 -0.4133849788
O  O13  1  0.21323000  0.47703000  0.00690000  1.0 -0.6055051733
O  O14  1  0.31821000  0.45981000  0.09900000  1.0 -0.4890554596
O  O15  1  0.99096000  0.84452000  0.40202000  1.0 -0.5079621125
O  O16  1  0.09454000  0.82912000  0.49491000  1.0 -0.5871163655
O  O17  1  0.08438000  0.59858000  0.75670000  1.0 -0.4527418662
O  O18  1  0.22174000  0.70954000  0.74610000  1.0 -0.4133849788
O  O19  1  0.47703000  0.21323000  0.49310000  1.0 -0.6055051733
O  O20  1  0.45981000  0.31821000  0.40100000  1.0 -0.4890554596
O  O21  1  0.84452000  0.99096000  0.09798000  1.0 -0.5079621125
O  O22  1  0.82912000  0.09454000  0.00509000  1.0 -0.5871163655
O  O23  1  0.59858000  0.08438000  0.74330000  1.0 -0.4527418662
O  O24  1  0.70954000  0.22174000  0.75390000  1.0 -0.4133849788
