# DDEC6 charges by PACMAN v1.1 (https://github.com/mtap-research/PACMAN-charge/)
data_SOJKOT02_ASR_pacman
_symmetry_space_group_name_H-M   'P 1'
_cell_length_a   7.31030000
_cell_length_b   7.94150000
_cell_length_c   13.84600000
_cell_angle_alpha   90.00000000
_cell_angle_beta   90.00000000
_cell_angle_gamma   90.00000000
_symmetry_Int_Tables_number   1
_chemical_formula_structural   Co(CO2)3
_chemical_formula_sum   'Co4 C12 O24'
_cell_volume   803.82603319
_cell_formula_units_Z   4
loop_
 _symmetry_equiv_pos_site_id
 _symmetry_equiv_pos_as_xyz
  1  'x, y, z'
loop_
 _atom_site_type_symbol
 _atom_site_label
 _atom_site_symmetry_multiplicity
 _atom_site_fract_x
 _atom_site_fract_y
 _atom_site_fract_z
 _atom_site_occupancy
 _atom_site_charge
Co  Co1  1  0.75941000  0.22060000  0.33545000  1.0 1.0664508298
Co  Co2  1  0.25941000  0.27940000  0.66455000  1.0 1.0664508298
Co  Co3  1  0.74059000  0.77940000  0.83545000  1.0 1.0664508298
Co  Co4  1  0.24059000  0.72060000  0.16455000  1.0 1.0664508298
C  C1  1  0.49840000  0.98590000  0.23363000  1.0 0.7580273022
C  C2  1  0.99840000  0.51410000  0.76637000  1.0 0.7580273022
C  C3  1  0.00160000  0.01410000  0.73363000  1.0 0.7492953375
C  C4  1  0.50160000  0.48590000  0.26637000  1.0 0.7580273022
C  C5  1  0.99170000  0.44350000  0.21428000  1.0 0.7492953375
C  C6  1  0.49170000  0.05650000  0.78572000  1.0 0.7492953375
C  C7  1  0.50830000  0.55650000  0.71428000  1.0 0.7492953375
C  C8  1  0.00830000  0.94350000  0.28572000  1.0 0.7492953375
C  C9  1  0.50870000  0.19330000  0.50449000  1.0 0.7580273022
C  C10  1  0.00870000  0.30670000  0.49551000  1.0 0.7580273022
C  C11  1  0.99130000  0.80670000  0.00449000  1.0 0.7580273022
C  C12  1  0.49130000  0.69330000  0.99551000  1.0 0.7580273022
O  O1  1  0.60810000  0.10520000  0.22859000  1.0 -0.559209612
O  O2  1  0.10810000  0.39480000  0.77141000  1.0 -0.559209612
O  O3  1  0.89190000  0.89480000  0.72859000  1.0 -0.559209612
O  O4  1  0.39190000  0.60520000  0.27141000  1.0 -0.559209612
O  O5  1  0.90260000  0.30884000  0.21194000  1.0 -0.549061951
O  O6  1  0.40260000  0.19116000  0.78806000  1.0 -0.549061951
O  O7  1  0.59740000  0.69116000  0.71194000  1.0 -0.549061951
O  O8  1  0.09740000  0.80884000  0.28806000  1.0 -0.549061951
O  O9  1  0.61900000  0.11210000  0.45290000  1.0 -0.5704544679
O  O10  1  0.11900000  0.38790000  0.54710000  1.0 -0.5704544679
O  O11  1  0.88100000  0.88790000  0.95290000  1.0 -0.5704544679
O  O12  1  0.38100000  0.61210000  0.04710000  1.0 -0.5704544679
O  O13  1  0.58800000  0.42690000  0.33598000  1.0 -0.559209612
O  O14  1  0.08800000  0.07310000  0.66402000  1.0 -0.559209612
O  O15  1  0.91200000  0.57310000  0.83598000  1.0 -0.559209612
O  O16  1  0.41200000  0.92690000  0.16402000  1.0 -0.559209612
O  O17  1  0.92270000  0.00562000  0.35476000  1.0 -0.5426201865
O  O18  1  0.42270000  0.49438000  0.64524000  1.0 -0.549061951
O  O19  1  0.57730000  0.99438000  0.85476000  1.0 -0.5426201865
O  O20  1  0.07730000  0.50562000  0.14524000  1.0 -0.5426201865
O  O21  1  0.91890000  0.36839000  0.42758000  1.0 -0.549061951
O  O22  1  0.41890000  0.13161000  0.57242000  1.0 -0.5426201865
O  O23  1  0.58110000  0.63161000  0.92758000  1.0 -0.549061951
O  O24  1  0.08110000  0.86839000  0.07242000  1.0 -0.549061951
