# DDEC6 charges by PACMAN v1.1 (https://github.com/mtap-research/PACMAN-charge/)
data_SOJKOT03_ASR_pacman
_symmetry_space_group_name_H-M   'P 1'
_cell_length_a   7.33610000
_cell_length_b   7.93410000
_cell_length_c   13.86970000
_cell_angle_alpha   90.00000000
_cell_angle_beta   90.00000000
_cell_angle_gamma   90.00000000
_symmetry_Int_Tables_number   1
_chemical_formula_structural   Co(CO2)3
_chemical_formula_sum   'Co4 C12 O24'
_cell_volume   807.29075690
_cell_formula_units_Z   4
loop_
 _symmetry_equiv_pos_site_id
 _symmetry_equiv_pos_as_xyz
  1  'x, y, z'
loop_
 _atom_site_type_symbol
 _atom_site_label
 _atom_site_symmetry_multiplicity
 _atom_site_fract_x
 _atom_site_fract_y
 _atom_site_fract_z
 _atom_site_occupancy
 _atom_site_charge
Co  Co1  1  0.75887000  0.22306000  0.33545000  1.0 1.0588628635
Co  Co2  1  0.25887000  0.27694000  0.66455000  1.0 1.0588628635
Co  Co3  1  0.74113000  0.77694000  0.83545000  1.0 1.0588628635
Co  Co4  1  0.24113000  0.72306000  0.16455000  1.0 1.0588628635
C  C1  1  0.49870000  0.98890000  0.23298000  1.0 0.7488315835
C  C2  1  0.99870000  0.51110000  0.76702000  1.0 0.7488315835
C  C3  1  0.00130000  0.01110000  0.73298000  1.0 0.7488315835
C  C4  1  0.50130000  0.48890000  0.26702000  1.0 0.7488315835
C  C5  1  0.99330000  0.44520000  0.21476000  1.0 0.7409499422
C  C6  1  0.49330000  0.05480000  0.78524000  1.0 0.7409499422
C  C7  1  0.50670000  0.55480000  0.71476000  1.0 0.7409499422
C  C8  1  0.00670000  0.94520000  0.28524000  1.0 0.7409499422
C  C9  1  0.50730000  0.19170000  0.50414000  1.0 0.7488315835
C  C10  1  0.00730000  0.30830000  0.49586000  1.0 0.7488315835
C  C11  1  0.99270000  0.80830000  0.00414000  1.0 0.7488315835
C  C12  1  0.49270000  0.69170000  0.99586000  1.0 0.7488315835
O  O1  1  0.60830000  0.10720000  0.22871000  1.0 -0.5512823403
O  O2  1  0.10830000  0.39280000  0.77129000  1.0 -0.5512823403
O  O3  1  0.89170000  0.89280000  0.72871000  1.0 -0.5512823403
O  O4  1  0.39170000  0.60720000  0.27129000  1.0 -0.5512823403
O  O5  1  0.90140000  0.31280000  0.21260000  1.0 -0.5512823403
O  O6  1  0.40140000  0.18720000  0.78740000  1.0 -0.5512823403
O  O7  1  0.59860000  0.68720000  0.71260000  1.0 -0.5512823403
O  O8  1  0.09860000  0.81280000  0.28740000  1.0 -0.5512823403
O  O9  1  0.61780000  0.11330000  0.45227000  1.0 -0.5607512906
O  O10  1  0.11780000  0.38670000  0.54773000  1.0 -0.5607512906
O  O11  1  0.88220000  0.88670000  0.95227000  1.0 -0.5607512906
O  O12  1  0.38220000  0.61330000  0.04773000  1.0 -0.5607512906
O  O13  1  0.58670000  0.42930000  0.33609000  1.0 -0.5607512906
O  O14  1  0.08670000  0.07070000  0.66391000  1.0 -0.5607512906
O  O15  1  0.91330000  0.57070000  0.83609000  1.0 -0.5607512906
O  O16  1  0.41330000  0.92930000  0.16391000  1.0 -0.5607512906
O  O17  1  0.92290000  0.00840000  0.35374000  1.0 -0.5367043555
O  O18  1  0.42290000  0.49160000  0.64626000  1.0 -0.5367043555
O  O19  1  0.57710000  0.99160000  0.85374000  1.0 -0.5367043555
O  O20  1  0.07710000  0.50840000  0.14626000  1.0 -0.5367043555
O  O21  1  0.91850000  0.36940000  0.42848000  1.0 -0.5367043555
O  O22  1  0.41850000  0.13060000  0.57152000  1.0 -0.5367043555
O  O23  1  0.58150000  0.63060000  0.92848000  1.0 -0.5367043555
O  O24  1  0.08150000  0.86940000  0.07152000  1.0 -0.5367043555
