# DDEC6 charges by PACMAN v1.1 (https://github.com/mtap-research/PACMAN-charge/)
data_SOKKAH_FSR_pacman
_symmetry_space_group_name_H-M   'P 1'
_cell_length_a   29.54900000
_cell_length_b   22.25420000
_cell_length_c   22.17000000
_cell_angle_alpha   83.38840000
_cell_angle_beta   48.42770000
_cell_angle_gamma   48.18390000
_symmetry_Int_Tables_number   1
_chemical_formula_structural   CuH18C20N5O4
_chemical_formula_sum   'Cu8 H144 C160 N40 O32'
_cell_volume   6580.83180786
_cell_formula_units_Z   8
loop_
 _symmetry_equiv_pos_site_id
 _symmetry_equiv_pos_as_xyz
  1  'x, y, z'
loop_
 _atom_site_type_symbol
 _atom_site_label
 _atom_site_symmetry_multiplicity
 _atom_site_fract_x
 _atom_site_fract_y
 _atom_site_fract_z
 _atom_site_occupancy
 _atom_site_charge
Cu  Cu1  1  0.91184000  0.90894000  0.33850000  1.0 0.5509473949
Cu  Cu2  1  0.90894000  0.91184000  0.84072000  1.0 0.5509473949
Cu  Cu3  1  0.91150000  0.40928000  0.33816000  1.0 0.5509473949
Cu  Cu4  1  0.40928000  0.91150000  0.34106000  1.0 0.5509473949
Cu  Cu5  1  0.33850000  0.84072000  0.91184000  1.0 0.5509473949
Cu  Cu6  1  0.84072000  0.33850000  0.90894000  1.0 0.5509473949
Cu  Cu7  1  0.33816000  0.34106000  0.91150000  1.0 0.5509473949
Cu  Cu8  1  0.34106000  0.33816000  0.40928000  1.0 0.5509473949
H  H1  1  0.02130000  0.87270000  0.35010000  1.0 0.100357529
H  H2  1  0.80880000  0.92220000  0.52640000  1.0 0.100357529
H  H3  1  0.03430000  0.76750000  0.14450000  1.0 0.100357529
H  H4  1  0.01630000  0.71790000  0.31910000  1.0 0.0919568292
H  H5  1  0.03900000  0.76620000  0.03640000  1.0 0.1309427779
H  H6  1  0.76600000  0.62720000  0.44840000  1.0 0.100357529
H  H7  1  0.05450000  0.39570000  0.23910000  1.0 0.100357529
H  H8  1  0.79860000  0.06440000  0.21840000  1.0 0.1309427779
H  H9  1  0.80510000  0.89890000  0.36610000  1.0 0.100357529
H  H10  1  0.80120000  0.05740000  0.31960000  1.0 0.100357529
H  H11  1  0.80070000  0.79890000  0.36870000  1.0 0.1382397725
H  H12  1  0.01970000  0.61150000  0.31770000  1.0 0.1309427779
H  H13  1  0.80110000  0.92430000  0.63590000  1.0 0.1309427779
H  H14  1  0.76280000  0.73220000  0.44980000  1.0 0.1309427779
H  H15  1  0.05740000  0.49600000  0.23900000  1.0 0.1248909174
H  H16  1  0.01700000  0.87780000  0.45620000  1.0 0.1382397725
H  H17  1  0.68820000  0.05620000  0.51880000  1.0 0.2595644831
H  H18  1  0.68950000  0.11510000  0.50150000  1.0 0.2595644831
H  H19  1  0.87270000  0.02130000  0.75590000  1.0 0.100357529
H  H20  1  0.92220000  0.80880000  0.74260000  1.0 0.100357529
H  H21  1  0.76750000  0.03430000  0.05370000  1.0 0.100357529
H  H22  1  0.71790000  0.01630000  0.94670000  1.0 0.0919568292
H  H23  1  0.76620000  0.03900000  0.15840000  1.0 0.1309427779
H  H24  1  0.62720000  0.76600000  0.15840000  1.0 0.100357529
H  H25  1  0.39570000  0.05450000  0.31070000  1.0 0.100357529
H  H26  1  0.06440000  0.79860000  0.91860000  1.0 0.1309427779
H  H27  1  0.89890000  0.80510000  0.92990000  1.0 0.100357529
H  H28  1  0.05740000  0.80120000  0.82180000  1.0 0.100357529
H  H29  1  0.79890000  0.80070000  0.03170000  1.0 0.1382397725
H  H30  1  0.61150000  0.01970000  0.05110000  1.0 0.1309427779
H  H31  1  0.92430000  0.80110000  0.63870000  1.0 0.1309427779
H  H32  1  0.73220000  0.76280000  0.05520000  1.0 0.1309427779
H  H33  1  0.49600000  0.05740000  0.20760000  1.0 0.1248909174
H  H34  1  0.87780000  0.01700000  0.64900000  1.0 0.1382397725
H  H35  1  0.05620000  0.68820000  0.73680000  1.0 0.2595644831
H  H36  1  0.11510000  0.68950000  0.69390000  1.0 0.2595644831
H  H37  1  0.89990000  0.49410000  0.22870000  1.0 0.100357529
H  H38  1  0.72360000  0.50740000  0.44120000  1.0 0.100357529
H  H39  1  0.10550000  0.19630000  0.21570000  1.0 0.100357529
H  H40  1  0.93090000  0.30330000  0.23370000  1.0 0.0919568292
H  H41  1  0.21360000  0.09160000  0.21100000  1.0 0.1309427779
H  H42  1  0.80160000  0.09160000  0.48400000  1.0 0.100357529
H  H43  1  0.01090000  0.93930000  0.19550000  1.0 0.100357529
H  H44  1  0.03160000  0.33140000  0.45140000  1.0 0.1309427779
H  H45  1  0.88390000  0.32010000  0.44490000  1.0 0.100357529
H  H46  1  0.93040000  0.42820000  0.44880000  1.0 0.100357529
H  H47  1  0.88130000  0.21830000  0.44930000  1.0 0.1382397725
H  H48  1  0.93230000  0.19890000  0.23030000  1.0 0.1309427779
H  H49  1  0.61410000  0.61130000  0.44890000  1.0 0.1309427779
H  H50  1  0.80020000  0.19480000  0.48720000  1.0 0.1309427779
H  H51  1  0.01100000  0.04240000  0.19260000  1.0 0.1248909174
H  H52  1  0.79380000  0.60100000  0.23300000  1.0 0.1382397725
H  H53  1  0.73120000  0.51320000  0.56180000  1.0 0.2595644831
H  H54  1  0.74850000  0.55610000  0.56050000  1.0 0.2595644831
H  H55  1  0.49410000  0.89990000  0.37730000  1.0 0.100357529
H  H56  1  0.50740000  0.72360000  0.32780000  1.0 0.100357529
H  H57  1  0.19630000  0.10550000  0.48250000  1.0 0.100357529
H  H58  1  0.30330000  0.93090000  0.53210000  1.0 0.0919568292
H  H59  1  0.09160000  0.21360000  0.48380000  1.0 0.1309427779
H  H60  1  0.09160000  0.80160000  0.62280000  1.0 0.100357529
H  H61  1  0.93930000  0.01090000  0.85430000  1.0 0.100357529
H  H62  1  0.33140000  0.03160000  0.18560000  1.0 0.1309427779
H  H63  1  0.32010000  0.88390000  0.35110000  1.0 0.100357529
H  H64  1  0.42820000  0.93040000  0.19260000  1.0 0.100357529
H  H65  1  0.21830000  0.88130000  0.45110000  1.0 0.1382397725
H  H66  1  0.19890000  0.93230000  0.63850000  1.0 0.1309427779
H  H67  1  0.61130000  0.61410000  0.32570000  1.0 0.1309427779
H  H68  1  0.19480000  0.80020000  0.51780000  1.0 0.1309427779
H  H69  1  0.04240000  0.01100000  0.75400000  1.0 0.1248909174
H  H70  1  0.60100000  0.79380000  0.37220000  1.0 0.1382397725
H  H71  1  0.51320000  0.73120000  0.19380000  1.0 0.2595644831
H  H72  1  0.55610000  0.74850000  0.13490000  1.0 0.2595644831
H  H73  1  0.35010000  0.75590000  0.02130000  1.0 0.100357529
H  H74  1  0.52640000  0.74260000  0.80880000  1.0 0.100357529
H  H75  1  0.14450000  0.05370000  0.03430000  1.0 0.100357529
H  H76  1  0.31910000  0.94670000  0.01630000  1.0 0.0919568292
H  H77  1  0.03640000  0.15840000  0.03900000  1.0 0.1309427779
H  H78  1  0.44840000  0.15840000  0.76600000  1.0 0.100357529
H  H79  1  0.23910000  0.31070000  0.05450000  1.0 0.100357529
H  H80  1  0.21840000  0.91860000  0.79860000  1.0 0.1309427779
H  H81  1  0.36610000  0.92990000  0.80510000  1.0 0.100357529
H  H82  1  0.31960000  0.82180000  0.80120000  1.0 0.100357529
H  H83  1  0.36870000  0.03170000  0.80070000  1.0 0.1382397725
H  H84  1  0.31770000  0.05110000  0.01970000  1.0 0.1309427779
H  H85  1  0.63590000  0.63870000  0.80110000  1.0 0.1309427779
H  H86  1  0.44980000  0.05520000  0.76280000  1.0 0.1309427779
H  H87  1  0.23900000  0.20760000  0.05740000  1.0 0.1248909174
H  H88  1  0.45620000  0.64900000  0.01700000  1.0 0.1382397725
H  H89  1  0.51880000  0.73680000  0.68820000  1.0 0.2595644831
H  H90  1  0.50150000  0.69390000  0.68950000  1.0 0.2595644831
H  H91  1  0.75590000  0.35010000  0.87270000  1.0 0.100357529
H  H92  1  0.74260000  0.52640000  0.92220000  1.0 0.100357529
H  H93  1  0.05370000  0.14450000  0.76750000  1.0 0.100357529
H  H94  1  0.94670000  0.31910000  0.71790000  1.0 0.0919568292
H  H95  1  0.15840000  0.03640000  0.76620000  1.0 0.1309427779
H  H96  1  0.15840000  0.44840000  0.62720000  1.0 0.100357529
H  H97  1  0.31070000  0.23910000  0.39570000  1.0 0.100357529
H  H98  1  0.91860000  0.21840000  0.06440000  1.0 0.1309427779
H  H99  1  0.92990000  0.36610000  0.89890000  1.0 0.100357529
H  H100  1  0.82180000  0.31960000  0.05740000  1.0 0.100357529
H  H101  1  0.03170000  0.36870000  0.79890000  1.0 0.1382397725
H  H102  1  0.05110000  0.31770000  0.61150000  1.0 0.1309427779
H  H103  1  0.63870000  0.63590000  0.92430000  1.0 0.1309427779
H  H104  1  0.05520000  0.44980000  0.73220000  1.0 0.1309427779
H  H105  1  0.20760000  0.23900000  0.49600000  1.0 0.1248909174
H  H106  1  0.64900000  0.45620000  0.87780000  1.0 0.1382397725
H  H107  1  0.73680000  0.51880000  0.05620000  1.0 0.2595644831
H  H108  1  0.69390000  0.50150000  0.11510000  1.0 0.2595644831
H  H109  1  0.22870000  0.37730000  0.89990000  1.0 0.100357529
H  H110  1  0.44120000  0.32780000  0.72360000  1.0 0.100357529
H  H111  1  0.21570000  0.48250000  0.10550000  1.0 0.100357529
H  H112  1  0.23370000  0.53210000  0.93090000  1.0 0.0919568292
H  H113  1  0.21100000  0.48380000  0.21360000  1.0 0.1309427779
H  H114  1  0.48400000  0.62280000  0.80160000  1.0 0.100357529
H  H115  1  0.19550000  0.85430000  0.01090000  1.0 0.100357529
H  H116  1  0.45140000  0.18560000  0.03160000  1.0 0.1309427779
H  H117  1  0.44490000  0.35110000  0.88390000  1.0 0.100357529
H  H118  1  0.44880000  0.19260000  0.93040000  1.0 0.100357529
H  H119  1  0.44930000  0.45110000  0.88130000  1.0 0.1382397725
H  H120  1  0.23030000  0.63850000  0.93230000  1.0 0.1309427779
H  H121  1  0.44890000  0.32570000  0.61410000  1.0 0.1309427779
H  H122  1  0.48720000  0.51780000  0.80020000  1.0 0.1309427779
H  H123  1  0.19260000  0.75400000  0.01100000  1.0 0.1248909174
H  H124  1  0.23300000  0.37220000  0.79380000  1.0 0.1382397725
H  H125  1  0.56180000  0.19380000  0.73120000  1.0 0.2595644831
H  H126  1  0.56050000  0.13490000  0.74850000  1.0 0.2595644831
H  H127  1  0.37730000  0.22870000  0.49410000  1.0 0.100357529
H  H128  1  0.32780000  0.44120000  0.50740000  1.0 0.100357529
H  H129  1  0.48250000  0.21570000  0.19630000  1.0 0.100357529
H  H130  1  0.53210000  0.23370000  0.30330000  1.0 0.0919568292
H  H131  1  0.48380000  0.21100000  0.09160000  1.0 0.1309427779
H  H132  1  0.62280000  0.48400000  0.09160000  1.0 0.100357529
H  H133  1  0.85430000  0.19550000  0.93930000  1.0 0.100357529
H  H134  1  0.18560000  0.45140000  0.33140000  1.0 0.1309427779
H  H135  1  0.35110000  0.44490000  0.32010000  1.0 0.100357529
H  H136  1  0.19260000  0.44880000  0.42820000  1.0 0.100357529
H  H137  1  0.45110000  0.44930000  0.21830000  1.0 0.1382397725
H  H138  1  0.63850000  0.23030000  0.19890000  1.0 0.1309427779
H  H139  1  0.32570000  0.44890000  0.61130000  1.0 0.1309427779
H  H140  1  0.51780000  0.48720000  0.19480000  1.0 0.1309427779
H  H141  1  0.75400000  0.19260000  0.04240000  1.0 0.1248909174
H  H142  1  0.37220000  0.23300000  0.60100000  1.0 0.1382397725
H  H143  1  0.19380000  0.56180000  0.51320000  1.0 0.2595644831
H  H144  1  0.13490000  0.56050000  0.55610000  1.0 0.2595644831
C  C1  1  0.90967000  0.69355000  0.34405000  1.0 0.100357529
C  C2  1  0.97515000  0.88513000  0.40947000  1.0 0.0708175758
C  C3  1  0.90958000  0.62666000  0.34474000  1.0 0.100357529
C  C4  1  0.85079000  0.91363000  0.51277000  1.0 0.0488082447
C  C5  1  0.98631000  0.82783000  0.15937000  1.0 0.077658366
C  C6  1  0.97309000  0.73401000  0.32819000  1.0 0.0708175758
C  C7  1  0.91776000  0.91580000  0.11580000  1.0 0.100357529
C  C8  1  0.98941000  0.82643000  0.09397000  1.0 -0.1915228207
C  C9  1  0.90744000  0.90268000  0.55972000  1.0 0.100357529
C  C10  1  0.82561000  0.60035000  0.40485000  1.0 0.0488082447
C  C11  1  0.99492000  0.46442000  0.28238000  1.0 0.0708175758
C  C12  1  0.84722000  0.00284000  0.20176000  1.0 -0.1915228207
C  C13  1  0.84905000  0.84015000  0.35605000  1.0 0.0708175758
C  C14  1  0.84925000  0.99819000  0.26221000  1.0 0.0488082447
C  C15  1  0.84565000  0.78039000  0.35801000  1.0 -0.1915228207
C  C16  1  0.97482000  0.66996000  0.32824000  1.0 -0.2060127021
C  C17  1  0.84553000  0.91511000  0.57889000  1.0 -0.1915228207
C  C18  1  0.82311000  0.66375000  0.40665000  1.0 -0.1915228207
C  C19  1  0.99730000  0.52418000  0.28162000  1.0 -0.1915228207
C  C20  1  0.97381000  0.88699000  0.47221000  1.0 -0.1915228207
C  C21  1  0.69355000  0.90967000  0.05273000  1.0 0.100357529
C  C22  1  0.88513000  0.97515000  0.73025000  1.0 0.0708175758
C  C23  1  0.62666000  0.90958000  0.11902000  1.0 0.100357529
C  C24  1  0.91363000  0.85079000  0.72281000  1.0 0.0488082447
C  C25  1  0.82783000  0.98631000  0.02649000  1.0 0.077658366
C  C26  1  0.73401000  0.97309000  0.96471000  1.0 0.0708175758
C  C27  1  0.91580000  0.91776000  0.05064000  1.0 0.100357529
C  C28  1  0.82643000  0.98941000  0.09019000  1.0 -0.1915228207
C  C29  1  0.90268000  0.90744000  0.63016000  1.0 0.100357529
C  C30  1  0.60035000  0.82561000  0.16919000  1.0 0.0488082447
C  C31  1  0.46442000  0.99492000  0.25828000  1.0 0.0708175758
C  C32  1  0.00284000  0.84722000  0.94818000  1.0 -0.1956753965
C  C33  1  0.84015000  0.84905000  0.95475000  1.0 0.0708175758
C  C34  1  0.99819000  0.84925000  0.89035000  1.0 0.0488082447
C  C35  1  0.78039000  0.84565000  0.01595000  1.0 -0.1915228207
C  C36  1  0.66996000  0.97482000  0.02698000  1.0 -0.2060127021
C  C37  1  0.91511000  0.84553000  0.66047000  1.0 -0.1915228207
C  C38  1  0.66375000  0.82311000  0.10649000  1.0 -0.1915228207
C  C39  1  0.52418000  0.99730000  0.19690000  1.0 -0.1915228207
C  C40  1  0.88699000  0.97381000  0.66699000  1.0 -0.1915228207
C  C41  1  0.90595000  0.19727000  0.34033000  1.0 0.100357529
C  C42  1  0.84053000  0.51975000  0.27485000  1.0 0.0708175758
C  C43  1  0.90526000  0.13098000  0.34042000  1.0 0.100357529
C  C44  1  0.73723000  0.52719000  0.39921000  1.0 0.0488082447
C  C45  1  0.09063000  0.22351000  0.26369000  1.0 0.077658366
C  C46  1  0.92181000  0.28529000  0.27691000  1.0 0.0708175758
C  C47  1  0.13420000  0.19936000  0.33224000  1.0 0.100357529
C  C48  1  0.15603000  0.15981000  0.26059000  1.0 -0.1915228207
C  C49  1  0.69028000  0.61984000  0.34256000  1.0 0.100357529
C  C50  1  0.84515000  0.08081000  0.42439000  1.0 0.0488082447
C  C51  1  0.96762000  0.99172000  0.25508000  1.0 0.0708175758
C  C52  1  0.04824000  0.30182000  0.40278000  1.0 -0.1956753965
C  C53  1  0.89395000  0.29525000  0.40095000  1.0 0.0708175758
C  C54  1  0.98779000  0.35965000  0.40075000  1.0 0.0488082447
C  C55  1  0.89199000  0.23405000  0.40435000  1.0 -0.1915228207
C  C56  1  0.92176000  0.22302000  0.27518000  1.0 -0.2060127021
C  C57  1  0.67111000  0.58953000  0.40447000  1.0 -0.1915228207
C  C58  1  0.84335000  0.14351000  0.42689000  1.0 -0.1915228207
C  C59  1  0.96838000  0.05310000  0.25270000  1.0 -0.1915228207
C  C60  1  0.77779000  0.58301000  0.27619000  1.0 -0.1915228207
C  C61  1  0.19727000  0.90595000  0.55645000  1.0 0.100357529
C  C62  1  0.51975000  0.84053000  0.36487000  1.0 0.0708175758
C  C63  1  0.13098000  0.90526000  0.62334000  1.0 0.100357529
C  C64  1  0.52719000  0.73723000  0.33637000  1.0 0.0488082447
C  C65  1  0.22351000  0.09063000  0.42217000  1.0 0.077658366
C  C66  1  0.28529000  0.92181000  0.51599000  1.0 0.0708175758
C  C67  1  0.19936000  0.13420000  0.33420000  1.0 0.100357529
C  C68  1  0.15981000  0.15603000  0.42357000  1.0 -0.1915228207
C  C69  1  0.61984000  0.69028000  0.34732000  1.0 0.100357529
C  C70  1  0.08081000  0.84515000  0.64965000  1.0 0.0488082447
C  C71  1  0.99172000  0.96762000  0.78558000  1.0 0.0708175758
C  C72  1  0.30182000  0.04824000  0.24716000  1.0 -0.1915228207
C  C73  1  0.29525000  0.89395000  0.40985000  1.0 0.0708175758
C  C74  1  0.35965000  0.98779000  0.25181000  1.0 0.0488082447
C  C75  1  0.23405000  0.89199000  0.46961000  1.0 -0.1915228207
C  C76  1  0.22302000  0.92176000  0.58004000  1.0 -0.2060127021
C  C77  1  0.58953000  0.67111000  0.33489000  1.0 -0.1915228207
C  C78  1  0.14351000  0.84335000  0.58625000  1.0 -0.1915228207
C  C79  1  0.05310000  0.96838000  0.72582000  1.0 -0.1915228207
C  C80  1  0.58301000  0.77779000  0.36301000  1.0 -0.1915228207
C  C81  1  0.34405000  0.05273000  0.90967000  1.0 0.100357529
C  C82  1  0.40947000  0.73025000  0.97515000  1.0 0.0708175758
C  C83  1  0.34474000  0.11902000  0.90958000  1.0 0.100357529
C  C84  1  0.51277000  0.72281000  0.85079000  1.0 0.0488082447
C  C85  1  0.15937000  0.02649000  0.98631000  1.0 0.077658366
C  C86  1  0.32819000  0.96471000  0.97309000  1.0 0.0708175758
C  C87  1  0.11580000  0.05064000  0.91776000  1.0 0.100357529
C  C88  1  0.09397000  0.09019000  0.98941000  1.0 -0.1915228207
C  C89  1  0.55972000  0.63016000  0.90744000  1.0 0.100357529
C  C90  1  0.40485000  0.16919000  0.82561000  1.0 0.0488082447
C  C91  1  0.28238000  0.25828000  0.99492000  1.0 0.0708175758
C  C92  1  0.20176000  0.94818000  0.84722000  1.0 -0.1956753965
C  C93  1  0.35605000  0.95475000  0.84905000  1.0 0.0708175758
C  C94  1  0.26221000  0.89035000  0.84925000  1.0 0.0488082447
C  C95  1  0.35801000  0.01595000  0.84565000  1.0 -0.1915228207
C  C96  1  0.32824000  0.02698000  0.97482000  1.0 -0.2060127021
C  C97  1  0.57889000  0.66047000  0.84553000  1.0 -0.1915228207
C  C98  1  0.40665000  0.10649000  0.82311000  1.0 -0.1915228207
C  C99  1  0.28162000  0.19690000  0.99730000  1.0 -0.1915228207
C  C100  1  0.47221000  0.66699000  0.97381000  1.0 -0.1915228207
C  C101  1  0.05273000  0.34405000  0.69355000  1.0 0.100357529
C  C102  1  0.73025000  0.40947000  0.88513000  1.0 0.0708175758
C  C103  1  0.11902000  0.34474000  0.62666000  1.0 0.100357529
C  C104  1  0.72281000  0.51277000  0.91363000  1.0 0.0488082447
C  C105  1  0.02649000  0.15937000  0.82783000  1.0 0.077658366
C  C106  1  0.96471000  0.32819000  0.73401000  1.0 0.0708175758
C  C107  1  0.05064000  0.11580000  0.91580000  1.0 0.100357529
C  C108  1  0.09019000  0.09397000  0.82643000  1.0 -0.1915228207
C  C109  1  0.63016000  0.55972000  0.90268000  1.0 0.100357529
C  C110  1  0.16919000  0.40485000  0.60035000  1.0 0.0488082447
C  C111  1  0.25828000  0.28238000  0.46442000  1.0 0.0708175758
C  C112  1  0.94818000  0.20176000  0.00284000  1.0 -0.1956753965
C  C113  1  0.95475000  0.35605000  0.84015000  1.0 0.0708175758
C  C114  1  0.89035000  0.26221000  0.99819000  1.0 0.0488082447
C  C115  1  0.01595000  0.35801000  0.78039000  1.0 -0.1915228207
C  C116  1  0.02698000  0.32824000  0.66996000  1.0 -0.2060127021
C  C117  1  0.66047000  0.57889000  0.91511000  1.0 -0.1915228207
C  C118  1  0.10649000  0.40665000  0.66375000  1.0 -0.1915228207
C  C119  1  0.19690000  0.28162000  0.52418000  1.0 -0.1915228207
C  C120  1  0.66699000  0.47221000  0.88699000  1.0 -0.1915228207
C  C121  1  0.34033000  0.55645000  0.90595000  1.0 0.100357529
C  C122  1  0.27485000  0.36487000  0.84053000  1.0 0.0708175758
C  C123  1  0.34042000  0.62334000  0.90526000  1.0 0.100357529
C  C124  1  0.39921000  0.33637000  0.73723000  1.0 0.0488082447
C  C125  1  0.26369000  0.42217000  0.09063000  1.0 0.077658366
C  C126  1  0.27691000  0.51599000  0.92181000  1.0 0.0708175758
C  C127  1  0.33224000  0.33420000  0.13420000  1.0 0.100357529
C  C128  1  0.26059000  0.42357000  0.15603000  1.0 -0.1915228207
C  C129  1  0.34256000  0.34732000  0.69028000  1.0 0.100357529
C  C130  1  0.42439000  0.64965000  0.84515000  1.0 0.0488082447
C  C131  1  0.25508000  0.78558000  0.96762000  1.0 0.0708175758
C  C132  1  0.40278000  0.24716000  0.04824000  1.0 -0.1956753965
C  C133  1  0.40095000  0.40985000  0.89395000  1.0 0.0708175758
C  C134  1  0.40075000  0.25181000  0.98779000  1.0 0.0488082447
C  C135  1  0.40435000  0.46961000  0.89199000  1.0 -0.1915228207
C  C136  1  0.27518000  0.58004000  0.92176000  1.0 -0.2060127021
C  C137  1  0.40447000  0.33489000  0.67111000  1.0 -0.1915228207
C  C138  1  0.42689000  0.58625000  0.84335000  1.0 -0.1915228207
C  C139  1  0.25270000  0.72582000  0.96838000  1.0 -0.1915228207
C  C140  1  0.27619000  0.36301000  0.77779000  1.0 -0.1915228207
C  C141  1  0.55645000  0.34033000  0.19727000  1.0 0.100357529
C  C142  1  0.36487000  0.27485000  0.51975000  1.0 0.0708175758
C  C143  1  0.62334000  0.34042000  0.13098000  1.0 0.100357529
C  C144  1  0.33637000  0.39921000  0.52719000  1.0 0.0488082447
C  C145  1  0.42217000  0.26369000  0.22351000  1.0 0.077658366
C  C146  1  0.51599000  0.27691000  0.28529000  1.0 0.0708175758
C  C147  1  0.33420000  0.33224000  0.19936000  1.0 0.100357529
C  C148  1  0.42357000  0.26059000  0.15981000  1.0 -0.1915228207
C  C149  1  0.34732000  0.34256000  0.61984000  1.0 0.100357529
C  C150  1  0.64965000  0.42439000  0.08081000  1.0 0.0488082447
C  C151  1  0.78558000  0.25508000  0.99172000  1.0 0.0708175758
C  C152  1  0.24716000  0.40278000  0.30182000  1.0 -0.1956753965
C  C153  1  0.40985000  0.40095000  0.29525000  1.0 0.0708175758
C  C154  1  0.25181000  0.40075000  0.35965000  1.0 0.0488082447
C  C155  1  0.46961000  0.40435000  0.23405000  1.0 -0.1915228207
C  C156  1  0.58004000  0.27518000  0.22302000  1.0 -0.2060127021
C  C157  1  0.33489000  0.40447000  0.58953000  1.0 -0.1915228207
C  C158  1  0.58625000  0.42689000  0.14351000  1.0 -0.1915228207
C  C159  1  0.72582000  0.25270000  0.05310000  1.0 -0.1915228207
C  C160  1  0.36301000  0.27619000  0.58301000  1.0 -0.1915228207
N  N1  1  0.91352000  0.90044000  0.42936000  1.0 -0.2275924249
N  N2  1  0.91176000  0.81736000  0.34064000  1.0 -0.2275924249
N  N3  1  0.91748000  0.91188000  0.24212000  1.0 -0.2275924249
N  N4  1  0.91061000  0.50107000  0.34273000  1.0 -0.2275924249
N  N5  1  0.16620000  0.69060000  0.16280000  1.0 0.5411156504
N  N6  1  0.90044000  0.91352000  0.75668000  1.0 -0.2275924249
N  N7  1  0.81736000  0.91176000  0.93024000  1.0 -0.2275924249
N  N8  1  0.91188000  0.91748000  0.92852000  1.0 -0.2275924249
N  N9  1  0.50107000  0.91061000  0.24559000  1.0 -0.2275924249
N  N10  1  0.69060000  0.16620000  0.98040000  1.0 0.5411156504
N  N11  1  0.82064000  0.49332000  0.33648000  1.0 -0.2275924249
N  N12  1  0.90936000  0.31976000  0.33824000  1.0 -0.2275924249
N  N13  1  0.00788000  0.32148000  0.33252000  1.0 -0.2275924249
N  N14  1  0.90727000  0.00441000  0.33939000  1.0 -0.2275924249
N  N15  1  0.08720000  0.26960000  0.08380000  1.0 0.5411156504
N  N16  1  0.49332000  0.82064000  0.34956000  1.0 -0.2275924249
N  N17  1  0.31976000  0.90936000  0.43264000  1.0 -0.2275924249
N  N18  1  0.32148000  0.00788000  0.33812000  1.0 -0.2275924249
N  N19  1  0.00441000  0.90727000  0.74893000  1.0 -0.2275924249
N  N20  1  0.26960000  0.08720000  0.55940000  1.0 0.5411156504
N  N21  1  0.42936000  0.75668000  0.91352000  1.0 -0.2275924249
N  N22  1  0.34064000  0.93024000  0.91176000  1.0 -0.2275924249
N  N23  1  0.24212000  0.92852000  0.91748000  1.0 -0.2275924249
N  N24  1  0.34273000  0.24559000  0.91061000  1.0 -0.2275924249
N  N25  1  0.16280000  0.98040000  0.16620000  1.0 0.5509473949
N  N26  1  0.75668000  0.42936000  0.90044000  1.0 -0.2275924249
N  N27  1  0.93024000  0.34064000  0.81736000  1.0 -0.2275924249
N  N28  1  0.92852000  0.24212000  0.91188000  1.0 -0.2275924249
N  N29  1  0.24559000  0.34273000  0.50107000  1.0 -0.2275924249
N  N30  1  0.98040000  0.16280000  0.69060000  1.0 0.5509473949
N  N31  1  0.33648000  0.34956000  0.82064000  1.0 -0.2275924249
N  N32  1  0.33824000  0.43264000  0.90936000  1.0 -0.2275924249
N  N33  1  0.33252000  0.33812000  0.00788000  1.0 -0.2275924249
N  N34  1  0.33939000  0.74893000  0.90727000  1.0 -0.2275924249
N  N35  1  0.08380000  0.55940000  0.08720000  1.0 0.5411156504
N  N36  1  0.34956000  0.33648000  0.49332000  1.0 -0.2275924249
N  N37  1  0.43264000  0.33824000  0.31976000  1.0 -0.2275924249
N  N38  1  0.33812000  0.33252000  0.32148000  1.0 -0.2275924249
N  N39  1  0.74893000  0.33939000  0.00441000  1.0 -0.2275924249
N  N40  1  0.55940000  0.08380000  0.26960000  1.0 0.5411156504
O  O1  1  0.09723000  0.76919000  0.19081000  1.0 -0.422538849
O  O2  1  0.72687000  0.05589000  0.48451000  1.0 -0.7129733474
O  O3  1  0.20590000  0.61050000  0.16110000  1.0 -0.4027077243
O  O4  1  0.23270000  0.67430000  0.13050000  1.0 -0.3759380043
O  O5  1  0.76919000  0.09723000  0.94277000  1.0 -0.422538849
O  O6  1  0.05589000  0.72687000  0.73273000  1.0 -0.7129733474
O  O7  1  0.61050000  0.20590000  0.02250000  1.0 -0.4027077243
O  O8  1  0.67430000  0.23270000  0.96250000  1.0 -0.3732637004
O  O9  1  0.05919000  0.30723000  0.15277000  1.0 -0.422538849
O  O10  1  0.76549000  0.51727000  0.52313000  1.0 -0.7129733474
O  O11  1  0.08890000  0.22750000  0.04410000  1.0 -0.4027077243
O  O12  1  0.11950000  0.28750000  0.01730000  1.0 -0.3732637004
O  O13  1  0.30723000  0.05919000  0.48081000  1.0 -0.422538849
O  O14  1  0.51727000  0.76549000  0.19411000  1.0 -0.7129733474
O  O15  1  0.22750000  0.08890000  0.63950000  1.0 -0.4027077243
O  O16  1  0.28750000  0.11950000  0.57570000  1.0 -0.3759380043
O  O17  1  0.19081000  0.94277000  0.09723000  1.0 -0.422538849
O  O18  1  0.48451000  0.73273000  0.72687000  1.0 -0.7129733474
O  O19  1  0.16110000  0.02250000  0.20590000  1.0 -0.4027077243
O  O20  1  0.13050000  0.96250000  0.23270000  1.0 -0.3759380043
O  O21  1  0.94277000  0.19081000  0.76919000  1.0 -0.422538849
O  O22  1  0.73273000  0.48451000  0.05589000  1.0 -0.7129733474
O  O23  1  0.02250000  0.16110000  0.61050000  1.0 -0.4027077243
O  O24  1  0.96250000  0.13050000  0.67430000  1.0 -0.3732637004
O  O25  1  0.15277000  0.48081000  0.05919000  1.0 -0.422538849
O  O26  1  0.52313000  0.19411000  0.76549000  1.0 -0.7129733474
O  O27  1  0.04410000  0.63950000  0.08890000  1.0 -0.4027077243
O  O28  1  0.01730000  0.57570000  0.11950000  1.0 -0.3759380043
O  O29  1  0.48081000  0.15277000  0.30723000  1.0 -0.422538849
O  O30  1  0.19411000  0.52313000  0.51727000  1.0 -0.7129733474
O  O31  1  0.63950000  0.04410000  0.22750000  1.0 -0.4027077243
O  O32  1  0.57570000  0.01730000  0.28750000  1.0 -0.3732637004
