# DDEC6 charges by PACMAN v1.1 (https://github.com/mtap-research/PACMAN-charge/)
data_SOLHUZ_FSR_pacman
_symmetry_space_group_name_H-M   'P 1'
_cell_length_a   19.46000000
_cell_length_b   19.46000000
_cell_length_c   19.46000000
_cell_angle_alpha   93.92080000
_cell_angle_beta   93.92080000
_cell_angle_gamma   149.68300000
_symmetry_Int_Tables_number   1
_chemical_formula_structural   Zr5(C3O2)12
_chemical_formula_sum   'Zr10 C72 O48'
_cell_volume   3590.49062764
_cell_formula_units_Z   2
loop_
 _symmetry_equiv_pos_site_id
 _symmetry_equiv_pos_as_xyz
  1  'x, y, z'
loop_
 _atom_site_type_symbol
 _atom_site_label
 _atom_site_symmetry_multiplicity
 _atom_site_fract_x
 _atom_site_fract_y
 _atom_site_fract_z
 _atom_site_occupancy
 _atom_site_charge
Zr  Zr1  1  0.75000000  0.75000000  0.00000000  1.0 2.454510173
Zr  Zr2  1  0.25000000  0.25000000  0.00000000  1.0 2.454510173
Zr  Zr3  1  0.57666000  0.55084000  0.12750000  1.0 2.2793896702
Zr  Zr4  1  0.42334000  0.44916000  0.87250000  1.0 2.2793896702
Zr  Zr5  1  0.44916000  0.57666000  0.02582000  1.0 2.2793896702
Zr  Zr6  1  0.55084000  0.42334000  0.97418000  1.0 2.2793896702
Zr  Zr7  1  0.92334000  0.05084000  0.97418000  1.0 2.2793896702
Zr  Zr8  1  0.07666000  0.94916000  0.02582000  1.0 2.2793896702
Zr  Zr9  1  0.05084000  0.07666000  0.12750000  1.0 2.2793896702
Zr  Zr10  1  0.94916000  0.92334000  0.87250000  1.0 2.2793896702
C  C1  1  0.90071000  0.84345000  0.34696000  1.0 0.0224668926
C  C2  1  0.93720000  0.88053000  0.41973000  1.0 -0.0375378061
C  C3  1  0.49649000  0.55375000  0.65304000  1.0 0.0224668926
C  C4  1  0.46080000  0.51747000  0.58027000  1.0 -0.0375378061
C  C5  1  0.55375000  0.90071000  0.05726000  1.0 0.0224668926
C  C6  1  0.51747000  0.93720000  0.05667000  1.0 -0.0375378061
C  C7  1  0.84345000  0.49649000  0.94274000  1.0 0.0224668926
C  C8  1  0.88053000  0.46080000  0.94333000  1.0 -0.0375378061
C  C9  1  0.59929000  0.94625000  0.94274000  1.0 0.0224668926
C  C10  1  0.56280000  0.98253000  0.94333000  1.0 -0.0375378061
C  C11  1  0.00351000  0.65655000  0.05726000  1.0 0.0224668926
C  C12  1  0.03920000  0.61947000  0.05667000  1.0 -0.0375378061
C  C13  1  0.94625000  0.00351000  0.34696000  1.0 0.0224668926
C  C14  1  0.98253000  0.03920000  0.41973000  1.0 -0.0375378061
C  C15  1  0.65655000  0.59929000  0.65304000  1.0 0.0224668926
C  C16  1  0.61947000  0.56280000  0.58027000  1.0 -0.0375378061
C  C17  1  0.09929000  0.15655000  0.65304000  1.0 0.0224668926
C  C18  1  0.06280000  0.11947000  0.58027000  1.0 -0.0375378061
C  C19  1  0.50351000  0.44625000  0.34696000  1.0 0.0224668926
C  C20  1  0.53920000  0.48253000  0.41973000  1.0 -0.0375378061
C  C21  1  0.44625000  0.09929000  0.94274000  1.0 0.0224668926
C  C22  1  0.48253000  0.06280000  0.94333000  1.0 -0.0375378061
C  C23  1  0.15655000  0.50351000  0.05726000  1.0 0.0224668926
C  C24  1  0.11947000  0.53920000  0.05667000  1.0 -0.0375378061
C  C25  1  0.40071000  0.05375000  0.05726000  1.0 0.0224668926
C  C26  1  0.43720000  0.01747000  0.05667000  1.0 -0.0375378061
C  C27  1  0.99649000  0.34345000  0.94274000  1.0 0.0224668926
C  C28  1  0.96080000  0.38053000  0.94333000  1.0 -0.0375378061
C  C29  1  0.05375000  0.99649000  0.65304000  1.0 0.0224668926
C  C30  1  0.01747000  0.96080000  0.58027000  1.0 -0.0375378061
C  C31  1  0.34345000  0.40071000  0.34696000  1.0 0.0224668926
C  C32  1  0.38053000  0.43720000  0.41973000  1.0 -0.0375378061
C  C33  1  0.65540000  0.47060000  0.12600000  1.0 0.6924414117
C  C34  1  0.71160000  0.45680000  0.16840000  1.0 -0.4029598552
C  C35  1  0.34460000  0.52940000  0.87400000  1.0 0.6924414117
C  C36  1  0.28840000  0.54320000  0.83160000  1.0 -0.4029598552
C  C37  1  0.52940000  0.65540000  0.18480000  1.0 0.6924414117
C  C38  1  0.54320000  0.71160000  0.25480000  1.0 -0.4029598552
C  C39  1  0.47060000  0.34460000  0.81520000  1.0 0.6924414117
C  C40  1  0.45680000  0.28840000  0.74520000  1.0 -0.4029598552
C  C41  1  0.84460000  0.97060000  0.81520000  1.0 0.6924414117
C  C42  1  0.78840000  0.95680000  0.74520000  1.0 -0.4029598552
C  C43  1  0.15540000  0.02940000  0.18480000  1.0 0.6958176402
C  C44  1  0.21160000  0.04320000  0.25480000  1.0 -0.4029598552
C  C45  1  0.97060000  0.15540000  0.12600000  1.0 0.6958176402
C  C46  1  0.95680000  0.21160000  0.16840000  1.0 -0.4029598552
C  C47  1  0.02940000  0.84460000  0.87400000  1.0 0.6924414117
C  C48  1  0.04320000  0.78840000  0.83160000  1.0 -0.4029598552
C  C49  1  0.86308000  0.86308000  0.22616000  1.0 0.6924414117
C  C50  1  0.90455000  0.90455000  0.30910000  1.0 -0.005428532
C  C51  1  0.97928000  0.97928000  0.45856000  1.0 0.1093943744
C  C52  1  0.63692000  0.63692000  0.77384000  1.0 0.6924414117
C  C53  1  0.59545000  0.59545000  0.69090000  1.0 -0.005428532
C  C54  1  0.52072000  0.52072000  0.54144000  1.0 0.1093943744
C  C55  1  0.63692000  0.86308000  0.00000000  1.0 0.6924414117
C  C56  1  0.59545000  0.90455000  0.00000000  1.0 -0.005428532
C  C57  1  0.52072000  0.97928000  0.00000000  1.0 0.1093943744
C  C58  1  0.86308000  0.63692000  0.00000000  1.0 0.6924414117
C  C59  1  0.90455000  0.59545000  0.00000000  1.0 -0.005428532
C  C60  1  0.97928000  0.52072000  0.00000000  1.0 0.1093943744
C  C61  1  0.13692000  0.13692000  0.77384000  1.0 0.6924414117
C  C62  1  0.09545000  0.09545000  0.69090000  1.0 -0.005428532
C  C63  1  0.02072000  0.02072000  0.54144000  1.0 0.1093943744
C  C64  1  0.36308000  0.36308000  0.22616000  1.0 0.6924414117
C  C65  1  0.40455000  0.40455000  0.30910000  1.0 -0.005428532
C  C66  1  0.47928000  0.47928000  0.45856000  1.0 0.1093943744
C  C67  1  0.36308000  0.13692000  0.00000000  1.0 0.6924414117
C  C68  1  0.40455000  0.09545000  0.00000000  1.0 -0.005428532
C  C69  1  0.47928000  0.02072000  0.00000000  1.0 0.1093943744
C  C70  1  0.13692000  0.36308000  0.00000000  1.0 0.6924414117
C  C71  1  0.09545000  0.40455000  0.00000000  1.0 -0.005428532
C  C72  1  0.02072000  0.47928000  0.00000000  1.0 0.1093943744
O  O1  1  0.68170000  0.61160000  0.04410000  1.0 -0.8614025916
O  O2  1  0.77590000  0.74234000  0.18724000  1.0 -0.5474720855
O  O3  1  0.56750000  0.63760000  0.95590000  1.0 -0.8614025916
O  O4  1  0.55510000  0.58866000  0.81276000  1.0 -0.5474720855
O  O5  1  0.63760000  0.68170000  0.07010000  1.0 -0.8614025916
O  O6  1  0.58866000  0.77590000  0.03356000  1.0 -0.5474720855
O  O7  1  0.61160000  0.56750000  0.92990000  1.0 -0.8614025916
O  O8  1  0.74234000  0.55510000  0.96644000  1.0 -0.5474720855
O  O9  1  0.81830000  0.86240000  0.92990000  1.0 -0.8614025916
O  O10  1  0.72410000  0.91134000  0.96644000  1.0 -0.5474720855
O  O11  1  0.93250000  0.88840000  0.07010000  1.0 -0.8614025916
O  O12  1  0.94490000  0.75766000  0.03356000  1.0 -0.5474720855
O  O13  1  0.86240000  0.93250000  0.04410000  1.0 -0.8614025916
O  O14  1  0.91134000  0.94490000  0.18724000  1.0 -0.5474720855
O  O15  1  0.88840000  0.81830000  0.95590000  1.0 -0.8614025916
O  O16  1  0.75766000  0.72410000  0.81276000  1.0 -0.5474720855
O  O17  1  0.31830000  0.38840000  0.95590000  1.0 -0.8614025916
O  O18  1  0.22410000  0.25766000  0.81276000  1.0 -0.5474720855
O  O19  1  0.43250000  0.36240000  0.04410000  1.0 -0.8614025916
O  O20  1  0.44490000  0.41134000  0.18724000  1.0 -0.5474720855
O  O21  1  0.36240000  0.31830000  0.92990000  1.0 -0.8614025916
O  O22  1  0.41134000  0.22410000  0.96644000  1.0 -0.5474720855
O  O23  1  0.38840000  0.43250000  0.07010000  1.0 -0.8614025916
O  O24  1  0.25766000  0.44490000  0.03356000  1.0 -0.5474720855
O  O25  1  0.18170000  0.13760000  0.07010000  1.0 -0.8614025916
O  O26  1  0.27590000  0.08866000  0.03356000  1.0 -0.5474720855
O  O27  1  0.06750000  0.11160000  0.92990000  1.0 -0.8614025916
O  O28  1  0.05510000  0.24234000  0.96644000  1.0 -0.5474720855
O  O29  1  0.13760000  0.06750000  0.95590000  1.0 -0.8614025916
O  O30  1  0.08866000  0.05510000  0.81276000  1.0 -0.5474720855
O  O31  1  0.11160000  0.18170000  0.04410000  1.0 -0.8614025916
O  O32  1  0.24234000  0.27590000  0.18724000  1.0 -0.5474720855
O  O33  1  0.64460000  0.51640000  0.16100000  1.0 -0.5443247351
O  O34  1  0.62619000  0.43309000  0.05928000  1.0 -0.5867473277
O  O35  1  0.35540000  0.48360000  0.83900000  1.0 -0.5474720855
O  O36  1  0.37381000  0.56691000  0.94072000  1.0 -0.5867473277
O  O37  1  0.48360000  0.64460000  0.12820000  1.0 -0.5443247351
O  O38  1  0.56691000  0.62619000  0.19310000  1.0 -0.5867473277
O  O39  1  0.51640000  0.35540000  0.87180000  1.0 -0.5443247351
O  O40  1  0.43309000  0.37381000  0.80690000  1.0 -0.5867473277
O  O41  1  0.85540000  0.01640000  0.87180000  1.0 -0.5443247351
O  O42  1  0.87381000  0.93309000  0.80690000  1.0 -0.5867473277
O  O43  1  0.14460000  0.98360000  0.12820000  1.0 -0.5474720855
O  O44  1  0.12619000  0.06691000  0.19310000  1.0 -0.5867473277
O  O45  1  0.01640000  0.14460000  0.16100000  1.0 -0.5443247351
O  O46  1  0.93309000  0.12619000  0.05928000  1.0 -0.5867473277
O  O47  1  0.98360000  0.85540000  0.83900000  1.0 -0.5443247351
O  O48  1  0.06691000  0.87381000  0.94072000  1.0 -0.5867473277
