# DDEC6 charges by PACMAN v1.1 (https://github.com/mtap-research/PACMAN-charge/)
data_SOLHOT_FSR_pacman
_symmetry_space_group_name_H-M   'P 1'
_cell_length_a   15.29110000
_cell_length_b   15.29110000
_cell_length_c   15.29110000
_cell_angle_alpha   96.35910000
_cell_angle_beta   96.35910000
_cell_angle_gamma   141.12200000
_symmetry_Int_Tables_number   1
_chemical_formula_structural   Zr5(CO)24
_chemical_formula_sum   'Zr10 C48 O48'
_cell_volume   2116.18072340
_cell_formula_units_Z   2
loop_
 _symmetry_equiv_pos_site_id
 _symmetry_equiv_pos_as_xyz
  1  'x, y, z'
loop_
 _atom_site_type_symbol
 _atom_site_label
 _atom_site_symmetry_multiplicity
 _atom_site_fract_x
 _atom_site_fract_y
 _atom_site_fract_z
 _atom_site_occupancy
 _atom_site_charge
Zr  Zr1  1  0.75000000  0.75000000  0.00000000  1.0 2.5884893965
Zr  Zr2  1  0.25000000  0.25000000  0.00000000  1.0 2.5884893965
Zr  Zr3  1  0.60142000  0.56735000  0.16877000  1.0 2.398270769
Zr  Zr4  1  0.39858000  0.43265000  0.83123000  1.0 2.398270769
Zr  Zr5  1  0.43265000  0.60142000  0.03407000  1.0 2.398270769
Zr  Zr6  1  0.56735000  0.39858000  0.96593000  1.0 2.398270769
Zr  Zr7  1  0.89858000  0.06735000  0.96593000  1.0 2.398270769
Zr  Zr8  1  0.10142000  0.93265000  0.03407000  1.0 2.398270769
Zr  Zr9  1  0.06735000  0.10142000  0.16877000  1.0 2.398270769
Zr  Zr10  1  0.93265000  0.89858000  0.83123000  1.0 2.398270769
C  C1  1  0.91948000  0.86416000  0.45244000  1.0 0.0596896906
C  C2  1  0.41172000  0.46704000  0.54756000  1.0 0.0596896906
C  C3  1  0.46704000  0.91948000  0.05532000  1.0 0.0596896906
C  C4  1  0.86416000  0.41172000  0.94468000  1.0 0.0596896906
C  C5  1  0.58052000  0.03296000  0.94468000  1.0 0.0596896906
C  C6  1  0.08828000  0.63584000  0.05532000  1.0 0.0596896906
C  C7  1  0.03296000  0.08828000  0.45244000  1.0 0.0596896906
C  C8  1  0.63584000  0.58052000  0.54756000  1.0 0.0596896906
C  C9  1  0.08052000  0.13584000  0.54756000  1.0 0.0596896906
C  C10  1  0.58828000  0.53296000  0.45244000  1.0 0.0596896906
C  C11  1  0.53296000  0.08052000  0.94468000  1.0 0.0596896906
C  C12  1  0.13584000  0.58828000  0.05532000  1.0 0.0596896906
C  C13  1  0.41948000  0.96704000  0.05532000  1.0 0.0596896906
C  C14  1  0.91172000  0.36416000  0.94468000  1.0 0.0596896906
C  C15  1  0.96704000  0.91172000  0.54756000  1.0 0.0596896906
C  C16  1  0.36416000  0.41948000  0.45244000  1.0 0.0596896906
C  C17  1  0.71448000  0.45482000  0.16930000  1.0 0.7538248729
C  C18  1  0.78699000  0.44162000  0.22861000  1.0 -0.3740534503
C  C19  1  0.28552000  0.54518000  0.83070000  1.0 0.7538248729
C  C20  1  0.21301000  0.55838000  0.77139000  1.0 -0.3740534503
C  C21  1  0.54518000  0.71448000  0.25966000  1.0 0.7538248729
C  C22  1  0.55838000  0.78699000  0.34537000  1.0 -0.3740534503
C  C23  1  0.45482000  0.28552000  0.74034000  1.0 0.7538248729
C  C24  1  0.44162000  0.21301000  0.65463000  1.0 -0.3740534503
C  C25  1  0.78552000  0.95482000  0.74034000  1.0 0.7538248729
C  C26  1  0.71301000  0.94162000  0.65463000  1.0 -0.3740534503
C  C27  1  0.21448000  0.04518000  0.25966000  1.0 0.7538248729
C  C28  1  0.28699000  0.05838000  0.34537000  1.0 -0.3740534503
C  C29  1  0.95482000  0.21448000  0.16930000  1.0 0.7538248729
C  C30  1  0.94162000  0.28699000  0.22861000  1.0 -0.3740534503
C  C31  1  0.04518000  0.78552000  0.83070000  1.0 0.7538248729
C  C32  1  0.05838000  0.71301000  0.77139000  1.0 -0.3740534503
C  C33  1  0.89839000  0.89839000  0.29678000  1.0 0.7194937524
C  C34  1  0.95119000  0.95119000  0.40238000  1.0 0.0004255713
C  C35  1  0.60161000  0.60161000  0.70322000  1.0 0.7194937524
C  C36  1  0.54881000  0.54881000  0.59762000  1.0 0.0004255713
C  C37  1  0.60161000  0.89839000  0.00000000  1.0 0.7194937524
C  C38  1  0.54881000  0.95119000  0.00000000  1.0 0.0004255713
C  C39  1  0.89839000  0.60161000  0.00000000  1.0 0.7194937524
C  C40  1  0.95119000  0.54881000  0.00000000  1.0 0.0004255713
C  C41  1  0.10161000  0.10161000  0.70322000  1.0 0.7194937524
C  C42  1  0.04881000  0.04881000  0.59762000  1.0 -0.0008759815
C  C43  1  0.39839000  0.39839000  0.29678000  1.0 0.7194937524
C  C44  1  0.45119000  0.45119000  0.40238000  1.0 0.0004255713
C  C45  1  0.39839000  0.10161000  0.00000000  1.0 0.7194937524
C  C46  1  0.45119000  0.04881000  0.00000000  1.0 0.0004255713
C  C47  1  0.10161000  0.39839000  0.00000000  1.0 0.7194937524
C  C48  1  0.04881000  0.45119000  0.00000000  1.0 0.0004255713
O  O1  1  0.70459000  0.60919000  0.06316000  1.0 -0.9733174387
O  O2  1  0.82238000  0.76919000  0.25529000  1.0 -0.5566306431
O  O3  1  0.54603000  0.64143000  0.93684000  1.0 -0.9733174387
O  O4  1  0.51390000  0.56709000  0.74471000  1.0 -0.5566306431
O  O5  1  0.64143000  0.70459000  0.09540000  1.0 -0.9733174387
O  O6  1  0.56709000  0.82238000  0.05319000  1.0 -0.5566306431
O  O7  1  0.60919000  0.54603000  0.90460000  1.0 -0.9733174387
O  O8  1  0.76919000  0.51390000  0.94681000  1.0 -0.5566306431
O  O9  1  0.79541000  0.85857000  0.90460000  1.0 -0.9733174387
O  O10  1  0.67762000  0.93291000  0.94681000  1.0 -0.5566306431
O  O11  1  0.95397000  0.89081000  0.09540000  1.0 -0.9733174387
O  O12  1  0.98610000  0.73081000  0.05319000  1.0 -0.5566306431
O  O13  1  0.85857000  0.95397000  0.06316000  1.0 -0.9733174387
O  O14  1  0.93291000  0.98610000  0.25529000  1.0 -0.5566306431
O  O15  1  0.89081000  0.79541000  0.93684000  1.0 -0.9733174387
O  O16  1  0.73081000  0.67762000  0.74471000  1.0 -0.5566306431
O  O17  1  0.29541000  0.39081000  0.93684000  1.0 -0.9733174387
O  O18  1  0.17762000  0.23081000  0.74471000  1.0 -0.5566306431
O  O19  1  0.45397000  0.35857000  0.06316000  1.0 -0.9733174387
O  O20  1  0.48610000  0.43291000  0.25529000  1.0 -0.5566306431
O  O21  1  0.35857000  0.29541000  0.90460000  1.0 -0.9733174387
O  O22  1  0.43291000  0.17762000  0.94681000  1.0 -0.5566306431
O  O23  1  0.39081000  0.45397000  0.09540000  1.0 -0.9733174387
O  O24  1  0.23081000  0.48610000  0.05319000  1.0 -0.5566306431
O  O25  1  0.20459000  0.14143000  0.09540000  1.0 -0.9733174387
O  O26  1  0.32238000  0.06709000  0.05319000  1.0 -0.5566306431
O  O27  1  0.04603000  0.10919000  0.90460000  1.0 -0.9733174387
O  O28  1  0.01390000  0.26919000  0.94681000  1.0 -0.5566306431
O  O29  1  0.14143000  0.04603000  0.93684000  1.0 -0.9733174387
O  O30  1  0.06709000  0.01390000  0.74471000  1.0 -0.5566306431
O  O31  1  0.10919000  0.20459000  0.06316000  1.0 -0.9733174387
O  O32  1  0.26919000  0.32238000  0.25529000  1.0 -0.5566306431
O  O33  1  0.69611000  0.51571000  0.21182000  1.0 -0.5794597436
O  O34  1  0.59541000  0.67627000  0.27168000  1.0 -0.6249446441
O  O35  1  0.30389000  0.48429000  0.78818000  1.0 -0.5794597436
O  O36  1  0.40459000  0.32373000  0.72832000  1.0 -0.6249446441
O  O37  1  0.48429000  0.69611000  0.18040000  1.0 -0.5794597436
O  O38  1  0.32373000  0.59541000  0.91914000  1.0 -0.6249446441
O  O39  1  0.51571000  0.30389000  0.81960000  1.0 -0.5794597436
O  O40  1  0.67627000  0.40459000  0.08086000  1.0 -0.6249446441
O  O41  1  0.80389000  0.01571000  0.81960000  1.0 -0.5794597436
O  O42  1  0.90459000  0.17627000  0.08086000  1.0 -0.6249446441
O  O43  1  0.19611000  0.98429000  0.18040000  1.0 -0.5794597436
O  O44  1  0.09541000  0.82373000  0.91914000  1.0 -0.6249446441
O  O45  1  0.01571000  0.19611000  0.21182000  1.0 -0.5794597436
O  O46  1  0.17627000  0.09541000  0.27168000  1.0 -0.6249446441
O  O47  1  0.98429000  0.80389000  0.78818000  1.0 -0.5794597436
O  O48  1  0.82373000  0.90459000  0.72832000  1.0 -0.6249446441
