# DDEC6 charges by PACMAN v1.1 (https://github.com/mtap-research/PACMAN-charge/)
data_SOMPUI_ion_pacman
_symmetry_space_group_name_H-M   'P 1'
_cell_length_a   15.70290000
_cell_length_b   16.31940000
_cell_length_c   23.35130000
_cell_angle_alpha   90.67100000
_cell_angle_beta   96.76200000
_cell_angle_gamma   117.30600000
_symmetry_Int_Tables_number   1
_chemical_formula_structural   Zn3H64C82(N15O8)2
_chemical_formula_sum   'Zn6 H128 C164 N60 O32'
_cell_volume   5265.58531602
_cell_formula_units_Z   2
loop_
 _symmetry_equiv_pos_site_id
 _symmetry_equiv_pos_as_xyz
  1  'x, y, z'
loop_
 _atom_site_type_symbol
 _atom_site_label
 _atom_site_symmetry_multiplicity
 _atom_site_fract_x
 _atom_site_fract_y
 _atom_site_fract_z
 _atom_site_occupancy
 _atom_site_charge
Zn  Zn1  1  0.33305000  0.61603000  0.38635000  1.0 0.630974857
Zn  Zn2  1  0.26121000  0.61245000  0.12493000  1.0 0.6410034577
Zn  Zn3  1  0.66695000  0.38397000  0.61365000  1.0 0.630974857
Zn  Zn4  1  0.73879000  0.38755000  0.87507000  1.0 0.6410034577
Zn  Zn5  1  0.87971000  0.68879000  0.25372000  1.0 0.7000759422
Zn  Zn6  1  0.12029000  0.31121000  0.74628000  1.0 0.7000759422
H  H1  1  0.53204000  0.27704000  0.46477000  1.0 0.1113174156
H  H2  1  0.75077000  0.42814000  0.37540000  1.0 0.129486468
H  H3  1  0.47928000  0.38812000  0.45626000  1.0 0.1203647491
H  H4  1  0.69524000  0.53754000  0.36564000  1.0 0.129486468
H  H5  1  0.67371000  0.66437000  0.41234000  1.0 0.129486468
H  H6  1  0.56631000  0.73558000  0.40153000  1.0 0.1113174156
H  H7  1  0.40389000  0.46767000  0.39625000  1.0 0.1203647491
H  H8  1  0.50075000  0.18305000  0.37126000  1.0 0.1203647491
H  H9  1  0.70115000  0.13708000  0.46854000  1.0 0.1203647491
H  H10  1  0.39284000  0.02851000  0.36798000  1.0 0.1203647491
H  H11  1  0.59183000  0.98176000  0.46605000  1.0 0.1203647491
H  H12  1  0.27850000  0.89139000  0.39598000  1.0 0.129486468
H  H13  1  0.21099000  0.72309000  0.39003000  1.0 0.129486468
H  H14  1  0.49442000  0.82789000  0.42564000  1.0 0.1003068718
H  H15  1  0.77951000  0.25594000  0.34781000  1.0 0.1203647491
H  H16  1  0.81094000  0.35509000  0.51122000  1.0 0.1203647491
H  H17  1  0.94739000  0.32146000  0.35234000  1.0 0.137220308
H  H18  1  0.97732000  0.41591000  0.51725000  1.0 0.1203647491
H  H19  1  0.12961000  0.38794000  0.51644000  1.0 0.137220308
H  H20  1  0.29171000  0.49143000  0.49429000  1.0 0.1113174156
H  H21  1  0.10616000  0.49423000  0.36665000  1.0 0.1203647491
H  H22  1  0.66558000  0.42015000  0.11719000  1.0 0.1203647491
H  H23  1  0.72998000  0.24925000  0.02648000  1.0 0.1203647491
H  H24  1  0.82563000  0.53227000  0.12632000  1.0 0.1203647491
H  H25  1  0.89067000  0.36015000  0.03796000  1.0 0.1203647491
H  H26  1  0.96256000  0.64896000  0.07409000  1.0 0.129486468
H  H27  1  0.13964000  0.72398000  0.08526000  1.0 0.1113174156
H  H28  1  0.05090000  0.45938000  0.10240000  1.0 0.1203647491
H  H29  1  0.41563000  0.11384000  0.02661000  1.0 0.129486468
H  H30  1  0.67683000  0.17265000  0.11230000  1.0 0.1203647491
H  H31  1  0.36503000  0.95828000  0.03583000  1.0 0.129486468
H  H32  1  0.62583000  0.01746000  0.12275000  1.0 0.129486468
H  H33  1  0.58379000  0.86108000  0.09249000  1.0 0.129486468
H  H34  1  0.48246000  0.70257000  0.11605000  1.0 0.129486468
H  H35  1  0.31650000  0.82502000  0.09562000  1.0 0.1003068718
H  H36  1  0.54164000  0.34849000  0.98674000  1.0 0.1203647491
H  H37  1  0.46219000  0.24402000  0.13752000  1.0 0.129486468
H  H38  1  0.43890000  0.41454000  0.98446000  1.0 0.1203647491
H  H39  1  0.36116000  0.31339000  0.13643000  1.0 0.137220308
H  H40  1  0.26276000  0.39410000  0.97737000  1.0 0.137220308
H  H41  1  0.20250000  0.49853000  0.00816000  1.0 0.1113174156
H  H42  1  0.37168000  0.48507000  0.14070000  1.0 0.1113174156
H  H43  1  0.37556000  0.59711000  0.25081000  1.0 0.1203647491
H  H44  1  0.46796000  0.72296000  0.53523000  1.0 0.1113174156
H  H45  1  0.24923000  0.57186000  0.62460000  1.0 0.129486468
H  H46  1  0.52072000  0.61188000  0.54374000  1.0 0.1203647491
H  H47  1  0.30476000  0.46246000  0.63436000  1.0 0.129486468
H  H48  1  0.32629000  0.33563000  0.58766000  1.0 0.129486468
H  H49  1  0.43369000  0.26442000  0.59847000  1.0 0.1113174156
H  H50  1  0.59611000  0.53233000  0.60375000  1.0 0.1203647491
H  H51  1  0.49925000  0.81695000  0.62874000  1.0 0.1203647491
H  H52  1  0.29885000  0.86292000  0.53146000  1.0 0.1203647491
H  H53  1  0.60716000  0.97149000  0.63202000  1.0 0.1203647491
H  H54  1  0.40817000  0.01824000  0.53395000  1.0 0.1203647491
H  H55  1  0.72150000  0.10861000  0.60402000  1.0 0.129486468
H  H56  1  0.78901000  0.27691000  0.60997000  1.0 0.129486468
H  H57  1  0.50558000  0.17211000  0.57436000  1.0 0.1003068718
H  H58  1  0.22049000  0.74406000  0.65219000  1.0 0.1203647491
H  H59  1  0.18906000  0.64491000  0.48878000  1.0 0.1203647491
H  H60  1  0.05261000  0.67854000  0.64766000  1.0 0.137220308
H  H61  1  0.02268000  0.58409000  0.48275000  1.0 0.1203647491
H  H62  1  0.87039000  0.61206000  0.48356000  1.0 0.137220308
H  H63  1  0.70829000  0.50857000  0.50571000  1.0 0.1113174156
H  H64  1  0.89384000  0.50577000  0.63335000  1.0 0.1203647491
H  H65  1  0.33442000  0.57985000  0.88281000  1.0 0.1203647491
H  H66  1  0.27002000  0.75075000  0.97352000  1.0 0.1203647491
H  H67  1  0.17437000  0.46773000  0.87368000  1.0 0.1203647491
H  H68  1  0.10933000  0.63985000  0.96204000  1.0 0.1203647491
H  H69  1  0.03744000  0.35104000  0.92591000  1.0 0.129486468
H  H70  1  0.86036000  0.27602000  0.91474000  1.0 0.1113174156
H  H71  1  0.94910000  0.54062000  0.89760000  1.0 0.1203647491
H  H72  1  0.58437000  0.88616000  0.97339000  1.0 0.129486468
H  H73  1  0.32317000  0.82735000  0.88770000  1.0 0.1203647491
H  H74  1  0.63497000  0.04172000  0.96417000  1.0 0.1203647491
H  H75  1  0.37417000  0.98254000  0.87725000  1.0 0.129486468
H  H76  1  0.41621000  0.13892000  0.90751000  1.0 0.129486468
H  H77  1  0.51754000  0.29743000  0.88395000  1.0 0.129486468
H  H78  1  0.68350000  0.17498000  0.90438000  1.0 0.1003068718
H  H79  1  0.45836000  0.65151000  0.01326000  1.0 0.1203647491
H  H80  1  0.53781000  0.75598000  0.86248000  1.0 0.129486468
H  H81  1  0.56110000  0.58546000  0.01554000  1.0 0.1203647491
H  H82  1  0.63884000  0.68661000  0.86357000  1.0 0.137220308
H  H83  1  0.73724000  0.60590000  0.02263000  1.0 0.137220308
H  H84  1  0.79750000  0.50147000  0.99184000  1.0 0.1113174156
H  H85  1  0.62832000  0.51493000  0.85930000  1.0 0.1113174156
H  H86  1  0.62444000  0.40289000  0.74919000  1.0 0.1203647491
H  H87  1  0.51364000  0.17512000  0.26466000  1.0 0.1203647491
H  H88  1  0.71814000  0.11016000  0.22478000  1.0 0.129486468
H  H89  1  0.61840000  0.32992000  0.26078000  1.0 0.129486468
H  H90  1  0.82218000  0.26366000  0.21983000  1.0 0.137220308
H  H91  1  0.93388000  0.41046000  0.24225000  1.0 0.129486468
H  H92  1  0.00169000  0.57980000  0.24702000  1.0 0.1203647491
H  H93  1  0.72059000  0.47695000  0.24560000  1.0 0.1113174156
H  H94  1  0.67506000  0.06019000  0.33994000  1.0 0.129486468
H  H95  1  0.51333000  0.86833000  0.21020000  1.0 0.1203647491
H  H96  1  0.76046000  0.97876000  0.36519000  1.0 0.129486468
H  H97  1  0.59175000  0.78211000  0.23846000  1.0 0.129486468
H  H98  1  0.79749000  0.85702000  0.40250000  1.0 0.1203647491
H  H99  1  0.88281000  0.76729000  0.38366000  1.0 0.1203647491
H  H100  1  0.73148000  0.76609000  0.23672000  1.0 0.1203647491
H  H101  1  0.41310000  0.88572000  0.29041000  1.0 0.1203647491
H  H102  1  0.43632000  0.07124000  0.17389000  1.0 0.1203647491
H  H103  1  0.24781000  0.80876000  0.26293000  1.0 0.1203647491
H  H104  1  0.26952000  0.99996000  0.15062000  1.0 0.129486468
H  H105  1  0.10082000  0.89248000  0.11478000  1.0 0.129486468
H  H106  1  0.93267000  0.80024000  0.13251000  1.0 0.129486468
H  H107  1  0.10077000  0.78922000  0.26712000  1.0 0.1203647491
H  H108  1  0.48636000  0.82488000  0.73534000  1.0 0.1203647491
H  H109  1  0.28186000  0.88984000  0.77522000  1.0 0.129486468
H  H110  1  0.38160000  0.67008000  0.73922000  1.0 0.129486468
H  H111  1  0.17782000  0.73634000  0.78017000  1.0 0.137220308
H  H112  1  0.06612000  0.58954000  0.75775000  1.0 0.129486468
H  H113  1  0.99831000  0.42020000  0.75298000  1.0 0.1203647491
H  H114  1  0.27941000  0.52305000  0.75440000  1.0 0.1113174156
H  H115  1  0.32494000  0.93981000  0.66006000  1.0 0.129486468
H  H116  1  0.48667000  0.13167000  0.78980000  1.0 0.1203647491
H  H117  1  0.23954000  0.02124000  0.63481000  1.0 0.129486468
H  H118  1  0.40825000  0.21789000  0.76154000  1.0 0.129486468
H  H119  1  0.20251000  0.14298000  0.59750000  1.0 0.1203647491
H  H120  1  0.11719000  0.23271000  0.61634000  1.0 0.1203647491
H  H121  1  0.26852000  0.23391000  0.76328000  1.0 0.1203647491
H  H122  1  0.58690000  0.11428000  0.70959000  1.0 0.1203647491
H  H123  1  0.56368000  0.92876000  0.82611000  1.0 0.1203647491
H  H124  1  0.75219000  0.19124000  0.73707000  1.0 0.1203647491
H  H125  1  0.73048000  0.00004000  0.84938000  1.0 0.129486468
H  H126  1  0.89918000  0.10752000  0.88522000  1.0 0.129486468
H  H127  1  0.06733000  0.19976000  0.86749000  1.0 0.129486468
H  H128  1  0.89923000  0.21078000  0.73288000  1.0 0.1203647491
C  C1  1  0.64600000  0.34000000  0.41962000  1.0 0.1850457767
C  C2  1  0.56460000  0.32890000  0.44476000  1.0 -0.1952267309
C  C3  1  0.69560000  0.41940000  0.39094000  1.0 -0.1711904501
C  C4  1  0.53310000  0.39530000  0.43971000  1.0 -0.179511596
C  C5  1  0.66300000  0.48530000  0.38547000  1.0 -0.1510806042
C  C6  1  0.58200000  0.47240000  0.40993000  1.0 0.137220308
C  C7  1  0.60640000  0.63370000  0.40780000  1.0 -0.0818188285
C  C8  1  0.54680000  0.67250000  0.40200000  1.0 -0.0493339389
C  C9  1  0.45740000  0.52580000  0.39898000  1.0 0.1003068718
C  C10  1  0.61210000  0.17740000  0.42122000  1.0 0.1815223567
C  C11  1  0.51920000  0.14290000  0.39053000  1.0 -0.1855183562
C  C12  1  0.63900000  0.11550000  0.44881000  1.0 -0.179511596
C  C13  1  0.45460000  0.05060000  0.38842000  1.0 -0.1711904501
C  C14  1  0.57390000  0.02240000  0.44708000  1.0 -0.179511596
C  C15  1  0.48180000  0.99040000  0.41683000  1.0 0.137220308
C  C16  1  0.31320000  0.85810000  0.40112000  1.0 -0.0962981006
C  C17  1  0.27630000  0.76530000  0.39793000  1.0 -0.0406573988
C  C18  1  0.43260000  0.82250000  0.41754000  1.0 0.0680754165
C  C19  1  0.77960000  0.30285000  0.42836000  1.0 0.1679215138
C  C20  1  0.81950000  0.29000000  0.38117000  1.0 -0.1711904501
C  C21  1  0.83840000  0.34890000  0.47932000  1.0 -0.1599143366
C  C22  1  0.91970000  0.32830000  0.38395000  1.0 -0.1510806042
C  C23  1  0.93770000  0.38570000  0.48293000  1.0 -0.1441187358
C  C24  1  0.97740000  0.37700000  0.43485000  1.0 0.1593910585
C  C25  1  0.14470000  0.42120000  0.48385000  1.0 -0.0903076152
C  C26  1  0.23390000  0.47870000  0.47137000  1.0 -0.0493339389
C  C27  1  0.13240000  0.48060000  0.40074000  1.0 0.1203647491
C  C28  1  0.68040000  0.32261000  0.07074000  1.0 0.1850457767
C  C29  1  0.71040000  0.40830000  0.10088000  1.0 -0.179511596
C  C30  1  0.74910000  0.30560000  0.04681000  1.0 -0.1855183562
C  C31  1  0.80620000  0.47540000  0.10659000  1.0 -0.1599143366
C  C32  1  0.84510000  0.37210000  0.05323000  1.0 -0.1599143366
C  C33  1  0.87290000  0.45700000  0.08269000  1.0 0.1516795337
C  C34  1  0.00160000  0.62020000  0.08105000  1.0 -0.0903076152
C  C35  1  0.09940000  0.66120000  0.08716000  1.0 -0.0493339389
C  C36  1  0.05110000  0.51577000  0.09664000  1.0 0.1113174156
C  C37  1  0.55230000  0.16128000  0.06901000  1.0 0.1815223567
C  C38  1  0.45800000  0.09470000  0.04591000  1.0 -0.1711904501
C  C39  1  0.61400000  0.13000000  0.09726000  1.0 -0.1711904501
C  C40  1  0.42740000  0.00149000  0.05146000  1.0 -0.179511596
C  C41  1  0.58380000  0.03687000  0.10343000  1.0 -0.1711904501
C  C42  1  0.49040000  0.97258000  0.08060000  1.0 0.1516795337
C  C43  1  0.51830000  0.83460000  0.09603000  1.0 -0.0818188285
C  C44  1  0.46180000  0.74700000  0.10882000  1.0 -0.0314475535
C  C45  1  0.36980000  0.81395000  0.09772000  1.0 0.0525746698
C  C46  1  0.51310000  0.29090000  0.06258000  1.0 0.1679215138
C  C47  1  0.50550000  0.34150000  0.01684000  1.0 -0.1510806042
C  C48  1  0.45840000  0.27930000  0.10725000  1.0 -0.1599143366
C  C49  1  0.44490000  0.38160000  0.01557000  1.0 -0.1510806042
C  C50  1  0.39780000  0.32060000  0.10660000  1.0 -0.1510806042
C  C51  1  0.39290000  0.37210000  0.06134000  1.0 0.1593910585
C  C52  1  0.27660000  0.42430000  0.01386000  1.0 -0.0818188285
C  C53  1  0.24410000  0.48220000  0.03114000  1.0 -0.0406573988
C  C54  1  0.33630000  0.47500000  0.10416000  1.0 0.1203647491
C  C55  1  0.31870000  0.60060000  0.25353000  1.0 0.1203647491
C  C56  1  0.35400000  0.66000000  0.58038000  1.0 0.1850457767
C  C57  1  0.43540000  0.67110000  0.55524000  1.0 -0.1952267309
C  C58  1  0.30440000  0.58060000  0.60906000  1.0 -0.1711904501
C  C59  1  0.46690000  0.60470000  0.56029000  1.0 -0.179511596
C  C60  1  0.33700000  0.51470000  0.61453000  1.0 -0.1510806042
C  C61  1  0.41800000  0.52760000  0.59007000  1.0 0.137220308
C  C62  1  0.39360000  0.36630000  0.59220000  1.0 -0.0818188285
C  C63  1  0.45320000  0.32750000  0.59800000  1.0 -0.0493339389
C  C64  1  0.54260000  0.47420000  0.60102000  1.0 0.1003068718
C  C65  1  0.38790000  0.82260000  0.57878000  1.0 0.1815223567
C  C66  1  0.48080000  0.85710000  0.60947000  1.0 -0.1855183562
C  C67  1  0.36100000  0.88450000  0.55119000  1.0 -0.1855183562
C  C68  1  0.54540000  0.94940000  0.61158000  1.0 -0.1711904501
C  C69  1  0.42610000  0.97760000  0.55292000  1.0 -0.179511596
C  C70  1  0.51820000  0.00960000  0.58317000  1.0 0.137220308
C  C71  1  0.68680000  0.14190000  0.59888000  1.0 -0.0962981006
C  C72  1  0.72370000  0.23470000  0.60207000  1.0 -0.0406573988
C  C73  1  0.56740000  0.17750000  0.58246000  1.0 0.0680754165
C  C74  1  0.22040000  0.69715000  0.57164000  1.0 0.1679215138
C  C75  1  0.18050000  0.71000000  0.61883000  1.0 -0.1711904501
C  C76  1  0.16160000  0.65110000  0.52068000  1.0 -0.1599143366
C  C77  1  0.08030000  0.67170000  0.61605000  1.0 -0.1510806042
C  C78  1  0.06230000  0.61430000  0.51707000  1.0 -0.1441187358
C  C79  1  0.02260000  0.62300000  0.56515000  1.0 0.1593910585
C  C80  1  0.85530000  0.57880000  0.51615000  1.0 -0.0903076152
C  C81  1  0.76610000  0.52130000  0.52863000  1.0 -0.0493339389
C  C82  1  0.86760000  0.51940000  0.59926000  1.0 0.1203647491
C  C83  1  0.31960000  0.67739000  0.92926000  1.0 0.1815223567
C  C84  1  0.28960000  0.59170000  0.89912000  1.0 -0.179511596
C  C85  1  0.25090000  0.69440000  0.95319000  1.0 -0.1855183562
C  C86  1  0.19380000  0.52460000  0.89341000  1.0 -0.1599143366
C  C87  1  0.15490000  0.62790000  0.94677000  1.0 -0.1599143366
C  C88  1  0.12710000  0.54300000  0.91731000  1.0 0.1516795337
C  C89  1  0.99840000  0.37980000  0.91895000  1.0 -0.0903076152
C  C90  1  0.90060000  0.33880000  0.91284000  1.0 -0.0493339389
C  C91  1  0.94890000  0.48423000  0.90336000  1.0 0.1113174156
C  C92  1  0.44770000  0.83872000  0.93099000  1.0 0.1815223567
C  C93  1  0.54200000  0.90530000  0.95409000  1.0 -0.1711904501
C  C94  1  0.38600000  0.87000000  0.90274000  1.0 -0.1711904501
C  C95  1  0.57260000  0.99851000  0.94854000  1.0 -0.179511596
C  C96  1  0.41620000  0.96313000  0.89657000  1.0 -0.1711904501
C  C97  1  0.50960000  0.02742000  0.91940000  1.0 0.1516795337
C  C98  1  0.48170000  0.16540000  0.90397000  1.0 -0.0818188285
C  C99  1  0.53820000  0.25300000  0.89118000  1.0 -0.0314475535
C  C100  1  0.63020000  0.18605000  0.90228000  1.0 0.0525746698
C  C101  1  0.48690000  0.70910000  0.93742000  1.0 0.1679215138
C  C102  1  0.49450000  0.65850000  0.98316000  1.0 -0.1510806042
C  C103  1  0.54160000  0.72070000  0.89275000  1.0 -0.1599143366
C  C104  1  0.55510000  0.61840000  0.98443000  1.0 -0.1510806042
C  C105  1  0.60220000  0.67940000  0.89340000  1.0 -0.1510806042
C  C106  1  0.60710000  0.62790000  0.93866000  1.0 0.1593910585
C  C107  1  0.72340000  0.57570000  0.98614000  1.0 -0.0818188285
C  C108  1  0.75590000  0.51780000  0.96886000  1.0 -0.0406573988
C  C109  1  0.66370000  0.52500000  0.89584000  1.0 0.1203647491
C  C110  1  0.68130000  0.39940000  0.74647000  1.0 0.1203647491
C  C111  1  0.60510000  0.12561000  0.24638000  1.0 0.1679215138
C  C112  1  0.57600000  0.19290000  0.25635000  1.0 -0.179511596
C  C113  1  0.69820000  0.15430000  0.23239000  1.0 -0.179511596
C  C114  1  0.63860000  0.28572000  0.25402000  1.0 -0.179511596
C  C115  1  0.76080000  0.24610000  0.22964000  1.0 -0.1599143366
C  C116  1  0.73240000  0.31300000  0.24149000  1.0 0.1516795337
C  C117  1  0.89960000  0.44400000  0.24342000  1.0 -0.0903076152
C  C118  1  0.93670000  0.53770000  0.24595000  1.0 -0.0406573988
C  C119  1  0.78180000  0.48158000  0.24518000  1.0 0.1003068718
C  C120  1  0.58920000  0.97505000  0.27073000  1.0 0.1593910585
C  C121  1  0.66070000  0.00600000  0.31842000  1.0 -0.1711904501
C  C122  1  0.56300000  0.89050000  0.24119000  1.0 -0.1711904501
C  C123  1  0.71080000  0.95680000  0.33417000  1.0 -0.1599143366
C  C124  1  0.61040000  0.83930000  0.25762000  1.0 -0.1510806042
C  C125  1  0.68590000  0.87390000  0.30292000  1.0 0.1593910585
C  C126  1  0.79480000  0.82800000  0.36731000  1.0 -0.107178582
C  C127  1  0.84190000  0.77850000  0.35642000  1.0 -0.0314475535
C  C128  1  0.75880000  0.77730000  0.27536000  1.0 0.1203647491
C  C129  1  0.44280000  0.98728000  0.23539000  1.0 0.1815223567
C  C130  1  0.38460000  0.90830000  0.26189000  1.0 -0.179511596
C  C131  1  0.39850000  0.01990000  0.19286000  1.0 -0.1711904501
C  C132  1  0.28530000  0.86300000  0.24633000  1.0 -0.179511596
C  C133  1  0.29840000  0.97679000  0.17846000  1.0 -0.179511596
C  C134  1  0.24170000  0.89890000  0.20584000  1.0 0.137220308
C  C135  1  0.08040000  0.86050000  0.14730000  1.0 -0.107178582
C  C136  1  0.98750000  0.80950000  0.15748000  1.0 -0.0314475535
C  C137  1  0.07940000  0.80300000  0.23148000  1.0 0.1003068718
C  C138  1  0.39490000  0.87439000  0.75362000  1.0 0.1679215138
C  C139  1  0.42400000  0.80710000  0.74365000  1.0 -0.179511596
C  C140  1  0.30180000  0.84570000  0.76761000  1.0 -0.179511596
C  C141  1  0.36140000  0.71428000  0.74598000  1.0 -0.179511596
C  C142  1  0.23920000  0.75390000  0.77036000  1.0 -0.1599143366
C  C143  1  0.26760000  0.68700000  0.75851000  1.0 0.1516795337
C  C144  1  0.10040000  0.55600000  0.75658000  1.0 -0.0903076152
C  C145  1  0.06330000  0.46230000  0.75405000  1.0 -0.0406573988
C  C146  1  0.21820000  0.51842000  0.75482000  1.0 0.1003068718
C  C147  1  0.41080000  0.02495000  0.72927000  1.0 0.1593910585
C  C148  1  0.33930000  0.99400000  0.68158000  1.0 -0.1711904501
C  C149  1  0.43700000  0.10950000  0.75881000  1.0 -0.1711904501
C  C150  1  0.28920000  0.04320000  0.66583000  1.0 -0.1599143366
C  C151  1  0.38960000  0.16070000  0.74238000  1.0 -0.1510806042
C  C152  1  0.31410000  0.12610000  0.69708000  1.0 0.1593910585
C  C153  1  0.20520000  0.17200000  0.63269000  1.0 -0.107178582
C  C154  1  0.15810000  0.22150000  0.64358000  1.0 -0.0314475535
C  C155  1  0.24120000  0.22270000  0.72464000  1.0 0.1203647491
C  C156  1  0.55720000  0.01272000  0.76461000  1.0 0.1815223567
C  C157  1  0.61540000  0.09170000  0.73811000  1.0 -0.179511596
C  C158  1  0.60150000  0.98010000  0.80714000  1.0 -0.1711904501
C  C159  1  0.71470000  0.13700000  0.75367000  1.0 -0.179511596
C  C160  1  0.70160000  0.02321000  0.82154000  1.0 -0.179511596
C  C161  1  0.75830000  0.10110000  0.79416000  1.0 0.137220308
C  C162  1  0.91960000  0.13950000  0.85270000  1.0 -0.107178582
C  C163  1  0.01250000  0.19050000  0.84252000  1.0 -0.0314475535
C  C164  1  0.92060000  0.19700000  0.76852000  1.0 0.1003068718
N  N1  1  0.54914000  0.54096000  0.40556000  1.0 0.017373476
N  N2  1  0.45295000  0.60454000  0.39688000  1.0 -0.2798199356
N  N3  1  0.67762000  0.27199000  0.42399000  1.0 -0.179511596
N  N4  1  0.41292000  0.89420000  0.41356000  1.0 0.0018780622
N  N5  1  0.35183000  0.74281000  0.40838000  1.0 -0.2798199356
N  N6  1  0.08052000  0.42205000  0.43814000  1.0 0.0095348998
N  N7  1  0.22602000  0.51582000  0.41940000  1.0 -0.2798199356
N  N8  1  0.97120000  0.52739000  0.08718000  1.0 0.0095348998
N  N9  1  0.12978000  0.59530000  0.09662000  1.0 -0.2798199356
N  N10  1  0.58173000  0.25562000  0.06405000  1.0 -0.179511596
N  N11  1  0.45947000  0.87694000  0.08926000  1.0 0.0018780622
N  N12  1  0.36836000  0.73401000  0.10945000  1.0 -0.2798199356
N  N13  1  0.33469000  0.41869000  0.06097000  1.0 0.017373476
N  N14  1  0.28122000  0.51374000  0.08771000  1.0 -0.2692587992
N  N15  1  0.28398000  0.60240000  0.30236000  1.0 -0.2119380778
N  N16  1  0.26002000  0.60436000  0.20928000  1.0 -0.2119380778
N  N17  1  0.20000000  0.60660000  0.28723000  1.0 -0.0633959139
N  N18  1  0.18580000  0.60810000  0.23157000  1.0 -0.0702933391
N  N19  1  0.45086000  0.45904000  0.59444000  1.0 0.017373476
N  N20  1  0.54705000  0.39546000  0.60312000  1.0 -0.2798199356
N  N21  1  0.32238000  0.72801000  0.57601000  1.0 -0.179511596
N  N22  1  0.58708000  0.10580000  0.58644000  1.0 0.0018780622
N  N23  1  0.64817000  0.25719000  0.59162000  1.0 -0.2798199356
N  N24  1  0.91948000  0.57795000  0.56186000  1.0 0.0095348998
N  N25  1  0.77398000  0.48418000  0.58060000  1.0 -0.2798199356
N  N26  1  0.02880000  0.47261000  0.91282000  1.0 0.0095348998
N  N27  1  0.87022000  0.40470000  0.90338000  1.0 -0.2798199356
N  N28  1  0.41827000  0.74438000  0.93595000  1.0 -0.179511596
N  N29  1  0.54053000  0.12306000  0.91074000  1.0 0.0018780622
N  N30  1  0.63164000  0.26599000  0.89055000  1.0 -0.2798199356
N  N31  1  0.66531000  0.58131000  0.93903000  1.0 0.017373476
N  N32  1  0.71878000  0.48626000  0.91229000  1.0 -0.2692587992
N  N33  1  0.71602000  0.39760000  0.69764000  1.0 -0.2119380778
N  N34  1  0.73998000  0.39564000  0.79072000  1.0 -0.2119380778
N  N35  1  0.80000000  0.39340000  0.71277000  1.0 -0.0633959139
N  N36  1  0.81420000  0.39190000  0.76843000  1.0 -0.0702933391
N  N37  1  0.80071000  0.40859000  0.24294000  1.0 -0.0048496106
N  N38  1  0.86183000  0.55982000  0.24666000  1.0 -0.2798199356
N  N39  1  0.54414000  0.03035000  0.25143000  1.0 -0.179511596
N  N40  1  0.74229000  0.82627000  0.31542000  1.0 0.0095348998
N  N41  1  0.81961000  0.74740000  0.29872000  1.0 -0.2798199356
N  N42  1  0.13791000  0.85533000  0.19453000  1.0 0.0018780622
N  N43  1  0.98760000  0.77381000  0.21072000  1.0 -0.2634994855
N  N44  1  0.97626000  0.65010000  0.36439000  1.0 0.7000759422
N  N45  1  0.19929000  0.59141000  0.75706000  1.0 -0.0048496106
N  N46  1  0.13817000  0.44018000  0.75334000  1.0 -0.2798199356
N  N47  1  0.45586000  0.96965000  0.74857000  1.0 -0.179511596
N  N48  1  0.25771000  0.17373000  0.68458000  1.0 0.0095348998
N  N49  1  0.18039000  0.25260000  0.70128000  1.0 -0.2798199356
N  N50  1  0.86209000  0.14467000  0.80547000  1.0 0.0018780622
N  N51  1  0.01240000  0.22619000  0.78928000  1.0 -0.2634994855
N  N52  1  0.02374000  0.34990000  0.63561000  1.0 0.7000759422
N  N53  1  0.53820000  0.54540000  0.22812000  1.0 0.6520893852
N  N54  1  0.31430000  0.14990000  0.49479000  1.0 0.5722798387
N  N55  1  0.72510000  0.79250000  0.08120000  1.0 0.6845048348
N  N56  1  0.04440000  0.33930000  0.19770000  1.0 0.7000759422
N  N57  1  0.46180000  0.45460000  0.77188000  1.0 0.6520893852
N  N58  1  0.68570000  0.85010000  0.50521000  1.0 0.5722798387
N  N59  1  0.27490000  0.20750000  0.91880000  1.0 0.6845048348
N  N60  1  0.95560000  0.66070000  0.80230000  1.0 0.7000759422
O  O1  1  0.99324000  0.71419000  0.32903000  1.0 -0.4837031683
O  O2  1  0.89314000  0.60653000  0.37687000  1.0 -0.4269656758
O  O3  1  0.04244000  0.63330000  0.38397000  1.0 -0.4231260439
O  O4  1  0.76563000  0.65159000  0.17800000  1.0 -0.2267502119
O  O5  1  0.00676000  0.28581000  0.67097000  1.0 -0.4837031683
O  O6  1  0.10686000  0.39347000  0.62313000  1.0 -0.4269656758
O  O7  1  0.95756000  0.36670000  0.61603000  1.0 -0.4231260439
O  O8  1  0.23437000  0.34841000  0.82200000  1.0 -0.2226818671
O  O9  1  0.53790000  0.61130000  0.20060000  1.0 -0.4269656758
O  O10  1  0.60470000  0.52800000  0.23020000  1.0 -0.3824206909
O  O11  1  0.46530000  0.50270000  0.24940000  1.0 -0.3955654224
O  O12  1  0.26050000  0.18220000  0.48530000  1.0 -0.2871476432
O  O13  1  0.35540000  0.15340000  0.45940000  1.0 -0.2226818671
O  O14  1  0.33120000  0.12330000  0.54068000  1.0 -0.3625393381
O  O15  1  0.78030000  0.75950000  0.07376000  1.0 -0.4231260439
O  O16  1  0.70843000  0.84060000  0.04546000  1.0 -0.4470787963
O  O17  1  0.68360000  0.77290000  0.12501000  1.0 -0.4231260439
O  O18  1  0.97380000  0.32260000  0.16070000  1.0 -0.4593279084
O  O19  1  0.03040000  0.32770000  0.25018000  1.0 -0.4724508246
O  O20  1  0.12530000  0.36750000  0.18230000  1.0 -0.4231260439
O  O21  1  0.46210000  0.38870000  0.79940000  1.0 -0.4231260439
O  O22  1  0.39530000  0.47200000  0.76980000  1.0 -0.3824206909
O  O23  1  0.53470000  0.49730000  0.75060000  1.0 -0.394623371
O  O24  1  0.73950000  0.81780000  0.51470000  1.0 -0.2798199356
O  O25  1  0.64460000  0.84660000  0.54060000  1.0 -0.2226818671
O  O26  1  0.66880000  0.87670000  0.45932000  1.0 -0.3625393381
O  O27  1  0.21970000  0.24050000  0.92624000  1.0 -0.4231260439
O  O28  1  0.29157000  0.15940000  0.95454000  1.0 -0.4470787963
O  O29  1  0.31640000  0.22710000  0.87499000  1.0 -0.4231260439
O  O30  1  0.02620000  0.67740000  0.83930000  1.0 -0.4593279084
O  O31  1  0.96960000  0.67230000  0.74982000  1.0 -0.4724508246
O  O32  1  0.87470000  0.63250000  0.81770000  1.0 -0.4231260439
