# DDEC6 charges by PACMAN v1.1 (https://github.com/mtap-research/PACMAN-charge/)
data_SOMSIY_ASR_pacman
_symmetry_space_group_name_H-M   'P 1'
_cell_length_a   9.88415000
_cell_length_b   9.88415000
_cell_length_c   9.88415000
_cell_angle_alpha   141.68600000
_cell_angle_beta   109.91700000
_cell_angle_gamma   82.80280000
_symmetry_Int_Tables_number   1
_chemical_formula_structural   GaC6N4O
_chemical_formula_sum   'Ga2 C12 N8 O2'
_cell_volume   545.90507835
_cell_formula_units_Z   2
loop_
 _symmetry_equiv_pos_site_id
 _symmetry_equiv_pos_as_xyz
  1  'x, y, z'
loop_
 _atom_site_type_symbol
 _atom_site_label
 _atom_site_symmetry_multiplicity
 _atom_site_fract_x
 _atom_site_fract_y
 _atom_site_fract_z
 _atom_site_occupancy
 _atom_site_charge
Ga  Ga1  1  0.00000000  0.50000000  0.00000000  1.0 1.0622061252
Ga  Ga2  1  0.00000000  0.00000000  0.50000000  1.0 1.0622061252
C  C1  1  0.99930000  0.75140000  0.92070000  1.0 0.132406412
C  C2  1  0.66930000  0.74860000  0.24790000  1.0 0.132406412
C  C3  1  0.00070000  0.92140000  0.75210000  1.0 0.132406412
C  C4  1  0.33070000  0.57860000  0.07930000  1.0 0.132406412
C  C5  1  0.00070000  0.24860000  0.07930000  1.0 0.132406412
C  C6  1  0.33070000  0.25140000  0.75210000  1.0 0.132406412
C  C7  1  0.99930000  0.07860000  0.24790000  1.0 0.132406412
C  C8  1  0.66930000  0.42140000  0.92070000  1.0 0.132406412
C  C9  1  0.00051000  0.96171000  0.03880000  1.0 -0.059052169
C  C10  1  0.57709000  0.53829000  0.03880000  1.0 -0.059052169
C  C11  1  0.99949000  0.03829000  0.96120000  1.0 -0.059052169
C  C12  1  0.42291000  0.46171000  0.96120000  1.0 -0.059052169
N  N1  1  0.00280000  0.74000000  0.04520000  1.0 -0.1680346445
N  N2  1  0.80520000  0.76000000  0.26280000  1.0 -0.1680346445
N  N3  1  0.99720000  0.04240000  0.73720000  1.0 -0.1680346445
N  N4  1  0.19480000  0.45760000  0.95480000  1.0 -0.1680346445
N  N5  1  0.99720000  0.26000000  0.95480000  1.0 -0.1680346445
N  N6  1  0.19480000  0.24000000  0.73720000  1.0 -0.1680346445
N  N7  1  0.00280000  0.95760000  0.26280000  1.0 -0.1680346445
N  N8  1  0.80520000  0.54240000  0.04520000  1.0 -0.1680346445
O  O1  1  0.91280000  0.25000000  0.66280000  1.0 -0.8015888572
O  O2  1  0.08720000  0.75000000  0.33720000  1.0 -0.8015888572
