# DDEC6 charges by PACMAN v1.1 (https://github.com/mtap-research/PACMAN-charge/)
data_SONVIB_FSR_pacman
_symmetry_space_group_name_H-M   'P 1'
_cell_length_a   18.61380000
_cell_length_b   18.61380000
_cell_length_c   18.61380000
_cell_angle_alpha   60.00000000
_cell_angle_beta   60.00000000
_cell_angle_gamma   60.00000000
_symmetry_Int_Tables_number   1
_chemical_formula_structural   Cu12Mo12AsH24(C9O13)8
_chemical_formula_sum   'Cu12 Mo12 As1 H24 C72 O104'
_cell_volume   4560.26553893
_cell_formula_units_Z   1
loop_
 _symmetry_equiv_pos_site_id
 _symmetry_equiv_pos_as_xyz
  1  'x, y, z'
loop_
 _atom_site_type_symbol
 _atom_site_label
 _atom_site_symmetry_multiplicity
 _atom_site_fract_x
 _atom_site_fract_y
 _atom_site_fract_z
 _atom_site_occupancy
 _atom_site_charge
Cu  Cu1  1  0.00000000  0.57016000  0.00000000  1.0 0.9178050582
Cu  Cu2  1  0.57016000  0.00000000  0.42984000  1.0 0.9178050582
Cu  Cu3  1  0.00000000  0.42984000  0.00000000  1.0 0.9178050582
Cu  Cu4  1  0.42984000  0.00000000  0.57016000  1.0 0.9178050582
Cu  Cu5  1  0.00000000  0.00000000  0.57016000  1.0 0.9178050582
Cu  Cu6  1  0.42984000  0.57016000  0.00000000  1.0 0.9178050582
Cu  Cu7  1  0.00000000  0.00000000  0.42984000  1.0 0.9178050582
Cu  Cu8  1  0.57016000  0.42984000  0.00000000  1.0 0.9178050582
Cu  Cu9  1  0.57016000  0.00000000  0.00000000  1.0 0.9178050582
Cu  Cu10  1  0.00000000  0.42984000  0.57016000  1.0 0.9178050582
Cu  Cu11  1  0.42984000  0.00000000  0.00000000  1.0 0.9178050582
Cu  Cu12  1  0.00000000  0.57016000  0.42984000  1.0 0.9178050582
Mo  Mo1  1  0.50000000  0.30882000  0.50000000  1.0 2.2003760759
Mo  Mo2  1  0.30882000  0.50000000  0.69118000  1.0 2.2003760759
Mo  Mo3  1  0.50000000  0.69118000  0.50000000  1.0 2.2003760759
Mo  Mo4  1  0.69118000  0.50000000  0.30882000  1.0 2.2003760759
Mo  Mo5  1  0.50000000  0.50000000  0.30882000  1.0 2.2003760759
Mo  Mo6  1  0.69118000  0.30882000  0.50000000  1.0 2.2003760759
Mo  Mo7  1  0.50000000  0.50000000  0.69118000  1.0 2.2003760759
Mo  Mo8  1  0.30882000  0.69118000  0.50000000  1.0 2.2003760759
Mo  Mo9  1  0.30882000  0.50000000  0.50000000  1.0 2.2003760759
Mo  Mo10  1  0.50000000  0.69118000  0.30882000  1.0 2.2003760759
Mo  Mo11  1  0.69118000  0.50000000  0.50000000  1.0 2.2003760759
Mo  Mo12  1  0.50000000  0.30882000  0.69118000  1.0 2.2003760759
As  As1  1  0.50000000  0.50000000  0.50000000  1.0 1.3766509716
H  H1  1  0.72810000  0.51210000  0.03170000  1.0 0.1467354477
H  H2  1  0.51210000  0.72810000  0.72810000  1.0 0.1467354477
H  H3  1  0.03170000  0.72810000  0.72810000  1.0 0.1467354477
H  H4  1  0.72810000  0.03170000  0.51210000  1.0 0.1467354477
H  H5  1  0.03170000  0.72810000  0.51210000  1.0 0.1467354477
H  H6  1  0.72810000  0.51210000  0.72810000  1.0 0.1467354477
H  H7  1  0.72810000  0.03170000  0.72810000  1.0 0.1467354477
H  H8  1  0.51210000  0.72810000  0.03170000  1.0 0.1467354477
H  H9  1  0.51210000  0.03170000  0.72810000  1.0 0.1467354477
H  H10  1  0.72810000  0.72810000  0.51210000  1.0 0.1467354477
H  H11  1  0.72810000  0.72810000  0.03170000  1.0 0.1467354477
H  H12  1  0.03170000  0.51210000  0.72810000  1.0 0.1467354477
H  H13  1  0.27190000  0.48790000  0.27190000  1.0 0.1467354477
H  H14  1  0.48790000  0.27190000  0.96830000  1.0 0.1467354477
H  H15  1  0.96830000  0.27190000  0.48790000  1.0 0.1467354477
H  H16  1  0.27190000  0.96830000  0.27190000  1.0 0.1467354477
H  H17  1  0.96830000  0.27190000  0.27190000  1.0 0.1467354477
H  H18  1  0.27190000  0.48790000  0.96830000  1.0 0.1467354477
H  H19  1  0.27190000  0.96830000  0.48790000  1.0 0.1467354477
H  H20  1  0.48790000  0.27190000  0.27190000  1.0 0.1467354477
H  H21  1  0.48790000  0.96830000  0.27190000  1.0 0.1467354477
H  H22  1  0.27190000  0.27190000  0.96830000  1.0 0.1467354477
H  H23  1  0.27190000  0.27190000  0.48790000  1.0 0.1467354477
H  H24  1  0.96830000  0.48790000  0.27190000  1.0 0.1467354477
C  C1  1  0.83652000  0.56910000  0.02528000  1.0 0.5945561742
C  C2  1  0.56910000  0.83652000  0.56910000  1.0 0.5945561742
C  C3  1  0.02528000  0.56910000  0.83652000  1.0 0.5945561742
C  C4  1  0.56910000  0.02528000  0.56910000  1.0 0.5945561742
C  C5  1  0.02528000  0.83652000  0.56910000  1.0 0.5945561742
C  C6  1  0.56910000  0.56910000  0.83652000  1.0 0.5945561742
C  C7  1  0.83652000  0.02528000  0.56910000  1.0 0.5945561742
C  C8  1  0.56910000  0.56910000  0.02528000  1.0 0.5945561742
C  C9  1  0.56910000  0.02528000  0.83652000  1.0 0.5945561742
C  C10  1  0.83652000  0.56910000  0.56910000  1.0 0.5945561742
C  C11  1  0.56910000  0.83652000  0.02528000  1.0 0.5945561742
C  C12  1  0.02528000  0.56910000  0.56910000  1.0 0.5945561742
C  C13  1  0.16348000  0.43090000  0.43090000  1.0 0.5945561742
C  C14  1  0.43090000  0.16348000  0.97472000  1.0 0.5945561742
C  C15  1  0.97472000  0.43090000  0.43090000  1.0 0.5945561742
C  C16  1  0.43090000  0.97472000  0.16348000  1.0 0.5945561742
C  C17  1  0.97472000  0.16348000  0.43090000  1.0 0.5955318634
C  C18  1  0.43090000  0.43090000  0.97472000  1.0 0.5945561742
C  C19  1  0.16348000  0.97472000  0.43090000  1.0 0.5945561742
C  C20  1  0.43090000  0.43090000  0.16348000  1.0 0.5945561742
C  C21  1  0.43090000  0.97472000  0.43090000  1.0 0.5945561742
C  C22  1  0.16348000  0.43090000  0.97472000  1.0 0.5945561742
C  C23  1  0.43090000  0.16348000  0.43090000  1.0 0.5945561742
C  C24  1  0.97472000  0.43090000  0.16348000  1.0 0.5945561742
C  C25  1  0.74232000  0.61270000  0.03228000  1.0 -0.0124859618
C  C26  1  0.61270000  0.74232000  0.61270000  1.0 -0.0124859618
C  C27  1  0.03228000  0.61270000  0.74232000  1.0 -0.0124859618
C  C28  1  0.61270000  0.03228000  0.61270000  1.0 -0.0124859618
C  C29  1  0.03228000  0.74232000  0.61270000  1.0 -0.0124859618
C  C30  1  0.61270000  0.61270000  0.74232000  1.0 -0.0124859618
C  C31  1  0.74232000  0.03228000  0.61270000  1.0 -0.0124859618
C  C32  1  0.61270000  0.61270000  0.03228000  1.0 -0.0124859618
C  C33  1  0.61270000  0.03228000  0.74232000  1.0 -0.0124859618
C  C34  1  0.74232000  0.61270000  0.61270000  1.0 -0.0124859618
C  C35  1  0.61270000  0.74232000  0.03228000  1.0 -0.0124859618
C  C36  1  0.03228000  0.61270000  0.61270000  1.0 -0.0124859618
C  C37  1  0.25768000  0.38730000  0.38730000  1.0 -0.0124859618
C  C38  1  0.38730000  0.25768000  0.96772000  1.0 -0.0124859618
C  C39  1  0.96772000  0.38730000  0.38730000  1.0 -0.0124859618
C  C40  1  0.38730000  0.96772000  0.25768000  1.0 -0.0124859618
C  C41  1  0.96772000  0.25768000  0.38730000  1.0 -0.0124859618
C  C42  1  0.38730000  0.38730000  0.96772000  1.0 -0.0124859618
C  C43  1  0.25768000  0.96772000  0.38730000  1.0 -0.0153059519
C  C44  1  0.38730000  0.38730000  0.25768000  1.0 -0.0124859618
C  C45  1  0.38730000  0.96772000  0.38730000  1.0 -0.0124859618
C  C46  1  0.25768000  0.38730000  0.96772000  1.0 -0.0124859618
C  C47  1  0.38730000  0.25768000  0.38730000  1.0 -0.0124859618
C  C48  1  0.96772000  0.38730000  0.25768000  1.0 -0.0124859618
C  C49  1  0.69920000  0.56954000  0.03206000  1.0 -0.083236469
C  C50  1  0.56954000  0.69920000  0.69920000  1.0 -0.083236469
C  C51  1  0.03206000  0.69920000  0.69920000  1.0 -0.083236469
C  C52  1  0.69920000  0.03206000  0.56954000  1.0 -0.083236469
C  C53  1  0.03206000  0.69920000  0.56954000  1.0 -0.083236469
C  C54  1  0.69920000  0.56954000  0.69920000  1.0 -0.083236469
C  C55  1  0.69920000  0.03206000  0.69920000  1.0 -0.083236469
C  C56  1  0.56954000  0.69920000  0.03206000  1.0 -0.083236469
C  C57  1  0.56954000  0.03206000  0.69920000  1.0 -0.083236469
C  C58  1  0.69920000  0.69920000  0.56954000  1.0 -0.083236469
C  C59  1  0.69920000  0.69920000  0.03206000  1.0 -0.083236469
C  C60  1  0.03206000  0.56954000  0.69920000  1.0 -0.083236469
C  C61  1  0.30080000  0.43046000  0.30080000  1.0 -0.083236469
C  C62  1  0.43046000  0.30080000  0.96794000  1.0 -0.083236469
C  C63  1  0.96794000  0.30080000  0.43046000  1.0 -0.083236469
C  C64  1  0.30080000  0.96794000  0.30080000  1.0 -0.083236469
C  C65  1  0.96794000  0.30080000  0.30080000  1.0 -0.083236469
C  C66  1  0.30080000  0.43046000  0.96794000  1.0 -0.083236469
C  C67  1  0.30080000  0.96794000  0.43046000  1.0 -0.083236469
C  C68  1  0.43046000  0.30080000  0.30080000  1.0 -0.083236469
C  C69  1  0.43046000  0.96794000  0.30080000  1.0 -0.083236469
C  C70  1  0.30080000  0.30080000  0.96794000  1.0 -0.083236469
C  C71  1  0.30080000  0.30080000  0.43046000  1.0 -0.083236469
C  C72  1  0.96794000  0.43046000  0.30080000  1.0 -0.083236469
O  O1  1  0.53680000  0.38960000  0.53680000  1.0 -0.4600451055
O  O2  1  0.38960000  0.53680000  0.53680000  1.0 -0.4600451055
O  O3  1  0.53680000  0.53680000  0.53680000  1.0 -0.4600451055
O  O4  1  0.53680000  0.53680000  0.38960000  1.0 -0.4600451055
O  O5  1  0.46320000  0.61040000  0.46320000  1.0 -0.4600451055
O  O6  1  0.61040000  0.46320000  0.46320000  1.0 -0.4600451055
O  O7  1  0.46320000  0.46320000  0.61040000  1.0 -0.4600451055
O  O8  1  0.46320000  0.46320000  0.46320000  1.0 -0.4600451055
O  O9  1  0.37930000  0.37930000  0.51950000  1.0 -0.7767108356
O  O10  1  0.37930000  0.37930000  0.72190000  1.0 -0.7767108356
O  O11  1  0.51950000  0.72190000  0.37930000  1.0 -0.7767108356
O  O12  1  0.72190000  0.51950000  0.37930000  1.0 -0.7767108356
O  O13  1  0.51950000  0.37930000  0.37930000  1.0 -0.7767108356
O  O14  1  0.72190000  0.37930000  0.37930000  1.0 -0.7767108356
O  O15  1  0.37930000  0.51950000  0.72190000  1.0 -0.7767108356
O  O16  1  0.37930000  0.72190000  0.51950000  1.0 -0.7767108356
O  O17  1  0.37930000  0.51950000  0.37930000  1.0 -0.7767108356
O  O18  1  0.37930000  0.72190000  0.37930000  1.0 -0.7767108356
O  O19  1  0.72190000  0.37930000  0.51950000  1.0 -0.7767108356
O  O20  1  0.51950000  0.37930000  0.72190000  1.0 -0.7767108356
O  O21  1  0.62070000  0.62070000  0.27810000  1.0 -0.7767108356
O  O22  1  0.62070000  0.62070000  0.48050000  1.0 -0.7767108356
O  O23  1  0.48050000  0.27810000  0.62070000  1.0 -0.7767108356
O  O24  1  0.27810000  0.48050000  0.62070000  1.0 -0.7767108356
O  O25  1  0.48050000  0.62070000  0.27810000  1.0 -0.7767108356
O  O26  1  0.27810000  0.62070000  0.48050000  1.0 -0.7767108356
O  O27  1  0.62070000  0.48050000  0.62070000  1.0 -0.7767108356
O  O28  1  0.62070000  0.27810000  0.62070000  1.0 -0.7767108356
O  O29  1  0.62070000  0.48050000  0.27810000  1.0 -0.7767108356
O  O30  1  0.62070000  0.27810000  0.48050000  1.0 -0.7767108356
O  O31  1  0.27810000  0.62070000  0.62070000  1.0 -0.7767108356
O  O32  1  0.48050000  0.62070000  0.62070000  1.0 -0.7767108356
O  O33  1  0.50000000  0.22040000  0.50000000  1.0 -0.5160027266
O  O34  1  0.22040000  0.50000000  0.77960000  1.0 -0.5160027266
O  O35  1  0.50000000  0.77960000  0.50000000  1.0 -0.5160027266
O  O36  1  0.77960000  0.50000000  0.22040000  1.0 -0.5160027266
O  O37  1  0.50000000  0.50000000  0.22040000  1.0 -0.5160027266
O  O38  1  0.77960000  0.22040000  0.50000000  1.0 -0.5160027266
O  O39  1  0.50000000  0.50000000  0.77960000  1.0 -0.5160027266
O  O40  1  0.22040000  0.77960000  0.50000000  1.0 -0.5160027266
O  O41  1  0.22040000  0.50000000  0.50000000  1.0 -0.5160027266
O  O42  1  0.50000000  0.77960000  0.22040000  1.0 -0.5160027266
O  O43  1  0.77960000  0.50000000  0.50000000  1.0 -0.5160027266
O  O44  1  0.50000000  0.22040000  0.77960000  1.0 -0.5096516041
O  O45  1  0.00000000  0.68800000  0.00000000  1.0 -0.1090763991
O  O46  1  0.68800000  0.00000000  0.31200000  1.0 -0.1039583932
O  O47  1  0.00000000  0.31200000  0.00000000  1.0 -0.1090763991
O  O48  1  0.31200000  0.00000000  0.68800000  1.0 -0.1090763991
O  O49  1  0.00000000  0.00000000  0.68800000  1.0 -0.1090763991
O  O50  1  0.31200000  0.68800000  0.00000000  1.0 -0.1039583932
O  O51  1  0.00000000  0.00000000  0.31200000  1.0 -0.1090763991
O  O52  1  0.68800000  0.31200000  0.00000000  1.0 -0.1090763991
O  O53  1  0.68800000  0.00000000  0.00000000  1.0 -0.1178666975
O  O54  1  0.00000000  0.31200000  0.68800000  1.0 -0.1090763991
O  O55  1  0.31200000  0.00000000  0.00000000  1.0 -0.1178666975
O  O56  1  0.00000000  0.68800000  0.31200000  1.0 -0.1090763991
O  O57  1  0.87392000  0.61244000  0.02118000  1.0 -0.5096516041
O  O58  1  0.61244000  0.87392000  0.49246000  1.0 -0.5096516041
O  O59  1  0.02118000  0.49246000  0.87392000  1.0 -0.5096516041
O  O60  1  0.49246000  0.02118000  0.61244000  1.0 -0.5096516041
O  O61  1  0.02118000  0.87392000  0.61244000  1.0 -0.5096516041
O  O62  1  0.49246000  0.61244000  0.87392000  1.0 -0.5096516041
O  O63  1  0.87392000  0.02118000  0.49246000  1.0 -0.5096516041
O  O64  1  0.61244000  0.49246000  0.02118000  1.0 -0.5096516041
O  O65  1  0.61244000  0.02118000  0.87392000  1.0 -0.5096516041
O  O66  1  0.87392000  0.49246000  0.61244000  1.0 -0.5096516041
O  O67  1  0.49246000  0.87392000  0.02118000  1.0 -0.5096516041
O  O68  1  0.02118000  0.61244000  0.49246000  1.0 -0.5096516041
O  O69  1  0.12608000  0.38756000  0.50754000  1.0 -0.5096516041
O  O70  1  0.38756000  0.12608000  0.97882000  1.0 -0.5096516041
O  O71  1  0.97882000  0.50754000  0.38756000  1.0 -0.5096516041
O  O72  1  0.50754000  0.97882000  0.12608000  1.0 -0.5096516041
O  O73  1  0.97882000  0.12608000  0.50754000  1.0 -0.5096516041
O  O74  1  0.50754000  0.38756000  0.97882000  1.0 -0.5096516041
O  O75  1  0.12608000  0.97882000  0.38756000  1.0 -0.5096516041
O  O76  1  0.38756000  0.50754000  0.12608000  1.0 -0.5096516041
O  O77  1  0.38756000  0.97882000  0.50754000  1.0 -0.5096516041
O  O78  1  0.12608000  0.50754000  0.97882000  1.0 -0.5096516041
O  O79  1  0.50754000  0.12608000  0.38756000  1.0 -0.5096516041
O  O80  1  0.97882000  0.38756000  0.12608000  1.0 -0.5096516041
O  O81  1  0.12608000  0.38756000  0.97882000  1.0 -0.5096516041
O  O82  1  0.38756000  0.12608000  0.50754000  1.0 -0.5096516041
O  O83  1  0.97882000  0.50754000  0.12608000  1.0 -0.5096516041
O  O84  1  0.50754000  0.97882000  0.38756000  1.0 -0.5096516041
O  O85  1  0.97882000  0.12608000  0.38756000  1.0 -0.5096516041
O  O86  1  0.50754000  0.38756000  0.12608000  1.0 -0.5096516041
O  O87  1  0.12608000  0.97882000  0.50754000  1.0 -0.5096516041
O  O88  1  0.38756000  0.50754000  0.97882000  1.0 -0.5096516041
O  O89  1  0.38756000  0.97882000  0.12608000  1.0 -0.5096516041
O  O90  1  0.12608000  0.50754000  0.38756000  1.0 -0.5096516041
O  O91  1  0.50754000  0.12608000  0.97882000  1.0 -0.5096516041
O  O92  1  0.97882000  0.38756000  0.50754000  1.0 -0.5096516041
O  O93  1  0.87392000  0.61244000  0.49246000  1.0 -0.5096516041
O  O94  1  0.61244000  0.87392000  0.02118000  1.0 -0.5096516041
O  O95  1  0.02118000  0.49246000  0.61244000  1.0 -0.5096516041
O  O96  1  0.49246000  0.02118000  0.87392000  1.0 -0.5096516041
O  O97  1  0.02118000  0.87392000  0.49246000  1.0 -0.5096516041
O  O98  1  0.49246000  0.61244000  0.02118000  1.0 -0.5096516041
O  O99  1  0.87392000  0.02118000  0.61244000  1.0 -0.5096516041
O  O100  1  0.61244000  0.49246000  0.87392000  1.0 -0.5096516041
O  O101  1  0.61244000  0.02118000  0.49246000  1.0 -0.5096516041
O  O102  1  0.87392000  0.49246000  0.02118000  1.0 -0.5096516041
O  O103  1  0.49246000  0.87392000  0.61244000  1.0 -0.5096516041
O  O104  1  0.02118000  0.61244000  0.87392000  1.0 -0.5096516041
