# DDEC6 charges by PACMAN v1.1 (https://github.com/mtap-research/PACMAN-charge/)
data_SOPLIU_FSR_pacman
_symmetry_space_group_name_H-M   'P 1'
_cell_length_a   14.52900000
_cell_length_b   16.54300000
_cell_length_c   21.12500000
_cell_angle_alpha   90.00000000
_cell_angle_beta   104.30500000
_cell_angle_gamma   90.00000000
_symmetry_Int_Tables_number   1
_chemical_formula_structural   ZnH18C27(NO)6
_chemical_formula_sum   'Zn4 H72 C108 N24 O24'
_cell_volume   4920.03142381
_cell_formula_units_Z   4
loop_
 _symmetry_equiv_pos_site_id
 _symmetry_equiv_pos_as_xyz
  1  'x, y, z'
loop_
 _atom_site_type_symbol
 _atom_site_label
 _atom_site_symmetry_multiplicity
 _atom_site_fract_x
 _atom_site_fract_y
 _atom_site_fract_z
 _atom_site_occupancy
 _atom_site_charge
Zn  Zn1  1  0.41470000  0.04456000  0.67261000  1.0 0.7250878608
Zn  Zn2  1  0.41470000  0.45544000  0.17261000  1.0 0.7250878608
Zn  Zn3  1  0.58530000  0.54456000  0.82739000  1.0 0.7250878608
Zn  Zn4  1  0.58530000  0.95544000  0.32739000  1.0 0.7250878608
H  H1  1  0.55390000  0.75530000  0.37830000  1.0 0.2962742245
H  H2  1  0.55390000  0.74470000  0.87830000  1.0 0.2962742245
H  H3  1  0.56110000  0.82730000  0.45110000  1.0 0.2934055722
H  H4  1  0.56110000  0.67270000  0.95110000  1.0 0.2934055722
H  H5  1  0.10470000  0.04610000  0.58420000  1.0 0.1201232596
H  H6  1  0.10470000  0.45390000  0.08420000  1.0 0.1201232596
H  H7  1  0.95790000  0.07910000  0.51420000  1.0 0.1088551245
H  H8  1  0.95790000  0.42090000  0.01420000  1.0 0.1088551245
H  H9  1  0.07230000  0.28300000  0.45950000  1.0 0.1201232596
H  H10  1  0.07230000  0.21700000  0.95950000  1.0 0.1201232596
H  H11  1  0.21910000  0.25010000  0.52950000  1.0 0.1088551245
H  H12  1  0.21910000  0.24990000  0.02950000  1.0 0.1088551245
H  H13  1  0.71620000  0.35310000  0.23330000  1.0 0.12623469
H  H14  1  0.71620000  0.14690000  0.73330000  1.0 0.12623469
H  H15  1  0.84660000  0.29010000  0.30340000  1.0 0.1201232596
H  H16  1  0.84660000  0.20990000  0.80340000  1.0 0.1201232596
H  H17  1  0.67770000  0.21590000  0.41880000  1.0 0.1088551245
H  H18  1  0.67770000  0.28410000  0.91880000  1.0 0.1088551245
H  H19  1  0.54740000  0.27880000  0.34870000  1.0 0.1201232596
H  H20  1  0.54740000  0.22120000  0.84870000  1.0 0.1201232596
H  H21  1  0.56060000  0.56800000  0.23200000  1.0 0.1088551245
H  H22  1  0.56060000  0.93200000  0.73200000  1.0 0.1088551245
H  H23  1  0.59790000  0.67210000  0.30630000  1.0 0.159621252
H  H24  1  0.59790000  0.82790000  0.80630000  1.0 0.159621252
H  H25  1  0.33300000  0.65420000  0.33200000  1.0 0.159621252
H  H26  1  0.33300000  0.84580000  0.83200000  1.0 0.159621252
H  H27  1  0.30320000  0.55490000  0.25540000  1.0 0.1201232596
H  H28  1  0.30320000  0.94510000  0.75540000  1.0 0.1201232596
H  H29  1  0.30580000  0.95000000  0.55650000  1.0 0.1088551245
H  H30  1  0.30580000  0.55000000  0.05650000  1.0 0.1088551245
H  H31  1  0.33250000  0.86220000  0.47710000  1.0 0.1506032742
H  H32  1  0.33250000  0.63780000  0.97710000  1.0 0.1506032742
H  H33  1  0.61430000  0.90540000  0.54230000  1.0 0.1506032742
H  H34  1  0.61430000  0.59460000  0.04230000  1.0 0.1506032742
H  H35  1  0.57830000  0.99090000  0.62040000  1.0 0.1088551245
H  H36  1  0.57830000  0.50910000  0.12040000  1.0 0.1088551245
H  H37  1  0.44610000  0.25530000  0.12170000  1.0 0.2962742245
H  H38  1  0.44610000  0.24470000  0.62170000  1.0 0.2962742245
H  H39  1  0.43890000  0.32730000  0.04890000  1.0 0.2934055722
H  H40  1  0.43890000  0.17270000  0.54890000  1.0 0.2934055722
H  H41  1  0.89530000  0.54610000  0.91580000  1.0 0.1201232596
H  H42  1  0.89530000  0.95390000  0.41580000  1.0 0.1201232596
H  H43  1  0.04210000  0.57910000  0.98580000  1.0 0.1088551245
H  H44  1  0.04210000  0.92090000  0.48580000  1.0 0.1088551245
H  H45  1  0.92770000  0.78300000  0.04050000  1.0 0.1201232596
H  H46  1  0.92770000  0.71700000  0.54050000  1.0 0.1201232596
H  H47  1  0.78090000  0.75010000  0.97050000  1.0 0.1088551245
H  H48  1  0.78090000  0.74990000  0.47050000  1.0 0.1088551245
H  H49  1  0.28380000  0.85310000  0.26670000  1.0 0.12623469
H  H50  1  0.28380000  0.64690000  0.76670000  1.0 0.12623469
H  H51  1  0.15340000  0.79010000  0.19660000  1.0 0.1201232596
H  H52  1  0.15340000  0.70990000  0.69660000  1.0 0.1201232596
H  H53  1  0.32230000  0.71590000  0.08120000  1.0 0.1088551245
H  H54  1  0.32230000  0.78410000  0.58120000  1.0 0.1088551245
H  H55  1  0.45260000  0.77880000  0.15130000  1.0 0.1201232596
H  H56  1  0.45260000  0.72120000  0.65130000  1.0 0.1201232596
H  H57  1  0.43940000  0.06800000  0.26800000  1.0 0.1088551245
H  H58  1  0.43940000  0.43200000  0.76800000  1.0 0.1088551245
H  H59  1  0.40210000  0.17210000  0.19370000  1.0 0.159621252
H  H60  1  0.40210000  0.32790000  0.69370000  1.0 0.159621252
H  H61  1  0.66700000  0.15420000  0.16800000  1.0 0.159621252
H  H62  1  0.66700000  0.34580000  0.66800000  1.0 0.159621252
H  H63  1  0.69680000  0.05490000  0.24460000  1.0 0.1201232596
H  H64  1  0.69680000  0.44510000  0.74460000  1.0 0.1201232596
H  H65  1  0.69420000  0.45000000  0.94350000  1.0 0.1088551245
H  H66  1  0.69420000  0.05000000  0.44350000  1.0 0.1088551245
H  H67  1  0.66750000  0.36220000  0.02290000  1.0 0.1506032742
H  H68  1  0.66750000  0.13780000  0.52290000  1.0 0.1506032742
H  H69  1  0.38570000  0.40540000  0.95770000  1.0 0.1506032742
H  H70  1  0.38570000  0.09460000  0.45770000  1.0 0.1506032742
H  H71  1  0.42170000  0.49090000  0.87960000  1.0 0.1088551245
H  H72  1  0.42170000  0.00910000  0.37960000  1.0 0.1088551245
C  C1  1  0.27020000  0.12460000  0.60160000  1.0 0.5475457108
C  C2  1  0.27020000  0.37540000  0.10160000  1.0 0.5475457108
C  C3  1  0.17570000  0.14500000  0.56340000  1.0 -0.0482139678
C  C4  1  0.17570000  0.35500000  0.06340000  1.0 -0.0482139678
C  C5  1  0.09810000  0.09420000  0.55890000  1.0 -0.0887947533
C  C6  1  0.09810000  0.40580000  0.05890000  1.0 -0.0887947533
C  C7  1  0.01090000  0.11380000  0.51730000  1.0 -0.2092314184
C  C8  1  0.01090000  0.38620000  0.01730000  1.0 -0.2092314184
C  C9  1  0.00130000  0.18420000  0.48030000  1.0 0.173386561
C  C10  1  0.00130000  0.31580000  0.98030000  1.0 0.1772965303
C  C11  1  0.07890000  0.23490000  0.48480000  1.0 -0.1731252127
C  C12  1  0.07890000  0.26510000  0.98480000  1.0 -0.1731252127
C  C13  1  0.16610000  0.21540000  0.52640000  1.0 -0.0887947533
C  C14  1  0.16610000  0.28460000  0.02640000  1.0 -0.0887947533
C  C15  1  0.53660000  0.36550000  0.24310000  1.0 0.5409075862
C  C16  1  0.53660000  0.13450000  0.74310000  1.0 0.5409075862
C  C17  1  0.61950000  0.32180000  0.28440000  1.0 -0.0249641051
C  C18  1  0.61950000  0.17820000  0.78440000  1.0 -0.0249641051
C  C19  1  0.70840000  0.32520000  0.27100000  1.0 -0.0887947533
C  C20  1  0.70840000  0.17480000  0.77100000  1.0 -0.0887947533
C  C21  1  0.78580000  0.28780000  0.31260000  1.0 -0.2092314184
C  C22  1  0.78580000  0.21220000  0.81260000  1.0 -0.2046239578
C  C23  1  0.77440000  0.24710000  0.36770000  1.0 0.1395908541
C  C24  1  0.77440000  0.25290000  0.86770000  1.0 0.1395908541
C  C25  1  0.68550000  0.24370000  0.38120000  1.0 -0.1731252127
C  C26  1  0.68550000  0.25630000  0.88120000  1.0 -0.1731252127
C  C27  1  0.60810000  0.28110000  0.33950000  1.0 -0.1038715148
C  C28  1  0.60810000  0.21890000  0.83950000  1.0 -0.1038715148
C  C29  1  0.83910000  0.20150000  0.42360000  1.0 0.1772965303
C  C30  1  0.83910000  0.29850000  0.92360000  1.0 0.1772965303
C  C31  1  0.51390000  0.58600000  0.25320000  1.0 0.077491103
C  C32  1  0.51390000  0.91400000  0.75320000  1.0 0.077491103
C  C33  1  0.53700000  0.64740000  0.29740000  1.0 -0.2199850769
C  C34  1  0.53700000  0.85260000  0.79740000  1.0 -0.2199850769
C  C35  1  0.46910000  0.67270000  0.32890000  1.0 0.2599758899
C  C36  1  0.46910000  0.82730000  0.82890000  1.0 0.2599758899
C  C37  1  0.38170000  0.63720000  0.31210000  1.0 -0.2092314184
C  C38  1  0.38170000  0.86280000  0.81210000  1.0 -0.2092314184
C  C39  1  0.36490000  0.57800000  0.26710000  1.0 0.0893274064
C  C40  1  0.36490000  0.92200000  0.76710000  1.0 0.0893274064
C  C41  1  0.36910000  0.94110000  0.55330000  1.0 0.0712076894
C  C42  1  0.36910000  0.55890000  0.05330000  1.0 0.0712076894
C  C43  1  0.38480000  0.88830000  0.50580000  1.0 -0.2264953756
C  C44  1  0.38480000  0.61170000  0.00580000  1.0 -0.2264953756
C  C45  1  0.47580000  0.87370000  0.50000000  1.0 0.2700582242
C  C46  1  0.47580000  0.62630000  0.00000000  1.0 0.2700582242
C  C47  1  0.55020000  0.91340000  0.54400000  1.0 -0.2478578442
C  C48  1  0.55020000  0.58660000  0.04400000  1.0 -0.2478578442
C  C49  1  0.52760000  0.96490000  0.59030000  1.0 0.0893274064
C  C50  1  0.52760000  0.53510000  0.09030000  1.0 0.0893274064
C  C51  1  0.44510000  0.77130000  0.41180000  1.0 0.6162277556
C  C52  1  0.44510000  0.72870000  0.91180000  1.0 0.6162277556
C  C53  1  0.89400000  0.17720000  0.45300000  1.0 0.1772965303
C  C54  1  0.89400000  0.32280000  0.95300000  1.0 0.1772965303
C  C55  1  0.72980000  0.62460000  0.89840000  1.0 0.5475457108
C  C56  1  0.72980000  0.87540000  0.39840000  1.0 0.5475457108
C  C57  1  0.82430000  0.64500000  0.93660000  1.0 -0.0482139678
C  C58  1  0.82430000  0.85500000  0.43660000  1.0 -0.0482139678
C  C59  1  0.90190000  0.59420000  0.94110000  1.0 -0.0887947533
C  C60  1  0.90190000  0.90580000  0.44110000  1.0 -0.0887947533
C  C61  1  0.98910000  0.61380000  0.98270000  1.0 -0.2092314184
C  C62  1  0.98910000  0.88620000  0.48270000  1.0 -0.2092314184
C  C63  1  0.99870000  0.68420000  0.01970000  1.0 0.1772965303
C  C64  1  0.99870000  0.81580000  0.51970000  1.0 0.173386561
C  C65  1  0.92110000  0.73490000  0.01520000  1.0 -0.1761415207
C  C66  1  0.92110000  0.76510000  0.51520000  1.0 -0.1761415207
C  C67  1  0.83390000  0.71540000  0.97360000  1.0 -0.0887947533
C  C68  1  0.83390000  0.78460000  0.47360000  1.0 -0.0887947533
C  C69  1  0.46340000  0.86550000  0.25690000  1.0 0.5409075862
C  C70  1  0.46340000  0.63450000  0.75690000  1.0 0.5409075862
C  C71  1  0.38050000  0.82180000  0.21560000  1.0 -0.025491988
C  C72  1  0.38050000  0.67820000  0.71560000  1.0 -0.0249641051
C  C73  1  0.29160000  0.82520000  0.22900000  1.0 -0.0887947533
C  C74  1  0.29160000  0.67480000  0.72900000  1.0 -0.0887947533
C  C75  1  0.21420000  0.78780000  0.18740000  1.0 -0.2046239578
C  C76  1  0.21420000  0.71220000  0.68740000  1.0 -0.2046239578
C  C77  1  0.22560000  0.74710000  0.13230000  1.0 0.1395908541
C  C78  1  0.22560000  0.75290000  0.63230000  1.0 0.1395908541
C  C79  1  0.31450000  0.74370000  0.11880000  1.0 -0.1731252127
C  C80  1  0.31450000  0.75630000  0.61880000  1.0 -0.1731252127
C  C81  1  0.39190000  0.78110000  0.16050000  1.0 -0.1038715148
C  C82  1  0.39190000  0.71890000  0.66050000  1.0 -0.1038715148
C  C83  1  0.16090000  0.70150000  0.07640000  1.0 0.1772965303
C  C84  1  0.16090000  0.79850000  0.57640000  1.0 0.1772965303
C  C85  1  0.48610000  0.08600000  0.24680000  1.0 0.077491103
C  C86  1  0.48610000  0.41400000  0.74680000  1.0 0.077491103
C  C87  1  0.46300000  0.14740000  0.20260000  1.0 -0.2199850769
C  C88  1  0.46300000  0.35260000  0.70260000  1.0 -0.2199850769
C  C89  1  0.53090000  0.17270000  0.17110000  1.0 0.2599758899
C  C90  1  0.53090000  0.32730000  0.67110000  1.0 0.2599758899
C  C91  1  0.61830000  0.13720000  0.18790000  1.0 -0.2092314184
C  C92  1  0.61830000  0.36280000  0.68790000  1.0 -0.2092314184
C  C93  1  0.63510000  0.07800000  0.23290000  1.0 0.0893274064
C  C94  1  0.63510000  0.42200000  0.73290000  1.0 0.0893274064
C  C95  1  0.63090000  0.44110000  0.94670000  1.0 0.0712076894
C  C96  1  0.63090000  0.05890000  0.44670000  1.0 0.0712076894
C  C97  1  0.61520000  0.38830000  0.99420000  1.0 -0.2264953756
C  C98  1  0.61520000  0.11170000  0.49420000  1.0 -0.2264953756
C  C99  1  0.52420000  0.37370000  0.00000000  1.0 0.2700582242
C  C100  1  0.52420000  0.12630000  0.50000000  1.0 0.2700582242
C  C101  1  0.44980000  0.41340000  0.95600000  1.0 -0.2478578442
C  C102  1  0.44980000  0.08660000  0.45600000  1.0 -0.2478578442
C  C103  1  0.47240000  0.46490000  0.90970000  1.0 0.0893274064
C  C104  1  0.47240000  0.03510000  0.40970000  1.0 0.0893274064
C  C105  1  0.55490000  0.27130000  0.08820000  1.0 0.6162277556
C  C106  1  0.55490000  0.22870000  0.58820000  1.0 0.6162277556
C  C107  1  0.10600000  0.67720000  0.04700000  1.0 0.1772965303
C  C108  1  0.10600000  0.82280000  0.54700000  1.0 0.1772965303
N  N1  1  0.42940000  0.55010000  0.23840000  1.0 -0.2199850769
N  N2  1  0.42940000  0.94990000  0.73840000  1.0 -0.2199850769
N  N3  1  0.44010000  0.97970000  0.59480000  1.0 -0.2564955109
N  N4  1  0.44010000  0.52030000  0.09480000  1.0 -0.2564955109
N  N5  1  0.49620000  0.73620000  0.37410000  1.0 -0.4064466083
N  N6  1  0.49620000  0.76380000  0.87410000  1.0 -0.4064466083
N  N7  1  0.50160000  0.82400000  0.45360000  1.0 -0.4049248302
N  N8  1  0.50160000  0.67600000  0.95360000  1.0 -0.4064466083
N  N9  1  0.92230000  0.22420000  0.42520000  1.0 -0.1372759842
N  N10  1  0.92230000  0.27580000  0.92520000  1.0 -0.1372759842
N  N11  1  0.87520000  0.22060000  0.39210000  1.0 -0.0599293958
N  N12  1  0.87520000  0.27940000  0.89210000  1.0 -0.0599293958
N  N13  1  0.57060000  0.05010000  0.26160000  1.0 -0.2199850769
N  N14  1  0.57060000  0.44990000  0.76160000  1.0 -0.2199850769
N  N15  1  0.55990000  0.47970000  0.90520000  1.0 -0.2564955109
N  N16  1  0.55990000  0.02030000  0.40520000  1.0 -0.2564955109
N  N17  1  0.50380000  0.23620000  0.12590000  1.0 -0.4064466083
N  N18  1  0.50380000  0.26380000  0.62590000  1.0 -0.4049248302
N  N19  1  0.49840000  0.32400000  0.04640000  1.0 -0.4064466083
N  N20  1  0.49840000  0.17600000  0.54640000  1.0 -0.4049248302
N  N21  1  0.07770000  0.72420000  0.07480000  1.0 -0.1372759842
N  N22  1  0.07770000  0.77580000  0.57480000  1.0 -0.1372759842
N  N23  1  0.12480000  0.72060000  0.10790000  1.0 -0.0599293958
N  N24  1  0.12480000  0.77940000  0.60790000  1.0 -0.0599293958
O  O1  1  0.34130000  0.16270000  0.59760000  1.0 -0.5695547962
O  O2  1  0.34130000  0.33730000  0.09760000  1.0 -0.5695547962
O  O3  1  0.27650000  0.06240000  0.64110000  1.0 -0.5286966392
O  O4  1  0.27650000  0.43760000  0.14110000  1.0 -0.5286966392
O  O5  1  0.55170000  0.40970000  0.19720000  1.0 -0.5635914111
O  O6  1  0.55170000  0.09030000  0.69720000  1.0 -0.5635914111
O  O7  1  0.45570000  0.35910000  0.25400000  1.0 -0.5286966392
O  O8  1  0.45570000  0.14090000  0.75400000  1.0 -0.5286966392
O  O9  1  0.36350000  0.75740000  0.41070000  1.0 -0.4808884614
O  O10  1  0.36350000  0.74260000  0.91070000  1.0 -0.4808884614
O  O11  1  0.82000000  0.14950000  0.46640000  1.0 -0.2800255247
O  O12  1  0.82000000  0.35050000  0.96640000  1.0 -0.2800255247
O  O13  1  0.65870000  0.66270000  0.90240000  1.0 -0.5695547962
O  O14  1  0.65870000  0.83730000  0.40240000  1.0 -0.5695547962
O  O15  1  0.72350000  0.56240000  0.85890000  1.0 -0.5286966392
O  O16  1  0.72350000  0.93760000  0.35890000  1.0 -0.5286966392
O  O17  1  0.44830000  0.90970000  0.30280000  1.0 -0.5635914111
O  O18  1  0.44830000  0.59030000  0.80280000  1.0 -0.5635914111
O  O19  1  0.54430000  0.85910000  0.24600000  1.0 -0.5286966392
O  O20  1  0.54430000  0.64090000  0.74600000  1.0 -0.5286966392
O  O21  1  0.63650000  0.25740000  0.08930000  1.0 -0.4808884614
O  O22  1  0.63650000  0.24260000  0.58930000  1.0 -0.4808884614
O  O23  1  0.18000000  0.64950000  0.03360000  1.0 -0.2800255247
O  O24  1  0.18000000  0.85050000  0.53360000  1.0 -0.2800255247
