# DDEC6 charges by PACMAN v1.1 (https://github.com/mtap-research/PACMAN-charge/)
data_SOQHIR01_FSR_pacman
_symmetry_space_group_name_H-M   'P 1'
_cell_length_a   15.67120000
_cell_length_b   15.83560000
_cell_length_c   17.16250000
_cell_angle_alpha   90.00000000
_cell_angle_beta   90.00000000
_cell_angle_gamma   90.00000000
_symmetry_Int_Tables_number   1
_chemical_formula_structural   Tb(C2O)8
_chemical_formula_sum   'Tb8 C128 O64'
_cell_volume   4259.09499413
_cell_formula_units_Z   8
loop_
 _symmetry_equiv_pos_site_id
 _symmetry_equiv_pos_as_xyz
  1  'x, y, z'
loop_
 _atom_site_type_symbol
 _atom_site_label
 _atom_site_symmetry_multiplicity
 _atom_site_fract_x
 _atom_site_fract_y
 _atom_site_fract_z
 _atom_site_occupancy
 _atom_site_charge
Tb  Tb1  1  0.04294000  0.95391000  0.59614000  1.0 2.0385435924
Tb  Tb2  1  0.04294000  0.54609000  0.90386000  1.0 2.0385435924
Tb  Tb3  1  0.45706000  0.04609000  0.09614000  1.0 2.0385435924
Tb  Tb4  1  0.45706000  0.45391000  0.40386000  1.0 2.0385435924
Tb  Tb5  1  0.95706000  0.04609000  0.40386000  1.0 2.0385435924
Tb  Tb6  1  0.95706000  0.45391000  0.09614000  1.0 2.0385435924
Tb  Tb7  1  0.54294000  0.95391000  0.90386000  1.0 2.0385435924
Tb  Tb8  1  0.54294000  0.54609000  0.59614000  1.0 2.0385435924
C  C1  1  0.02360000  0.13250000  0.58850000  1.0 0.6606790901
C  C2  1  0.02360000  0.36750000  0.91150000  1.0 0.6606790901
C  C3  1  0.47640000  0.86750000  0.08850000  1.0 0.6606790901
C  C4  1  0.47640000  0.63250000  0.41150000  1.0 0.6606790901
C  C5  1  0.97640000  0.86750000  0.41150000  1.0 0.6606790901
C  C6  1  0.97640000  0.63250000  0.08850000  1.0 0.6606790901
C  C7  1  0.52360000  0.13250000  0.91150000  1.0 0.6606790901
C  C8  1  0.52360000  0.36750000  0.58850000  1.0 0.6606790901
C  C9  1  0.00920000  0.22550000  0.58400000  1.0 -0.0503839432
C  C10  1  0.00920000  0.27450000  0.91600000  1.0 -0.0556437865
C  C11  1  0.49080000  0.77450000  0.08400000  1.0 -0.0503839432
C  C12  1  0.49080000  0.72550000  0.41600000  1.0 -0.0503839432
C  C13  1  0.99080000  0.77450000  0.41600000  1.0 -0.0503839432
C  C14  1  0.99080000  0.72550000  0.08400000  1.0 -0.0503839432
C  C15  1  0.50920000  0.22550000  0.91600000  1.0 -0.0503839432
C  C16  1  0.50920000  0.27450000  0.58400000  1.0 -0.0503839432
C  C17  1  0.96400000  0.26540000  0.52180000  1.0 0.0195098938
C  C18  1  0.96400000  0.23460000  0.97820000  1.0 0.0195098938
C  C19  1  0.53600000  0.73460000  0.02180000  1.0 0.0195098938
C  C20  1  0.53600000  0.76540000  0.47820000  1.0 0.0195098938
C  C21  1  0.03600000  0.73460000  0.47820000  1.0 0.0195098938
C  C22  1  0.03600000  0.76540000  0.02180000  1.0 0.0195098938
C  C23  1  0.46400000  0.26540000  0.97820000  1.0 0.0195098938
C  C24  1  0.46400000  0.23460000  0.52180000  1.0 0.0195098938
C  C25  1  0.03740000  0.27490000  0.64350000  1.0 0.052221117
C  C26  1  0.03740000  0.22510000  0.85650000  1.0 0.052221117
C  C27  1  0.46260000  0.72510000  0.14350000  1.0 0.052221117
C  C28  1  0.46260000  0.77490000  0.35650000  1.0 0.052221117
C  C29  1  0.96260000  0.72510000  0.35650000  1.0 0.052221117
C  C30  1  0.96260000  0.77490000  0.14350000  1.0 0.052221117
C  C31  1  0.53740000  0.27490000  0.85650000  1.0 0.052221117
C  C32  1  0.53740000  0.22510000  0.64350000  1.0 0.052221117
C  C33  1  0.94430000  0.21180000  0.45030000  1.0 0.5784318254
C  C34  1  0.94430000  0.28820000  0.04970000  1.0 0.5784318254
C  C35  1  0.55570000  0.78820000  0.95030000  1.0 0.5784318254
C  C36  1  0.55570000  0.71180000  0.54970000  1.0 0.5784318254
C  C37  1  0.05570000  0.78820000  0.54970000  1.0 0.5784318254
C  C38  1  0.05570000  0.71180000  0.95030000  1.0 0.5784318254
C  C39  1  0.44430000  0.21180000  0.04970000  1.0 0.5784318254
C  C40  1  0.44430000  0.28820000  0.45030000  1.0 0.5784318254
C  C41  1  0.94570000  0.34960000  0.52450000  1.0 0.052221117
C  C42  1  0.94570000  0.15040000  0.97550000  1.0 0.052221117
C  C43  1  0.55430000  0.65040000  0.02450000  1.0 0.052221117
C  C44  1  0.55430000  0.84960000  0.47550000  1.0 0.052221117
C  C45  1  0.05430000  0.65040000  0.47550000  1.0 0.052221117
C  C46  1  0.05430000  0.84960000  0.02450000  1.0 0.052221117
C  C47  1  0.44570000  0.34960000  0.97550000  1.0 0.052221117
C  C48  1  0.44570000  0.15040000  0.52450000  1.0 0.052221117
C  C49  1  0.02060000  0.36060000  0.64670000  1.0 -0.0033495115
C  C50  1  0.02060000  0.13940000  0.85330000  1.0 -0.0033495115
C  C51  1  0.47940000  0.63940000  0.14670000  1.0 -0.0033495115
C  C52  1  0.47940000  0.86060000  0.35330000  1.0 -0.0033495115
C  C53  1  0.97940000  0.63940000  0.35330000  1.0 -0.0033495115
C  C54  1  0.97940000  0.86060000  0.14670000  1.0 -0.0033495115
C  C55  1  0.52060000  0.36060000  0.85330000  1.0 -0.0033495115
C  C56  1  0.52060000  0.13940000  0.64670000  1.0 -0.0033495115
C  C57  1  0.97200000  0.39790000  0.58830000  1.0 -0.0033495115
C  C58  1  0.97200000  0.10210000  0.91170000  1.0 -0.0033495115
C  C59  1  0.52800000  0.60210000  0.08830000  1.0 -0.0033495115
C  C60  1  0.52800000  0.89790000  0.41170000  1.0 -0.0033495115
C  C61  1  0.02800000  0.60210000  0.41170000  1.0 -0.0033495115
C  C62  1  0.02800000  0.89790000  0.08830000  1.0 -0.0033495115
C  C63  1  0.47200000  0.39790000  0.91170000  1.0 -0.0033495115
C  C64  1  0.47200000  0.10210000  0.58830000  1.0 -0.0033495115
C  C65  1  0.88940000  0.39020000  0.46320000  1.0 0.0263116478
C  C66  1  0.88940000  0.10980000  0.03680000  1.0 0.0263116478
C  C67  1  0.61060000  0.60980000  0.96320000  1.0 0.0263116478
C  C68  1  0.61060000  0.89020000  0.53680000  1.0 0.0263116478
C  C69  1  0.11060000  0.60980000  0.53680000  1.0 0.0263116478
C  C70  1  0.11060000  0.89020000  0.96320000  1.0 0.0263116478
C  C71  1  0.38940000  0.39020000  0.03680000  1.0 0.0263116478
C  C72  1  0.38940000  0.10980000  0.46320000  1.0 0.0263116478
C  C73  1  0.91750000  0.39410000  0.38640000  1.0 0.0428205386
C  C74  1  0.91750000  0.10590000  0.11360000  1.0 0.0428205386
C  C75  1  0.58250000  0.60590000  0.88640000  1.0 0.0428205386
C  C76  1  0.58250000  0.89410000  0.61360000  1.0 0.0428205386
C  C77  1  0.08250000  0.60590000  0.61360000  1.0 0.0428205386
C  C78  1  0.08250000  0.89410000  0.88640000  1.0 0.0428205386
C  C79  1  0.41750000  0.39410000  0.11360000  1.0 0.0428205386
C  C80  1  0.41750000  0.10590000  0.38640000  1.0 0.0428205386
C  C81  1  0.80990000  0.41980000  0.48250000  1.0 -0.0095727296
C  C82  1  0.80990000  0.08020000  0.01750000  1.0 -0.0095727296
C  C83  1  0.69010000  0.58020000  0.98250000  1.0 -0.0095727296
C  C84  1  0.69010000  0.91980000  0.51750000  1.0 -0.0095727296
C  C85  1  0.19010000  0.58020000  0.51750000  1.0 -0.0095727296
C  C86  1  0.19010000  0.91980000  0.98250000  1.0 -0.0095727296
C  C87  1  0.30990000  0.41980000  0.01750000  1.0 -0.0095727296
C  C88  1  0.30990000  0.08020000  0.48250000  1.0 -0.0095727296
C  C89  1  0.86290000  0.42780000  0.32880000  1.0 -0.0307567872
C  C90  1  0.86290000  0.07220000  0.17120000  1.0 -0.0307567872
C  C91  1  0.63710000  0.57220000  0.82880000  1.0 -0.0307567872
C  C92  1  0.63710000  0.92780000  0.67120000  1.0 -0.0307567872
C  C93  1  0.13710000  0.57220000  0.67120000  1.0 -0.0307567872
C  C94  1  0.13710000  0.92780000  0.82880000  1.0 -0.0307567872
C  C95  1  0.36290000  0.42780000  0.17120000  1.0 -0.0307567872
C  C96  1  0.36290000  0.07220000  0.32880000  1.0 -0.0307567872
C  C97  1  0.75450000  0.45010000  0.42380000  1.0 -0.0503839432
C  C98  1  0.75450000  0.04990000  0.07620000  1.0 -0.0447335548
C  C99  1  0.74550000  0.54990000  0.92380000  1.0 -0.0503839432
C  C100  1  0.74550000  0.95010000  0.57620000  1.0 -0.0503839432
C  C101  1  0.24550000  0.54990000  0.57620000  1.0 -0.0503839432
C  C102  1  0.24550000  0.95010000  0.92380000  1.0 -0.0503839432
C  C103  1  0.25450000  0.45010000  0.07620000  1.0 -0.0503839432
C  C104  1  0.25450000  0.04990000  0.42380000  1.0 -0.0503839432
C  C105  1  0.78140000  0.45260000  0.34780000  1.0 0.0559753852
C  C106  1  0.78140000  0.04740000  0.15220000  1.0 0.0559753852
C  C107  1  0.71860000  0.54740000  0.84780000  1.0 0.0559753852
C  C108  1  0.71860000  0.95260000  0.65220000  1.0 0.0559753852
C  C109  1  0.21860000  0.54740000  0.65220000  1.0 0.0559753852
C  C110  1  0.21860000  0.95260000  0.84780000  1.0 0.0559753852
C  C111  1  0.28140000  0.45260000  0.15220000  1.0 0.0559753852
C  C112  1  0.28140000  0.04740000  0.34780000  1.0 0.0559753852
C  C113  1  0.89410000  0.43360000  0.24570000  1.0 0.6277331516
C  C114  1  0.89410000  0.06640000  0.25430000  1.0 0.6277331516
C  C115  1  0.60590000  0.56640000  0.74570000  1.0 0.6277331516
C  C116  1  0.60590000  0.93360000  0.75430000  1.0 0.6277331516
C  C117  1  0.10590000  0.56640000  0.75430000  1.0 0.6277331516
C  C118  1  0.10590000  0.93360000  0.74570000  1.0 0.6277331516
C  C119  1  0.39410000  0.43360000  0.25430000  1.0 0.6277331516
C  C120  1  0.39410000  0.06640000  0.24570000  1.0 0.6277331516
C  C121  1  0.66540000  0.47370000  0.44950000  1.0 0.687681678
C  C122  1  0.66540000  0.02630000  0.05050000  1.0 0.687681678
C  C123  1  0.83460000  0.52630000  0.94950000  1.0 0.687681678
C  C124  1  0.83460000  0.97370000  0.55050000  1.0 0.687681678
C  C125  1  0.33460000  0.52630000  0.55050000  1.0 0.687681678
C  C126  1  0.33460000  0.97370000  0.94950000  1.0 0.687681678
C  C127  1  0.16540000  0.47370000  0.05050000  1.0 0.687681678
C  C128  1  0.16540000  0.02630000  0.44950000  1.0 0.687681678
O  O1  1  0.05190000  0.09880000  0.64740000  1.0 -0.5305033222
O  O2  1  0.05190000  0.40120000  0.85260000  1.0 -0.5305033222
O  O3  1  0.44810000  0.90120000  0.14740000  1.0 -0.5305033222
O  O4  1  0.44810000  0.59880000  0.35260000  1.0 -0.5305033222
O  O5  1  0.94810000  0.90120000  0.35260000  1.0 -0.5305033222
O  O6  1  0.94810000  0.59880000  0.14740000  1.0 -0.5305033222
O  O7  1  0.55190000  0.09880000  0.85260000  1.0 -0.5305033222
O  O8  1  0.55190000  0.40120000  0.64740000  1.0 -0.5305033222
O  O9  1  0.00180000  0.08610000  0.52960000  1.0 -0.7509240776
O  O10  1  0.00180000  0.41390000  0.97040000  1.0 -0.7509240776
O  O11  1  0.49820000  0.91390000  0.02960000  1.0 -0.7509240776
O  O12  1  0.49820000  0.58610000  0.47040000  1.0 -0.7509240776
O  O13  1  0.99820000  0.91390000  0.47040000  1.0 -0.7509240776
O  O14  1  0.99820000  0.58610000  0.02960000  1.0 -0.7509240776
O  O15  1  0.50180000  0.08610000  0.97040000  1.0 -0.7509240776
O  O16  1  0.50180000  0.41390000  0.52960000  1.0 -0.7509240776
O  O17  1  0.87490000  0.17790000  0.44760000  1.0 -0.5107498511
O  O18  1  0.87490000  0.32210000  0.05240000  1.0 -0.5107498511
O  O19  1  0.62510000  0.82210000  0.94760000  1.0 -0.5107498511
O  O20  1  0.62510000  0.67790000  0.55240000  1.0 -0.5107498511
O  O21  1  0.12510000  0.82210000  0.55240000  1.0 -0.5107498511
O  O22  1  0.12510000  0.67790000  0.94760000  1.0 -0.5107498511
O  O23  1  0.37490000  0.17790000  0.05240000  1.0 -0.5107498511
O  O24  1  0.37490000  0.32210000  0.44760000  1.0 -0.5107498511
O  O25  1  0.00240000  0.20120000  0.40230000  1.0 -0.5398951739
O  O26  1  0.00240000  0.29880000  0.09770000  1.0 -0.5398951739
O  O27  1  0.49760000  0.79880000  0.90230000  1.0 -0.5398951739
O  O28  1  0.49760000  0.70120000  0.59770000  1.0 -0.5398951739
O  O29  1  0.99760000  0.79880000  0.59770000  1.0 -0.5398951739
O  O30  1  0.99760000  0.70120000  0.90230000  1.0 -0.5398951739
O  O31  1  0.50240000  0.20120000  0.09770000  1.0 -0.5398951739
O  O32  1  0.50240000  0.29880000  0.40230000  1.0 -0.5398951739
O  O33  1  0.84170000  0.44600000  0.19140000  1.0 -0.5837408597
O  O34  1  0.84170000  0.05400000  0.30860000  1.0 -0.5837408597
O  O35  1  0.65830000  0.55400000  0.69140000  1.0 -0.5837408597
O  O36  1  0.65830000  0.94600000  0.80860000  1.0 -0.5837408597
O  O37  1  0.15830000  0.55400000  0.80860000  1.0 -0.5837408597
O  O38  1  0.15830000  0.94600000  0.69140000  1.0 -0.5837408597
O  O39  1  0.34170000  0.44600000  0.30860000  1.0 -0.5837408597
O  O40  1  0.34170000  0.05400000  0.19140000  1.0 -0.5837408597
O  O41  1  0.97330000  0.43000000  0.23310000  1.0 -0.5893929794
O  O42  1  0.97330000  0.07000000  0.26690000  1.0 -0.5893929794
O  O43  1  0.52670000  0.57000000  0.73310000  1.0 -0.5837408597
O  O44  1  0.52670000  0.93000000  0.76690000  1.0 -0.5837408597
O  O45  1  0.02670000  0.57000000  0.76690000  1.0 -0.5837408597
O  O46  1  0.02670000  0.93000000  0.73310000  1.0 -0.5893929794
O  O47  1  0.47330000  0.43000000  0.26690000  1.0 -0.5837408597
O  O48  1  0.47330000  0.07000000  0.23310000  1.0 -0.5893929794
O  O49  1  0.65570000  0.50040000  0.51730000  1.0 -0.6026082456
O  O50  1  0.65570000  0.99960000  0.98270000  1.0 -0.6026082456
O  O51  1  0.84430000  0.49960000  0.01730000  1.0 -0.6026082456
O  O52  1  0.84430000  0.00040000  0.48270000  1.0 -0.6026082456
O  O53  1  0.34430000  0.49960000  0.48270000  1.0 -0.6026082456
O  O54  1  0.34430000  0.00040000  0.01730000  1.0 -0.6026082456
O  O55  1  0.15570000  0.50040000  0.98270000  1.0 -0.6026082456
O  O56  1  0.15570000  0.99960000  0.51730000  1.0 -0.6026082456
O  O57  1  0.60930000  0.46570000  0.39830000  1.0 -0.5893929794
O  O58  1  0.60930000  0.03430000  0.10170000  1.0 -0.5893929794
O  O59  1  0.89070000  0.53430000  0.89830000  1.0 -0.5893929794
O  O60  1  0.89070000  0.96570000  0.60170000  1.0 -0.5893929794
O  O61  1  0.39070000  0.53430000  0.60170000  1.0 -0.5893929794
O  O62  1  0.39070000  0.96570000  0.89830000  1.0 -0.5893929794
O  O63  1  0.10930000  0.46570000  0.10170000  1.0 -0.5893929794
O  O64  1  0.10930000  0.03430000  0.39830000  1.0 -0.5893929794
