# DDEC6 charges by PACMAN v1.1 (https://github.com/mtap-research/PACMAN-charge/)
data_SORHUE_FSR_pacman
_symmetry_space_group_name_H-M   'P 1'
_cell_length_a   11.28720000
_cell_length_b   11.28720000
_cell_length_c   19.66800000
_cell_angle_alpha   87.34780000
_cell_angle_beta   92.65220000
_cell_angle_gamma   39.86560000
_symmetry_Int_Tables_number   1
_chemical_formula_structural   CeH3C12N5O7
_chemical_formula_sum   'Ce4 H12 C48 N20 O28'
_cell_volume   1591.27548026
_cell_formula_units_Z   4
loop_
 _symmetry_equiv_pos_site_id
 _symmetry_equiv_pos_as_xyz
  1  'x, y, z'
loop_
 _atom_site_type_symbol
 _atom_site_label
 _atom_site_symmetry_multiplicity
 _atom_site_fract_x
 _atom_site_fract_y
 _atom_site_fract_z
 _atom_site_occupancy
 _atom_site_charge
Ce  Ce1  1  0.76784000  0.78590000  0.75498000  1.0 1.9607381641
Ce  Ce2  1  0.78590000  0.76784000  0.24502000  1.0 1.9607381641
Ce  Ce3  1  0.23216000  0.21410000  0.24502000  1.0 1.9607381641
Ce  Ce4  1  0.21410000  0.23216000  0.75498000  1.0 1.9607381641
H  H1  1  0.07610000  0.73730000  0.76840000  1.0 0.3782028525
H  H2  1  0.73730000  0.07610000  0.23160000  1.0 0.3782028525
H  H3  1  0.92390000  0.26270000  0.23160000  1.0 0.3782028525
H  H4  1  0.26270000  0.92390000  0.76840000  1.0 0.3782028525
H  H5  1  0.91390000  0.86990000  0.72610000  1.0 0.3546441018
H  H6  1  0.86990000  0.91390000  0.27390000  1.0 0.3546441018
H  H7  1  0.08610000  0.13010000  0.27390000  1.0 0.3546441018
H  H8  1  0.13010000  0.08610000  0.72610000  1.0 0.3546441018
H  H9  1  0.42170000  0.22850000  0.89450000  1.0 0.1527553766
H  H10  1  0.22850000  0.42170000  0.10550000  1.0 0.1527553766
H  H11  1  0.57830000  0.77150000  0.10550000  1.0 0.1527553766
H  H12  1  0.77150000  0.57830000  0.89450000  1.0 0.1527553766
C  C1  1  0.50220000  0.06840000  0.63130000  1.0 0.6188517108
C  C2  1  0.06840000  0.50220000  0.36870000  1.0 0.6188517108
C  C3  1  0.49780000  0.93160000  0.36870000  1.0 0.6188517108
C  C4  1  0.93160000  0.49780000  0.63130000  1.0 0.6188517108
C  C5  1  0.06590000  0.55570000  0.87630000  1.0 0.6188517108
C  C6  1  0.55570000  0.06590000  0.12370000  1.0 0.6188517108
C  C7  1  0.93410000  0.44430000  0.12370000  1.0 0.6188517108
C  C8  1  0.44430000  0.93410000  0.87630000  1.0 0.6188517108
C  C9  1  0.74770000  0.52310000  0.75030000  1.0 0.6142891168
C  C10  1  0.52310000  0.74770000  0.24970000  1.0 0.6142891168
C  C11  1  0.25230000  0.47690000  0.24970000  1.0 0.6142891168
C  C12  1  0.47690000  0.25230000  0.75030000  1.0 0.6142891168
C  C13  1  0.38850000  0.18190000  0.56400000  1.0 -0.1520776555
C  C14  1  0.18190000  0.38850000  0.43600000  1.0 -0.1520776555
C  C15  1  0.61150000  0.81810000  0.43600000  1.0 -0.1520776555
C  C16  1  0.81810000  0.61150000  0.56400000  1.0 -0.1520776555
C  C17  1  0.20210000  0.44330000  0.94010000  1.0 -0.0922799727
C  C18  1  0.44330000  0.20210000  0.05990000  1.0 -0.0922799727
C  C19  1  0.79790000  0.55670000  0.05990000  1.0 -0.0922799727
C  C20  1  0.55670000  0.79790000  0.94010000  1.0 -0.0922799727
C  C21  1  0.68720000  0.44300000  0.74950000  1.0 -0.1652231843
C  C22  1  0.44300000  0.68720000  0.25050000  1.0 -0.1652231843
C  C23  1  0.31280000  0.55700000  0.25050000  1.0 -0.1602995754
C  C24  1  0.55700000  0.31280000  0.74950000  1.0 -0.1652231843
C  C25  1  0.39870000  0.28650000  0.53100000  1.0 0.1424173854
C  C26  1  0.28650000  0.39870000  0.46900000  1.0 0.1424173854
C  C27  1  0.60130000  0.71350000  0.46900000  1.0 0.1424173854
C  C28  1  0.71350000  0.60130000  0.53100000  1.0 0.1424173854
C  C29  1  0.27980000  0.17720000  0.53200000  1.0 0.1424173854
C  C30  1  0.17720000  0.27980000  0.46800000  1.0 0.1424173854
C  C31  1  0.72020000  0.82280000  0.46800000  1.0 0.1424173854
C  C32  1  0.82280000  0.72020000  0.53200000  1.0 0.1424173854
C  C33  1  0.14280000  0.50800000  0.00380000  1.0 0.1965457021
C  C34  1  0.50800000  0.14280000  0.99620000  1.0 0.1965457021
C  C35  1  0.85720000  0.49200000  0.99620000  1.0 0.1965457021
C  C36  1  0.49200000  0.85720000  0.00380000  1.0 0.1965457021
C  C37  1  0.38230000  0.26670000  0.93730000  1.0 -0.1520776555
C  C38  1  0.26670000  0.38230000  0.06270000  1.0 -0.1520776555
C  C39  1  0.61770000  0.73330000  0.06270000  1.0 -0.1520776555
C  C40  1  0.73330000  0.61770000  0.93730000  1.0 -0.1520776555
C  C41  1  0.77860000  0.28740000  0.79670000  1.0 0.1424173854
C  C42  1  0.28740000  0.77860000  0.20330000  1.0 0.1424173854
C  C43  1  0.22140000  0.71260000  0.20330000  1.0 0.1424173854
C  C44  1  0.71260000  0.22140000  0.79670000  1.0 0.1424173854
C  C45  1  0.53790000  0.52730000  0.70160000  1.0 0.1337260722
C  C46  1  0.52730000  0.53790000  0.29840000  1.0 0.1424173854
C  C47  1  0.46210000  0.47270000  0.29840000  1.0 0.1337260722
C  C48  1  0.47270000  0.46210000  0.70160000  1.0 0.1337260722
N  N1  1  0.53380000  0.26580000  0.55320000  1.0 -0.0610115559
N  N2  1  0.26580000  0.53380000  0.44680000  1.0 -0.0610115559
N  N3  1  0.46620000  0.73420000  0.44680000  1.0 -0.0610115559
N  N4  1  0.73420000  0.46620000  0.55320000  1.0 -0.0610115559
N  N5  1  0.98910000  0.69110000  0.00940000  1.0 -0.0922799727
N  N6  1  0.69110000  0.98910000  0.99060000  1.0 -0.0922799727
N  N7  1  0.01090000  0.30890000  0.99060000  1.0 -0.0922799727
N  N8  1  0.30890000  0.01090000  0.00940000  1.0 -0.0922799727
N  N9  1  0.92520000  0.18720000  0.85020000  1.0 -0.1602995754
N  N10  1  0.18720000  0.92520000  0.14980000  1.0 -0.1602995754
N  N11  1  0.07480000  0.81280000  0.14980000  1.0 -0.1602995754
N  N12  1  0.81280000  0.07480000  0.85020000  1.0 -0.1602995754
N  N13  1  0.27860000  0.07060000  0.55860000  1.0 -0.1777984791
N  N14  1  0.07060000  0.27860000  0.44140000  1.0 -0.1777984791
N  N15  1  0.72140000  0.92940000  0.44140000  1.0 -0.1777984791
N  N16  1  0.92940000  0.72140000  0.55860000  1.0 -0.1777984791
N  N17  1  0.43230000  0.68830000  0.66190000  1.0 -0.1083622065
N  N18  1  0.68830000  0.43230000  0.33810000  1.0 -0.1083622065
N  N19  1  0.56770000  0.31170000  0.33810000  1.0 -0.1083622065
N  N20  1  0.31170000  0.56770000  0.66190000  1.0 -0.1083622065
O  O1  1  0.01480000  0.75200000  0.73440000  1.0 -0.6774852158
O  O2  1  0.75200000  0.01480000  0.26560000  1.0 -0.6774852158
O  O3  1  0.98520000  0.24800000  0.26560000  1.0 -0.6774852158
O  O4  1  0.24800000  0.98520000  0.73440000  1.0 -0.6774852158
O  O5  1  0.65600000  0.99960000  0.64660000  1.0 -0.558629799
O  O6  1  0.99960000  0.65600000  0.35340000  1.0 -0.558629799
O  O7  1  0.34400000  0.00040000  0.35340000  1.0 -0.558629799
O  O8  1  0.00040000  0.34400000  0.64660000  1.0 -0.558629799
O  O9  1  0.44360000  0.03620000  0.67310000  1.0 -0.6708639146
O  O10  1  0.03620000  0.44360000  0.32690000  1.0 -0.6708639146
O  O11  1  0.55640000  0.96380000  0.32690000  1.0 -0.6708639146
O  O12  1  0.96380000  0.55640000  0.67310000  1.0 -0.6708639146
O  O13  1  0.10640000  0.47520000  0.82270000  1.0 -0.7004362226
O  O14  1  0.47520000  0.10640000  0.17730000  1.0 -0.7004362226
O  O15  1  0.89360000  0.52480000  0.17730000  1.0 -0.7004362226
O  O16  1  0.52480000  0.89360000  0.82270000  1.0 -0.7004362226
O  O17  1  0.91190000  0.72550000  0.87440000  1.0 -0.527900982
O  O18  1  0.72550000  0.91190000  0.12560000  1.0 -0.527900982
O  O19  1  0.08810000  0.27450000  0.12560000  1.0 -0.527900982
O  O20  1  0.27450000  0.08810000  0.87440000  1.0 -0.527900982
O  O21  1  0.64460000  0.67900000  0.71710000  1.0 -0.5051466108
O  O22  1  0.67900000  0.64460000  0.28290000  1.0 -0.5051466108
O  O23  1  0.35540000  0.32100000  0.28290000  1.0 -0.504358101
O  O24  1  0.32100000  0.35540000  0.71710000  1.0 -0.504358101
O  O25  1  0.56420000  0.10180000  0.78610000  1.0 -0.6577819467
O  O26  1  0.10180000  0.56420000  0.21390000  1.0 -0.6577819467
O  O27  1  0.43580000  0.89820000  0.21390000  1.0 -0.6577819467
O  O28  1  0.89820000  0.43580000  0.78610000  1.0 -0.6577819467
