# DDEC6 charges by PACMAN v1.1 (https://github.com/mtap-research/PACMAN-charge/)
data_SORQAT_ASR_pacman
_symmetry_space_group_name_H-M   'P 1'
_cell_length_a   11.20970000
_cell_length_b   11.20970000
_cell_length_c   19.51500000
_cell_angle_alpha   87.19340000
_cell_angle_beta   92.80660000
_cell_angle_gamma   39.63040000
_symmetry_Int_Tables_number   1
_chemical_formula_structural   NdHC12N5O6
_chemical_formula_sum   'Nd4 H4 C48 N20 O24'
_cell_volume   1547.69294173
_cell_formula_units_Z   4
loop_
 _symmetry_equiv_pos_site_id
 _symmetry_equiv_pos_as_xyz
  1  'x, y, z'
loop_
 _atom_site_type_symbol
 _atom_site_label
 _atom_site_symmetry_multiplicity
 _atom_site_fract_x
 _atom_site_fract_y
 _atom_site_fract_z
 _atom_site_occupancy
 _atom_site_charge
Nd  Nd1  1  0.28782000  0.26500000  0.24461000  1.0 2.1027142593
Nd  Nd2  1  0.26500000  0.28782000  0.75539000  1.0 2.1027142593
Nd  Nd3  1  0.71218000  0.73500000  0.75539000  1.0 2.1027142593
Nd  Nd4  1  0.73500000  0.71218000  0.24461000  1.0 2.1027142593
H  H1  1  0.72640000  0.92500000  0.10510000  1.0 0.1514950843
H  H2  1  0.92500000  0.72640000  0.89490000  1.0 0.1514950843
H  H3  1  0.27360000  0.07500000  0.89490000  1.0 0.1514950843
H  H4  1  0.07500000  0.27360000  0.10510000  1.0 0.1514950843
C  C1  1  0.56640000  0.00140000  0.36780000  1.0 0.6236386188
C  C2  1  0.00140000  0.56640000  0.63220000  1.0 0.6236386188
C  C3  1  0.43360000  0.99860000  0.63220000  1.0 0.6236386188
C  C4  1  0.99860000  0.43360000  0.36780000  1.0 0.6236386188
C  C5  1  0.68200000  0.88640000  0.43570000  1.0 -0.1688846274
C  C6  1  0.88640000  0.68200000  0.56430000  1.0 -0.1688846274
C  C7  1  0.31800000  0.11360000  0.56430000  1.0 -0.1688846274
C  C8  1  0.11360000  0.31800000  0.43570000  1.0 -0.1688846274
C  C9  1  0.78950000  0.89370000  0.46780000  1.0 0.1393020514
C  C10  1  0.89370000  0.78950000  0.53220000  1.0 0.1393020514
C  C11  1  0.21050000  0.10630000  0.53220000  1.0 0.1393020514
C  C12  1  0.10630000  0.21050000  0.46780000  1.0 0.1393020514
C  C13  1  0.67840000  0.77600000  0.46760000  1.0 0.1594826617
C  C14  1  0.77600000  0.67840000  0.53240000  1.0 0.1594826617
C  C15  1  0.32160000  0.22400000  0.53240000  1.0 0.1594826617
C  C16  1  0.22400000  0.32160000  0.46760000  1.0 0.1594826617
C  C17  1  0.05560000  0.56420000  0.12420000  1.0 0.6236386188
C  C18  1  0.56420000  0.05560000  0.87580000  1.0 0.6236386188
C  C19  1  0.94440000  0.43580000  0.87580000  1.0 0.6236386188
C  C20  1  0.43580000  0.94440000  0.12420000  1.0 0.6236386188
C  C21  1  0.94390000  0.70010000  0.06110000  1.0 -0.1008926294
C  C22  1  0.70010000  0.94390000  0.93890000  1.0 -0.1008926294
C  C23  1  0.05610000  0.29990000  0.93890000  1.0 -0.1008926294
C  C24  1  0.29990000  0.05610000  0.06110000  1.0 -0.1008926294
C  C25  1  0.00790000  0.64250000  0.99670000  1.0 0.206680108
C  C26  1  0.64250000  0.00790000  0.00330000  1.0 0.206680108
C  C27  1  0.99210000  0.35750000  0.00330000  1.0 0.206680108
C  C28  1  0.35750000  0.99210000  0.99670000  1.0 0.206680108
C  C29  1  0.76560000  0.88340000  0.06230000  1.0 -0.160569962
C  C30  1  0.88340000  0.76560000  0.93770000  1.0 -0.160569962
C  C31  1  0.23440000  0.11660000  0.93770000  1.0 -0.160569962
C  C32  1  0.11660000  0.23440000  0.06230000  1.0 -0.160569962
C  C33  1  0.02170000  0.24910000  0.24810000  1.0 0.6359630563
C  C34  1  0.24910000  0.02170000  0.75190000  1.0 0.6359630563
C  C35  1  0.97830000  0.75090000  0.75190000  1.0 0.6359630563
C  C36  1  0.75090000  0.97830000  0.24810000  1.0 0.6359630563
C  C37  1  0.94390000  0.18630000  0.24930000  1.0 -0.160569962
C  C38  1  0.18630000  0.94390000  0.75070000  1.0 -0.160569962
C  C39  1  0.05610000  0.81370000  0.75070000  1.0 -0.160569962
C  C40  1  0.81370000  0.05610000  0.24930000  1.0 -0.160569962
C  C41  1  0.02800000  0.03680000  0.29750000  1.0 0.1393020514
C  C42  1  0.03680000  0.02800000  0.70250000  1.0 0.1393020514
C  C43  1  0.97200000  0.96320000  0.70250000  1.0 0.1393020514
C  C44  1  0.96320000  0.97200000  0.29750000  1.0 0.1393020514
C  C45  1  0.79080000  0.27580000  0.20260000  1.0 0.1393020514
C  C46  1  0.27580000  0.79080000  0.79740000  1.0 0.1393020514
C  C47  1  0.20920000  0.72420000  0.79740000  1.0 0.1393020514
C  C48  1  0.72420000  0.20920000  0.20260000  1.0 0.1393020514
N  N1  1  0.57460000  0.77260000  0.44600000  1.0 -0.1943390591
N  N2  1  0.77260000  0.57460000  0.55400000  1.0 -0.1943390591
N  N3  1  0.42540000  0.22740000  0.55400000  1.0 -0.1943390591
N  N4  1  0.22740000  0.42540000  0.44600000  1.0 -0.1943390591
N  N5  1  0.69430000  0.42030000  0.15030000  1.0 -0.0937023758
N  N6  1  0.42030000  0.69430000  0.84970000  1.0 -0.1008926294
N  N7  1  0.30570000  0.57970000  0.84970000  1.0 -0.1008926294
N  N8  1  0.57970000  0.30570000  0.15030000  1.0 -0.0937023758
N  N9  1  0.19240000  0.48580000  0.99050000  1.0 -0.1688846274
N  N10  1  0.48580000  0.19240000  0.00950000  1.0 -0.1688846274
N  N11  1  0.80760000  0.51420000  0.00950000  1.0 -0.1688846274
N  N12  1  0.51420000  0.80760000  0.99050000  1.0 -0.1688846274
N  N13  1  0.76490000  0.03690000  0.44810000  1.0 0.0061089236
N  N14  1  0.03690000  0.76490000  0.55190000  1.0 0.0061089236
N  N15  1  0.23510000  0.96310000  0.55190000  1.0 0.0061089236
N  N16  1  0.96310000  0.23510000  0.44810000  1.0 0.0061089236
N  N17  1  0.18330000  0.93730000  0.33960000  1.0 -0.1263958624
N  N18  1  0.93730000  0.18330000  0.66040000  1.0 -0.1263958624
N  N19  1  0.81670000  0.06270000  0.66040000  1.0 -0.1263958624
N  N20  1  0.06270000  0.81670000  0.33960000  1.0 -0.1263958624
O  O1  1  0.49690000  0.15550000  0.35210000  1.0 -0.5407771579
O  O2  1  0.15550000  0.49690000  0.64790000  1.0 -0.5407771579
O  O3  1  0.50310000  0.84450000  0.64790000  1.0 -0.5407771579
O  O4  1  0.84450000  0.50310000  0.35210000  1.0 -0.5407771579
O  O5  1  0.53890000  0.93930000  0.32500000  1.0 -0.738100808
O  O6  1  0.93930000  0.53890000  0.67500000  1.0 -0.738100808
O  O7  1  0.46110000  0.06070000  0.67500000  1.0 -0.738100808
O  O8  1  0.06070000  0.46110000  0.32500000  1.0 -0.738100808
O  O9  1  0.97490000  0.60410000  0.17750000  1.0 -0.7305817417
O  O10  1  0.60410000  0.97490000  0.82250000  1.0 -0.7305817417
O  O11  1  0.02510000  0.39590000  0.82250000  1.0 -0.7305817417
O  O12  1  0.39590000  0.02510000  0.17750000  1.0 -0.7305817417
O  O13  1  0.22610000  0.40790000  0.12630000  1.0 -0.5316017828
O  O14  1  0.40790000  0.22610000  0.87370000  1.0 -0.5316017828
O  O15  1  0.77390000  0.59210000  0.87370000  1.0 -0.5316017828
O  O16  1  0.59210000  0.77390000  0.12630000  1.0 -0.5316017828
O  O17  1  0.93218000  0.40118000  0.21400000  1.0 -0.6679546049
O  O18  1  0.40118000  0.93218000  0.78600000  1.0 -0.6679546049
O  O19  1  0.06782000  0.59882000  0.78600000  1.0 -0.6679546049
O  O20  1  0.59882000  0.06782000  0.21400000  1.0 -0.6679546049
O  O21  1  0.17970000  0.14550000  0.28210000  1.0 -0.5407771579
O  O22  1  0.14550000  0.17970000  0.71790000  1.0 -0.5407771579
O  O23  1  0.82030000  0.85450000  0.71790000  1.0 -0.5407771579
O  O24  1  0.85450000  0.82030000  0.28210000  1.0 -0.5407771579
