# DDEC6 charges by PACMAN v1.1 (https://github.com/mtap-research/PACMAN-charge/)
data_SORXAA_FSR_pacman
_symmetry_space_group_name_H-M   'P 1'
_cell_length_a   11.23280000
_cell_length_b   11.23280000
_cell_length_c   19.57800000
_cell_angle_alpha   87.18440000
_cell_angle_beta   92.81560000
_cell_angle_gamma   39.75800000
_symmetry_Int_Tables_number   1
_chemical_formula_structural   PrH3C12N5O7
_chemical_formula_sum   'Pr4 H12 C48 N20 O28'
_cell_volume   1563.28016052
_cell_formula_units_Z   4
loop_
 _symmetry_equiv_pos_site_id
 _symmetry_equiv_pos_as_xyz
  1  'x, y, z'
loop_
 _atom_site_type_symbol
 _atom_site_label
 _atom_site_symmetry_multiplicity
 _atom_site_fract_x
 _atom_site_fract_y
 _atom_site_fract_z
 _atom_site_occupancy
 _atom_site_charge
Pr  Pr1  1  0.73417000  0.71257000  0.74474000  1.0 2.1118668102
Pr  Pr2  1  0.71257000  0.73417000  0.25526000  1.0 2.1118668102
Pr  Pr3  1  0.26583000  0.28743000  0.25526000  1.0 2.1118668102
Pr  Pr4  1  0.28743000  0.26583000  0.74474000  1.0 2.1118668102
H  H1  1  0.37680000  0.81260000  0.75190000  1.0 0.3917944662
H  H2  1  0.81260000  0.37680000  0.24810000  1.0 0.3917944662
H  H3  1  0.62320000  0.18740000  0.24810000  1.0 0.3917944662
H  H4  1  0.18740000  0.62320000  0.75190000  1.0 0.3917944662
H  H5  1  0.54990000  0.63790000  0.75540000  1.0 0.3453571506
H  H6  1  0.63790000  0.54990000  0.24460000  1.0 0.3453571506
H  H7  1  0.45010000  0.36210000  0.24460000  1.0 0.3453571506
H  H8  1  0.36210000  0.45010000  0.75540000  1.0 0.3453571506
H  H9  1  0.07730000  0.27210000  0.60560000  1.0 0.1551992379
H  H10  1  0.27210000  0.07730000  0.39440000  1.0 0.1551992379
H  H11  1  0.92270000  0.72790000  0.39440000  1.0 0.1551992379
H  H12  1  0.72790000  0.92270000  0.60560000  1.0 0.1551992379
C  C1  1  0.99920000  0.43200000  0.86830000  1.0 0.6281060062
C  C2  1  0.43200000  0.99920000  0.13170000  1.0 0.6281060062
C  C3  1  0.00080000  0.56800000  0.13170000  1.0 0.6281060062
C  C4  1  0.56800000  0.00080000  0.86830000  1.0 0.6281060062
C  C5  1  0.11320000  0.31720000  0.93600000  1.0 -0.159831363
C  C6  1  0.31720000  0.11320000  0.06400000  1.0 -0.159831363
C  C7  1  0.88680000  0.68280000  0.06400000  1.0 -0.159831363
C  C8  1  0.68280000  0.88680000  0.93600000  1.0 -0.159831363
C  C9  1  0.10580000  0.21160000  0.96800000  1.0 0.1441783093
C  C10  1  0.21160000  0.10580000  0.03200000  1.0 0.1441783093
C  C11  1  0.89420000  0.78840000  0.03200000  1.0 0.1441783093
C  C12  1  0.78840000  0.89420000  0.96800000  1.0 0.1496768745
C  C13  1  0.22340000  0.32020000  0.96800000  1.0 0.1496768745
C  C14  1  0.32020000  0.22340000  0.03200000  1.0 0.1496768745
C  C15  1  0.77660000  0.67980000  0.03200000  1.0 0.1496768745
C  C16  1  0.67980000  0.77660000  0.96800000  1.0 0.1496768745
C  C17  1  0.43370000  0.94490000  0.62380000  1.0 0.6281060062
C  C18  1  0.94490000  0.43370000  0.37620000  1.0 0.6281060062
C  C19  1  0.56630000  0.05510000  0.37620000  1.0 0.6281060062
C  C20  1  0.05510000  0.56630000  0.62380000  1.0 0.6281060062
C  C21  1  0.29910000  0.05630000  0.56010000  1.0 -0.0993919067
C  C22  1  0.05630000  0.29910000  0.43990000  1.0 -0.0993919067
C  C23  1  0.70090000  0.94370000  0.43990000  1.0 -0.0993919067
C  C24  1  0.94370000  0.70090000  0.56010000  1.0 -0.0993919067
C  C25  1  0.11720000  0.23380000  0.56280000  1.0 -0.1410100676
C  C26  1  0.23380000  0.11720000  0.43720000  1.0 -0.1410100676
C  C27  1  0.88280000  0.76620000  0.43720000  1.0 -0.1410100676
C  C28  1  0.76620000  0.88280000  0.56280000  1.0 -0.1410100676
C  C29  1  0.35710000  0.99210000  0.49670000  1.0 0.195802883
C  C30  1  0.99210000  0.35710000  0.50330000  1.0 0.195802883
C  C31  1  0.64290000  0.00790000  0.50330000  1.0 0.195802883
C  C32  1  0.00790000  0.64290000  0.49670000  1.0 0.195802883
C  C33  1  0.75300000  0.97600000  0.74950000  1.0 0.6246762208
C  C34  1  0.97600000  0.75300000  0.25050000  1.0 0.6246762208
C  C35  1  0.24700000  0.02400000  0.25050000  1.0 0.6246762208
C  C36  1  0.02400000  0.24700000  0.74950000  1.0 0.6246762208
C  C37  1  0.81330000  0.05550000  0.75010000  1.0 -0.1685462922
C  C38  1  0.05550000  0.81330000  0.24990000  1.0 -0.1685462922
C  C39  1  0.18670000  0.94450000  0.24990000  1.0 -0.1685462922
C  C40  1  0.94450000  0.18670000  0.75010000  1.0 -0.1685462922
C  C41  1  0.72600000  0.20780000  0.70280000  1.0 0.1496768745
C  C42  1  0.20780000  0.72600000  0.29720000  1.0 0.1496768745
C  C43  1  0.27400000  0.79220000  0.29720000  1.0 0.1496768745
C  C44  1  0.79220000  0.27400000  0.70280000  1.0 0.1496768745
C  C45  1  0.96350000  0.97270000  0.79760000  1.0 0.1496768745
C  C46  1  0.97270000  0.96350000  0.20240000  1.0 0.1496768745
C  C47  1  0.03650000  0.02730000  0.20240000  1.0 0.1496768745
C  C48  1  0.02730000  0.03650000  0.79760000  1.0 0.1496768745
N  N1  1  0.96660000  0.23260000  0.94770000  1.0 0.0031505213
N  N2  1  0.23260000  0.96660000  0.05230000  1.0 0.0031505213
N  N3  1  0.03340000  0.76740000  0.05230000  1.0 0.0031505213
N  N4  1  0.76740000  0.03340000  0.94770000  1.0 0.0031505213
N  N5  1  0.58160000  0.30360000  0.65030000  1.0 -0.1512489312
N  N6  1  0.30360000  0.58160000  0.34970000  1.0 -0.1512489312
N  N7  1  0.41840000  0.69640000  0.34970000  1.0 -0.1512489312
N  N8  1  0.69640000  0.41840000  0.65030000  1.0 -0.1512489312
N  N9  1  0.51320000  0.80920000  0.49080000  1.0 -0.1093870319
N  N10  1  0.80920000  0.51320000  0.50920000  1.0 -0.1093870319
N  N11  1  0.48680000  0.19080000  0.50920000  1.0 -0.1093870319
N  N12  1  0.19080000  0.48680000  0.49080000  1.0 -0.1093870319
N  N13  1  0.22540000  0.42140000  0.94360000  1.0 -0.1831124231
N  N14  1  0.42140000  0.22540000  0.05640000  1.0 -0.1831124231
N  N15  1  0.77460000  0.57860000  0.05640000  1.0 -0.1831124231
N  N16  1  0.57860000  0.77460000  0.94360000  1.0 -0.1831124231
N  N17  1  0.06020000  0.82020000  0.83920000  1.0 -0.2187452979
N  N18  1  0.82020000  0.06020000  0.16080000  1.0 -0.2187452979
N  N19  1  0.93980000  0.17980000  0.16080000  1.0 -0.2187452979
N  N20  1  0.17980000  0.93980000  0.83920000  1.0 -0.2187452979
O  O1  1  0.48990000  0.74490000  0.76490000  1.0 -0.7004326203
O  O2  1  0.74490000  0.48990000  0.23510000  1.0 -0.7004326203
O  O3  1  0.51010000  0.25510000  0.23510000  1.0 -0.7004326203
O  O4  1  0.25510000  0.51010000  0.76490000  1.0 -0.7004326203
O  O5  1  0.84529000  0.50149000  0.85293000  1.0 -0.5405030467
O  O6  1  0.50149000  0.84529000  0.14707000  1.0 -0.5405030467
O  O7  1  0.15471000  0.49851000  0.14707000  1.0 -0.5405030467
O  O8  1  0.49851000  0.15471000  0.85293000  1.0 -0.5405030467
O  O9  1  0.06013000  0.46133000  0.82553000  1.0 -0.7303376339
O  O10  1  0.46133000  0.06013000  0.17447000  1.0 -0.7303376339
O  O11  1  0.93987000  0.53867000  0.17447000  1.0 -0.7303376339
O  O12  1  0.53867000  0.93987000  0.82553000  1.0 -0.7303376339
O  O13  1  0.39439000  0.02579000  0.67693000  1.0 -0.7303376339
O  O14  1  0.02579000  0.39439000  0.32307000  1.0 -0.7303376339
O  O15  1  0.60561000  0.97421000  0.32307000  1.0 -0.7303376339
O  O16  1  0.97421000  0.60561000  0.67693000  1.0 -0.7303376339
O  O17  1  0.59050000  0.77370000  0.62607000  1.0 -0.5511185147
O  O18  1  0.77370000  0.59050000  0.37393000  1.0 -0.5511185147
O  O19  1  0.40950000  0.22630000  0.37393000  1.0 -0.5511185147
O  O20  1  0.22630000  0.40950000  0.62607000  1.0 -0.5511185147
O  O21  1  0.60002000  0.06542000  0.71404000  1.0 -0.6839781918
O  O22  1  0.06542000  0.60002000  0.28596000  1.0 -0.6839781918
O  O23  1  0.39998000  0.93458000  0.28596000  1.0 -0.6839781918
O  O24  1  0.93458000  0.39998000  0.71404000  1.0 -0.6839781918
O  O25  1  0.85562000  0.81962000  0.78230000  1.0 -0.5106619217
O  O26  1  0.81962000  0.85562000  0.21770000  1.0 -0.5106619217
O  O27  1  0.14438000  0.18038000  0.21770000  1.0 -0.5106619217
O  O28  1  0.18038000  0.14438000  0.78230000  1.0 -0.5106619217
