# DDEC6 charges by PACMAN v1.1 (https://github.com/mtap-research/PACMAN-charge/)
data_SOSFAJ_ASR_pacman
_symmetry_space_group_name_H-M   'P 1'
_cell_length_a   11.38030000
_cell_length_b   11.38030000
_cell_length_c   19.81730000
_cell_angle_alpha   87.06690000
_cell_angle_beta   92.93310000
_cell_angle_gamma   40.10740000
_symmetry_Int_Tables_number   1
_chemical_formula_structural   LaH3C12N5O7
_chemical_formula_sum   'La4 H12 C48 N20 O28'
_cell_volume   1634.92384187
_cell_formula_units_Z   4
loop_
 _symmetry_equiv_pos_site_id
 _symmetry_equiv_pos_as_xyz
  1  'x, y, z'
loop_
 _atom_site_type_symbol
 _atom_site_label
 _atom_site_symmetry_multiplicity
 _atom_site_fract_x
 _atom_site_fract_y
 _atom_site_fract_z
 _atom_site_occupancy
 _atom_site_charge
La  La1  1  0.78832000  0.76522000  0.74457000  1.0 1.8754622375
La  La2  1  0.76522000  0.78832000  0.25543000  1.0 1.8754622375
La  La3  1  0.21168000  0.23478000  0.25543000  1.0 1.8754622375
La  La4  1  0.23478000  0.21168000  0.74457000  1.0 1.8754622375
H  H1  1  0.69410000  0.10490000  0.73520000  1.0 0.4203008001
H  H2  1  0.10490000  0.69410000  0.26480000  1.0 0.4203008001
H  H3  1  0.30590000  0.89510000  0.26480000  1.0 0.4203008001
H  H4  1  0.89510000  0.30590000  0.73520000  1.0 0.4203008001
H  H5  1  0.81280000  0.95480000  0.80530000  1.0 0.4203008001
H  H6  1  0.95480000  0.81280000  0.19470000  1.0 0.4203008001
H  H7  1  0.18720000  0.04520000  0.19470000  1.0 0.4203008001
H  H8  1  0.04520000  0.18720000  0.80530000  1.0 0.4203008001
H  H9  1  0.22870000  0.41550000  0.60480000  1.0 0.150161009
H  H10  1  0.41550000  0.22870000  0.39520000  1.0 0.150161009
H  H11  1  0.77130000  0.58450000  0.39520000  1.0 0.150161009
H  H12  1  0.58450000  0.77130000  0.60480000  1.0 0.150161009
C  C1  1  0.06980000  0.50040000  0.86860000  1.0 0.6294496094
C  C2  1  0.50040000  0.06980000  0.13140000  1.0 0.6294496094
C  C3  1  0.93020000  0.49960000  0.13140000  1.0 0.6294496094
C  C4  1  0.49960000  0.93020000  0.86860000  1.0 0.6294496094
C  C5  1  0.18230000  0.38690000  0.93640000  1.0 -0.1743778998
C  C6  1  0.38690000  0.18230000  0.06360000  1.0 -0.1743778998
C  C7  1  0.81770000  0.61310000  0.06360000  1.0 -0.1743778998
C  C8  1  0.61310000  0.81770000  0.93640000  1.0 -0.1743778998
C  C9  1  0.28720000  0.39540000  0.96780000  1.0 0.150161009
C  C10  1  0.39540000  0.28720000  0.03220000  1.0 0.150161009
C  C11  1  0.71280000  0.60460000  0.03220000  1.0 0.150161009
C  C12  1  0.60460000  0.71280000  0.96780000  1.0 0.150161009
C  C13  1  0.17990000  0.27810000  0.96750000  1.0 0.1398145703
C  C14  1  0.27810000  0.17990000  0.03250000  1.0 0.1398145703
C  C15  1  0.82010000  0.72190000  0.03250000  1.0 0.1398145703
C  C16  1  0.72190000  0.82010000  0.96750000  1.0 0.1398145703
C  C17  1  0.55370000  0.06730000  0.62330000  1.0 0.6080616151
C  C18  1  0.06730000  0.55370000  0.37670000  1.0 0.6080616151
C  C19  1  0.44630000  0.93270000  0.37670000  1.0 0.6080616151
C  C20  1  0.93270000  0.44630000  0.62330000  1.0 0.6080616151
C  C21  1  0.44170000  0.20310000  0.55940000  1.0 -0.0992646927
C  C22  1  0.20310000  0.44170000  0.44060000  1.0 -0.0992646927
C  C23  1  0.55830000  0.79690000  0.44060000  1.0 -0.0992646927
C  C24  1  0.79690000  0.55830000  0.55940000  1.0 -0.0992646927
C  C25  1  0.50570000  0.14810000  0.49610000  1.0 0.1960095202
C  C26  1  0.14810000  0.50570000  0.50390000  1.0 0.1960095202
C  C27  1  0.49430000  0.85190000  0.50390000  1.0 0.1960095202
C  C28  1  0.85190000  0.49430000  0.49610000  1.0 0.1960095202
C  C29  1  0.26750000  0.37970000  0.56240000  1.0 -0.1743778998
C  C30  1  0.37970000  0.26750000  0.43760000  1.0 -0.1743778998
C  C31  1  0.73250000  0.62030000  0.43760000  1.0 -0.1743778998
C  C32  1  0.62030000  0.73250000  0.56240000  1.0 -0.1743778998
C  C33  1  0.52790000  0.74170000  0.74910000  1.0 0.6242117917
C  C34  1  0.74170000  0.52790000  0.25090000  1.0 0.6242117917
C  C35  1  0.47210000  0.25830000  0.25090000  1.0 0.6242117917
C  C36  1  0.25830000  0.47210000  0.74910000  1.0 0.6242117917
C  C37  1  0.44570000  0.68510000  0.74930000  1.0 -0.1816144625
C  C38  1  0.68510000  0.44570000  0.25070000  1.0 -0.1816144625
C  C39  1  0.55430000  0.31490000  0.25070000  1.0 -0.1816144625
C  C40  1  0.31490000  0.55430000  0.74930000  1.0 -0.1816144625
C  C41  1  0.29640000  0.77080000  0.70170000  1.0 0.150161009
C  C42  1  0.77080000  0.29640000  0.29830000  1.0 0.150161009
C  C43  1  0.70360000  0.22920000  0.29830000  1.0 0.150161009
C  C44  1  0.22920000  0.70360000  0.70170000  1.0 0.150161009
C  C45  1  0.52760000  0.53660000  0.79810000  1.0 0.1398145703
C  C46  1  0.53660000  0.52760000  0.20190000  1.0 0.1398145703
C  C47  1  0.47240000  0.46340000  0.20190000  1.0 0.1398145703
C  C48  1  0.46340000  0.47240000  0.79810000  1.0 0.1398145703
N  N1  1  0.68860000  0.98860000  0.48910000  1.0 -0.0293165047
N  N2  1  0.98860000  0.68860000  0.51090000  1.0 -0.0293165047
N  N3  1  0.31140000  0.01140000  0.51090000  1.0 -0.0293165047
N  N4  1  0.01140000  0.31140000  0.48910000  1.0 -0.0293165047
N  N5  1  0.20460000  0.91260000  0.64830000  1.0 -0.1105840879
N  N6  1  0.91260000  0.20460000  0.35170000  1.0 -0.1105840879
N  N7  1  0.79540000  0.08740000  0.35170000  1.0 -0.1105840879
N  N8  1  0.08740000  0.79540000  0.64830000  1.0 -0.1105840879
N  N9  1  0.26370000  0.53570000  0.94750000  1.0 -0.0074087942
N  N10  1  0.53570000  0.26370000  0.05250000  1.0 -0.0074087942
N  N11  1  0.73630000  0.46430000  0.05250000  1.0 -0.0074087942
N  N12  1  0.46430000  0.73630000  0.94750000  1.0 -0.0074087942
N  N13  1  0.68200000  0.44000000  0.84100000  1.0 -0.1743778998
N  N14  1  0.44000000  0.68200000  0.15900000  1.0 -0.1743778998
N  N15  1  0.31800000  0.56000000  0.15900000  1.0 -0.1743778998
N  N16  1  0.56000000  0.31800000  0.84100000  1.0 -0.1743778998
N  N17  1  0.07200000  0.27600000  0.94300000  1.0 -0.2005131023
N  N18  1  0.27600000  0.07200000  0.05700000  1.0 -0.2005131023
N  N19  1  0.92800000  0.72400000  0.05700000  1.0 -0.2005131023
N  N20  1  0.72400000  0.92800000  0.94300000  1.0 -0.2005131023
O  O1  1  0.75640000  0.01180000  0.76520000  1.0 -0.7312139834
O  O2  1  0.01180000  0.75640000  0.23480000  1.0 -0.7312139834
O  O3  1  0.24360000  0.98820000  0.23480000  1.0 -0.7312139834
O  O4  1  0.98820000  0.24360000  0.76520000  1.0 -0.7312139834
O  O5  1  0.00250000  0.65190000  0.85340000  1.0 -0.5564640725
O  O6  1  0.65190000  0.00250000  0.14660000  1.0 -0.5564640725
O  O7  1  0.99750000  0.34810000  0.14660000  1.0 -0.5564640725
O  O8  1  0.34810000  0.99750000  0.85340000  1.0 -0.5564640725
O  O9  1  0.04160000  0.43860000  0.82670000  1.0 -0.6714217032
O  O10  1  0.43860000  0.04160000  0.17330000  1.0 -0.6714217032
O  O11  1  0.95840000  0.56140000  0.17330000  1.0 -0.6714217032
O  O12  1  0.56140000  0.95840000  0.82670000  1.0 -0.6714217032
O  O13  1  0.47640000  0.10280000  0.67590000  1.0 -0.679174837
O  O14  1  0.10280000  0.47640000  0.32410000  1.0 -0.679174837
O  O15  1  0.52360000  0.89720000  0.32410000  1.0 -0.679174837
O  O16  1  0.89720000  0.52360000  0.67590000  1.0 -0.679174837
O  O17  1  0.72320000  0.91520000  0.62460000  1.0 -0.5229354764
O  O18  1  0.91520000  0.72320000  0.37540000  1.0 -0.5229354764
O  O19  1  0.27680000  0.08480000  0.37540000  1.0 -0.5229354764
O  O20  1  0.08480000  0.27680000  0.62460000  1.0 -0.5229354764
O  O21  1  0.43790000  0.89570000  0.71390000  1.0 -0.6572344268
O  O22  1  0.89570000  0.43790000  0.28610000  1.0 -0.6572344268
O  O23  1  0.56210000  0.10430000  0.28610000  1.0 -0.6572344268
O  O24  1  0.10430000  0.56210000  0.71390000  1.0 -0.6572344268
O  O25  1  0.68230000  0.64030000  0.78280000  1.0 -0.5336286987
O  O26  1  0.64030000  0.68230000  0.21720000  1.0 -0.5336286987
O  O27  1  0.31770000  0.35970000  0.21720000  1.0 -0.5336286987
O  O28  1  0.35970000  0.31770000  0.78280000  1.0 -0.5336286987
