# DDEC6 charges by PACMAN v1.1 (https://github.com/mtap-research/PACMAN-charge/)
data_SOSKET_FSR_pacman
_symmetry_space_group_name_H-M   'P 1'
_cell_length_a   6.83240000
_cell_length_b   6.83240000
_cell_length_c   16.40450000
_cell_angle_alpha   90.00000000
_cell_angle_beta   90.00000000
_cell_angle_gamma   90.00000000
_symmetry_Int_Tables_number   1
_chemical_formula_structural   CuH2C4(SN)2
_chemical_formula_sum   'Cu4 H8 C16 S8 N8'
_cell_volume   765.78977967
_cell_formula_units_Z   4
loop_
 _symmetry_equiv_pos_site_id
 _symmetry_equiv_pos_as_xyz
  1  'x, y, z'
loop_
 _atom_site_type_symbol
 _atom_site_label
 _atom_site_symmetry_multiplicity
 _atom_site_fract_x
 _atom_site_fract_y
 _atom_site_fract_z
 _atom_site_occupancy
 _atom_site_charge
Cu  Cu1  1  0.49977000  0.00008000  0.75000000  1.0 0.5742427856
Cu  Cu2  1  0.50023000  0.99992000  0.25000000  1.0 0.5742427856
Cu  Cu3  1  0.50000000  0.50000000  0.50000000  1.0 0.3189046531
Cu  Cu4  1  0.00000000  0.00000000  0.00000000  1.0 0.3189046531
H  H1  1  0.16900000  0.99917000  0.62291000  1.0 0.1164471233
H  H2  1  0.49637000  0.66904000  0.87830000  1.0 0.1164471233
H  H3  1  0.50085000  0.32941000  0.87616000  1.0 0.1129228696
H  H4  1  0.83399000  0.99682000  0.62397000  1.0 0.1164471233
H  H5  1  0.83100000  0.00083000  0.37709000  1.0 0.1164471233
H  H6  1  0.50363000  0.33096000  0.12170000  1.0 0.1164471233
H  H7  1  0.49915000  0.67059000  0.12384000  1.0 0.1129228696
H  H8  1  0.16601000  0.00318000  0.37603000  1.0 0.1164471233
C  C1  1  0.10240000  0.99940000  0.67240000  1.0 0.0235682334
C  C2  1  0.49800000  0.60230000  0.82890000  1.0 0.0145126572
C  C3  1  0.10800000  0.99950000  0.81390000  1.0 0.1633112579
C  C4  1  0.50050000  0.39410000  0.68710000  1.0 0.1681384817
C  C5  1  0.50000000  0.39830000  0.82730000  1.0 0.0268497076
C  C6  1  0.49890000  0.60450000  0.68680000  1.0 0.1633112579
C  C7  1  0.90040000  0.99850000  0.67350000  1.0 0.0268497076
C  C8  1  0.89340000  0.00260000  0.81330000  1.0 0.1633112579
C  C9  1  0.89760000  0.00060000  0.32760000  1.0 0.0235682334
C  C10  1  0.50200000  0.39770000  0.17110000  1.0 0.0145126572
C  C11  1  0.89200000  0.00050000  0.18610000  1.0 0.1633112579
C  C12  1  0.49950000  0.60590000  0.31290000  1.0 0.1681384817
C  C13  1  0.50000000  0.60170000  0.17270000  1.0 0.0268497076
C  C14  1  0.50110000  0.39550000  0.31320000  1.0 0.1633112579
C  C15  1  0.09960000  0.00150000  0.32650000  1.0 0.0268497076
C  C16  1  0.10660000  0.99740000  0.18670000  1.0 0.1633112579
S  S1  1  0.49980000  0.26490000  0.59713000  1.0 -0.3079713583
S  S2  1  0.23530000  0.00000000  0.90299000  1.0 -0.3013897936
S  S3  1  0.76480000  0.00050000  0.90302000  1.0 -0.3013897936
S  S4  1  0.50020000  0.73500000  0.59698000  1.0 -0.3013897936
S  S5  1  0.50020000  0.73510000  0.40287000  1.0 -0.3079713583
S  S6  1  0.76470000  0.00000000  0.09701000  1.0 -0.3013897936
S  S7  1  0.23520000  0.99950000  0.09698000  1.0 -0.3013897936
S  S8  1  0.49980000  0.26500000  0.40302000  1.0 -0.3013897936
N  N1  1  0.49860000  0.70310000  0.75660000  1.0 -0.2266317457
N  N2  1  0.20270000  0.00070000  0.74270000  1.0 -0.2221639182
N  N3  1  0.79540000  0.99990000  0.74240000  1.0 -0.2221639182
N  N4  1  0.50060000  0.29830000  0.75610000  1.0 -0.2221639182
N  N5  1  0.50140000  0.29690000  0.24340000  1.0 -0.2266317457
N  N6  1  0.79730000  0.99930000  0.25730000  1.0 -0.2221639182
N  N7  1  0.20460000  0.00010000  0.25760000  1.0 -0.2221639182
N  N8  1  0.49940000  0.70170000  0.24390000  1.0 -0.2221639182
