# DDEC6 charges by PACMAN v1.1 (https://github.com/mtap-research/PACMAN-charge/)
data_SOTBIM_FSR_pacman
_symmetry_space_group_name_H-M   'P 1'
_cell_length_a   8.97246000
_cell_length_b   8.97246000
_cell_length_c   11.74800000
_cell_angle_alpha   89.07090000
_cell_angle_beta   90.92910000
_cell_angle_gamma   81.24970000
_symmetry_Int_Tables_number   1
_chemical_formula_structural   Be2P2(HO3)3
_chemical_formula_sum   'Be8 P8 H12 O36'
_cell_volume   934.47514484
_cell_formula_units_Z   4
loop_
 _symmetry_equiv_pos_site_id
 _symmetry_equiv_pos_as_xyz
  1  'x, y, z'
loop_
 _atom_site_type_symbol
 _atom_site_label
 _atom_site_symmetry_multiplicity
 _atom_site_fract_x
 _atom_site_fract_y
 _atom_site_fract_z
 _atom_site_occupancy
 _atom_site_charge
Be  Be1  1  0.40320000  0.10740000  0.35490000  1.0 1.2593243957
Be  Be2  1  0.10740000  0.40320000  0.14510000  1.0 1.2593243957
Be  Be3  1  0.59680000  0.89260000  0.64510000  1.0 1.2593243957
Be  Be4  1  0.89260000  0.59680000  0.85490000  1.0 1.249741598
Be  Be5  1  0.10770000  0.68050000  0.45990000  1.0 1.1787671686
Be  Be6  1  0.68050000  0.10770000  0.04010000  1.0 1.1787671686
Be  Be7  1  0.89230000  0.31950000  0.54010000  1.0 1.1734459838
Be  Be8  1  0.31950000  0.89230000  0.95990000  1.0 1.1787671686
P  P1  1  0.30009000  0.90319000  0.52899000  1.0 1.3305449029
P  P2  1  0.90319000  0.30009000  0.97101000  1.0 1.3305449029
P  P3  1  0.69991000  0.09681000  0.47101000  1.0 1.3305449029
P  P4  1  0.09681000  0.69991000  0.02899000  1.0 1.3305449029
P  P5  1  0.35414000  0.15244000  0.10096000  1.0 1.2436703484
P  P6  1  0.15244000  0.35414000  0.39904000  1.0 1.2436703484
P  P7  1  0.64586000  0.84756000  0.89904000  1.0 1.2436703484
P  P8  1  0.84756000  0.64586000  0.60096000  1.0 1.249741598
H  H1  1  0.05700000  0.84700000  0.29800000  1.0 0.2874272605
H  H2  1  0.84700000  0.05700000  0.20200000  1.0 0.2874272605
H  H3  1  0.94300000  0.15300000  0.70200000  1.0 0.2874272605
H  H4  1  0.15300000  0.94300000  0.79800000  1.0 0.2874272605
H  H5  1  0.07600000  0.70200000  0.27000000  1.0 0.2844631514
H  H6  1  0.70200000  0.07600000  0.23000000  1.0 0.2844631514
H  H7  1  0.92400000  0.29800000  0.73000000  1.0 0.2844631514
H  H8  1  0.29800000  0.92400000  0.77000000  1.0 0.2844631514
H  H9  1  0.13600000  0.08800000  0.53600000  1.0 0.3111439785
H  H10  1  0.08800000  0.13600000  0.96400000  1.0 0.3111439785
H  H11  1  0.86400000  0.91200000  0.46400000  1.0 0.3111439785
H  H12  1  0.91200000  0.86400000  0.03600000  1.0 0.3111439785
O  O1  1  0.37920000  0.08580000  0.22030000  1.0 -0.6806203285
O  O2  1  0.08580000  0.37920000  0.27970000  1.0 -0.6806203285
O  O3  1  0.62080000  0.91420000  0.77970000  1.0 -0.6806203285
O  O4  1  0.91420000  0.62080000  0.72030000  1.0 -0.6806203285
O  O5  1  0.35930000  0.95790000  0.41910000  1.0 -0.6963469097
O  O6  1  0.95790000  0.35930000  0.08090000  1.0 -0.6963469097
O  O7  1  0.64070000  0.04210000  0.58090000  1.0 -0.6963469097
O  O8  1  0.04210000  0.64070000  0.91910000  1.0 -0.6963469097
O  O9  1  0.41440000  0.88880000  0.62790000  1.0 -0.6806203285
O  O10  1  0.88880000  0.41440000  0.87210000  1.0 -0.6806203285
O  O11  1  0.58560000  0.11120000  0.37210000  1.0 -0.6806203285
O  O12  1  0.11120000  0.58560000  0.12790000  1.0 -0.6806203285
O  O13  1  0.26100000  0.30920000  0.09780000  1.0 -0.6717966705
O  O14  1  0.30920000  0.26100000  0.40220000  1.0 -0.6717966705
O  O15  1  0.73900000  0.69080000  0.90220000  1.0 -0.6717966705
O  O16  1  0.69080000  0.73900000  0.59780000  1.0 -0.6717966705
O  O17  1  0.24670000  0.75130000  0.51510000  1.0 -0.6602316508
O  O18  1  0.75130000  0.24670000  0.98490000  1.0 -0.6602316508
O  O19  1  0.75330000  0.24870000  0.48490000  1.0 -0.6602316508
O  O20  1  0.24870000  0.75330000  0.01510000  1.0 -0.6602316508
O  O21  1  0.26960000  0.04620000  0.03020000  1.0 -0.6717966705
O  O22  1  0.04620000  0.26960000  0.46980000  1.0 -0.6717966705
O  O23  1  0.73040000  0.95380000  0.96980000  1.0 -0.6717966705
O  O24  1  0.95380000  0.73040000  0.53020000  1.0 -0.6717966705
O  O25  1  0.50420000  0.16560000  0.04330000  1.0 -0.641610221
O  O26  1  0.16560000  0.50420000  0.45670000  1.0 -0.641610221
O  O27  1  0.49580000  0.83440000  0.95670000  1.0 -0.641610221
O  O28  1  0.83440000  0.49580000  0.54330000  1.0 -0.641610221
O  O29  1  0.07040000  0.74440000  0.32650000  1.0 -0.5183135727
O  O30  1  0.74440000  0.07040000  0.17350000  1.0 -0.5183135727
O  O31  1  0.92960000  0.25560000  0.67350000  1.0 -0.5183135727
O  O32  1  0.25560000  0.92960000  0.82650000  1.0 -0.5183135727
O  O33  1  0.16150000  0.01630000  0.56980000  1.0 -0.6717966705
O  O34  1  0.01630000  0.16150000  0.93020000  1.0 -0.6717966705
O  O35  1  0.83850000  0.98370000  0.43020000  1.0 -0.6717966705
O  O36  1  0.98370000  0.83850000  0.06980000  1.0 -0.6717966705
