# DDEC6 charges by PACMAN v1.1 (https://github.com/mtap-research/PACMAN-charge/)
data_SOVHIU_ASR_pacman
_symmetry_space_group_name_H-M   'P 1'
_cell_length_a   7.80400000
_cell_length_b   12.25400000
_cell_length_c   20.62000000
_cell_angle_alpha   90.00000000
_cell_angle_beta   90.00000000
_cell_angle_gamma   90.00000000
_symmetry_Int_Tables_number   1
_chemical_formula_structural   CdNiH24(C5N2)3
_chemical_formula_sum   'Cd4 Ni4 H96 C60 N24'
_cell_volume   1971.89505392
_cell_formula_units_Z   4
loop_
 _symmetry_equiv_pos_site_id
 _symmetry_equiv_pos_as_xyz
  1  'x, y, z'
loop_
 _atom_site_type_symbol
 _atom_site_label
 _atom_site_symmetry_multiplicity
 _atom_site_fract_x
 _atom_site_fract_y
 _atom_site_fract_z
 _atom_site_occupancy
 _atom_site_charge
Cd  Cd1  1  0.00000000  0.16768000  0.17723000  1.0 0.8282753874
Cd  Cd2  1  0.00000000  0.33232000  0.67723000  1.0 0.8282753874
Cd  Cd3  1  0.00000000  0.66768000  0.32277000  1.0 0.8282753874
Cd  Cd4  1  0.00000000  0.83232000  0.82277000  1.0 0.8282753874
Ni  Ni1  1  0.50000000  0.40868000  0.27655000  1.0 0.0874939117
Ni  Ni2  1  0.50000000  0.09132000  0.77655000  1.0 0.0874939117
Ni  Ni3  1  0.50000000  0.90868000  0.22345000  1.0 0.0874939117
Ni  Ni4  1  0.50000000  0.59132000  0.72345000  1.0 0.0874939117
H  H1  1  0.11262000  0.02601000  0.27267000  1.0 0.2519916941
H  H2  1  0.11262000  0.47399000  0.77267000  1.0 0.2519916941
H  H3  1  0.11262000  0.52601000  0.22733000  1.0 0.2519916941
H  H4  1  0.11262000  0.97399000  0.72733000  1.0 0.2519916941
H  H5  1  0.88738000  0.97399000  0.72733000  1.0 0.2519916941
H  H6  1  0.88738000  0.52601000  0.22733000  1.0 0.2519916941
H  H7  1  0.88738000  0.47399000  0.77267000  1.0 0.2519916941
H  H8  1  0.88738000  0.02601000  0.27267000  1.0 0.2519916941
H  H9  1  0.09038000  0.07016000  0.36071000  1.0 0.0483715247
H  H10  1  0.09038000  0.42984000  0.86071000  1.0 0.0483715247
H  H11  1  0.09038000  0.57016000  0.13929000  1.0 0.0483715247
H  H12  1  0.09038000  0.92984000  0.63929000  1.0 0.0483715247
H  H13  1  0.90962000  0.92984000  0.63929000  1.0 0.0483715247
H  H14  1  0.90962000  0.57016000  0.13929000  1.0 0.0483715247
H  H15  1  0.90962000  0.42984000  0.86071000  1.0 0.0483715247
H  H16  1  0.90962000  0.07016000  0.36071000  1.0 0.0483715247
H  H17  1  0.87253000  0.10370000  0.35227000  1.0 0.0697633176
H  H18  1  0.87253000  0.39630000  0.85227000  1.0 0.0697633176
H  H19  1  0.87253000  0.60370000  0.14773000  1.0 0.0697633176
H  H20  1  0.87253000  0.89630000  0.64773000  1.0 0.0697633176
H  H21  1  0.12747000  0.89630000  0.64773000  1.0 0.0697633176
H  H22  1  0.12747000  0.60370000  0.14773000  1.0 0.0697633176
H  H23  1  0.12747000  0.39630000  0.85227000  1.0 0.0697633176
H  H24  1  0.12747000  0.10370000  0.35227000  1.0 0.0697633176
H  H25  1  0.11262000  0.17072000  0.33848000  1.0 0.0172644648
H  H26  1  0.11262000  0.32928000  0.83848000  1.0 0.0172644648
H  H27  1  0.11262000  0.67072000  0.16152000  1.0 0.0172644648
H  H28  1  0.11262000  0.82928000  0.66152000  1.0 0.0172644648
H  H29  1  0.88738000  0.82928000  0.66152000  1.0 0.0172644648
H  H30  1  0.88738000  0.67072000  0.16152000  1.0 0.0172644648
H  H31  1  0.88738000  0.32928000  0.83848000  1.0 0.0172644648
H  H32  1  0.88738000  0.17072000  0.33848000  1.0 0.0172644648
H  H33  1  0.96038000  0.28530000  0.32698000  1.0 0.0642463297
H  H34  1  0.96038000  0.21470000  0.82698000  1.0 0.0642463297
H  H35  1  0.96038000  0.78530000  0.17302000  1.0 0.0642463297
H  H36  1  0.96038000  0.71470000  0.67302000  1.0 0.0642463297
H  H37  1  0.03962000  0.71470000  0.67302000  1.0 0.0642463297
H  H38  1  0.03962000  0.78530000  0.17302000  1.0 0.0642463297
H  H39  1  0.03962000  0.21470000  0.82698000  1.0 0.0642463297
H  H40  1  0.03962000  0.28530000  0.32698000  1.0 0.0642463297
H  H41  1  0.17011000  0.24064000  0.34753000  1.0 0.0697633176
H  H42  1  0.17011000  0.25936000  0.84753000  1.0 0.0697633176
H  H43  1  0.17011000  0.74064000  0.15247000  1.0 0.0697633176
H  H44  1  0.17011000  0.75936000  0.65247000  1.0 0.0697633176
H  H45  1  0.82989000  0.75936000  0.65247000  1.0 0.0697633176
H  H46  1  0.82989000  0.74064000  0.15247000  1.0 0.0697633176
H  H47  1  0.82989000  0.25936000  0.84753000  1.0 0.0697633176
H  H48  1  0.82989000  0.24064000  0.34753000  1.0 0.0697633176
H  H49  1  0.09184000  0.20692000  0.45224000  1.0 0.034257081
H  H50  1  0.09184000  0.29308000  0.95224000  1.0 0.034257081
H  H51  1  0.09184000  0.70692000  0.04776000  1.0 0.034257081
H  H52  1  0.09184000  0.79308000  0.54776000  1.0 0.034257081
H  H53  1  0.90816000  0.79308000  0.54776000  1.0 0.034257081
H  H54  1  0.90816000  0.70692000  0.04776000  1.0 0.034257081
H  H55  1  0.90816000  0.29308000  0.95224000  1.0 0.034257081
H  H56  1  0.90816000  0.20692000  0.45224000  1.0 0.035057937
H  H57  1  0.87423000  0.22282000  0.43400000  1.0 0.0697633176
H  H58  1  0.87423000  0.27718000  0.93400000  1.0 0.0697633176
H  H59  1  0.87423000  0.72282000  0.06600000  1.0 0.0697633176
H  H60  1  0.87423000  0.77718000  0.56600000  1.0 0.0697633176
H  H61  1  0.12577000  0.77718000  0.56600000  1.0 0.0697633176
H  H62  1  0.12577000  0.72282000  0.06600000  1.0 0.0697633176
H  H63  1  0.12577000  0.27718000  0.93400000  1.0 0.0697633176
H  H64  1  0.12577000  0.22282000  0.43400000  1.0 0.0697633176
H  H65  1  0.11262000  0.39617000  0.43836000  1.0 0.1161346
H  H66  1  0.11262000  0.10383000  0.93836000  1.0 0.1161346
H  H67  1  0.11262000  0.89617000  0.06164000  1.0 0.1161346
H  H68  1  0.11262000  0.60383000  0.56164000  1.0 0.1161346
H  H69  1  0.88738000  0.60383000  0.56164000  1.0 0.1161346
H  H70  1  0.88738000  0.89617000  0.06164000  1.0 0.1161346
H  H71  1  0.88738000  0.10383000  0.93836000  1.0 0.1161346
H  H72  1  0.88738000  0.39617000  0.43836000  1.0 0.1161346
H  H73  1  0.11262000  0.07822000  0.03594000  1.0 0.0874939117
H  H74  1  0.11262000  0.42178000  0.53594000  1.0 0.0874939117
H  H75  1  0.11262000  0.57822000  0.46406000  1.0 0.0874939117
H  H76  1  0.11262000  0.92178000  0.96406000  1.0 0.0874939117
H  H77  1  0.88738000  0.92178000  0.96406000  1.0 0.0874939117
H  H78  1  0.88738000  0.57822000  0.46406000  1.0 0.0874939117
H  H79  1  0.88738000  0.42178000  0.53594000  1.0 0.0874939117
H  H80  1  0.88738000  0.07822000  0.03594000  1.0 0.0874939117
H  H81  1  0.11262000  0.26453000  0.06351000  1.0 0.0790224819
H  H82  1  0.11262000  0.23547000  0.56351000  1.0 0.0790224819
H  H83  1  0.11262000  0.76453000  0.43649000  1.0 0.0790224819
H  H84  1  0.11262000  0.73547000  0.93649000  1.0 0.0790224819
H  H85  1  0.88738000  0.73547000  0.93649000  1.0 0.0790224819
H  H86  1  0.88738000  0.76453000  0.43649000  1.0 0.0790224819
H  H87  1  0.88738000  0.23547000  0.56351000  1.0 0.0790224819
H  H88  1  0.88738000  0.26453000  0.06351000  1.0 0.0790224819
H  H89  1  0.11262000  0.18103000  0.04975000  1.0 0.0874939117
H  H90  1  0.11262000  0.31897000  0.54975000  1.0 0.0874939117
H  H91  1  0.11262000  0.68103000  0.45025000  1.0 0.0874939117
H  H92  1  0.11262000  0.81897000  0.95025000  1.0 0.0874939117
H  H93  1  0.88738000  0.81897000  0.95025000  1.0 0.0874939117
H  H94  1  0.88738000  0.68103000  0.45025000  1.0 0.0874939117
H  H95  1  0.88738000  0.31897000  0.54975000  1.0 0.0874939117
H  H96  1  0.88738000  0.18103000  0.04975000  1.0 0.0874939117
C  C1  1  0.32790000  0.33350000  0.23260000  1.0 0.0790224819
C  C2  1  0.32790000  0.16650000  0.73260000  1.0 0.0790224819
C  C3  1  0.32790000  0.83350000  0.26740000  1.0 0.0790224819
C  C4  1  0.32790000  0.66650000  0.76740000  1.0 0.0790224819
C  C5  1  0.67210000  0.66650000  0.76740000  1.0 0.0790224819
C  C6  1  0.67210000  0.83350000  0.26740000  1.0 0.0790224819
C  C7  1  0.67210000  0.16650000  0.73260000  1.0 0.0790224819
C  C8  1  0.67210000  0.33350000  0.23260000  1.0 0.0790224819
C  C9  1  0.33350000  0.98730000  0.18020000  1.0 0.0790224819
C  C10  1  0.33350000  0.51270000  0.68020000  1.0 0.0697633176
C  C11  1  0.33350000  0.48730000  0.31980000  1.0 0.0790224819
C  C12  1  0.33350000  0.01270000  0.81980000  1.0 0.0790224819
C  C13  1  0.66650000  0.01270000  0.81980000  1.0 0.0790224819
C  C14  1  0.66650000  0.48730000  0.31980000  1.0 0.0790224819
C  C15  1  0.66650000  0.51270000  0.68020000  1.0 0.0697633176
C  C16  1  0.66650000  0.98730000  0.18020000  1.0 0.0697633176
C  C17  1  0.00000000  0.11920000  0.33440000  1.0 -0.0545460831
C  C18  1  0.00000000  0.38080000  0.83440000  1.0 -0.0545460831
C  C19  1  0.00000000  0.61920000  0.16560000  1.0 -0.0545460831
C  C20  1  0.00000000  0.88080000  0.66560000  1.0 -0.0545460831
C  C21  1  0.03600000  0.23100000  0.35620000  1.0 -0.1157627728
C  C22  1  0.03600000  0.26900000  0.85620000  1.0 -0.1157627728
C  C23  1  0.03600000  0.73100000  0.14380000  1.0 -0.1157627728
C  C24  1  0.03600000  0.76900000  0.64380000  1.0 -0.1157627728
C  C25  1  0.96400000  0.76900000  0.64380000  1.0 -0.1157627728
C  C26  1  0.96400000  0.73100000  0.14380000  1.0 -0.1157627728
C  C27  1  0.96400000  0.26900000  0.85620000  1.0 -0.1157627728
C  C28  1  0.96400000  0.23100000  0.35620000  1.0 -0.1157627728
C  C29  1  0.00000000  0.25500000  0.42600000  1.0 -0.1062736072
C  C30  1  0.00000000  0.24500000  0.92600000  1.0 -0.1062736072
C  C31  1  0.00000000  0.75500000  0.07400000  1.0 -0.1062736072
C  C32  1  0.00000000  0.74500000  0.57400000  1.0 -0.1062736072
C  C33  1  0.00000000  0.35500000  0.45610000  1.0 -0.2667990278
C  C34  1  0.00000000  0.14500000  0.95610000  1.0 -0.2667990278
C  C35  1  0.00000000  0.85500000  0.04390000  1.0 -0.2667990278
C  C36  1  0.00000000  0.64500000  0.54390000  1.0 -0.2667990278
C  C37  1  0.00000000  0.12600000  0.02560000  1.0 -0.1543515823
C  C38  1  0.00000000  0.37400000  0.52560000  1.0 -0.1543515823
C  C39  1  0.00000000  0.62600000  0.47440000  1.0 -0.155050705
C  C40  1  0.00000000  0.87400000  0.97440000  1.0 -0.1543515823
C  C41  1  0.00000000  0.04000000  0.39400000  1.0 -0.2120157978
C  C42  1  0.00000000  0.46000000  0.89400000  1.0 -0.2120157978
C  C43  1  0.00000000  0.54000000  0.10600000  1.0 -0.2159535985
C  C44  1  0.00000000  0.96000000  0.60600000  1.0 -0.2120157978
C  C45  1  0.00000000  0.14500000  0.47200000  1.0 -0.0841556254
C  C46  1  0.00000000  0.35500000  0.97200000  1.0 -0.0841556254
C  C47  1  0.00000000  0.64500000  0.02800000  1.0 -0.085250194
C  C48  1  0.00000000  0.85500000  0.52800000  1.0 -0.085250194
C  C49  1  0.00000000  0.33100000  0.06100000  1.0 -0.0569903169
C  C50  1  0.00000000  0.16900000  0.56100000  1.0 -0.0569903169
C  C51  1  0.00000000  0.83100000  0.43900000  1.0 -0.0569903169
C  C52  1  0.00000000  0.66900000  0.93900000  1.0 -0.0569903169
C  C53  1  0.04180000  0.33000000  0.03800000  1.0 -0.0229220561
C  C54  1  0.04180000  0.17000000  0.53800000  1.0 -0.0229220561
C  C55  1  0.04180000  0.83000000  0.46200000  1.0 -0.0229220561
C  C56  1  0.04180000  0.67000000  0.96200000  1.0 -0.0229220561
C  C57  1  0.95820000  0.67000000  0.96200000  1.0 -0.0229220561
C  C58  1  0.95820000  0.83000000  0.46200000  1.0 -0.0229220561
C  C59  1  0.95820000  0.17000000  0.53800000  1.0 -0.0229220561
C  C60  1  0.95820000  0.33000000  0.03800000  1.0 -0.0229220561
N  N1  1  0.21740000  0.28840000  0.20770000  1.0 -0.3668313649
N  N2  1  0.21740000  0.21160000  0.70770000  1.0 -0.3668313649
N  N3  1  0.21740000  0.78840000  0.29230000  1.0 -0.3668313649
N  N4  1  0.21740000  0.71160000  0.79230000  1.0 -0.3668313649
N  N5  1  0.78260000  0.71160000  0.79230000  1.0 -0.3668313649
N  N6  1  0.78260000  0.78840000  0.29230000  1.0 -0.3668313649
N  N7  1  0.78260000  0.21160000  0.70770000  1.0 -0.3668313649
N  N8  1  0.78260000  0.28840000  0.20770000  1.0 -0.3668313649
N  N9  1  0.22600000  0.03710000  0.15480000  1.0 -0.3496141162
N  N10  1  0.22600000  0.46290000  0.65480000  1.0 -0.3496141162
N  N11  1  0.22600000  0.53710000  0.34520000  1.0 -0.3496141162
N  N12  1  0.22600000  0.96290000  0.84520000  1.0 -0.3496141162
N  N13  1  0.77400000  0.96290000  0.84520000  1.0 -0.3496141162
N  N14  1  0.77400000  0.53710000  0.34520000  1.0 -0.3496141162
N  N15  1  0.77400000  0.46290000  0.65480000  1.0 -0.3496141162
N  N16  1  0.77400000  0.03710000  0.15480000  1.0 -0.3496141162
N  N17  1  0.00000000  0.07730000  0.27440000  1.0 -0.4687899079
N  N18  1  0.00000000  0.42270000  0.77440000  1.0 -0.4687899079
N  N19  1  0.00000000  0.57730000  0.22560000  1.0 -0.4687899079
N  N20  1  0.00000000  0.92270000  0.72560000  1.0 -0.4687899079
N  N21  1  0.00000000  0.21570000  0.07230000  1.0 -0.100357889
N  N22  1  0.00000000  0.28430000  0.57230000  1.0 -0.100357889
N  N23  1  0.00000000  0.71570000  0.42770000  1.0 -0.100357889
N  N24  1  0.00000000  0.78430000  0.92770000  1.0 -0.100357889
