# DDEC6 charges by PACMAN v1.1 (https://github.com/mtap-research/PACMAN-charge/)
data_SOVHOA_FSR_pacman
_symmetry_space_group_name_H-M   'P 1'
_cell_length_a   7.03900000
_cell_length_b   7.63200000
_cell_length_c   11.29430000
_cell_angle_alpha   98.00730000
_cell_angle_beta   106.21500000
_cell_angle_gamma   88.93000000
_symmetry_Int_Tables_number   1
_chemical_formula_structural   CdNiH20(C2N)6
_chemical_formula_sum   'Cd1 Ni1 H20 C12 N6'
_cell_volume   576.80153563
_cell_formula_units_Z   1
loop_
 _symmetry_equiv_pos_site_id
 _symmetry_equiv_pos_as_xyz
  1  'x, y, z'
loop_
 _atom_site_type_symbol
 _atom_site_label
 _atom_site_symmetry_multiplicity
 _atom_site_fract_x
 _atom_site_fract_y
 _atom_site_fract_z
 _atom_site_occupancy
 _atom_site_charge
Cd  Cd1  1  0.00000000  0.00000000  0.00000000  1.0 0.8775814219
Ni  Ni1  1  0.50000000  0.50000000  0.00000000  1.0 0.115001735
H  H1  1  0.17379000  0.13030000  0.25187000  1.0 0.266525556
H  H2  1  0.82621000  0.86970000  0.74813000  1.0 0.266525556
H  H3  1  0.18311000  0.89807000  0.23413000  1.0 0.266525556
H  H4  1  0.81689000  0.10193000  0.76587000  1.0 0.266525556
H  H5  1  0.46094000  0.14743000  0.18470000  1.0 0.0905127978
H  H6  1  0.53906000  0.85257000  0.81530000  1.0 0.0905127978
H  H7  1  0.46655000  0.91549000  0.15367000  1.0 0.0905127978
H  H8  1  0.53345000  0.08451000  0.84633000  1.0 0.0905127978
H  H9  1  0.51451000  0.13300000  0.40483000  1.0 0.0809125199
H  H10  1  0.48549000  0.86700000  0.59517000  1.0 0.0809125199
H  H11  1  0.50559000  0.90048000  0.37674000  1.0 0.0809125199
H  H12  1  0.49441000  0.09952000  0.62326000  1.0 0.0809125199
H  H13  1  0.81232000  0.13788000  0.33096000  1.0 0.0905127978
H  H14  1  0.18768000  0.86212000  0.66904000  1.0 0.0905127978
H  H15  1  0.79766000  0.90586000  0.29266000  1.0 0.0809125199
H  H16  1  0.20234000  0.09414000  0.70734000  1.0 0.0809125199
H  H17  1  0.85842000  0.11565000  0.55252000  1.0 0.0809125199
H  H18  1  0.14158000  0.88435000  0.44748000  1.0 0.0809125199
H  H19  1  0.84294000  0.88358000  0.51870000  1.0 0.0809125199
H  H20  1  0.15706000  0.11642000  0.48130000  1.0 0.0809125199
C  C1  1  0.30700000  0.32340000  0.96910000  1.0 0.0520978036
C  C2  1  0.69300000  0.67660000  0.03090000  1.0 0.0520978036
C  C3  1  0.69440000  0.33580000  0.04860000  1.0 0.0520978036
C  C4  1  0.30560000  0.66420000  0.95140000  1.0 0.0520978036
C  C5  1  0.42690000  0.02500000  0.21310000  1.0 -0.0096221681
C  C6  1  0.57310000  0.97500000  0.78690000  1.0 -0.0096221681
C  C7  1  0.54650000  0.01850000  0.34540000  1.0 -0.1830556945
C  C8  1  0.45350000  0.98150000  0.65460000  1.0 -0.1830556945
C  C9  1  0.76990000  0.01710000  0.35800000  1.0 -0.1579239623
C  C10  1  0.23010000  0.98290000  0.64200000  1.0 -0.1548447268
C  C11  1  0.88900000  0.00290000  0.49160000  1.0 -0.1579239623
C  C12  1  0.11100000  0.99710000  0.50840000  1.0 -0.1579239623
N  N1  1  0.18910000  0.21740000  0.95340000  1.0 -0.3822426157
N  N2  1  0.81090000  0.78260000  0.04660000  1.0 -0.3822426157
N  N3  1  0.81380000  0.23270000  0.07230000  1.0 -0.3902523474
N  N4  1  0.18620000  0.76730000  0.92770000  1.0 -0.3902523474
N  N5  1  0.21110000  0.01440000  0.19600000  1.0 -0.5301581578
N  N6  1  0.78890000  0.98560000  0.80400000  1.0 -0.5301581578
