# DDEC6 charges by PACMAN v1.1 (https://github.com/mtap-research/PACMAN-charge/)
data_SOXDEQ_ASR_pacman
_symmetry_space_group_name_H-M   'P 1'
_cell_length_a   12.46870000
_cell_length_b   12.46870000
_cell_length_c   10.71170000
_cell_angle_alpha   66.15760000
_cell_angle_beta   113.84200000
_cell_angle_gamma   88.40030000
_symmetry_Int_Tables_number   1
_chemical_formula_structural   Tb2Co3H24C30(NO2)12
_chemical_formula_sum   'Tb2 Co3 H24 C30 N12 O24'
_cell_volume   1356.31208195
_cell_formula_units_Z   1
loop_
 _symmetry_equiv_pos_site_id
 _symmetry_equiv_pos_as_xyz
  1  'x, y, z'
loop_
 _atom_site_type_symbol
 _atom_site_label
 _atom_site_symmetry_multiplicity
 _atom_site_fract_x
 _atom_site_fract_y
 _atom_site_fract_z
 _atom_site_occupancy
 _atom_site_charge
Tb  Tb1  1  0.20882000  0.20882000  0.00000000  1.0 2.0214511583
Tb  Tb2  1  0.79118000  0.79118000  0.00000000  1.0 2.0214511583
Co  Co1  1  0.50000000  0.00000000  0.00000000  1.0 1.0824925134
Co  Co2  1  0.00000000  0.50000000  0.00000000  1.0 1.0824925134
Co  Co3  1  0.00000000  0.00000000  0.00000000  1.0 1.021379275
H  H1  1  0.25680000  0.86020000  0.88800000  1.0 0.1497014045
H  H2  1  0.86020000  0.25680000  0.11200000  1.0 0.1497014045
H  H3  1  0.74320000  0.13980000  0.11200000  1.0 0.1497014045
H  H4  1  0.13980000  0.74320000  0.88800000  1.0 0.1497014045
H  H5  1  0.21930000  0.98330000  0.74190000  1.0 0.1497014045
H  H6  1  0.98330000  0.21930000  0.25810000  1.0 0.1497014045
H  H7  1  0.78070000  0.01670000  0.25810000  1.0 0.1497014045
H  H8  1  0.01670000  0.78070000  0.74190000  1.0 0.1497014045
H  H9  1  0.51720000  0.16480000  0.35460000  1.0 0.1497014045
H  H10  1  0.16480000  0.51720000  0.64540000  1.0 0.1497014045
H  H11  1  0.48280000  0.83520000  0.64540000  1.0 0.1497014045
H  H12  1  0.83520000  0.48280000  0.35460000  1.0 0.1497014045
H  H13  1  0.59670000  0.23470000  0.28300000  1.0 0.1497014045
H  H14  1  0.23470000  0.59670000  0.71700000  1.0 0.1497014045
H  H15  1  0.40330000  0.76530000  0.71700000  1.0 0.1497014045
H  H16  1  0.76530000  0.40330000  0.28300000  1.0 0.1497014045
H  H17  1  0.71070000  0.89010000  0.49420000  1.0 0.1497014045
H  H18  1  0.89010000  0.71070000  0.50580000  1.0 0.1497014045
H  H19  1  0.28930000  0.10990000  0.50580000  1.0 0.1497014045
H  H20  1  0.10990000  0.28930000  0.49420000  1.0 0.1497014045
H  H21  1  0.57930000  0.94250000  0.45560000  1.0 0.1497014045
H  H22  1  0.94250000  0.57930000  0.54440000  1.0 0.1497014045
H  H23  1  0.42070000  0.05750000  0.54440000  1.0 0.1497014045
H  H24  1  0.05750000  0.42070000  0.45560000  1.0 0.1497014045
C  C1  1  0.69980000  0.89720000  0.67490000  1.0 0.5981244275
C  C2  1  0.89720000  0.69980000  0.32510000  1.0 0.5981244275
C  C3  1  0.30020000  0.10280000  0.32510000  1.0 0.5981244275
C  C4  1  0.10280000  0.30020000  0.67490000  1.0 0.5981244275
C  C5  1  0.78920000  0.08600000  0.48330000  1.0 0.4887604544
C  C6  1  0.08600000  0.78920000  0.51670000  1.0 0.4887604544
C  C7  1  0.21080000  0.91400000  0.51670000  1.0 0.4887604544
C  C8  1  0.91400000  0.21080000  0.48330000  1.0 0.4887604544
C  C9  1  0.98790000  0.01210000  0.64910000  1.0 0.4887604544
C  C10  1  0.01210000  0.98790000  0.35090000  1.0 0.4887604544
C  C11  1  0.22180000  0.00520000  0.92410000  1.0 0.6627203355
C  C12  1  0.00520000  0.22180000  0.07590000  1.0 0.6627203355
C  C13  1  0.77820000  0.99480000  0.07590000  1.0 0.6627203355
C  C14  1  0.99480000  0.77820000  0.92410000  1.0 0.6627203355
C  C15  1  0.20070000  0.93830000  0.82570000  1.0 -0.2490388623
C  C16  1  0.93830000  0.20070000  0.17430000  1.0 -0.2490388623
C  C17  1  0.79930000  0.06170000  0.17430000  1.0 -0.2490388623
C  C18  1  0.06170000  0.79930000  0.82570000  1.0 -0.2490388623
C  C19  1  0.50770000  0.13930000  0.17500000  1.0 0.6627203355
C  C20  1  0.13930000  0.50770000  0.82500000  1.0 0.6627203355
C  C21  1  0.49230000  0.86070000  0.82500000  1.0 0.6627203355
C  C22  1  0.86070000  0.49230000  0.17500000  1.0 0.6627203355
C  C23  1  0.57280000  0.15860000  0.31410000  1.0 -0.2578834167
C  C24  1  0.15860000  0.57280000  0.68590000  1.0 -0.2578834167
C  C25  1  0.42720000  0.84140000  0.68590000  1.0 -0.2578834167
C  C26  1  0.84140000  0.42720000  0.31410000  1.0 -0.2578834167
C  C27  1  0.66320000  0.94400000  0.50730000  1.0 -0.2436619459
C  C28  1  0.94400000  0.66320000  0.49270000  1.0 -0.2436619459
C  C29  1  0.33680000  0.05600000  0.49270000  1.0 -0.2436619459
C  C30  1  0.05600000  0.33680000  0.50730000  1.0 -0.2436619459
N  N1  1  0.80110000  0.19890000  0.42120000  1.0 -0.5371645263
N  N2  1  0.19890000  0.80110000  0.57880000  1.0 -0.5371645263
N  N3  1  0.87850000  0.98750000  0.59360000  1.0 -0.5508303812
N  N4  1  0.98750000  0.87850000  0.40640000  1.0 -0.5508303812
N  N5  1  0.12150000  0.01250000  0.40640000  1.0 -0.5508303812
N  N6  1  0.01250000  0.12150000  0.59360000  1.0 -0.5508303812
N  N7  1  0.67790000  0.06530000  0.43440000  1.0 -0.0619277199
N  N8  1  0.06530000  0.67790000  0.56560000  1.0 -0.0619277199
N  N9  1  0.32210000  0.93470000  0.56560000  1.0 -0.0619277199
N  N10  1  0.93470000  0.32210000  0.43440000  1.0 -0.0619277199
N  N11  1  0.07970000  0.92030000  0.76230000  1.0 -0.0619277199
N  N12  1  0.92030000  0.07970000  0.23770000  1.0 -0.0619277199
O  O1  1  0.13730000  0.04670000  0.93850000  1.0 -0.659430193
O  O2  1  0.04670000  0.13730000  0.06150000  1.0 -0.659430193
O  O3  1  0.86270000  0.95330000  0.06150000  1.0 -0.659430193
O  O4  1  0.95330000  0.86270000  0.93850000  1.0 -0.659430193
O  O5  1  0.73760000  0.78480000  0.75810000  1.0 -0.6118206701
O  O6  1  0.78480000  0.73760000  0.24190000  1.0 -0.6118206701
O  O7  1  0.26240000  0.21520000  0.24190000  1.0 -0.6118206701
O  O8  1  0.21520000  0.26240000  0.75810000  1.0 -0.6118206701
O  O9  1  0.55520000  0.05300000  0.16920000  1.0 -0.5784203431
O  O10  1  0.05300000  0.55520000  0.83080000  1.0 -0.5784203431
O  O11  1  0.44480000  0.94700000  0.83080000  1.0 -0.5784203431
O  O12  1  0.94700000  0.44480000  0.16920000  1.0 -0.5784203431
O  O13  1  0.32560000  0.02000000  0.98730000  1.0 -0.6118206701
O  O14  1  0.02000000  0.32560000  0.01270000  1.0 -0.6118206701
O  O15  1  0.67440000  0.98000000  0.01270000  1.0 -0.6118206701
O  O16  1  0.98000000  0.67440000  0.98730000  1.0 -0.6118206701
O  O17  1  0.69280000  0.96560000  0.73110000  1.0 -0.5784203431
O  O18  1  0.96560000  0.69280000  0.26890000  1.0 -0.5784203431
O  O19  1  0.30720000  0.03440000  0.26890000  1.0 -0.5784203431
O  O20  1  0.03440000  0.30720000  0.73110000  1.0 -0.5784203431
O  O21  1  0.40750000  0.21330000  0.07360000  1.0 -0.659430193
O  O22  1  0.21330000  0.40750000  0.92640000  1.0 -0.659430193
O  O23  1  0.59250000  0.78670000  0.92640000  1.0 -0.659430193
O  O24  1  0.78670000  0.59250000  0.07360000  1.0 -0.659430193
