# DDEC6 charges by PACMAN v1.1 (https://github.com/mtap-research/PACMAN-charge/)
data_SOXDAM_ASR_pacman
_symmetry_space_group_name_H-M   'P 1'
_cell_length_a   12.51010000
_cell_length_b   12.51010000
_cell_length_c   10.75350000
_cell_angle_alpha   66.22900000
_cell_angle_beta   113.77100000
_cell_angle_gamma   88.03740000
_symmetry_Int_Tables_number   1
_chemical_formula_structural   Tb2Zn3H24C30(NO2)12
_chemical_formula_sum   'Tb2 Zn3 H24 C30 N12 O24'
_cell_volume   1370.07910597
_cell_formula_units_Z   1
loop_
 _symmetry_equiv_pos_site_id
 _symmetry_equiv_pos_as_xyz
  1  'x, y, z'
loop_
 _atom_site_type_symbol
 _atom_site_label
 _atom_site_symmetry_multiplicity
 _atom_site_fract_x
 _atom_site_fract_y
 _atom_site_fract_z
 _atom_site_occupancy
 _atom_site_charge
Tb  Tb1  1  0.20908000  0.20908000  0.50000000  1.0 2.0226402782
Tb  Tb2  1  0.79092000  0.79092000  0.50000000  1.0 2.0226402782
Zn  Zn1  1  0.00000000  0.00000000  0.50000000  1.0 1.0590942405
Zn  Zn2  1  0.50000000  0.00000000  0.50000000  1.0 1.0418232582
Zn  Zn3  1  0.00000000  0.50000000  0.50000000  1.0 1.0418232582
H  H1  1  0.78100000  0.01640000  0.75530000  1.0 0.1483763568
H  H2  1  0.01640000  0.78100000  0.24470000  1.0 0.1483763568
H  H3  1  0.21900000  0.98360000  0.24470000  1.0 0.1483763568
H  H4  1  0.98360000  0.21900000  0.75530000  1.0 0.1483763568
H  H5  1  0.74080000  0.13980000  0.61000000  1.0 0.1483763568
H  H6  1  0.13980000  0.74080000  0.39000000  1.0 0.1483763568
H  H7  1  0.25920000  0.86020000  0.39000000  1.0 0.1483763568
H  H8  1  0.86020000  0.25920000  0.61000000  1.0 0.1483763568
H  H9  1  0.28630000  0.11170000  0.00530000  1.0 0.1483763568
H  H10  1  0.11170000  0.28630000  0.99470000  1.0 0.1483763568
H  H11  1  0.71370000  0.88830000  0.99470000  1.0 0.1483763568
H  H12  1  0.88830000  0.71370000  0.00530000  1.0 0.1483763568
H  H13  1  0.41760000  0.05940000  0.04410000  1.0 0.1483763568
H  H14  1  0.05940000  0.41760000  0.95590000  1.0 0.1483763568
H  H15  1  0.58240000  0.94060000  0.95590000  1.0 0.1483763568
H  H16  1  0.94060000  0.58240000  0.04410000  1.0 0.1483763568
H  H17  1  0.40000000  0.76760000  0.21760000  1.0 0.1433107234
H  H18  1  0.76760000  0.40000000  0.78240000  1.0 0.1433107234
H  H19  1  0.60000000  0.23240000  0.78240000  1.0 0.1433107234
H  H20  1  0.23240000  0.60000000  0.21760000  1.0 0.1433107234
H  H21  1  0.47910000  0.83450000  0.14440000  1.0 0.1483763568
H  H22  1  0.83450000  0.47910000  0.85560000  1.0 0.1483763568
H  H23  1  0.52090000  0.16550000  0.85560000  1.0 0.1483763568
H  H24  1  0.16550000  0.52090000  0.14440000  1.0 0.1483763568
C  C1  1  0.20800000  0.91740000  0.01480000  1.0 0.4909483793
C  C2  1  0.91740000  0.20800000  0.98520000  1.0 0.4909483793
C  C3  1  0.79200000  0.08260000  0.98520000  1.0 0.4909483793
C  C4  1  0.08260000  0.79200000  0.01480000  1.0 0.4909483793
C  C5  1  0.29710000  0.10510000  0.82330000  1.0 0.6016638182
C  C6  1  0.10510000  0.29710000  0.17670000  1.0 0.6016638182
C  C7  1  0.70290000  0.89490000  0.17670000  1.0 0.6016638182
C  C8  1  0.89490000  0.70290000  0.82330000  1.0 0.6016638182
C  C9  1  0.01030000  0.98970000  0.85080000  1.0 0.4909483793
C  C10  1  0.98970000  0.01030000  0.14920000  1.0 0.4909483793
C  C11  1  0.49160000  0.86380000  0.32370000  1.0 0.6634897642
C  C12  1  0.86380000  0.49160000  0.67630000  1.0 0.6634897642
C  C13  1  0.50840000  0.13620000  0.67630000  1.0 0.6634897642
C  C14  1  0.13620000  0.50840000  0.32370000  1.0 0.6634897642
C  C15  1  0.79780000  0.06240000  0.67080000  1.0 -0.2602786668
C  C16  1  0.06240000  0.79780000  0.32920000  1.0 -0.2602786668
C  C17  1  0.20220000  0.93760000  0.32920000  1.0 -0.2602786668
C  C18  1  0.93760000  0.20220000  0.67080000  1.0 -0.2602786668
C  C19  1  0.33410000  0.05810000  0.99240000  1.0 -0.2400438585
C  C20  1  0.05810000  0.33410000  0.00760000  1.0 -0.2400438585
C  C21  1  0.66590000  0.94190000  0.00760000  1.0 -0.2400438585
C  C22  1  0.94190000  0.66590000  0.99240000  1.0 -0.2400438585
C  C23  1  0.42440000  0.84280000  0.18500000  1.0 -0.2526685692
C  C24  1  0.84280000  0.42440000  0.81500000  1.0 -0.2526685692
C  C25  1  0.57560000  0.15720000  0.81500000  1.0 -0.2526685692
C  C26  1  0.15720000  0.57560000  0.18500000  1.0 -0.2526685692
C  C27  1  0.77630000  0.99810000  0.57370000  1.0 0.6634897642
C  C28  1  0.99810000  0.77630000  0.42630000  1.0 0.6634897642
C  C29  1  0.22370000  0.00190000  0.42630000  1.0 0.6634897642
C  C30  1  0.00190000  0.22370000  0.57370000  1.0 0.6634897642
N  N1  1  0.31982000  0.93682000  0.06470000  1.0 -0.0666333013
N  N2  1  0.93682000  0.31982000  0.93530000  1.0 -0.0666333013
N  N3  1  0.68018000  0.06318000  0.93530000  1.0 -0.0666333013
N  N4  1  0.06318000  0.68018000  0.06470000  1.0 -0.0666333013
N  N5  1  0.91820000  0.08180000  0.73240000  1.0 -0.0761796482
N  N6  1  0.08180000  0.91820000  0.26760000  1.0 -0.0761796482
N  N7  1  0.11916000  0.01376000  0.90310000  1.0 -0.5390724339
N  N8  1  0.01376000  0.11916000  0.09690000  1.0 -0.5390724339
N  N9  1  0.88084000  0.98624000  0.09690000  1.0 -0.5390724339
N  N10  1  0.98624000  0.88084000  0.90310000  1.0 -0.5390724339
N  N11  1  0.19600000  0.80400000  0.07660000  1.0 -0.5390724339
N  N12  1  0.80400000  0.19600000  0.92340000  1.0 -0.5390724339
O  O1  1  0.44437000  0.94997000  0.33010000  1.0 -0.5661788829
O  O2  1  0.94997000  0.44437000  0.66990000  1.0 -0.5661788829
O  O3  1  0.55563000  0.05003000  0.66990000  1.0 -0.5661788829
O  O4  1  0.05003000  0.55563000  0.33010000  1.0 -0.5661788829
O  O5  1  0.59079000  0.79059000  0.42210000  1.0 -0.649836915
O  O6  1  0.79059000  0.59079000  0.57790000  1.0 -0.649836915
O  O7  1  0.40921000  0.20941000  0.57790000  1.0 -0.649836915
O  O8  1  0.20941000  0.40921000  0.42210000  1.0 -0.649836915
O  O9  1  0.30411000  0.03509000  0.76720000  1.0 -0.6109394826
O  O10  1  0.03509000  0.30411000  0.23280000  1.0 -0.6109394826
O  O11  1  0.69589000  0.96491000  0.23280000  1.0 -0.6109394826
O  O12  1  0.96491000  0.69589000  0.76720000  1.0 -0.6109394826
O  O13  1  0.26337000  0.21677000  0.74130000  1.0 -0.6109394826
O  O14  1  0.21677000  0.26337000  0.25870000  1.0 -0.6109394826
O  O15  1  0.73663000  0.78323000  0.25870000  1.0 -0.6109394826
O  O16  1  0.78323000  0.73663000  0.74130000  1.0 -0.6109394826
O  O17  1  0.86173000  0.95629000  0.55870000  1.0 -0.649836915
O  O18  1  0.95629000  0.86173000  0.44130000  1.0 -0.649836915
O  O19  1  0.13827000  0.04371000  0.44130000  1.0 -0.649836915
O  O20  1  0.04371000  0.13827000  0.55870000  1.0 -0.649836915
O  O21  1  0.67489000  0.97889000  0.51370000  1.0 -0.5932092019
O  O22  1  0.97889000  0.67489000  0.48630000  1.0 -0.5932092019
O  O23  1  0.32511000  0.02111000  0.48630000  1.0 -0.5932092019
O  O24  1  0.02111000  0.32511000  0.51370000  1.0 -0.5932092019
