# DDEC6 charges by PACMAN v1.1 (https://github.com/mtap-research/PACMAN-charge/)
data_SOXROP_ASR_pacman
_symmetry_space_group_name_H-M   'P 1'
_cell_length_a   15.75850000
_cell_length_b   17.21080000
_cell_length_c   20.31690000
_cell_angle_alpha   65.21800000
_cell_angle_beta   73.92300000
_cell_angle_gamma   78.66000000
_symmetry_Int_Tables_number   1
_chemical_formula_structural   Eu3H55C77O17F4
_chemical_formula_sum   'Eu6 H110 C154 O34 F8'
_cell_volume   4786.63662534
_cell_formula_units_Z   2
loop_
 _symmetry_equiv_pos_site_id
 _symmetry_equiv_pos_as_xyz
  1  'x, y, z'
loop_
 _atom_site_type_symbol
 _atom_site_label
 _atom_site_symmetry_multiplicity
 _atom_site_fract_x
 _atom_site_fract_y
 _atom_site_fract_z
 _atom_site_occupancy
 _atom_site_charge
Eu  Eu1  1  0.14304000  0.97894000  0.06531000  1.0 2.0817013019
Eu  Eu2  1  0.88349000  0.96733000  0.13645000  1.0 2.1738490098
Eu  Eu3  1  0.97535000  0.18179000  0.96961000  1.0 2.2073543303
Eu  Eu4  1  0.85696000  0.02106000  0.93469000  1.0 2.0817013019
Eu  Eu5  1  0.11651000  0.03267000  0.86355000  1.0 2.1738490098
Eu  Eu6  1  0.02465000  0.81821000  0.03039000  1.0 2.2039916747
H  H1  1  0.54025000  0.67375000  0.50257000  1.0 0.1201521017
H  H2  1  0.56453000  0.57500000  0.52301000  1.0 0.1109398318
H  H3  1  0.40455000  0.41097000  0.63535000  1.0 0.1201521017
H  H4  1  0.41422000  0.47006000  0.67374000  1.0 0.1201521017
H  H5  1  0.49046000  0.45853000  0.60912000  1.0 0.1298494834
H  H6  1  0.19791000  0.51858000  0.69832000  1.0 0.1201521017
H  H7  1  0.45231000  0.78881000  0.43175000  1.0 0.1298494834
H  H8  1  0.42212000  0.78055000  0.36782000  1.0 0.1109398318
H  H9  1  0.50864000  0.72762000  0.39300000  1.0 0.1201521017
H  H10  1  0.37338000  0.76397000  0.63222000  1.0 0.1201521017
H  H11  1  0.34391000  0.70015000  0.60771000  1.0 0.1298494834
H  H12  1  0.42557000  0.75259000  0.55852000  1.0 0.1298494834
H  H13  1  0.44604000  0.78696000  0.72744000  1.0 0.1201521017
H  H14  1  0.80086000  0.40262000  0.84710000  1.0 0.1201521017
H  H15  1  0.63655000  0.45872000  0.60404000  1.0 0.1298494834
H  H16  1  0.70051000  0.47166000  0.64482000  1.0 0.1298494834
H  H17  1  0.68652000  0.54206000  0.56789000  1.0 0.1298494834
H  H18  1  0.65428000  0.24064000  0.83994000  1.0 0.1109398318
H  H19  1  0.33679000  0.86670000  0.78246000  1.0 0.1201521017
H  H20  1  0.27998000  0.38614000  0.56887000  1.0 0.1298494834
H  H21  1  0.20548000  0.80395000  0.25094000  1.0 0.1201521017
H  H22  1  0.56735000  0.35869000  0.77423000  1.0 0.1109398318
H  H23  1  0.18186000  0.67287000  0.87189000  1.0 0.1109398318
H  H24  1  0.29232000  0.59499000  0.81718000  1.0 0.1109398318
H  H25  1  0.12369000  0.40578000  0.79069000  1.0 0.1001667664
H  H26  1  0.21115000  0.26977000  0.66133000  1.0 0.1201521017
H  H27  1  0.13840000  0.55888000  0.55398000  1.0 0.1298494834
H  H28  1  0.16380000  0.59699000  0.46692000  1.0 0.1378887155
H  H29  1  0.13142000  0.65869000  0.50968000  1.0 0.1298494834
H  H30  1  0.27398000  0.69056000  0.33621000  1.0 0.1201521017
H  H31  1  0.20945000  0.95302000  0.36044000  1.0 0.0791422808
H  H32  1  0.27793000  0.83966000  0.44283000  1.0 0.087938135
H  H33  1  0.53167000  0.49409000  0.86872000  1.0 0.1298494834
H  H34  1  0.43460000  0.53874000  0.87383000  1.0 0.1201521017
H  H35  1  0.51443000  0.59216000  0.85430000  1.0 0.1378887155
H  H36  1  0.71265000  0.51901000  0.78346000  1.0 0.1201521017
H  H37  1  0.55104000  0.04612000  0.01488000  1.0 0.1991534763
H  H38  1  0.40427000  0.01551000  0.05062000  1.0 0.0791422808
H  H39  1  0.35303000  0.91089000  0.16615000  1.0 0.1001667664
H  H40  1  0.44854000  0.83689000  0.24594000  1.0 0.1001667664
H  H41  1  0.44437000  0.27520000  0.93733000  1.0 0.0791422808
H  H42  1  0.40746000  0.39635000  0.83841000  1.0 0.1298494834
H  H43  1  0.26485000  0.42302000  0.81804000  1.0 0.0791422808
H  H44  1  0.15916000  0.32853000  0.89658000  1.0 0.1378887155
H  H45  1  0.22405000  0.81049000  0.24315000  1.0 0.1109398318
H  H46  1  0.66785000  0.81973000  0.20269000  1.0 0.228048914
H  H47  1  0.40570000  0.93532000  0.12158000  1.0 0.1109398318
H  H48  1  0.41147000  0.80270000  0.21938000  1.0 0.087938135
H  H49  1  0.54254000  0.74491000  0.25994000  1.0 0.1001667664
H  H50  1  0.16120000  0.93728000  0.37696000  1.0 0.0791422808
H  H51  1  0.21409000  0.81868000  0.46789000  1.0 0.087938135
H  H52  1  0.34918000  0.16086000  0.96321000  1.0 0.087938135
H  H53  1  0.44811000  0.25872000  0.87699000  1.0 0.0680342077
H  H54  1  0.40162000  0.40431000  0.83111000  1.0 0.1298494834
H  H55  1  0.25619000  0.45204000  0.87145000  1.0 0.0791422808
H  H56  1  0.45975000  0.32625000  0.49743000  1.0 0.1201521017
H  H57  1  0.43547000  0.42500000  0.47699000  1.0 0.1109398318
H  H58  1  0.59545000  0.58903000  0.36465000  1.0 0.1201521017
H  H59  1  0.58578000  0.52994000  0.32626000  1.0 0.1201521017
H  H60  1  0.50954000  0.54147000  0.39088000  1.0 0.1298494834
H  H61  1  0.80209000  0.48142000  0.30168000  1.0 0.1201521017
H  H62  1  0.54769000  0.21119000  0.56825000  1.0 0.1298494834
H  H63  1  0.57788000  0.21945000  0.63218000  1.0 0.1109398318
H  H64  1  0.49136000  0.27238000  0.60700000  1.0 0.1201521017
H  H65  1  0.62662000  0.23603000  0.36778000  1.0 0.1201521017
H  H66  1  0.65609000  0.29985000  0.39229000  1.0 0.1298494834
H  H67  1  0.57443000  0.24741000  0.44148000  1.0 0.1298494834
H  H68  1  0.55396000  0.21304000  0.27256000  1.0 0.1201521017
H  H69  1  0.19914000  0.59738000  0.15290000  1.0 0.1201521017
H  H70  1  0.36345000  0.54128000  0.39596000  1.0 0.1298494834
H  H71  1  0.29949000  0.52834000  0.35518000  1.0 0.1298494834
H  H72  1  0.31348000  0.45794000  0.43211000  1.0 0.1298494834
H  H73  1  0.34572000  0.75936000  0.16006000  1.0 0.1109398318
H  H74  1  0.66321000  0.13330000  0.21754000  1.0 0.1201521017
H  H75  1  0.72002000  0.61386000  0.43113000  1.0 0.1298494834
H  H76  1  0.79452000  0.19605000  0.74906000  1.0 0.1201521017
H  H77  1  0.43265000  0.64131000  0.22577000  1.0 0.1109398318
H  H78  1  0.81814000  0.32713000  0.12811000  1.0 0.1109398318
H  H79  1  0.70768000  0.40501000  0.18282000  1.0 0.1109398318
H  H80  1  0.87631000  0.59422000  0.20931000  1.0 0.1001667664
H  H81  1  0.78885000  0.73023000  0.33867000  1.0 0.1201521017
H  H82  1  0.86160000  0.44112000  0.44602000  1.0 0.1298494834
H  H83  1  0.83620000  0.40301000  0.53308000  1.0 0.1378887155
H  H84  1  0.86858000  0.34131000  0.49032000  1.0 0.1298494834
H  H85  1  0.72602000  0.30944000  0.66379000  1.0 0.1201521017
H  H86  1  0.79055000  0.04698000  0.63956000  1.0 0.0791422808
H  H87  1  0.72207000  0.16034000  0.55717000  1.0 0.087938135
H  H88  1  0.46833000  0.50591000  0.13128000  1.0 0.1298494834
H  H89  1  0.56540000  0.46126000  0.12617000  1.0 0.1201521017
H  H90  1  0.48557000  0.40784000  0.14570000  1.0 0.1378887155
H  H91  1  0.28735000  0.48099000  0.21654000  1.0 0.1201521017
H  H92  1  0.44896000  0.95388000  0.98512000  1.0 0.1991534763
H  H93  1  0.59573000  0.98449000  0.94938000  1.0 0.0791422808
H  H94  1  0.64697000  0.08911000  0.83385000  1.0 0.1001667664
H  H95  1  0.55146000  0.16311000  0.75406000  1.0 0.1001667664
H  H96  1  0.55563000  0.72480000  0.06267000  1.0 0.0791422808
H  H97  1  0.59254000  0.60365000  0.16159000  1.0 0.1298494834
H  H98  1  0.73515000  0.57698000  0.18196000  1.0 0.0791422808
H  H99  1  0.84084000  0.67147000  0.10342000  1.0 0.1378887155
H  H100  1  0.77595000  0.18951000  0.75685000  1.0 0.1109398318
H  H101  1  0.33215000  0.18027000  0.79731000  1.0 0.228048914
H  H102  1  0.59430000  0.06468000  0.87842000  1.0 0.1109398318
H  H103  1  0.58853000  0.19730000  0.78062000  1.0 0.087938135
H  H104  1  0.45746000  0.25509000  0.74006000  1.0 0.1001667664
H  H105  1  0.83880000  0.06272000  0.62304000  1.0 0.0791422808
H  H106  1  0.78591000  0.18132000  0.53211000  1.0 0.087938135
H  H107  1  0.65082000  0.83914000  0.03679000  1.0 0.087938135
H  H108  1  0.55189000  0.74128000  0.12301000  1.0 0.0680342077
H  H109  1  0.59838000  0.59569000  0.16889000  1.0 0.1298494834
H  H110  1  0.74381000  0.54796000  0.12855000  1.0 0.0791422808
C  C1  1  0.52100000  0.61750000  0.53610000  1.0 -0.2597088657
C  C2  1  0.44820000  0.63290000  0.72590000  1.0 -0.0709384225
C  C3  1  0.29800000  0.53800000  0.56680000  1.0 -0.0592064272
C  C4  1  0.42740000  0.46260000  0.62760000  1.0 -0.4712136156
C  C5  1  0.19970000  0.46870000  0.69050000  1.0 -0.1603468574
C  C6  1  0.44970000  0.75020000  0.40950000  1.0 -0.4954676098
C  C7  1  0.39380000  0.72370000  0.60850000  1.0 -0.4457235701
C  C8  1  0.30910000  0.67460000  0.46200000  1.0 -0.0915979075
C  C9  1  0.39290000  0.76390000  0.75630000  1.0 -0.1603468574
C  C10  1  0.57190000  0.52470000  0.72890000  1.0 -0.0709384225
C  C11  1  0.75410000  0.39360000  0.83230000  1.0 -0.0915979075
C  C12  1  0.65830000  0.50020000  0.61390000  1.0 -0.4712136156
C  C13  1  0.66666667  0.29620000  0.82800000  1.0 -0.1670531325
C  C14  1  0.32780000  0.81150000  0.79010000  1.0 -0.0915979075
C  C15  1  0.16000000  0.32490000  0.73660000  1.0 -0.0490681018
C  C16  1  0.24920000  0.39010000  0.61370000  1.0 -0.149042531
C  C17  1  0.37910000  0.68230000  0.76530000  1.0 0.087938135
C  C18  1  0.73790000  0.31070000  0.84850000  1.0 -0.0187322698
C  C19  1  0.39560000  0.67660000  0.46640000  1.0 0.0680342077
C  C20  1  0.58210000  0.54430000  0.65310000  1.0 0.0791422808
C  C21  1  0.16810000  0.96710000  0.23500000  1.0 0.2550059789
C  C22  1  0.24660000  0.46500000  0.62270000  1.0 0.087938135
C  C23  1  0.25100000  0.77720000  0.83430000  1.0 -0.0306844354
C  C24  1  0.21910000  0.81130000  0.28960000  1.0 -0.1776474334
C  C25  1  0.52010000  0.60520000  0.61480000  1.0 0.0130486646
C  C26  1  0.61420000  0.36780000  0.78890000  1.0 -0.2039550609
C  C27  1  0.23520000  0.69580000  0.84360000  1.0 -0.0915979075
C  C28  1  0.30140000  0.65020000  0.80950000  1.0 -0.1776474334
C  C29  1  0.15590000  0.40070000  0.74650000  1.0 -0.113109779
C  C30  1  0.20750000  0.32000000  0.66910000  1.0 -0.0973546795
C  C31  1  0.11910000  0.24850000  0.79830000  1.0 0.6259457105
C  C32  1  0.25960000  0.60700000  0.51270000  1.0 0.0791422808
C  C33  1  0.16460000  0.60520000  0.51060000  1.0 -0.436670161
C  C34  1  0.79820000  0.23620000  0.88670000  1.0 0.6385756665
C  C35  1  0.18120000  0.83090000  0.86960000  1.0 0.6385756665
C  C36  1  0.38460000  0.53900000  0.57150000  1.0 0.0617512174
C  C37  1  0.25640000  0.74210000  0.34280000  1.0 -0.2597088657
C  C38  1  0.20200000  0.89320000  0.29420000  1.0 0.0311594907
C  C39  1  0.43290000  0.61040000  0.52360000  1.0 0.0311594907
C  C40  1  0.22190000  0.90040000  0.35540000  1.0 -0.0490681018
C  C41  1  0.26770000  0.74820000  0.40500000  1.0 0.0791422808
C  C42  1  0.25870000  0.83220000  0.40670000  1.0 -0.0306844354
C  C43  1  0.45520000  0.65140000  0.65150000  1.0 0.0680342077
C  C44  1  0.50420000  0.56800000  0.76680000  1.0 0.0617512174
C  C45  1  0.49540000  0.54630000  0.84830000  1.0 -0.4457235701
C  C46  1  0.62970000  0.45120000  0.77160000  1.0 0.087938135
C  C47  1  0.70100000  0.46360000  0.79410000  1.0 -0.149042531
C  C48  1  0.69090000  0.97440000  0.08880000  1.0 0.4377320939
C  C49  1  0.55700000  0.89720000  0.17820000  1.0 0.0617512174
C  C50  1  0.58770000  0.95980000  0.10900000  1.0 0.0411092945
C  C51  1  0.53050000  0.00420000  0.06120000  1.0 0.0411092945
C  C52  1  0.44260000  0.98580000  0.08260000  1.0 -0.1399384356
C  C53  1  0.41190000  0.92320000  0.15180000  1.0 -0.0592064272
C  C54  1  0.46910000  0.87880000  0.19960000  1.0 -0.0592064272
C  C55  1  0.16730000  0.18650000  0.01220000  1.0 0.5035595529
C  C56  1  0.38720000  0.28590000  0.92920000  1.0 -0.0121009124
C  C57  1  0.36510000  0.35850000  0.86990000  1.0 -0.1603468574
C  C58  1  0.27970000  0.37450000  0.85770000  1.0 -0.0490681018
C  C59  1  0.21630000  0.31780000  0.90470000  1.0 0.0311594907
C  C60  1  0.23840000  0.24530000  0.96400000  1.0 -0.0973546795
C  C61  1  0.32390000  0.22930000  0.97620000  1.0 0.0791422808
C  C62  1  0.61530000  0.84290000  0.18640000  1.0 -0.0187322698
C  C63  1  0.61180000  0.92240000  0.12780000  1.0 -0.0121009124
C  C64  1  0.53330000  0.95700000  0.10350000  1.0 0.1001667664
C  C65  1  0.45820000  0.91220000  0.13780000  1.0 -0.0490681018
C  C66  1  0.46170000  0.83270000  0.19640000  1.0 -0.0835341406
C  C67  1  0.54020000  0.79810000  0.22070000  1.0 -0.0306844354
C  C68  1  0.18220000  0.88670000  0.36910000  1.0 -0.0592064272
C  C69  1  0.22010000  0.81840000  0.42110000  1.0 -0.0306844354
C  C70  1  0.17530000  0.88050000  0.30530000  1.0 0.049814389
C  C71  1  0.13470000  0.95840000  0.24690000  1.0 0.250722193
C  C72  1  0.21560000  0.33500000  0.94150000  1.0 0.146737621
C  C73  1  0.24340000  0.24780000  0.96900000  1.0 -0.113109779
C  C74  1  0.33050000  0.21920000  0.94480000  1.0 0.0311594907
C  C75  1  0.38980000  0.27800000  0.89320000  1.0 -0.0592064272
C  C76  1  0.36200000  0.36500000  0.86570000  1.0 -0.1603468574
C  C77  1  0.27500000  0.39370000  0.88980000  1.0 -0.0121009124
C  C78  1  0.47900000  0.38250000  0.46390000  1.0 -0.2597088657
C  C79  1  0.55180000  0.36710000  0.27410000  1.0 -0.0709384225
C  C80  1  0.70200000  0.46200000  0.43320000  1.0 -0.0592064272
C  C81  1  0.57260000  0.53740000  0.37240000  1.0 -0.4712136156
C  C82  1  0.80030000  0.53130000  0.30950000  1.0 -0.1603468574
C  C83  1  0.55030000  0.24980000  0.59050000  1.0 -0.4944465525
C  C84  1  0.60620000  0.27630000  0.39150000  1.0 -0.4457235701
C  C85  1  0.69090000  0.32540000  0.53800000  1.0 -0.0835341406
C  C86  1  0.60710000  0.23610000  0.24370000  1.0 -0.1603468574
C  C87  1  0.42810000  0.47530000  0.27110000  1.0 -0.0709384225
C  C88  1  0.24590000  0.60640000  0.16770000  1.0 -0.0915979075
C  C89  1  0.34170000  0.49980000  0.38610000  1.0 -0.4712136156
C  C90  1  0.33333333  0.70380000  0.17200000  1.0 -0.1670531325
C  C91  1  0.67220000  0.18850000  0.20990000  1.0 -0.0915979075
C  C92  1  0.84000000  0.67510000  0.26340000  1.0 -0.0490681018
C  C93  1  0.75080000  0.60990000  0.38630000  1.0 -0.149042531
C  C94  1  0.62090000  0.31770000  0.23470000  1.0 0.087938135
C  C95  1  0.26210000  0.68930000  0.15150000  1.0 -0.0187322698
C  C96  1  0.60440000  0.32340000  0.53360000  1.0 0.0680342077
C  C97  1  0.41790000  0.45570000  0.34690000  1.0 0.0791422808
C  C98  1  0.83190000  0.03290000  0.76500000  1.0 0.250722193
C  C99  1  0.75340000  0.53500000  0.37730000  1.0 0.087938135
C  C100  1  0.74900000  0.22280000  0.16570000  1.0 -0.0306844354
C  C101  1  0.78090000  0.18870000  0.71040000  1.0 -0.1776474334
C  C102  1  0.47990000  0.39480000  0.38520000  1.0 0.0130486646
C  C103  1  0.38580000  0.63220000  0.21110000  1.0 -0.2039550609
C  C104  1  0.76480000  0.30420000  0.15640000  1.0 -0.0915979075
C  C105  1  0.69860000  0.34980000  0.19050000  1.0 -0.1776474334
C  C106  1  0.84410000  0.59930000  0.25350000  1.0 -0.113109779
C  C107  1  0.79250000  0.68000000  0.33090000  1.0 -0.0973546795
C  C108  1  0.88090000  0.75150000  0.20170000  1.0 0.6259457105
C  C109  1  0.74040000  0.39300000  0.48730000  1.0 0.0791422808
C  C110  1  0.83540000  0.39480000  0.48940000  1.0 -0.436670161
C  C111  1  0.20180000  0.76380000  0.11330000  1.0 0.6385756665
C  C112  1  0.81880000  0.16910000  0.13040000  1.0 0.6385756665
C  C113  1  0.61540000  0.46100000  0.42850000  1.0 0.0617512174
C  C114  1  0.74360000  0.25790000  0.65720000  1.0 -0.2597088657
C  C115  1  0.79800000  0.10680000  0.70580000  1.0 0.0311594907
C  C116  1  0.56710000  0.38960000  0.47640000  1.0 0.0311594907
C  C117  1  0.77810000  0.09960000  0.64460000  1.0 -0.0490681018
C  C118  1  0.73230000  0.25180000  0.59500000  1.0 0.0791422808
C  C119  1  0.74130000  0.16780000  0.59330000  1.0 -0.0306844354
C  C120  1  0.54480000  0.34860000  0.34850000  1.0 0.0680342077
C  C121  1  0.49580000  0.43200000  0.23320000  1.0 0.0617512174
C  C122  1  0.50460000  0.45370000  0.15170000  1.0 -0.4457235701
C  C123  1  0.37030000  0.54880000  0.22840000  1.0 0.087938135
C  C124  1  0.29900000  0.53640000  0.20590000  1.0 -0.149042531
C  C125  1  0.30910000  0.02560000  0.91120000  1.0 0.4377320939
C  C126  1  0.44300000  0.10280000  0.82180000  1.0 0.0617512174
C  C127  1  0.41230000  0.04020000  0.89100000  1.0 0.0411092945
C  C128  1  0.46950000  0.99580000  0.93880000  1.0 0.0411092945
C  C129  1  0.55740000  0.01420000  0.91740000  1.0 -0.1399384356
C  C130  1  0.58810000  0.07680000  0.84820000  1.0 -0.0592064272
C  C131  1  0.53090000  0.12120000  0.80040000  1.0 -0.0592064272
C  C132  1  0.83270000  0.81350000  0.98780000  1.0 0.5035595529
C  C133  1  0.61280000  0.71410000  0.07080000  1.0 -0.0121009124
C  C134  1  0.63490000  0.64150000  0.13010000  1.0 -0.1603468574
C  C135  1  0.72030000  0.62550000  0.14230000  1.0 -0.0490681018
C  C136  1  0.78370000  0.68220000  0.09530000  1.0 0.0311594907
C  C137  1  0.76160000  0.75470000  0.03600000  1.0 -0.0973546795
C  C138  1  0.67610000  0.77070000  0.02380000  1.0 0.0791422808
C  C139  1  0.38470000  0.15710000  0.81360000  1.0 -0.0187322698
C  C140  1  0.38820000  0.07760000  0.87220000  1.0 -0.0121009124
C  C141  1  0.46670000  0.04300000  0.89650000  1.0 0.1001667664
C  C142  1  0.54180000  0.08780000  0.86220000  1.0 -0.0490681018
C  C143  1  0.53830000  0.16730000  0.80360000  1.0 -0.0835341406
C  C144  1  0.45980000  0.20190000  0.77930000  1.0 -0.0306844354
C  C145  1  0.81780000  0.11330000  0.63090000  1.0 -0.0592064272
C  C146  1  0.77990000  0.18160000  0.57890000  1.0 -0.0187322698
C  C147  1  0.82470000  0.11950000  0.69470000  1.0 0.049814389
C  C148  1  0.86530000  0.04160000  0.75310000  1.0 0.250722193
C  C149  1  0.78440000  0.66500000  0.05850000  1.0 0.146737621
C  C150  1  0.75660000  0.75220000  0.03100000  1.0 -0.113109779
C  C151  1  0.66950000  0.78080000  0.05520000  1.0 0.0311594907
C  C152  1  0.61020000  0.72200000  0.10680000  1.0 -0.0592064272
C  C153  1  0.63800000  0.63500000  0.13430000  1.0 -0.1603468574
C  C154  1  0.72500000  0.60630000  0.11020000  1.0 -0.0121009124
O  O1  1  0.12270000  0.79140000  0.92580000  1.0 -0.6175975568
O  O2  1  0.10260000  0.08630000  0.95656000  1.0 -0.9302183456
O  O3  1  0.78640000  0.16210000  0.89200000  1.0 -0.6351474888
O  O4  1  0.14070000  0.95330000  0.18670000  1.0 -0.3895143486
O  O5  1  0.00280000  0.05690000  0.08810000  1.0 -0.9074740178
O  O6  1  0.18690000  0.91050000  0.84020000  1.0 -0.6175975568
O  O7  1  0.85650000  0.25040000  0.91090000  1.0 -0.6269926595
O  O8  1  0.13820000  0.17770000  0.79090000  1.0 -0.6269926595
O  O9  1  0.87690000  0.07460000  0.01922000  1.0 -0.9938429959
O  O10  1  0.06350000  0.25980000  0.85310000  1.0 -0.6269926595
O  O11  1  0.02370000  0.89370000  0.11189000  1.0 -1.007712043
O  O12  1  0.15250000  0.04030000  0.24110000  1.0 -0.1603468574
O  O13  1  0.71780000  0.00480000  0.01800000  1.0 -0.5433593161
O  O14  1  0.73500000  0.96390000  0.13510000  1.0 -0.5433593161
O  O15  1  0.18730000  0.10840000  0.05530000  1.0 -0.573995567
O  O16  1  0.08440000  0.21890000  0.00930000  1.0 -0.606982804
O  O17  1  0.10130000  0.02010000  0.26290000  1.0 -0.1211915623
O  O18  1  0.87730000  0.20860000  0.07420000  1.0 -0.6175975568
O  O19  1  0.89740000  0.91370000  0.04344000  1.0 -0.9302183456
O  O20  1  0.21360000  0.83790000  0.10800000  1.0 -0.6351474888
O  O21  1  0.85930000  0.04670000  0.81330000  1.0 -0.3895143486
O  O22  1  0.99720000  0.94310000  0.91190000  1.0 -0.9074740178
O  O23  1  0.81310000  0.08950000  0.15980000  1.0 -0.6175975568
O  O24  1  0.14350000  0.74960000  0.08910000  1.0 -0.6269926595
O  O25  1  0.86180000  0.82230000  0.20910000  1.0 -0.6269926595
O  O26  1  0.12310000  0.92540000  0.98078000  1.0 -0.9938429959
O  O27  1  0.93650000  0.74020000  0.14690000  1.0 -0.6269926595
O  O28  1  0.97630000  0.10630000  0.88811000  1.0 -1.007712043
O  O29  1  0.84750000  0.95970000  0.75890000  1.0 -0.1603468574
O  O30  1  0.28220000  0.99520000  0.98200000  1.0 -0.5454896457
O  O31  1  0.26500000  0.03610000  0.86490000  1.0 -0.5433593161
O  O32  1  0.81270000  0.89160000  0.94470000  1.0 -0.5751539833
O  O33  1  0.91560000  0.78110000  0.99070000  1.0 -0.606982804
O  O34  1  0.89870000  0.97990000  0.73710000  1.0 -0.1211915623
F  F1  1  0.34970000  0.15680000  0.02430000  1.0 -0.1211915623
F  F2  1  0.62600000  0.82100000  0.22350000  1.0 -0.039082083
F  F3  1  0.52940000  0.04510000  0.05900000  1.0 -0.0306844354
F  F4  1  0.14060000  0.38710000  0.94720000  1.0 -0.113109779
F  F5  1  0.65030000  0.84320000  0.97570000  1.0 -0.1211915623
F  F6  1  0.37400000  0.17900000  0.77650000  1.0 -0.039082083
F  F7  1  0.47060000  0.95490000  0.94100000  1.0 -0.039082083
F  F8  1  0.85940000  0.61290000  0.05280000  1.0 -0.113109779
