# DDEC6 charges by PACMAN v1.1 (https://github.com/mtap-research/PACMAN-charge/)
data_SOYFUJ_ASR_pacman
_symmetry_space_group_name_H-M   'P 1'
_cell_length_a   22.78460000
_cell_length_b   19.32050000
_cell_length_c   12.65550000
_cell_angle_alpha   88.32380000
_cell_angle_beta   57.95150000
_cell_angle_gamma   33.72470000
_symmetry_Int_Tables_number   1
_chemical_formula_structural   AgH7C8N5
_chemical_formula_sum   'Ag4 H28 C32 N20'
_cell_volume   1265.97656501
_cell_formula_units_Z   4
loop_
 _symmetry_equiv_pos_site_id
 _symmetry_equiv_pos_as_xyz
  1  'x, y, z'
loop_
 _atom_site_type_symbol
 _atom_site_label
 _atom_site_symmetry_multiplicity
 _atom_site_fract_x
 _atom_site_fract_y
 _atom_site_fract_z
 _atom_site_occupancy
 _atom_site_charge
Ag  Ag1  1  0.75201000  0.71089000  0.16817000  1.0 0.258138948
Ag  Ag2  1  0.36893000  0.16817000  0.71089000  1.0 0.258138948
Ag  Ag3  1  0.53911000  0.49799000  0.88107000  1.0 0.258138948
Ag  Ag4  1  0.08183000  0.88107000  0.49799000  1.0 0.258138948
H  H1  1  0.59280000  0.70280000  0.40440000  1.0 0.1226842821
H  H2  1  0.30000000  0.40440000  0.70280000  1.0 0.1226842821
H  H3  1  0.54720000  0.65720000  0.95000000  1.0 0.1226842821
H  H4  1  0.84560000  0.95000000  0.65720000  1.0 0.1226842821
H  H5  1  0.14440000  0.22160000  0.02420000  1.0 0.1145790004
H  H6  1  0.60980000  0.02420000  0.22160000  1.0 0.1145790004
H  H7  1  0.02840000  0.10560000  0.64020000  1.0 0.1145790004
H  H8  1  0.22580000  0.64020000  0.10560000  1.0 0.1145790004
H  H9  1  0.06970000  0.18590000  0.14470000  1.0 0.0984501996
H  H10  1  0.59970000  0.14470000  0.18590000  1.0 0.0984501996
H  H11  1  0.06410000  0.18030000  0.65030000  1.0 0.0984501996
H  H12  1  0.10530000  0.65030000  0.18030000  1.0 0.0984501996
H  H13  1  0.33050000  0.77410000  0.81630000  1.0 0.1145790004
H  H14  1  0.07910000  0.81630000  0.77410000  1.0 0.1145790004
H  H15  1  0.47590000  0.91950000  0.17090000  1.0 0.1145790004
H  H16  1  0.43370000  0.17090000  0.91950000  1.0 0.1145790004
H  H17  1  0.21440000  0.77580000  0.98580000  1.0 0.1254220911
H  H18  1  0.02400000  0.98580000  0.77580000  1.0 0.1254220911
H  H19  1  0.47420000  0.03560000  0.22600000  1.0 0.1254220911
H  H20  1  0.26420000  0.22600000  0.03560000  1.0 0.1254220911
H  H21  1  0.90690000  0.06090000  0.39690000  1.0 0.0885515464
H  H22  1  0.63530000  0.39690000  0.06090000  1.0 0.0885515464
H  H23  1  0.18910000  0.34310000  0.61470000  1.0 0.0885515464
H  H24  1  0.85310000  0.61470000  0.34310000  1.0 0.0885515464
H  H25  1  0.84110000  0.32510000  0.47010000  1.0 0.0984501996
H  H26  1  0.36370000  0.47010000  0.32510000  1.0 0.0984501996
H  H27  1  0.92490000  0.40890000  0.88630000  1.0 0.0984501996
H  H28  1  0.77990000  0.88630000  0.40890000  1.0 0.0984501996
C  C1  1  0.50494000  0.82024000  0.52316000  1.0 -0.0271417215
C  C2  1  0.15166000  0.52316000  0.82024000  1.0 -0.0271417215
C  C3  1  0.42976000  0.74506000  0.09834000  1.0 -0.0271417215
C  C4  1  0.72684000  0.09834000  0.74506000  1.0 -0.0271417215
C  C5  1  0.25755000  0.10667000  0.86493000  1.0 -0.0200354228
C  C6  1  0.77085000  0.86493000  0.10667000  1.0 -0.0200354228
C  C7  1  0.14333000  0.99245000  0.47915000  1.0 -0.0200354228
C  C8  1  0.38507000  0.47915000  0.99245000  1.0 -0.0200354228
C  C9  1  0.14734000  0.07348000  0.04252000  1.0 -0.0200354228
C  C10  1  0.73666000  0.04252000  0.07348000  1.0 -0.0200354228
C  C11  1  0.17652000  0.10266000  0.51334000  1.0 -0.0200354228
C  C12  1  0.20748000  0.51334000  0.10266000  1.0 -0.0200354228
C  C13  1  0.09552000  0.05156000  0.12864000  1.0 0.0286727659
C  C14  1  0.72428000  0.12864000  0.05156000  1.0 0.0286727659
C  C15  1  0.19844000  0.15448000  0.52572000  1.0 0.0286727659
C  C16  1  0.12136000  0.52572000  0.15448000  1.0 0.0286727659
C  C17  1  0.20924000  0.88548000  0.98072000  1.0 -0.1090129531
C  C18  1  0.92456000  0.98072000  0.88548000  1.0 -0.1090129531
C  C19  1  0.36452000  0.04076000  0.32544000  1.0 -0.1090129531
C  C20  1  0.26928000  0.32544000  0.04076000  1.0 -0.1090129531
C  C21  1  0.13908000  0.88756000  0.08224000  1.0 -0.177093058
C  C22  1  0.89112000  0.08224000  0.88756000  1.0 -0.177093058
C  C23  1  0.36244000  0.11092000  0.35888000  1.0 -0.177093058
C  C24  1  0.16776000  0.35888000  0.11092000  1.0 -0.177093058
C  C25  1  0.95548000  0.05820000  0.32880000  1.0 0.0221407082
C  C26  1  0.65752000  0.32880000  0.05820000  1.0 0.0221407082
C  C27  1  0.19180000  0.29452000  0.59248000  1.0 0.0221407082
C  C28  1  0.92120000  0.59248000  0.29452000  1.0 0.0221407082
C  C29  1  0.91584000  0.21450000  0.37230000  1.0 -0.0271417215
C  C30  1  0.49736000  0.37230000  0.21450000  1.0 -0.0271417215
C  C31  1  0.03550000  0.33416000  0.75264000  1.0 -0.0271417215
C  C32  1  0.87770000  0.75264000  0.33416000  1.0 -0.0271417215
N  N1  1  0.52107000  0.87219000  0.49301000  1.0 -0.173808626
N  N2  1  0.11373000  0.49301000  0.87219000  1.0 -0.173808626
N  N3  1  0.37781000  0.72893000  0.13627000  1.0 -0.173808626
N  N4  1  0.75699000  0.13627000  0.72893000  1.0 -0.173808626
N  N5  1  0.36276000  0.05524000  0.71116000  1.0 -0.1892926014
N  N6  1  0.87084000  0.71116000  0.05524000  1.0 -0.1892926014
N  N7  1  0.19476000  0.88724000  0.37916000  1.0 -0.1892926014
N  N8  1  0.53884000  0.37916000  0.88724000  1.0 -0.1892926014
N  N9  1  0.34107000  0.96399000  0.75321000  1.0 0.0885515464
N  N10  1  0.94173000  0.75321000  0.96399000  1.0 0.0885515464
N  N11  1  0.28601000  0.90893000  0.30827000  1.0 0.0885515464
N  N12  1  0.49679000  0.30827000  0.90893000  1.0 0.0885515464
N  N13  1  0.29969000  0.93519000  0.82661000  1.0 -0.2083293806
N  N14  1  0.93851000  0.82661000  0.93519000  1.0 -0.2083293806
N  N15  1  0.31481000  0.95031000  0.31149000  1.0 -0.2083293806
N  N16  1  0.42339000  0.31149000  0.95031000  1.0 -0.2083293806
N  N17  1  0.84449000  0.22041000  0.47379000  1.0 -0.2083293806
N  N18  1  0.46131000  0.47379000  0.22041000  1.0 -0.2083293806
N  N19  1  0.02959000  0.40551000  0.78869000  1.0 -0.2083293806
N  N20  1  0.77621000  0.78869000  0.40551000  1.0 -0.2083293806
