# DDEC6 charges by PACMAN v1.1 (https://github.com/mtap-research/PACMAN-charge/)
data_SOYWOT_FSR_pacman
_symmetry_space_group_name_H-M   'P 1'
_cell_length_a   18.60690000
_cell_length_b   18.60690000
_cell_length_c   18.60690000
_cell_angle_alpha   60.00000000
_cell_angle_beta   60.00000000
_cell_angle_gamma   60.00000000
_symmetry_Int_Tables_number   1
_chemical_formula_structural   Cu12PH24W12(C9O13)8
_chemical_formula_sum   'Cu12 P1 H24 W12 C72 O104'
_cell_volume   4555.19604702
_cell_formula_units_Z   1
loop_
 _symmetry_equiv_pos_site_id
 _symmetry_equiv_pos_as_xyz
  1  'x, y, z'
loop_
 _atom_site_type_symbol
 _atom_site_label
 _atom_site_symmetry_multiplicity
 _atom_site_fract_x
 _atom_site_fract_y
 _atom_site_fract_z
 _atom_site_occupancy
 _atom_site_charge
Cu  Cu1  1  0.92944000  0.07056000  0.50000000  1.0 0.9146024041
Cu  Cu2  1  0.07056000  0.92944000  0.50000000  1.0 0.9152087026
Cu  Cu3  1  0.50000000  0.50000000  0.92944000  1.0 0.9152087026
Cu  Cu4  1  0.50000000  0.50000000  0.07056000  1.0 0.9146024041
Cu  Cu5  1  0.50000000  0.92944000  0.07056000  1.0 0.9146024041
Cu  Cu6  1  0.50000000  0.07056000  0.92944000  1.0 0.9152087026
Cu  Cu7  1  0.92944000  0.50000000  0.50000000  1.0 0.9146024041
Cu  Cu8  1  0.07056000  0.50000000  0.50000000  1.0 0.9152087026
Cu  Cu9  1  0.07056000  0.50000000  0.92944000  1.0 0.9152087026
Cu  Cu10  1  0.92944000  0.50000000  0.07056000  1.0 0.9146024041
Cu  Cu11  1  0.50000000  0.92944000  0.50000000  1.0 0.9152087026
Cu  Cu12  1  0.50000000  0.07056000  0.50000000  1.0 0.9152087026
P  P1  1  0.00000000  0.00000000  0.00000000  1.0 0.8706494622
H  H1  1  0.77220000  0.98900000  0.77220000  1.0 0.1437059768
H  H2  1  0.98900000  0.77220000  0.46660000  1.0 0.1437059768
H  H3  1  0.77220000  0.46660000  0.77220000  1.0 0.1437059768
H  H4  1  0.46660000  0.77220000  0.98900000  1.0 0.1437059768
H  H5  1  0.77220000  0.77220000  0.98900000  1.0 0.1437059768
H  H6  1  0.46660000  0.98900000  0.77220000  1.0 0.1437059768
H  H7  1  0.77220000  0.77220000  0.46660000  1.0 0.1437059768
H  H8  1  0.98900000  0.46660000  0.77220000  1.0 0.1437059768
H  H9  1  0.98900000  0.77220000  0.77220000  1.0 0.1437059768
H  H10  1  0.77220000  0.46660000  0.98900000  1.0 0.1437059768
H  H11  1  0.46660000  0.77220000  0.77220000  1.0 0.1437059768
H  H12  1  0.77220000  0.98900000  0.46660000  1.0 0.1437059768
H  H13  1  0.22780000  0.01100000  0.53340000  1.0 0.1437059768
H  H14  1  0.01100000  0.22780000  0.22780000  1.0 0.1437059768
H  H15  1  0.22780000  0.53340000  0.01100000  1.0 0.1437059768
H  H16  1  0.53340000  0.22780000  0.22780000  1.0 0.1437059768
H  H17  1  0.22780000  0.22780000  0.53340000  1.0 0.1437059768
H  H18  1  0.53340000  0.01100000  0.22780000  1.0 0.1437059768
H  H19  1  0.22780000  0.22780000  0.01100000  1.0 0.1437059768
H  H20  1  0.01100000  0.53340000  0.22780000  1.0 0.1437059768
H  H21  1  0.01100000  0.22780000  0.53340000  1.0 0.1437059768
H  H22  1  0.22780000  0.53340000  0.22780000  1.0 0.1437059768
H  H23  1  0.53340000  0.22780000  0.01100000  1.0 0.1437059768
H  H24  1  0.22780000  0.01100000  0.22780000  1.0 0.1437059768
W  W1  1  0.80878000  0.19122000  0.00000000  1.0 2.3510808004
W  W2  1  0.19122000  0.80878000  0.00000000  1.0 2.3510808004
W  W3  1  0.00000000  0.00000000  0.80878000  1.0 2.3510808004
W  W4  1  0.00000000  0.00000000  0.19122000  1.0 2.3510808004
W  W5  1  0.00000000  0.80878000  0.19122000  1.0 2.3510808004
W  W6  1  0.00000000  0.19122000  0.80878000  1.0 2.3510808004
W  W7  1  0.80878000  0.00000000  0.00000000  1.0 2.3510808004
W  W8  1  0.19122000  0.00000000  0.00000000  1.0 2.3510808004
W  W9  1  0.19122000  0.00000000  0.80878000  1.0 2.3510808004
W  W10  1  0.80878000  0.00000000  0.19122000  1.0 2.3510808004
W  W11  1  0.00000000  0.80878000  0.00000000  1.0 2.3510808004
W  W12  1  0.00000000  0.19122000  0.00000000  1.0 2.3510808004
C  C1  1  0.93150000  0.93150000  0.66286000  1.0 0.5946074777
C  C2  1  0.93150000  0.93150000  0.47414000  1.0 0.5946074777
C  C3  1  0.66286000  0.47414000  0.93150000  1.0 0.5946074777
C  C4  1  0.47414000  0.66286000  0.93150000  1.0 0.5946074777
C  C5  1  0.66286000  0.93150000  0.93150000  1.0 0.5946074777
C  C6  1  0.47414000  0.93150000  0.93150000  1.0 0.5946074777
C  C7  1  0.93150000  0.66286000  0.47414000  1.0 0.5946074777
C  C8  1  0.93150000  0.47414000  0.66286000  1.0 0.5956931763
C  C9  1  0.93150000  0.66286000  0.93150000  1.0 0.5946074777
C  C10  1  0.93150000  0.47414000  0.93150000  1.0 0.5946074777
C  C11  1  0.47414000  0.93150000  0.66286000  1.0 0.5946074777
C  C12  1  0.66286000  0.93150000  0.47414000  1.0 0.5946074777
C  C13  1  0.06850000  0.06850000  0.52586000  1.0 0.5946074777
C  C14  1  0.06850000  0.06850000  0.33714000  1.0 0.5946074777
C  C15  1  0.33714000  0.52586000  0.06850000  1.0 0.5946074777
C  C16  1  0.52586000  0.33714000  0.06850000  1.0 0.5946074777
C  C17  1  0.33714000  0.06850000  0.52586000  1.0 0.5946074777
C  C18  1  0.52586000  0.06850000  0.33714000  1.0 0.5946074777
C  C19  1  0.06850000  0.33714000  0.06850000  1.0 0.5946074777
C  C20  1  0.06850000  0.52586000  0.06850000  1.0 0.5946074777
C  C21  1  0.06850000  0.33714000  0.52586000  1.0 0.5946074777
C  C22  1  0.06850000  0.52586000  0.33714000  1.0 0.5946074777
C  C23  1  0.52586000  0.06850000  0.06850000  1.0 0.5946074777
C  C24  1  0.33714000  0.06850000  0.06850000  1.0 0.5946074777
C  C25  1  0.80130000  0.93150000  0.80130000  1.0 -0.088498729
C  C26  1  0.93150000  0.80130000  0.46590000  1.0 -0.088498729
C  C27  1  0.80130000  0.46590000  0.80130000  1.0 -0.088498729
C  C28  1  0.46590000  0.80130000  0.93150000  1.0 -0.088498729
C  C29  1  0.80130000  0.80130000  0.93150000  1.0 -0.088498729
C  C30  1  0.46590000  0.93150000  0.80130000  1.0 -0.088498729
C  C31  1  0.80130000  0.80130000  0.46590000  1.0 -0.088498729
C  C32  1  0.93150000  0.46590000  0.80130000  1.0 -0.088498729
C  C33  1  0.93150000  0.80130000  0.80130000  1.0 -0.088498729
C  C34  1  0.80130000  0.46590000  0.93150000  1.0 -0.088498729
C  C35  1  0.46590000  0.80130000  0.80130000  1.0 -0.088498729
C  C36  1  0.80130000  0.93150000  0.46590000  1.0 -0.088498729
C  C37  1  0.19870000  0.06850000  0.53410000  1.0 -0.088498729
C  C38  1  0.06850000  0.19870000  0.19870000  1.0 -0.088498729
C  C39  1  0.19870000  0.53410000  0.06850000  1.0 -0.088498729
C  C40  1  0.53410000  0.19870000  0.19870000  1.0 -0.088498729
C  C41  1  0.19870000  0.19870000  0.53410000  1.0 -0.088498729
C  C42  1  0.53410000  0.06850000  0.19870000  1.0 -0.088498729
C  C43  1  0.19870000  0.19870000  0.06850000  1.0 -0.088498729
C  C44  1  0.06850000  0.53410000  0.19870000  1.0 -0.088498729
C  C45  1  0.06850000  0.19870000  0.53410000  1.0 -0.088498729
C  C46  1  0.19870000  0.53410000  0.19870000  1.0 -0.088498729
C  C47  1  0.53410000  0.19870000  0.06850000  1.0 -0.088498729
C  C48  1  0.19870000  0.06850000  0.19870000  1.0 -0.088498729
C  C49  1  0.88830000  0.88830000  0.75810000  1.0 -0.0067610662
C  C50  1  0.88830000  0.88830000  0.46530000  1.0 -0.0067610662
C  C51  1  0.75810000  0.46530000  0.88830000  1.0 -0.0067610662
C  C52  1  0.46530000  0.75810000  0.88830000  1.0 -0.0067610662
C  C53  1  0.75810000  0.88830000  0.88830000  1.0 -0.0067610662
C  C54  1  0.46530000  0.88830000  0.88830000  1.0 -0.0067610662
C  C55  1  0.88830000  0.75810000  0.46530000  1.0 -0.0067610662
C  C56  1  0.88830000  0.46530000  0.75810000  1.0 -0.0067610662
C  C57  1  0.88830000  0.75810000  0.88830000  1.0 -0.0067610662
C  C58  1  0.88830000  0.46530000  0.88830000  1.0 -0.0067610662
C  C59  1  0.46530000  0.88830000  0.75810000  1.0 -0.0067610662
C  C60  1  0.75810000  0.88830000  0.46530000  1.0 -0.0067610662
C  C61  1  0.11170000  0.11170000  0.53470000  1.0 -0.0067610662
C  C62  1  0.11170000  0.11170000  0.24190000  1.0 -0.0067610662
C  C63  1  0.24190000  0.53470000  0.11170000  1.0 -0.0067610662
C  C64  1  0.53470000  0.24190000  0.11170000  1.0 -0.0067610662
C  C65  1  0.24190000  0.11170000  0.53470000  1.0 -0.0067610662
C  C66  1  0.53470000  0.11170000  0.24190000  1.0 -0.0067610662
C  C67  1  0.11170000  0.24190000  0.11170000  1.0 -0.0067610662
C  C68  1  0.11170000  0.53470000  0.11170000  1.0 -0.0067610662
C  C69  1  0.11170000  0.24190000  0.53470000  1.0 -0.0067610662
C  C70  1  0.11170000  0.53470000  0.24190000  1.0 -0.0067610662
C  C71  1  0.53470000  0.11170000  0.11170000  1.0 -0.0067610662
C  C72  1  0.24190000  0.11170000  0.11170000  1.0 -0.0067610662
O  O1  1  0.88682000  0.00784000  0.62612000  1.0 -0.5139171555
O  O2  1  0.00784000  0.88682000  0.47922000  1.0 -0.5139171555
O  O3  1  0.62612000  0.47922000  0.88682000  1.0 -0.5139171555
O  O4  1  0.47922000  0.62612000  0.00784000  1.0 -0.5139171555
O  O5  1  0.62612000  0.88682000  0.00784000  1.0 -0.5139171555
O  O6  1  0.47922000  0.00784000  0.88682000  1.0 -0.5139171555
O  O7  1  0.88682000  0.62612000  0.47922000  1.0 -0.5139171555
O  O8  1  0.00784000  0.47922000  0.62612000  1.0 -0.5153537936
O  O9  1  0.00784000  0.62612000  0.88682000  1.0 -0.5139171555
O  O10  1  0.88682000  0.47922000  0.00784000  1.0 -0.5139171555
O  O11  1  0.47922000  0.88682000  0.62612000  1.0 -0.5139171555
O  O12  1  0.62612000  0.00784000  0.47922000  1.0 -0.5139171555
O  O13  1  0.11318000  0.99216000  0.52078000  1.0 -0.5139171555
O  O14  1  0.99216000  0.11318000  0.37388000  1.0 -0.5139171555
O  O15  1  0.37388000  0.52078000  0.99216000  1.0 -0.5139171555
O  O16  1  0.52078000  0.37388000  0.11318000  1.0 -0.5139171555
O  O17  1  0.37388000  0.11318000  0.52078000  1.0 -0.5139171555
O  O18  1  0.52078000  0.99216000  0.37388000  1.0 -0.5139171555
O  O19  1  0.11318000  0.37388000  0.99216000  1.0 -0.5139171555
O  O20  1  0.99216000  0.52078000  0.11318000  1.0 -0.5139171555
O  O21  1  0.99216000  0.37388000  0.52078000  1.0 -0.5139171555
O  O22  1  0.11318000  0.52078000  0.37388000  1.0 -0.5139171555
O  O23  1  0.52078000  0.11318000  0.99216000  1.0 -0.5139171555
O  O24  1  0.37388000  0.99216000  0.11318000  1.0 -0.5139171555
O  O25  1  0.11318000  0.99216000  0.37388000  1.0 -0.5139171555
O  O26  1  0.99216000  0.11318000  0.52078000  1.0 -0.5139171555
O  O27  1  0.37388000  0.52078000  0.11318000  1.0 -0.5139171555
O  O28  1  0.52078000  0.37388000  0.99216000  1.0 -0.5139171555
O  O29  1  0.37388000  0.11318000  0.99216000  1.0 -0.5139171555
O  O30  1  0.52078000  0.99216000  0.11318000  1.0 -0.5139171555
O  O31  1  0.11318000  0.37388000  0.52078000  1.0 -0.5139171555
O  O32  1  0.99216000  0.52078000  0.37388000  1.0 -0.5139171555
O  O33  1  0.99216000  0.37388000  0.11318000  1.0 -0.5139171555
O  O34  1  0.11318000  0.52078000  0.99216000  1.0 -0.5139171555
O  O35  1  0.52078000  0.11318000  0.37388000  1.0 -0.5139171555
O  O36  1  0.37388000  0.99216000  0.52078000  1.0 -0.5139171555
O  O37  1  0.88682000  0.00784000  0.47922000  1.0 -0.5139171555
O  O38  1  0.00784000  0.88682000  0.62612000  1.0 -0.5139171555
O  O39  1  0.62612000  0.47922000  0.00784000  1.0 -0.5139171555
O  O40  1  0.47922000  0.62612000  0.88682000  1.0 -0.5139171555
O  O41  1  0.62612000  0.88682000  0.47922000  1.0 -0.5139171555
O  O42  1  0.47922000  0.00784000  0.62612000  1.0 -0.5139171555
O  O43  1  0.88682000  0.62612000  0.00784000  1.0 -0.5139171555
O  O44  1  0.00784000  0.47922000  0.88682000  1.0 -0.5139171555
O  O45  1  0.00784000  0.62612000  0.47922000  1.0 -0.5139171555
O  O46  1  0.88682000  0.47922000  0.62612000  1.0 -0.5139171555
O  O47  1  0.47922000  0.88682000  0.00784000  1.0 -0.5139171555
O  O48  1  0.62612000  0.00784000  0.88682000  1.0 -0.5139171555
O  O49  1  0.80980000  0.19020000  0.50000000  1.0 -0.0448777846
O  O50  1  0.19020000  0.80980000  0.50000000  1.0 -0.0476081478
O  O51  1  0.50000000  0.50000000  0.80980000  1.0 -0.0476081478
O  O52  1  0.50000000  0.50000000  0.19020000  1.0 -0.0476081478
O  O53  1  0.50000000  0.80980000  0.19020000  1.0 -0.0476081478
O  O54  1  0.50000000  0.19020000  0.80980000  1.0 -0.0476081478
O  O55  1  0.80980000  0.50000000  0.50000000  1.0 -0.0476081478
O  O56  1  0.19020000  0.50000000  0.50000000  1.0 -0.0476081478
O  O57  1  0.19020000  0.50000000  0.80980000  1.0 -0.0476081478
O  O58  1  0.80980000  0.50000000  0.19020000  1.0 -0.0476081478
O  O59  1  0.50000000  0.80980000  0.50000000  1.0 -0.0476081478
O  O60  1  0.50000000  0.19020000  0.50000000  1.0 -0.0476081478
O  O61  1  0.88000000  0.21860000  0.02140000  1.0 -0.8410211078
O  O62  1  0.21860000  0.88000000  0.88000000  1.0 -0.8410211078
O  O63  1  0.02140000  0.88000000  0.88000000  1.0 -0.8410211078
O  O64  1  0.88000000  0.02140000  0.21860000  1.0 -0.8410211078
O  O65  1  0.02140000  0.88000000  0.21860000  1.0 -0.8410211078
O  O66  1  0.88000000  0.21860000  0.88000000  1.0 -0.8410211078
O  O67  1  0.88000000  0.02140000  0.88000000  1.0 -0.8410211078
O  O68  1  0.21860000  0.88000000  0.02140000  1.0 -0.8410211078
O  O69  1  0.21860000  0.02140000  0.88000000  1.0 -0.8410211078
O  O70  1  0.88000000  0.88000000  0.21860000  1.0 -0.8410211078
O  O71  1  0.88000000  0.88000000  0.02140000  1.0 -0.8410211078
O  O72  1  0.02140000  0.21860000  0.88000000  1.0 -0.8410211078
O  O73  1  0.12000000  0.78140000  0.12000000  1.0 -0.8410211078
O  O74  1  0.78140000  0.12000000  0.97860000  1.0 -0.8410211078
O  O75  1  0.97860000  0.12000000  0.78140000  1.0 -0.8410211078
O  O76  1  0.12000000  0.97860000  0.12000000  1.0 -0.8410211078
O  O77  1  0.97860000  0.12000000  0.12000000  1.0 -0.8410211078
O  O78  1  0.12000000  0.78140000  0.97860000  1.0 -0.8410211078
O  O79  1  0.12000000  0.97860000  0.78140000  1.0 -0.8410211078
O  O80  1  0.78140000  0.12000000  0.12000000  1.0 -0.8410211078
O  O81  1  0.78140000  0.97860000  0.12000000  1.0 -0.8410211078
O  O82  1  0.12000000  0.12000000  0.97860000  1.0 -0.8410211078
O  O83  1  0.12000000  0.12000000  0.78140000  1.0 -0.8410211078
O  O84  1  0.97860000  0.78140000  0.12000000  1.0 -0.8410211078
O  O85  1  0.71840000  0.28160000  0.00000000  1.0 -0.6071847426
O  O86  1  0.28160000  0.71840000  0.00000000  1.0 -0.6071847426
O  O87  1  0.00000000  0.00000000  0.71840000  1.0 -0.6071847426
O  O88  1  0.00000000  0.00000000  0.28160000  1.0 -0.6071847426
O  O89  1  0.00000000  0.71840000  0.28160000  1.0 -0.6071847426
O  O90  1  0.00000000  0.28160000  0.71840000  1.0 -0.6071847426
O  O91  1  0.71840000  0.00000000  0.00000000  1.0 -0.6071847426
O  O92  1  0.28160000  0.00000000  0.00000000  1.0 -0.6071847426
O  O93  1  0.28160000  0.00000000  0.71840000  1.0 -0.6071847426
O  O94  1  0.71840000  0.00000000  0.28160000  1.0 -0.6071847426
O  O95  1  0.00000000  0.71840000  0.00000000  1.0 -0.6071847426
O  O96  1  0.00000000  0.28160000  0.00000000  1.0 -0.6071847426
O  O97  1  0.89770000  0.03410000  0.03410000  1.0 -0.3485893145
O  O98  1  0.03410000  0.89770000  0.03410000  1.0 -0.3485893145
O  O99  1  0.03410000  0.03410000  0.89770000  1.0 -0.3485893145
O  O100  1  0.03410000  0.03410000  0.03410000  1.0 -0.3485893145
O  O101  1  0.10230000  0.96590000  0.96590000  1.0 -0.3485893145
O  O102  1  0.96590000  0.10230000  0.96590000  1.0 -0.3485893145
O  O103  1  0.96590000  0.96590000  0.96590000  1.0 -0.3485893145
O  O104  1  0.96590000  0.96590000  0.10230000  1.0 -0.3485893145
