# DDEC6 charges by PACMAN v1.1 (https://github.com/mtap-research/PACMAN-charge/)
data_SOYYEL_FSR_pacman
_symmetry_space_group_name_H-M   'P 1'
_cell_length_a   16.01070000
_cell_length_b   16.01070000
_cell_length_c   10.09770000
_cell_angle_alpha   73.22350000
_cell_angle_beta   106.77600000
_cell_angle_gamma   143.15100000
_symmetry_Int_Tables_number   1
_chemical_formula_structural   Fe4P4O17
_chemical_formula_sum   'Fe12 P12 O51'
_cell_volume   1478.74433155
_cell_formula_units_Z   3
loop_
 _symmetry_equiv_pos_site_id
 _symmetry_equiv_pos_as_xyz
  1  'x, y, z'
loop_
 _atom_site_type_symbol
 _atom_site_label
 _atom_site_symmetry_multiplicity
 _atom_site_fract_x
 _atom_site_fract_y
 _atom_site_fract_z
 _atom_site_occupancy
 _atom_site_charge
Fe  Fe1  1  0.04118000  0.63406000  0.08130000  1.0 1.3129808156
Fe  Fe2  1  0.63406000  0.04118000  0.91870000  1.0 1.3158642499
Fe  Fe3  1  0.28489000  0.87011000  0.32880000  1.0 1.3292705266
Fe  Fe4  1  0.87011000  0.28489000  0.67120000  1.0 1.3129808156
Fe  Fe5  1  0.28808000  0.35692000  0.60010000  1.0 1.2890040724
Fe  Fe6  1  0.35692000  0.28808000  0.39990000  1.0 1.2890040724
Fe  Fe7  1  0.20648000  0.93732000  0.99230000  1.0 1.2715252487
Fe  Fe8  1  0.93732000  0.20648000  0.00770000  1.0 1.2715252487
Fe  Fe9  1  0.61933000  0.51747000  0.66170000  1.0 1.2962327449
Fe  Fe10  1  0.51747000  0.61933000  0.33830000  1.0 1.2962327449
Fe  Fe11  1  0.94716000  0.69744000  0.22920000  1.0 1.2517401425
Fe  Fe12  1  0.69744000  0.94716000  0.77080000  1.0 1.2517401425
P  P1  1  0.01086000  0.55074000  0.40060000  1.0 1.5165802089
P  P2  1  0.55074000  0.01086000  0.59940000  1.0 1.5116843728
P  P3  1  0.33347000  0.19053000  0.71410000  1.0 1.4959070532
P  P4  1  0.19053000  0.33347000  0.28590000  1.0 1.4959070532
P  P5  1  0.89168000  0.66972000  0.93130000  1.0 1.5116843728
P  P6  1  0.66972000  0.89168000  0.06870000  1.0 1.5116843728
P  P7  1  0.22200000  0.02280000  0.24980000  1.0 1.5165802089
P  P8  1  0.02280000  0.22200000  0.75020000  1.0 1.5165802089
P  P9  1  0.56535000  0.67385000  0.64420000  1.0 1.4547311513
P  P10  1  0.67385000  0.56535000  0.35580000  1.0 1.45736818
P  P11  1  0.36704000  0.88476000  0.07290000  1.0 1.5165802089
P  P12  1  0.88476000  0.36704000  0.92710000  1.0 1.5116843728
O  O1  1  0.16940000  0.69220000  0.44090000  1.0 -0.6405930193
O  O2  1  0.69220000  0.16940000  0.55910000  1.0 -0.6405930193
O  O3  1  0.99790000  0.51770000  0.26070000  1.0 -0.6580031218
O  O4  1  0.51770000  0.99790000  0.73930000  1.0 -0.6580031218
O  O5  1  0.92440000  0.56500000  0.38640000  1.0 -0.678604901
O  O6  1  0.56500000  0.92440000  0.61360000  1.0 -0.678604901
O  O7  1  0.96340000  0.43540000  0.50990000  1.0 -0.5805681141
O  O8  1  0.43540000  0.96340000  0.49010000  1.0 -0.5805681141
O  O9  1  0.25860000  0.21680000  0.71770000  1.0 -0.6580031218
O  O10  1  0.21680000  0.25860000  0.28230000  1.0 -0.6580031218
O  O11  1  0.31280000  0.16740000  0.56380000  1.0 -0.6405930193
O  O12  1  0.16740000  0.31280000  0.43620000  1.0 -0.6405930193
O  O13  1  0.27070000  0.06170000  0.80660000  1.0 -0.6100332462
O  O14  1  0.06170000  0.27070000  0.19340000  1.0 -0.6100332462
O  O15  1  0.49120000  0.32080000  0.75530000  1.0 -0.6699959965
O  O16  1  0.32080000  0.49120000  0.24470000  1.0 -0.6699959965
O  O17  1  0.03630000  0.74670000  0.90760000  1.0 -0.6889009428
O  O18  1  0.74670000  0.03630000  0.09240000  1.0 -0.6889009428
O  O19  1  0.86430000  0.57790000  0.07160000  1.0 -0.6889009428
O  O20  1  0.57790000  0.86430000  0.92840000  1.0 -0.6889009428
O  O21  1  0.90980000  0.77040000  0.96080000  1.0 -0.5805681141
O  O22  1  0.77040000  0.90980000  0.03920000  1.0 -0.5805681141
O  O23  1  0.78130000  0.58010000  0.81520000  1.0 -0.5715478015
O  O24  1  0.58010000  0.78130000  0.18480000  1.0 -0.5805681141
O  O25  1  0.30740000  0.00840000  0.34200000  1.0 -0.6699959965
O  O26  1  0.00840000  0.30740000  0.65800000  1.0 -0.6699959965
O  O27  1  0.27330000  0.14370000  0.28750000  1.0 -0.5715478015
O  O28  1  0.14370000  0.27330000  0.71250000  1.0 -0.5715478015
O  O29  1  0.24560000  0.05440000  0.09610000  1.0 -0.6699959965
O  O30  1  0.05440000  0.24560000  0.90390000  1.0 -0.6699959965
O  O31  1  0.06620000  0.88580000  0.27470000  1.0 -0.6889009428
O  O32  1  0.88580000  0.06620000  0.72530000  1.0 -0.6889009428
O  O33  1  0.40910000  0.52870000  0.66740000  1.0 -0.6405930193
O  O34  1  0.52870000  0.40910000  0.33260000  1.0 -0.6335604342
O  O35  1  0.65270000  0.65790000  0.69760000  1.0 -0.678604901
O  O36  1  0.65790000  0.65270000  0.30240000  1.0 -0.678604901
O  O37  1  0.61170000  0.77030000  0.73100000  1.0 -0.6100332462
O  O38  1  0.77030000  0.61170000  0.26900000  1.0 -0.6032496842
O  O39  1  0.57490000  0.72250000  0.48870000  1.0 -0.6699959965
O  O40  1  0.72250000  0.57490000  0.51130000  1.0 -0.6699959965
O  O41  1  0.40090000  0.90930000  0.22890000  1.0 -0.6100332462
O  O42  1  0.90930000  0.40090000  0.77110000  1.0 -0.6100332462
O  O43  1  0.22110000  0.72790000  0.05400000  1.0 -0.6699959965
O  O44  1  0.72790000  0.22110000  0.94600000  1.0 -0.6699959965
O  O45  1  0.36700000  0.98000000  0.01690000  1.0 -0.6523102375
O  O46  1  0.98000000  0.36700000  0.98310000  1.0 -0.6523102375
O  O47  1  0.47740000  0.91720000  0.03720000  1.0 -0.6100332462
O  O48  1  0.91720000  0.47740000  0.96280000  1.0 -0.6100332462
O  O49  1  0.14160000  0.79240000  0.17860000  1.0 -0.8926100286
O  O50  1  0.79240000  0.14160000  0.82140000  1.0 -0.8926100286
O  O51  1  0.42270000  0.42270000  0.50000000  1.0 -0.9079424294
