# DDEC6 charges by PACMAN v1.1 (https://github.com/mtap-research/PACMAN-charge/)
data_SOZBIS_ASR_pacman
_symmetry_space_group_name_H-M   'P 1'
_cell_length_a   9.02056000
_cell_length_b   9.02056000
_cell_length_c   9.02056000
_cell_angle_alpha   60.00000000
_cell_angle_beta   60.00000000
_cell_angle_gamma   60.00000000
_symmetry_Int_Tables_number   1
_chemical_formula_structural   CdC4
_chemical_formula_sum   'Cd2 C8'
_cell_volume   519.02168208
_cell_formula_units_Z   2
loop_
 _symmetry_equiv_pos_site_id
 _symmetry_equiv_pos_as_xyz
  1  'x, y, z'
loop_
 _atom_site_type_symbol
 _atom_site_label
 _atom_site_symmetry_multiplicity
 _atom_site_fract_x
 _atom_site_fract_y
 _atom_site_fract_z
 _atom_site_occupancy
 _atom_site_charge
Cd  Cd1  1  0.75000000  0.75000000  0.75000000  1.0 0.7381151826
Cd  Cd2  1  0.50000000  0.50000000  0.50000000  1.0 0.7381151826
C  C1  1  0.65070000  0.65070000  0.65070000  1.0 -0.182061033
C  C2  1  0.20210000  0.59930000  0.59930000  1.0 -0.182061033
C  C3  1  0.04790000  0.65070000  0.65070000  1.0 -0.182061033
C  C4  1  0.65070000  0.65070000  0.04790000  1.0 -0.182061033
C  C5  1  0.59930000  0.59930000  0.20210000  1.0 -0.182061033
C  C6  1  0.59930000  0.20210000  0.59930000  1.0 -0.1860284299
C  C7  1  0.65070000  0.04790000  0.65070000  1.0 -0.182061033
C  C8  1  0.59930000  0.59930000  0.59930000  1.0 -0.1978357375
