# DDEC6 charges by PACMAN v1.1 (https://github.com/mtap-research/PACMAN-charge/)
data_SOZPUU_ASR_pacman
_symmetry_space_group_name_H-M   'P 1'
_cell_length_a   20.92590000
_cell_length_b   20.92590000
_cell_length_c   9.63220000
_cell_angle_alpha   90.00000000
_cell_angle_beta   90.00000000
_cell_angle_gamma   90.00000000
_symmetry_Int_Tables_number   1
_chemical_formula_structural   KH12C22N9O2
_chemical_formula_sum   'K8 H96 C176 N72 O16'
_cell_volume   4217.87575574
_cell_formula_units_Z   8
loop_
 _symmetry_equiv_pos_site_id
 _symmetry_equiv_pos_as_xyz
  1  'x, y, z'
loop_
 _atom_site_type_symbol
 _atom_site_label
 _atom_site_symmetry_multiplicity
 _atom_site_fract_x
 _atom_site_fract_y
 _atom_site_fract_z
 _atom_site_occupancy
 _atom_site_charge
K  K1  1  0.73095000  0.08809000  0.89419000  1.0 0.7284897106
K  K2  1  0.26905000  0.91191000  0.89419000  1.0 0.7284897106
K  K3  1  0.58809000  0.76905000  0.39419000  1.0 0.7284897106
K  K4  1  0.41191000  0.23095000  0.39419000  1.0 0.7284897106
K  K5  1  0.76905000  0.41191000  0.60581000  1.0 0.7284897106
K  K6  1  0.23095000  0.58809000  0.60581000  1.0 0.7284897106
K  K7  1  0.91191000  0.73095000  0.10581000  1.0 0.7284897106
K  K8  1  0.08809000  0.26905000  0.10581000  1.0 0.7284897106
H  H1  1  0.68880000  0.98430000  0.65120000  1.0 0.1367870481
H  H2  1  0.31120000  0.01570000  0.65120000  1.0 0.1367870481
H  H3  1  0.48430000  0.81120000  0.15120000  1.0 0.1367870481
H  H4  1  0.51570000  0.18880000  0.15120000  1.0 0.1367870481
H  H5  1  0.81120000  0.51570000  0.84880000  1.0 0.1367870481
H  H6  1  0.18880000  0.48430000  0.84880000  1.0 0.1367870481
H  H7  1  0.01570000  0.68880000  0.34880000  1.0 0.1367870481
H  H8  1  0.98430000  0.31120000  0.34880000  1.0 0.1367870481
H  H9  1  0.64200000  0.88470000  0.63470000  1.0 0.111927305
H  H10  1  0.35800000  0.11530000  0.63470000  1.0 0.111927305
H  H11  1  0.38470000  0.85800000  0.13470000  1.0 0.111927305
H  H12  1  0.61530000  0.14200000  0.13470000  1.0 0.111927305
H  H13  1  0.85800000  0.61530000  0.86530000  1.0 0.111927305
H  H14  1  0.14200000  0.38470000  0.86530000  1.0 0.111927305
H  H15  1  0.11530000  0.64200000  0.36530000  1.0 0.111927305
H  H16  1  0.88470000  0.35800000  0.36530000  1.0 0.111927305
H  H17  1  0.57810000  0.04170000  0.33630000  1.0 0.1277226178
H  H18  1  0.42190000  0.95830000  0.33630000  1.0 0.1277226178
H  H19  1  0.54170000  0.92190000  0.83630000  1.0 0.1277226178
H  H20  1  0.45830000  0.07810000  0.83630000  1.0 0.1277226178
H  H21  1  0.92190000  0.45830000  0.16370000  1.0 0.1277226178
H  H22  1  0.07810000  0.54170000  0.16370000  1.0 0.1277226178
H  H23  1  0.95830000  0.57810000  0.66370000  1.0 0.1277226178
H  H24  1  0.04170000  0.42190000  0.66370000  1.0 0.1277226178
H  H25  1  0.53600000  0.94130000  0.32730000  1.0 0.1017666441
H  H26  1  0.46400000  0.05870000  0.32730000  1.0 0.1017666441
H  H27  1  0.44130000  0.96400000  0.82730000  1.0 0.1017666441
H  H28  1  0.55870000  0.03600000  0.82730000  1.0 0.1017666441
H  H29  1  0.96400000  0.55870000  0.17270000  1.0 0.1017666441
H  H30  1  0.03600000  0.44130000  0.17270000  1.0 0.1017666441
H  H31  1  0.05870000  0.53600000  0.67270000  1.0 0.1017666441
H  H32  1  0.94130000  0.46400000  0.67270000  1.0 0.1017666441
H  H33  1  0.89490000  0.32560000  0.71770000  1.0 0.121154076
H  H34  1  0.10510000  0.67440000  0.71770000  1.0 0.121154076
H  H35  1  0.82560000  0.60510000  0.21770000  1.0 0.121154076
H  H36  1  0.17440000  0.39490000  0.21770000  1.0 0.121154076
H  H37  1  0.60510000  0.17440000  0.78230000  1.0 0.121154076
H  H38  1  0.39490000  0.82560000  0.78230000  1.0 0.121154076
H  H39  1  0.67440000  0.89490000  0.28230000  1.0 0.121154076
H  H40  1  0.32560000  0.10510000  0.28230000  1.0 0.121154076
H  H41  1  0.97820000  0.33950000  0.86860000  1.0 0.1017666441
H  H42  1  0.02180000  0.66050000  0.86860000  1.0 0.1017666441
H  H43  1  0.83950000  0.52180000  0.36860000  1.0 0.1017666441
H  H44  1  0.16050000  0.47820000  0.36860000  1.0 0.1017666441
H  H45  1  0.52180000  0.16050000  0.63140000  1.0 0.1017666441
H  H46  1  0.47820000  0.83950000  0.63140000  1.0 0.1017666441
H  H47  1  0.66050000  0.97820000  0.13140000  1.0 0.1017666441
H  H48  1  0.33950000  0.02180000  0.13140000  1.0 0.1017666441
H  H49  1  0.87810000  0.14620000  0.85880000  1.0 0.1277226178
H  H50  1  0.12190000  0.85380000  0.85880000  1.0 0.1277226178
H  H51  1  0.64620000  0.62190000  0.35880000  1.0 0.1277226178
H  H52  1  0.35380000  0.37810000  0.35880000  1.0 0.1277226178
H  H53  1  0.62190000  0.35380000  0.64120000  1.0 0.1277226178
H  H54  1  0.37810000  0.64620000  0.64120000  1.0 0.1277226178
H  H55  1  0.85380000  0.87810000  0.14120000  1.0 0.1277226178
H  H56  1  0.14620000  0.12190000  0.14120000  1.0 0.1277226178
H  H57  1  0.96230000  0.16590000  0.00430000  1.0 0.1017666441
H  H58  1  0.03770000  0.83410000  0.00430000  1.0 0.1017666441
H  H59  1  0.66590000  0.53770000  0.50430000  1.0 0.1017666441
H  H60  1  0.33410000  0.46230000  0.50430000  1.0 0.1017666441
H  H61  1  0.53770000  0.33410000  0.49570000  1.0 0.1017666441
H  H62  1  0.46230000  0.66590000  0.49570000  1.0 0.1017666441
H  H63  1  0.83410000  0.96230000  0.99570000  1.0 0.1017666441
H  H64  1  0.16590000  0.03770000  0.99570000  1.0 0.1017666441
H  H65  1  0.59260000  0.29740000  0.14920000  1.0 0.1277226178
H  H66  1  0.40740000  0.70260000  0.14920000  1.0 0.1277226178
H  H67  1  0.79740000  0.90740000  0.64920000  1.0 0.1277226178
H  H68  1  0.20260000  0.09260000  0.64920000  1.0 0.1277226178
H  H69  1  0.90740000  0.20260000  0.35080000  1.0 0.1277226178
H  H70  1  0.09260000  0.79740000  0.35080000  1.0 0.1277226178
H  H71  1  0.70260000  0.59260000  0.85080000  1.0 0.1277226178
H  H72  1  0.29740000  0.40740000  0.85080000  1.0 0.1277226178
H  H73  1  0.56520000  0.37690000  0.99760000  1.0 0.111927305
H  H74  1  0.43480000  0.62310000  0.99760000  1.0 0.111927305
H  H75  1  0.87690000  0.93480000  0.49760000  1.0 0.111927305
H  H76  1  0.12310000  0.06520000  0.49760000  1.0 0.111927305
H  H77  1  0.93480000  0.12310000  0.50240000  1.0 0.111927305
H  H78  1  0.06520000  0.87690000  0.50240000  1.0 0.111927305
H  H79  1  0.62310000  0.56520000  0.00240000  1.0 0.111927305
H  H80  1  0.37690000  0.43480000  0.00240000  1.0 0.111927305
H  H81  1  0.73250000  0.41100000  0.28850000  1.0 0.121154076
H  H82  1  0.26750000  0.58900000  0.28850000  1.0 0.121154076
H  H83  1  0.91100000  0.76750000  0.78850000  1.0 0.121154076
H  H84  1  0.08900000  0.23250000  0.78850000  1.0 0.121154076
H  H85  1  0.76750000  0.08900000  0.21150000  1.0 0.121154076
H  H86  1  0.23250000  0.91100000  0.21150000  1.0 0.121154076
H  H87  1  0.58900000  0.73250000  0.71150000  1.0 0.121154076
H  H88  1  0.41100000  0.26750000  0.71150000  1.0 0.121154076
H  H89  1  0.70010000  0.48640000  0.13420000  1.0 0.1017666441
H  H90  1  0.29990000  0.51360000  0.13420000  1.0 0.1017666441
H  H91  1  0.98640000  0.79990000  0.63420000  1.0 0.1017666441
H  H92  1  0.01360000  0.20010000  0.63420000  1.0 0.1017666441
H  H93  1  0.79990000  0.01360000  0.36580000  1.0 0.1017666441
H  H94  1  0.20010000  0.98640000  0.36580000  1.0 0.1017666441
H  H95  1  0.51360000  0.70010000  0.86580000  1.0 0.1017666441
H  H96  1  0.48640000  0.29990000  0.86580000  1.0 0.1017666441
C  C1  1  0.63904000  0.02490000  0.49480000  1.0 0.0564834288
C  C2  1  0.36096000  0.97510000  0.49480000  1.0 0.0564834288
C  C3  1  0.52490000  0.86096000  0.99480000  1.0 0.0564834288
C  C4  1  0.47510000  0.13904000  0.99480000  1.0 0.0564834288
C  C5  1  0.86096000  0.47510000  0.00520000  1.0 0.0564834288
C  C6  1  0.13904000  0.52490000  0.00520000  1.0 0.0564834288
C  C7  1  0.97510000  0.63904000  0.50520000  1.0 0.0564834288
C  C8  1  0.02490000  0.36096000  0.50520000  1.0 0.0564834288
C  C9  1  0.65770000  0.97670000  0.58430000  1.0 -0.164243353
C  C10  1  0.34230000  0.02330000  0.58430000  1.0 -0.164243353
C  C11  1  0.47670000  0.84230000  0.08430000  1.0 -0.164243353
C  C12  1  0.52330000  0.15770000  0.08430000  1.0 -0.164243353
C  C13  1  0.84230000  0.52330000  0.91570000  1.0 -0.164243353
C  C14  1  0.15770000  0.47670000  0.91570000  1.0 -0.164243353
C  C15  1  0.02330000  0.65770000  0.41570000  1.0 -0.164243353
C  C16  1  0.97670000  0.34230000  0.41570000  1.0 -0.164243353
C  C17  1  0.62930000  0.91650000  0.57310000  1.0 0.0922222786
C  C18  1  0.37070000  0.08350000  0.57310000  1.0 0.0922222786
C  C19  1  0.41650000  0.87070000  0.07310000  1.0 0.0922222786
C  C20  1  0.58350000  0.12930000  0.07310000  1.0 0.0922222786
C  C21  1  0.87070000  0.58350000  0.92690000  1.0 0.0922222786
C  C22  1  0.12930000  0.41650000  0.92690000  1.0 0.0922222786
C  C23  1  0.08350000  0.62930000  0.42690000  1.0 0.0922222786
C  C24  1  0.91650000  0.37070000  0.42690000  1.0 0.0922222786
C  C25  1  0.59230000  0.01050000  0.39780000  1.0 -0.180140653
C  C26  1  0.40770000  0.98950000  0.39780000  1.0 -0.180140653
C  C27  1  0.51050000  0.90770000  0.89780000  1.0 -0.180140653
C  C28  1  0.48950000  0.09230000  0.89780000  1.0 -0.180140653
C  C29  1  0.90770000  0.48950000  0.10220000  1.0 -0.180140653
C  C30  1  0.09230000  0.51050000  0.10220000  1.0 -0.180140653
C  C31  1  0.98950000  0.59230000  0.60220000  1.0 -0.180140653
C  C32  1  0.01050000  0.40770000  0.60220000  1.0 -0.180140653
C  C33  1  0.56720000  0.94990000  0.39340000  1.0 0.0564834288
C  C34  1  0.43280000  0.05010000  0.39340000  1.0 0.0564834288
C  C35  1  0.44990000  0.93280000  0.89340000  1.0 0.0564834288
C  C36  1  0.55010000  0.06720000  0.89340000  1.0 0.0564834288
C  C37  1  0.93280000  0.55010000  0.10660000  1.0 0.0564834288
C  C38  1  0.06720000  0.44990000  0.10660000  1.0 0.0564834288
C  C39  1  0.05010000  0.56720000  0.60660000  1.0 0.0564834288
C  C40  1  0.94990000  0.43280000  0.60660000  1.0 0.0564834288
C  C41  1  0.66947000  0.08970000  0.49990000  1.0 0.3705864014
C  C42  1  0.33053000  0.91030000  0.49990000  1.0 0.3705864014
C  C43  1  0.58970000  0.83053000  0.99990000  1.0 0.3705864014
C  C44  1  0.41030000  0.16947000  0.99990000  1.0 0.3705864014
C  C45  1  0.83053000  0.41030000  0.00010000  1.0 0.3705864014
C  C46  1  0.16947000  0.58970000  0.00010000  1.0 0.3705864014
C  C47  1  0.91030000  0.66947000  0.50010000  1.0 0.3705864014
C  C48  1  0.08970000  0.33053000  0.50010000  1.0 0.3705864014
C  C49  1  0.87580000  0.23420000  0.77100000  1.0 0.0564834288
C  C50  1  0.12420000  0.76580000  0.77100000  1.0 0.0564834288
C  C51  1  0.73420000  0.62420000  0.27100000  1.0 0.0564834288
C  C52  1  0.26580000  0.37580000  0.27100000  1.0 0.0564834288
C  C53  1  0.62420000  0.26580000  0.72900000  1.0 0.0564834288
C  C54  1  0.37580000  0.73420000  0.72900000  1.0 0.0564834288
C  C55  1  0.76580000  0.87580000  0.22900000  1.0 0.0564834288
C  C56  1  0.23420000  0.12420000  0.22900000  1.0 0.0564834288
C  C57  1  0.90740000  0.29220000  0.77540000  1.0 -0.1691139726
C  C58  1  0.09260000  0.70780000  0.77540000  1.0 -0.1691139726
C  C59  1  0.79220000  0.59260000  0.27540000  1.0 -0.1691139726
C  C60  1  0.20780000  0.40740000  0.27540000  1.0 -0.1691139726
C  C61  1  0.59260000  0.20780000  0.72460000  1.0 -0.1691139726
C  C62  1  0.40740000  0.79220000  0.72460000  1.0 -0.1691139726
C  C63  1  0.70780000  0.90740000  0.22460000  1.0 -0.1691139726
C  C64  1  0.29220000  0.09260000  0.22460000  1.0 -0.1691139726
C  C65  1  0.95760000  0.30010000  0.86640000  1.0 0.0673182109
C  C66  1  0.04240000  0.69990000  0.86640000  1.0 0.0673182109
C  C67  1  0.80010000  0.54240000  0.36640000  1.0 0.0673182109
C  C68  1  0.19990000  0.45760000  0.36640000  1.0 0.0673182109
C  C69  1  0.54240000  0.19990000  0.63360000  1.0 0.0673182109
C  C70  1  0.45760000  0.80010000  0.63360000  1.0 0.0673182109
C  C71  1  0.69990000  0.95760000  0.13360000  1.0 0.0673182109
C  C72  1  0.30010000  0.04240000  0.13360000  1.0 0.0673182109
C  C73  1  0.89750000  0.18610000  0.85880000  1.0 -0.1334094046
C  C74  1  0.10250000  0.81390000  0.85880000  1.0 -0.1334094046
C  C75  1  0.68610000  0.60250000  0.35880000  1.0 -0.1334094046
C  C76  1  0.31390000  0.39750000  0.35880000  1.0 -0.1334094046
C  C77  1  0.60250000  0.31390000  0.64120000  1.0 -0.1334094046
C  C78  1  0.39750000  0.68610000  0.64120000  1.0 -0.1334094046
C  C79  1  0.81390000  0.89750000  0.14120000  1.0 -0.1334094046
C  C80  1  0.18610000  0.10250000  0.14120000  1.0 -0.1334094046
C  C81  1  0.94830000  0.19850000  0.94600000  1.0 0.0922222786
C  C82  1  0.05170000  0.80150000  0.94600000  1.0 0.0922222786
C  C83  1  0.69850000  0.55170000  0.44600000  1.0 0.0922222786
C  C84  1  0.30150000  0.44830000  0.44600000  1.0 0.0922222786
C  C85  1  0.55170000  0.30150000  0.55400000  1.0 0.0922222786
C  C86  1  0.44830000  0.69850000  0.55400000  1.0 0.0922222786
C  C87  1  0.80150000  0.94830000  0.05400000  1.0 0.0922222786
C  C88  1  0.19850000  0.05170000  0.05400000  1.0 0.0922222786
C  C89  1  0.82031000  0.22340000  0.67550000  1.0 0.3908527993
C  C90  1  0.17969000  0.77660000  0.67550000  1.0 0.3908527993
C  C91  1  0.72340000  0.67969000  0.17550000  1.0 0.3908527993
C  C92  1  0.27660000  0.32031000  0.17550000  1.0 0.3908527993
C  C93  1  0.67969000  0.27660000  0.82450000  1.0 0.3908527993
C  C94  1  0.32031000  0.72340000  0.82450000  1.0 0.3908527993
C  C95  1  0.77660000  0.82031000  0.32450000  1.0 0.3908527993
C  C96  1  0.22340000  0.17969000  0.32450000  1.0 0.3908527993
C  C97  1  0.66666667  0.34421000  0.23820000  1.0 0.0445752131
C  C98  1  0.33340000  0.65579000  0.23820000  1.0 0.0445752131
C  C99  1  0.84421000  0.83340000  0.73820000  1.0 0.0445752131
C  C100  1  0.15579000  0.16660000  0.73820000  1.0 0.0445752131
C  C101  1  0.83340000  0.15579000  0.26180000  1.0 0.0445752131
C  C102  1  0.16660000  0.84421000  0.26180000  1.0 0.0445752131
C  C103  1  0.65579000  0.66666667  0.76180000  1.0 0.0445752131
C  C104  1  0.34421000  0.33340000  0.76180000  1.0 0.0445752131
C  C105  1  0.61550000  0.33550000  0.14850000  1.0 -0.152454372
C  C106  1  0.38450000  0.66450000  0.14850000  1.0 -0.152454372
C  C107  1  0.83550000  0.88450000  0.64850000  1.0 -0.152454372
C  C108  1  0.16450000  0.11550000  0.64850000  1.0 -0.152454372
C  C109  1  0.88450000  0.16450000  0.35150000  1.0 -0.152454372
C  C110  1  0.11550000  0.83550000  0.35150000  1.0 -0.152454372
C  C111  1  0.66450000  0.61550000  0.85150000  1.0 -0.152454372
C  C112  1  0.33550000  0.38450000  0.85150000  1.0 -0.152454372
C  C113  1  0.59910000  0.38400000  0.05820000  1.0 0.0922222786
C  C114  1  0.40090000  0.61600000  0.05820000  1.0 0.0922222786
C  C115  1  0.88400000  0.90090000  0.55820000  1.0 0.0922222786
C  C116  1  0.11600000  0.09910000  0.55820000  1.0 0.0922222786
C  C117  1  0.90090000  0.11600000  0.44180000  1.0 0.0922222786
C  C118  1  0.09910000  0.88400000  0.44180000  1.0 0.0922222786
C  C119  1  0.61600000  0.59910000  0.94180000  1.0 0.0922222786
C  C120  1  0.38400000  0.40090000  0.94180000  1.0 0.0922222786
C  C121  1  0.69790000  0.40270000  0.23050000  1.0 -0.152454372
C  C122  1  0.30210000  0.59730000  0.23050000  1.0 -0.152454372
C  C123  1  0.90270000  0.80210000  0.73050000  1.0 -0.152454372
C  C124  1  0.09730000  0.19790000  0.73050000  1.0 -0.152454372
C  C125  1  0.80210000  0.09730000  0.26950000  1.0 -0.152454372
C  C126  1  0.19790000  0.90270000  0.26950000  1.0 -0.152454372
C  C127  1  0.59730000  0.69790000  0.76950000  1.0 -0.152454372
C  C128  1  0.40270000  0.30210000  0.76950000  1.0 -0.152454372
C  C129  1  0.67790000  0.44790000  0.13790000  1.0 0.0673182109
C  C130  1  0.32210000  0.55210000  0.13790000  1.0 0.0673182109
C  C131  1  0.94790000  0.82210000  0.63790000  1.0 0.0673182109
C  C132  1  0.05210000  0.17790000  0.63790000  1.0 0.0673182109
C  C133  1  0.82210000  0.05210000  0.36210000  1.0 0.0673182109
C  C134  1  0.17790000  0.94790000  0.36210000  1.0 0.0673182109
C  C135  1  0.55210000  0.67790000  0.86210000  1.0 0.0673182109
C  C136  1  0.44790000  0.32210000  0.86210000  1.0 0.0673182109
C  C137  1  0.68736000  0.29226000  0.33340000  1.0 0.3846721785
C  C138  1  0.31264000  0.70774000  0.33340000  1.0 0.3846721785
C  C139  1  0.79226000  0.81264000  0.83340000  1.0 0.3846721785
C  C140  1  0.20774000  0.18736000  0.83340000  1.0 0.3846721785
C  C141  1  0.81264000  0.20774000  0.16660000  1.0 0.3846721785
C  C142  1  0.18736000  0.79226000  0.16660000  1.0 0.3846721785
C  C143  1  0.70774000  0.68736000  0.66666667  1.0 0.3846721785
C  C144  1  0.29226000  0.31264000  0.66666667  1.0 0.3846721785
C  C145  1  0.67609000  0.18963000  0.40840000  1.0 0.3908527993
C  C146  1  0.32391000  0.81037000  0.40840000  1.0 0.3908527993
C  C147  1  0.68963000  0.82391000  0.90840000  1.0 0.3908527993
C  C148  1  0.31037000  0.17609000  0.90840000  1.0 0.3908527993
C  C149  1  0.82391000  0.31037000  0.09160000  1.0 0.3908527993
C  C150  1  0.17609000  0.68963000  0.09160000  1.0 0.3908527993
C  C151  1  0.81037000  0.67609000  0.59160000  1.0 0.3908527993
C  C152  1  0.18963000  0.32391000  0.59160000  1.0 0.3908527993
C  C153  1  0.74570000  0.15420000  0.59440000  1.0 0.3908527993
C  C154  1  0.25430000  0.84580000  0.59440000  1.0 0.3908527993
C  C155  1  0.65420000  0.75430000  0.09440000  1.0 0.3908527993
C  C156  1  0.34580000  0.24570000  0.09440000  1.0 0.3908527993
C  C157  1  0.75430000  0.34580000  0.90560000  1.0 0.3908527993
C  C158  1  0.24570000  0.65420000  0.90560000  1.0 0.3908527993
C  C159  1  0.84580000  0.74570000  0.40560000  1.0 0.3908527993
C  C160  1  0.15420000  0.25430000  0.40560000  1.0 0.3908527993
C  C161  1  0.72625000  0.20180000  0.50090000  1.0 -0.2173421024
C  C162  1  0.27375000  0.79820000  0.50090000  1.0 -0.2173421024
C  C163  1  0.70180000  0.77375000  0.00090000  1.0 -0.2173421024
C  C164  1  0.29820000  0.22625000  0.00090000  1.0 -0.2173421024
C  C165  1  0.77375000  0.29820000  0.99910000  1.0 -0.2173421024
C  C166  1  0.22625000  0.70180000  0.99910000  1.0 -0.2173421024
C  C167  1  0.79820000  0.72625000  0.49910000  1.0 -0.2173421024
C  C168  1  0.20180000  0.27375000  0.49910000  1.0 -0.2173421024
C  C169  1  0.75592000  0.26130000  0.50480000  1.0 0.3908527993
C  C170  1  0.24408000  0.73870000  0.50480000  1.0 0.3908527993
C  C171  1  0.76130000  0.74408000  0.00480000  1.0 0.3908527993
C  C172  1  0.23870000  0.25592000  0.00480000  1.0 0.3908527993
C  C173  1  0.74408000  0.23870000  0.99520000  1.0 0.3908527993
C  C174  1  0.25592000  0.76130000  0.99520000  1.0 0.3908527993
C  C175  1  0.73870000  0.75592000  0.49520000  1.0 0.3908527993
C  C176  1  0.26130000  0.24408000  0.49520000  1.0 0.3908527993
N  N1  1  0.58500000  0.90233000  0.47880000  1.0 -0.2875615893
N  N2  1  0.41500000  0.09767000  0.47880000  1.0 -0.2875615893
N  N3  1  0.40233000  0.91500000  0.97880000  1.0 -0.2875615893
N  N4  1  0.59767000  0.08500000  0.97880000  1.0 -0.2875615893
N  N5  1  0.91500000  0.59767000  0.02120000  1.0 -0.2875615893
N  N6  1  0.08500000  0.40233000  0.02120000  1.0 -0.2875615893
N  N7  1  0.09767000  0.58500000  0.52120000  1.0 -0.2875615893
N  N8  1  0.90233000  0.41500000  0.52120000  1.0 -0.2875615893
N  N9  1  0.97824000  0.25440000  0.95120000  1.0 -0.2812166525
N  N10  1  0.02176000  0.74560000  0.95120000  1.0 -0.2812166525
N  N11  1  0.75440000  0.52176000  0.45120000  1.0 -0.2812166525
N  N12  1  0.24560000  0.47824000  0.45120000  1.0 -0.2812166525
N  N13  1  0.52176000  0.24560000  0.54880000  1.0 -0.2812166525
N  N14  1  0.47824000  0.75440000  0.54880000  1.0 -0.2812166525
N  N15  1  0.74560000  0.97824000  0.04880000  1.0 -0.2812166525
N  N16  1  0.25440000  0.02176000  0.04880000  1.0 -0.2812166525
N  N17  1  0.62820000  0.44000000  0.05200000  1.0 -0.2126814513
N  N18  1  0.37180000  0.56000000  0.05200000  1.0 -0.2126814513
N  N19  1  0.94000000  0.87180000  0.55200000  1.0 -0.2126814513
N  N20  1  0.06000000  0.12820000  0.55200000  1.0 -0.2126814513
N  N21  1  0.87180000  0.06000000  0.44800000  1.0 -0.2126814513
N  N22  1  0.12820000  0.94000000  0.44800000  1.0 -0.2126814513
N  N23  1  0.56000000  0.62820000  0.94800000  1.0 -0.2126814513
N  N24  1  0.44000000  0.37180000  0.94800000  1.0 -0.2126814513
N  N25  1  0.64792000  0.13175000  0.40490000  1.0 -0.4274971722
N  N26  1  0.35208000  0.86825000  0.40490000  1.0 -0.4274971722
N  N27  1  0.63175000  0.85208000  0.90490000  1.0 -0.4274971722
N  N28  1  0.36825000  0.14792000  0.90490000  1.0 -0.4274971722
N  N29  1  0.85208000  0.36825000  0.09510000  1.0 -0.4274971722
N  N30  1  0.14792000  0.63175000  0.09510000  1.0 -0.4274971722
N  N31  1  0.86825000  0.64792000  0.59510000  1.0 -0.4274971722
N  N32  1  0.13175000  0.35208000  0.59510000  1.0 -0.4274971722
N  N33  1  0.71484000  0.09697000  0.59670000  1.0 -0.4494356216
N  N34  1  0.28516000  0.90303000  0.59670000  1.0 -0.4494356216
N  N35  1  0.59697000  0.78516000  0.09670000  1.0 -0.4494356216
N  N36  1  0.40303000  0.21484000  0.09670000  1.0 -0.4494356216
N  N37  1  0.78516000  0.40303000  0.90330000  1.0 -0.4494356216
N  N38  1  0.21484000  0.59697000  0.90330000  1.0 -0.4494356216
N  N39  1  0.90303000  0.71484000  0.40330000  1.0 -0.4494356216
N  N40  1  0.09697000  0.28516000  0.40330000  1.0 -0.4494356216
N  N41  1  0.79367000  0.16510000  0.68260000  1.0 -0.4195158718
N  N42  1  0.20633000  0.83490000  0.68260000  1.0 -0.4195158718
N  N43  1  0.66510000  0.70633000  0.18260000  1.0 -0.4195158718
N  N44  1  0.33490000  0.29367000  0.18260000  1.0 -0.4195158718
N  N45  1  0.70633000  0.33490000  0.81740000  1.0 -0.4195158718
N  N46  1  0.29367000  0.66510000  0.81740000  1.0 -0.4195158718
N  N47  1  0.83490000  0.79367000  0.31740000  1.0 -0.4195158718
N  N48  1  0.16510000  0.20633000  0.31740000  1.0 -0.4195158718
N  N49  1  0.80444000  0.27260000  0.59470000  1.0 -0.4494356216
N  N50  1  0.19556000  0.72740000  0.59470000  1.0 -0.4494356216
N  N51  1  0.77260000  0.69556000  0.09470000  1.0 -0.4494356216
N  N52  1  0.22740000  0.30444000  0.09470000  1.0 -0.4494356216
N  N53  1  0.69556000  0.22740000  0.90530000  1.0 -0.4494356216
N  N54  1  0.30444000  0.77260000  0.90530000  1.0 -0.4494356216
N  N55  1  0.72740000  0.80444000  0.40530000  1.0 -0.4494356216
N  N56  1  0.27260000  0.19556000  0.40530000  1.0 -0.4494356216
N  N57  1  0.73545000  0.30849000  0.42040000  1.0 -0.4494356216
N  N58  1  0.26455000  0.69151000  0.42040000  1.0 -0.4494356216
N  N59  1  0.80849000  0.76455000  0.92040000  1.0 -0.4494356216
N  N60  1  0.19151000  0.23545000  0.92040000  1.0 -0.4494356216
N  N61  1  0.76455000  0.19151000  0.07960000  1.0 -0.4494356216
N  N62  1  0.23545000  0.80849000  0.07960000  1.0 -0.4494356216
N  N63  1  0.69151000  0.73545000  0.57960000  1.0 -0.4494356216
N  N64  1  0.30849000  0.26455000  0.57960000  1.0 -0.4494356216
N  N65  1  0.65682000  0.23643000  0.32150000  1.0 -0.4034697352
N  N66  1  0.34318000  0.76357000  0.32150000  1.0 -0.4034697352
N  N67  1  0.73643000  0.84318000  0.82150000  1.0 -0.4034697352
N  N68  1  0.26357000  0.15682000  0.82150000  1.0 -0.4034697352
N  N69  1  0.84318000  0.26357000  0.17850000  1.0 -0.4034697352
N  N70  1  0.15682000  0.73643000  0.17850000  1.0 -0.4034697352
N  N71  1  0.76357000  0.65682000  0.67850000  1.0 -0.4034697352
N  N72  1  0.23643000  0.34318000  0.67850000  1.0 -0.4034697352
O  O1  1  0.84540000  0.03610000  0.77690000  1.0 -0.2670106305
O  O2  1  0.15460000  0.96390000  0.77690000  1.0 -0.2670106305
O  O3  1  0.53610000  0.65460000  0.27690000  1.0 -0.2670106305
O  O4  1  0.46390000  0.34540000  0.27690000  1.0 -0.2670106305
O  O5  1  0.65460000  0.46390000  0.72310000  1.0 -0.2670106305
O  O6  1  0.34540000  0.53610000  0.72310000  1.0 -0.2670106305
O  O7  1  0.96390000  0.84540000  0.22310000  1.0 -0.2670106305
O  O8  1  0.03610000  0.15460000  0.22310000  1.0 -0.2670106305
O  O9  1  0.87410000  0.04490000  0.91800000  1.0 -0.2492542876
O  O10  1  0.12590000  0.95510000  0.91800000  1.0 -0.2492542876
O  O11  1  0.54490000  0.62590000  0.41800000  1.0 -0.2492542876
O  O12  1  0.45510000  0.37410000  0.41800000  1.0 -0.2492542876
O  O13  1  0.62590000  0.45510000  0.58200000  1.0 -0.2492542876
O  O14  1  0.37410000  0.54490000  0.58200000  1.0 -0.2492542876
O  O15  1  0.95510000  0.87410000  0.08200000  1.0 -0.2492542876
O  O16  1  0.04490000  0.12590000  0.08200000  1.0 -0.2492542876
