# DDEC6 charges by PACMAN v1.1 (https://github.com/mtap-research/PACMAN-charge/)
data_SROXAL01_ASR_pacman
_symmetry_space_group_name_H-M   'P 1'
_cell_length_a   12.78270000
_cell_length_b   12.78270000
_cell_length_c   7.50500000
_cell_angle_alpha   90.00000000
_cell_angle_beta   90.00000000
_cell_angle_gamma   90.00000000
_symmetry_Int_Tables_number   1
_chemical_formula_structural   Sr(CO2)2
_chemical_formula_sum   'Sr8 C16 O32'
_cell_volume   1226.29763177
_cell_formula_units_Z   8
loop_
 _symmetry_equiv_pos_site_id
 _symmetry_equiv_pos_as_xyz
  1  'x, y, z'
loop_
 _atom_site_type_symbol
 _atom_site_label
 _atom_site_symmetry_multiplicity
 _atom_site_fract_x
 _atom_site_fract_y
 _atom_site_fract_z
 _atom_site_occupancy
 _atom_site_charge
Sr  Sr1  1  0.69849000  0.80369000  0.00000000  1.0 1.4263747675
Sr  Sr2  1  0.30151000  0.19631000  0.00000000  1.0 1.4263747675
Sr  Sr3  1  0.19631000  0.69849000  0.00000000  1.0 1.4263747675
Sr  Sr4  1  0.80369000  0.30151000  0.00000000  1.0 1.4263747675
Sr  Sr5  1  0.19849000  0.30369000  0.50000000  1.0 1.4263747675
Sr  Sr6  1  0.80151000  0.69631000  0.50000000  1.0 1.4263747675
Sr  Sr7  1  0.69631000  0.19849000  0.50000000  1.0 1.4263747675
Sr  Sr8  1  0.30369000  0.80151000  0.50000000  1.0 1.4263747675
C  C1  1  0.44674000  0.76079000  0.10379000  1.0 0.5109483195
C  C2  1  0.55326000  0.23921000  0.89621000  1.0 0.5109483195
C  C3  1  0.55326000  0.23921000  0.10379000  1.0 0.5109483195
C  C4  1  0.44674000  0.76079000  0.89621000  1.0 0.5109483195
C  C5  1  0.23921000  0.44674000  0.10379000  1.0 0.5109483195
C  C6  1  0.76079000  0.55326000  0.89621000  1.0 0.5109483195
C  C7  1  0.76079000  0.55326000  0.10379000  1.0 0.5109483195
C  C8  1  0.23921000  0.44674000  0.89621000  1.0 0.5109483195
C  C9  1  0.94674000  0.26079000  0.60379000  1.0 0.5109483195
C  C10  1  0.05326000  0.73921000  0.39621000  1.0 0.5109483195
C  C11  1  0.05326000  0.73921000  0.60379000  1.0 0.5109483195
C  C12  1  0.94674000  0.26079000  0.39621000  1.0 0.5109483195
C  C13  1  0.73921000  0.94674000  0.60379000  1.0 0.5109483195
C  C14  1  0.26079000  0.05326000  0.39621000  1.0 0.5109483195
C  C15  1  0.26079000  0.05326000  0.60379000  1.0 0.5109483195
C  C16  1  0.73921000  0.94674000  0.39621000  1.0 0.5109483195
O  O1  1  0.53435000  0.77323000  0.17860000  1.0 -0.5789305972
O  O2  1  0.46565000  0.22677000  0.82140000  1.0 -0.5789305972
O  O3  1  0.46565000  0.22677000  0.17860000  1.0 -0.5789305972
O  O4  1  0.53435000  0.77323000  0.82140000  1.0 -0.5789305972
O  O5  1  0.22677000  0.53435000  0.17860000  1.0 -0.5789305972
O  O6  1  0.77323000  0.46565000  0.82140000  1.0 -0.5789305972
O  O7  1  0.77323000  0.46565000  0.17860000  1.0 -0.5789305972
O  O8  1  0.22677000  0.53435000  0.82140000  1.0 -0.5789305972
O  O9  1  0.03435000  0.27323000  0.67860000  1.0 -0.5789305972
O  O10  1  0.96565000  0.72677000  0.32140000  1.0 -0.5789305972
O  O11  1  0.96565000  0.72677000  0.67860000  1.0 -0.5789305972
O  O12  1  0.03435000  0.27323000  0.32140000  1.0 -0.5789305972
O  O13  1  0.72677000  0.03435000  0.67860000  1.0 -0.5789305972
O  O14  1  0.27323000  0.96565000  0.32140000  1.0 -0.5789305972
O  O15  1  0.27323000  0.96565000  0.67860000  1.0 -0.5789305972
O  O16  1  0.72677000  0.03435000  0.32140000  1.0 -0.5789305972
O  O17  1  0.35779000  0.75392000  0.18334000  1.0 -0.6452051061
O  O18  1  0.64221000  0.24608000  0.81666000  1.0 -0.6452051061
O  O19  1  0.64221000  0.24608000  0.18334000  1.0 -0.6452051061
O  O20  1  0.35779000  0.75392000  0.81666000  1.0 -0.6452051061
O  O21  1  0.24608000  0.35779000  0.18334000  1.0 -0.6452051061
O  O22  1  0.75392000  0.64221000  0.81666000  1.0 -0.6452051061
O  O23  1  0.75392000  0.64221000  0.18334000  1.0 -0.6452051061
O  O24  1  0.24608000  0.35779000  0.81666000  1.0 -0.6452051061
O  O25  1  0.85779000  0.25392000  0.68334000  1.0 -0.6452051061
O  O26  1  0.14221000  0.74608000  0.31666000  1.0 -0.6452051061
O  O27  1  0.14221000  0.74608000  0.68334000  1.0 -0.6452051061
O  O28  1  0.85779000  0.25392000  0.31666000  1.0 -0.6452051061
O  O29  1  0.74608000  0.85779000  0.68334000  1.0 -0.6452051061
O  O30  1  0.25392000  0.14221000  0.31666000  1.0 -0.6452051061
O  O31  1  0.25392000  0.14221000  0.68334000  1.0 -0.6452051061
O  O32  1  0.74608000  0.85779000  0.31666000  1.0 -0.6452051061
