# DDEC6 charges by PACMAN v1.1 (https://github.com/mtap-research/PACMAN-charge/)
data_SUFHIM_FSR_pacman
_symmetry_space_group_name_H-M   'P 1'
_cell_length_a   17.59370000
_cell_length_b   17.59370000
_cell_length_c   17.59370000
_cell_angle_alpha   111.04700000
_cell_angle_beta   111.04700000
_cell_angle_gamma   111.04700000
_symmetry_Int_Tables_number   1
_chemical_formula_structural   Na2ZnH8(CO)12
_chemical_formula_sum   'Na12 Zn6 H48 C72 O72'
_cell_volume   3928.73143176
_cell_formula_units_Z   6
loop_
 _symmetry_equiv_pos_site_id
 _symmetry_equiv_pos_as_xyz
  1  'x, y, z'
loop_
 _atom_site_type_symbol
 _atom_site_label
 _atom_site_symmetry_multiplicity
 _atom_site_fract_x
 _atom_site_fract_y
 _atom_site_fract_z
 _atom_site_occupancy
 _atom_site_charge
Na  Na1  1  0.25000000  0.91502000  0.58498000  1.0 0.8695572489
Na  Na2  1  0.91503000  0.58498000  0.25000000  1.0 0.8695572489
Na  Na3  1  0.58498000  0.25000000  0.91503000  1.0 0.8695572489
Na  Na4  1  0.75000000  0.08498000  0.41503000  1.0 0.8695572489
Na  Na5  1  0.08498000  0.41503000  0.75000000  1.0 0.8695572489
Na  Na6  1  0.41503000  0.75000000  0.08498000  1.0 0.8695572489
Na  Na7  1  0.25000000  0.77093000  0.72907000  1.0 0.8177604947
Na  Na8  1  0.77093000  0.72907000  0.25000000  1.0 0.8177604947
Na  Na9  1  0.72907000  0.25000000  0.77093000  1.0 0.8177604947
Na  Na10  1  0.75000000  0.22907000  0.27093000  1.0 0.8177604947
Na  Na11  1  0.22907000  0.27093000  0.75000000  1.0 0.8177604947
Na  Na12  1  0.27093000  0.75000000  0.22907000  1.0 0.8177604947
Zn  Zn1  1  0.35019000  0.14981000  0.75000000  1.0 0.9090468162
Zn  Zn2  1  0.14981000  0.75000000  0.35019000  1.0 0.9090468162
Zn  Zn3  1  0.75000000  0.35019000  0.14981000  1.0 0.9090468162
Zn  Zn4  1  0.64981000  0.85019000  0.25000000  1.0 0.9090468162
Zn  Zn5  1  0.85019000  0.25000000  0.64981000  1.0 0.9090468162
Zn  Zn6  1  0.25000000  0.64981000  0.85019000  1.0 0.9090468162
H  H1  1  0.46780000  0.07640000  0.12780000  1.0 0.1219122284
H  H2  1  0.07640000  0.12780000  0.46780000  1.0 0.1219122284
H  H3  1  0.12780000  0.46780000  0.07640000  1.0 0.1219122284
H  H4  1  0.03220000  0.37220000  0.42360000  1.0 0.1219122284
H  H5  1  0.37220000  0.42360000  0.03220000  1.0 0.1219122284
H  H6  1  0.42360000  0.03220000  0.37220000  1.0 0.1219122284
H  H7  1  0.53220000  0.92360000  0.87220000  1.0 0.1219122284
H  H8  1  0.92360000  0.87220000  0.53220000  1.0 0.1219122284
H  H9  1  0.87220000  0.53220000  0.92360000  1.0 0.1219122284
H  H10  1  0.96780000  0.62780000  0.57640000  1.0 0.1219122284
H  H11  1  0.62780000  0.57640000  0.96780000  1.0 0.1219122284
H  H12  1  0.57640000  0.96780000  0.62780000  1.0 0.1219122284
H  H13  1  0.47560000  0.17480000  0.05370000  1.0 0.1454235858
H  H14  1  0.17480000  0.05370000  0.47560000  1.0 0.1454235858
H  H15  1  0.05370000  0.47560000  0.17480000  1.0 0.1454235858
H  H16  1  0.02440000  0.44630000  0.32520000  1.0 0.1454235858
H  H17  1  0.44630000  0.32520000  0.02440000  1.0 0.1454235858
H  H18  1  0.32520000  0.02440000  0.44630000  1.0 0.1454235858
H  H19  1  0.52440000  0.82520000  0.94630000  1.0 0.1454235858
H  H20  1  0.82520000  0.94630000  0.52440000  1.0 0.1454235858
H  H21  1  0.94630000  0.52440000  0.82520000  1.0 0.144810659
H  H22  1  0.97560000  0.55370000  0.67480000  1.0 0.1454235858
H  H23  1  0.55370000  0.67480000  0.97560000  1.0 0.1454235858
H  H24  1  0.67480000  0.97560000  0.55370000  1.0 0.1454235858
H  H25  1  0.37800000  0.76100000  0.71100000  1.0 0.3806854411
H  H26  1  0.76100000  0.71100000  0.37800000  1.0 0.3806854411
H  H27  1  0.71100000  0.37800000  0.76100000  1.0 0.3806854411
H  H28  1  0.12200000  0.78900000  0.73900000  1.0 0.3806854411
H  H29  1  0.78900000  0.73900000  0.12200000  1.0 0.3806854411
H  H30  1  0.73900000  0.12200000  0.78900000  1.0 0.3806854411
H  H31  1  0.62200000  0.23900000  0.28900000  1.0 0.3806854411
H  H32  1  0.23900000  0.28900000  0.62200000  1.0 0.3806854411
H  H33  1  0.28900000  0.62200000  0.23900000  1.0 0.3806854411
H  H34  1  0.87800000  0.21100000  0.26100000  1.0 0.3806854411
H  H35  1  0.21100000  0.26100000  0.87800000  1.0 0.3806854411
H  H36  1  0.26100000  0.87800000  0.21100000  1.0 0.3806854411
H  H37  1  0.38900000  0.84900000  0.71700000  1.0 0.3806854411
H  H38  1  0.84900000  0.71700000  0.38900000  1.0 0.3806854411
H  H39  1  0.71700000  0.38900000  0.84900000  1.0 0.3806854411
H  H40  1  0.11100000  0.78300000  0.65100000  1.0 0.3806854411
H  H41  1  0.78300000  0.65100000  0.11100000  1.0 0.3806854411
H  H42  1  0.65100000  0.11100000  0.78300000  1.0 0.3806854411
H  H43  1  0.61100000  0.15100000  0.28300000  1.0 0.3806854411
H  H44  1  0.15100000  0.28300000  0.61100000  1.0 0.3806854411
H  H45  1  0.28300000  0.61100000  0.15100000  1.0 0.3806854411
H  H46  1  0.88900000  0.21700000  0.34900000  1.0 0.3806854411
H  H47  1  0.21700000  0.34900000  0.88900000  1.0 0.3806854411
H  H48  1  0.34900000  0.88900000  0.21700000  1.0 0.3806854411
C  C1  1  0.37671000  0.05408000  0.83891000  1.0 0.5563364653
C  C2  1  0.05408000  0.83891000  0.37671000  1.0 0.5563364653
C  C3  1  0.83891000  0.37671000  0.05408000  1.0 0.5563364653
C  C4  1  0.12329000  0.66109000  0.44592000  1.0 0.5563364653
C  C5  1  0.66109000  0.44592000  0.12329000  1.0 0.5563364653
C  C6  1  0.44592000  0.12329000  0.66109000  1.0 0.5563364653
C  C7  1  0.62329000  0.94592000  0.16109000  1.0 0.5563364653
C  C8  1  0.94592000  0.16109000  0.62329000  1.0 0.5563364653
C  C9  1  0.16109000  0.62329000  0.94592000  1.0 0.5563364653
C  C10  1  0.87671000  0.33891000  0.55408000  1.0 0.5563364653
C  C11  1  0.33891000  0.55408000  0.87671000  1.0 0.5563364653
C  C12  1  0.55408000  0.87671000  0.33891000  1.0 0.5563364653
C  C13  1  0.36006000  0.86316000  0.97928000  1.0 0.5563364653
C  C14  1  0.86316000  0.97928000  0.36006000  1.0 0.5563364653
C  C15  1  0.97928000  0.36006000  0.86316000  1.0 0.5563364653
C  C16  1  0.13994000  0.52072000  0.63684000  1.0 0.5547517512
C  C17  1  0.52072000  0.63684000  0.13994000  1.0 0.5563364653
C  C18  1  0.63684000  0.13994000  0.52072000  1.0 0.5563364653
C  C19  1  0.63994000  0.13684000  0.02072000  1.0 0.5547517512
C  C20  1  0.13684000  0.02072000  0.63994000  1.0 0.5563364653
C  C21  1  0.02072000  0.63994000  0.13684000  1.0 0.5563364653
C  C22  1  0.86006000  0.47928000  0.36316000  1.0 0.5563364653
C  C23  1  0.47928000  0.36316000  0.86006000  1.0 0.5563364653
C  C24  1  0.36316000  0.86006000  0.47928000  1.0 0.5563364653
C  C25  1  0.38794000  0.95616000  0.98560000  1.0 0.0724407104
C  C26  1  0.95616000  0.98560000  0.38794000  1.0 0.0724407104
C  C27  1  0.98560000  0.38794000  0.95616000  1.0 0.0724407104
C  C28  1  0.11206000  0.51440000  0.54384000  1.0 0.0724407104
C  C29  1  0.51440000  0.54384000  0.11206000  1.0 0.0724407104
C  C30  1  0.54384000  0.11206000  0.51440000  1.0 0.0724407104
C  C31  1  0.61206000  0.04384000  0.01440000  1.0 0.0724407104
C  C32  1  0.04384000  0.01440000  0.61206000  1.0 0.0724407104
C  C33  1  0.01440000  0.61206000  0.04384000  1.0 0.0724407104
C  C34  1  0.88794000  0.48560000  0.45616000  1.0 0.0724407104
C  C35  1  0.48560000  0.45616000  0.88794000  1.0 0.0724407104
C  C36  1  0.45616000  0.88794000  0.48560000  1.0 0.0724407104
C  C37  1  0.44039000  0.05220000  0.06151000  1.0 -0.1890192319
C  C38  1  0.05220000  0.06151000  0.44039000  1.0 -0.1890192319
C  C39  1  0.06151000  0.44039000  0.05220000  1.0 -0.1890192319
C  C40  1  0.05961000  0.43849000  0.44780000  1.0 -0.1890192319
C  C41  1  0.43849000  0.44780000  0.05961000  1.0 -0.1890192319
C  C42  1  0.44780000  0.05961000  0.43849000  1.0 -0.1890192319
C  C43  1  0.55961000  0.94780000  0.93849000  1.0 -0.1890192319
C  C44  1  0.94780000  0.93849000  0.55961000  1.0 -0.1890192319
C  C45  1  0.93849000  0.55961000  0.94780000  1.0 -0.1890192319
C  C46  1  0.94039000  0.56151000  0.55220000  1.0 -0.1890192319
C  C47  1  0.56151000  0.55220000  0.94039000  1.0 -0.1890192319
C  C48  1  0.55220000  0.94039000  0.56151000  1.0 -0.1890192319
C  C49  1  0.44477000  0.10703000  0.02000000  1.0 -0.1599837648
C  C50  1  0.10703000  0.02000000  0.44477000  1.0 -0.1599837648
C  C51  1  0.02000000  0.44477000  0.10703000  1.0 -0.1599837648
C  C52  1  0.05523000  0.48000000  0.39297000  1.0 -0.1599837648
C  C53  1  0.48000000  0.39297000  0.05523000  1.0 -0.1599837648
C  C54  1  0.39297000  0.05523000  0.48000000  1.0 -0.1599837648
C  C55  1  0.55523000  0.89297000  0.98000000  1.0 -0.1599837648
C  C56  1  0.89297000  0.98000000  0.55523000  1.0 -0.1599837648
C  C57  1  0.98000000  0.55523000  0.89297000  1.0 -0.1599837648
C  C58  1  0.94477000  0.52000000  0.60703000  1.0 -0.1599837648
C  C59  1  0.52000000  0.60703000  0.94477000  1.0 -0.1599837648
C  C60  1  0.60703000  0.94477000  0.52000000  1.0 -0.1599837648
C  C61  1  0.39578000  0.04315000  0.92167000  1.0 0.081414412
C  C62  1  0.04315000  0.92167000  0.39578000  1.0 0.081414412
C  C63  1  0.92167000  0.39578000  0.04315000  1.0 0.081414412
C  C64  1  0.10422000  0.57833000  0.45685000  1.0 0.081414412
C  C65  1  0.57833000  0.45685000  0.10422000  1.0 0.081414412
C  C66  1  0.45685000  0.10422000  0.57833000  1.0 0.081414412
C  C67  1  0.60422000  0.95685000  0.07833000  1.0 0.081414412
C  C68  1  0.95685000  0.07833000  0.60422000  1.0 0.081414412
C  C69  1  0.07833000  0.60422000  0.95685000  1.0 0.081414412
C  C70  1  0.89578000  0.42167000  0.54315000  1.0 0.081414412
C  C71  1  0.42167000  0.54315000  0.89578000  1.0 0.081414412
C  C72  1  0.54315000  0.89578000  0.42167000  1.0 0.081414412
O  O1  1  0.40996000  0.14347000  0.86300000  1.0 -0.603931529
O  O2  1  0.14347000  0.86300000  0.40996000  1.0 -0.603931529
O  O3  1  0.86300000  0.40996000  0.14347000  1.0 -0.603931529
O  O4  1  0.09004000  0.63700000  0.35653000  1.0 -0.603931529
O  O5  1  0.63700000  0.35653000  0.09004000  1.0 -0.603931529
O  O6  1  0.35653000  0.09004000  0.63700000  1.0 -0.603931529
O  O7  1  0.59004000  0.85653000  0.13700000  1.0 -0.603931529
O  O8  1  0.85653000  0.13700000  0.59004000  1.0 -0.603931529
O  O9  1  0.13700000  0.59004000  0.85653000  1.0 -0.603931529
O  O10  1  0.90996000  0.36300000  0.64347000  1.0 -0.603931529
O  O11  1  0.36300000  0.64347000  0.90996000  1.0 -0.603931529
O  O12  1  0.64347000  0.90996000  0.36300000  1.0 -0.603931529
O  O13  1  0.33083000  0.98143000  0.75482000  1.0 -0.5906319049
O  O14  1  0.98143000  0.75482000  0.33083000  1.0 -0.5906319049
O  O15  1  0.75482000  0.33083000  0.98143000  1.0 -0.5906319049
O  O16  1  0.16917000  0.74518000  0.51857000  1.0 -0.5906319049
O  O17  1  0.74518000  0.51857000  0.16917000  1.0 -0.5906319049
O  O18  1  0.51857000  0.16917000  0.74518000  1.0 -0.5906319049
O  O19  1  0.66917000  0.01857000  0.24518000  1.0 -0.5906319049
O  O20  1  0.01857000  0.24518000  0.66917000  1.0 -0.5906319049
O  O21  1  0.24518000  0.66917000  0.01857000  1.0 -0.5906319049
O  O22  1  0.83083000  0.25482000  0.48143000  1.0 -0.5906319049
O  O23  1  0.25482000  0.48143000  0.83083000  1.0 -0.5906319049
O  O24  1  0.48143000  0.83083000  0.25482000  1.0 -0.5906319049
O  O25  1  0.30279000  0.78593000  0.89094000  1.0 -0.6178452498
O  O26  1  0.78593000  0.89094000  0.30279000  1.0 -0.6178452498
O  O27  1  0.89094000  0.30279000  0.78593000  1.0 -0.6178452498
O  O28  1  0.19721000  0.60906000  0.71407000  1.0 -0.6178452498
O  O29  1  0.60906000  0.71407000  0.19721000  1.0 -0.6178452498
O  O30  1  0.71407000  0.19721000  0.60906000  1.0 -0.6178452498
O  O31  1  0.69721000  0.21407000  0.10906000  1.0 -0.6178452498
O  O32  1  0.21407000  0.10906000  0.69721000  1.0 -0.6178452498
O  O33  1  0.10906000  0.69721000  0.21407000  1.0 -0.6178452498
O  O34  1  0.80279000  0.39094000  0.28593000  1.0 -0.6178452498
O  O35  1  0.39094000  0.28593000  0.80279000  1.0 -0.6178452498
O  O36  1  0.28593000  0.80279000  0.39094000  1.0 -0.6178452498
O  O37  1  0.39145000  0.86516000  0.05530000  1.0 -0.5596568015
O  O38  1  0.86516000  0.05530000  0.39145000  1.0 -0.5596568015
O  O39  1  0.05530000  0.39145000  0.86516000  1.0 -0.5596568015
O  O40  1  0.10855000  0.44470000  0.63484000  1.0 -0.5596568015
O  O41  1  0.44470000  0.63484000  0.10855000  1.0 -0.5596568015
O  O42  1  0.63484000  0.10855000  0.44470000  1.0 -0.5596568015
O  O43  1  0.60855000  0.13484000  0.94470000  1.0 -0.5596568015
O  O44  1  0.13484000  0.94470000  0.60855000  1.0 -0.5596568015
O  O45  1  0.94470000  0.60855000  0.13484000  1.0 -0.5596568015
O  O46  1  0.89145000  0.55530000  0.36516000  1.0 -0.5596568015
O  O47  1  0.55530000  0.36516000  0.89145000  1.0 -0.5596568015
O  O48  1  0.36516000  0.89145000  0.55530000  1.0 -0.5596568015
O  O49  1  0.36022000  0.94928000  0.89879000  1.0 -0.1599837648
O  O50  1  0.94928000  0.89879000  0.36022000  1.0 -0.1599837648
O  O51  1  0.89879000  0.36022000  0.94928000  1.0 -0.1599837648
O  O52  1  0.13978000  0.60121000  0.55072000  1.0 -0.1599837648
O  O53  1  0.60121000  0.55072000  0.13978000  1.0 -0.1599837648
O  O54  1  0.55072000  0.13978000  0.60121000  1.0 -0.1599837648
O  O55  1  0.63978000  0.05072000  0.10121000  1.0 -0.1599837648
O  O56  1  0.05072000  0.10121000  0.63978000  1.0 -0.1599837648
O  O57  1  0.10121000  0.63978000  0.05072000  1.0 -0.1599837648
O  O58  1  0.86022000  0.39879000  0.44928000  1.0 -0.1599837648
O  O59  1  0.39879000  0.44928000  0.86022000  1.0 -0.1599837648
O  O60  1  0.44928000  0.86022000  0.39879000  1.0 -0.1599837648
O  O61  1  0.36120000  0.79150000  0.68770000  1.0 -0.7120495862
O  O62  1  0.79150000  0.68770000  0.36120000  1.0 -0.7120495862
O  O63  1  0.68770000  0.36120000  0.79150000  1.0 -0.7120495862
O  O64  1  0.13880000  0.81230000  0.70850000  1.0 -0.7120495862
O  O65  1  0.81230000  0.70850000  0.13880000  1.0 -0.7120495862
O  O66  1  0.70850000  0.13880000  0.81230000  1.0 -0.7120495862
O  O67  1  0.63880000  0.20850000  0.31230000  1.0 -0.7120495862
O  O68  1  0.20850000  0.31230000  0.63880000  1.0 -0.7120495862
O  O69  1  0.31230000  0.63880000  0.20850000  1.0 -0.7120495862
O  O70  1  0.86120000  0.18770000  0.29150000  1.0 -0.7120495862
O  O71  1  0.18770000  0.29150000  0.86120000  1.0 -0.7120495862
O  O72  1  0.29150000  0.86120000  0.18770000  1.0 -0.7120495862
