# DDEC6 charges by PACMAN v1.1 (https://github.com/mtap-research/PACMAN-charge/)
data_SUGVUM_FSR_pacman
_symmetry_space_group_name_H-M   'P 1'
_cell_length_a   15.73760000
_cell_length_b   15.73760000
_cell_length_c   15.73760000
_cell_angle_alpha   99.31780000
_cell_angle_beta   99.31780000
_cell_angle_gamma   132.54600000
_symmetry_Int_Tables_number   1
_chemical_formula_structural   CuH14C20(NO)4
_chemical_formula_sum   'Cu4 H56 C80 N16 O16'
_cell_volume   2628.88451942
_cell_formula_units_Z   4
loop_
 _symmetry_equiv_pos_site_id
 _symmetry_equiv_pos_as_xyz
  1  'x, y, z'
loop_
 _atom_site_type_symbol
 _atom_site_label
 _atom_site_symmetry_multiplicity
 _atom_site_fract_x
 _atom_site_fract_y
 _atom_site_fract_z
 _atom_site_occupancy
 _atom_site_charge
Cu  Cu1  1  0.12500000  0.87500000  0.75000000  1.0 0.7514574584
Cu  Cu2  1  0.12500000  0.37500000  0.25000000  1.0 0.7514574584
Cu  Cu3  1  0.62500000  0.87500000  0.75000000  1.0 0.7514574584
Cu  Cu4  1  0.12500000  0.87500000  0.25000000  1.0 0.7514574584
H  H1  1  0.71440000  0.11370000  0.72270000  1.0 0.1206470076
H  H2  1  0.39100000  0.99170000  0.27730000  1.0 0.1206470076
H  H3  1  0.24170000  0.46440000  0.10070000  1.0 0.1206470076
H  H4  1  0.36370000  0.14100000  0.89930000  1.0 0.1206470076
H  H5  1  0.53560000  0.63630000  0.77730000  1.0 0.1206470076
H  H6  1  0.85900000  0.75830000  0.22270000  1.0 0.1206470076
H  H7  1  0.00830000  0.28560000  0.39930000  1.0 0.1206470076
H  H8  1  0.88630000  0.60900000  0.60070000  1.0 0.1206470076
H  H9  1  0.78480000  0.07610000  0.95750000  1.0 0.1400654223
H  H10  1  0.11860000  0.82730000  0.04250000  1.0 0.1400654223
H  H11  1  0.07730000  0.53480000  0.20870000  1.0 0.1400654223
H  H12  1  0.32610000  0.86860000  0.79130000  1.0 0.1400654223
H  H13  1  0.46520000  0.67390000  0.54250000  1.0 0.1400654223
H  H14  1  0.13140000  0.92270000  0.45750000  1.0 0.1400654223
H  H15  1  0.17270000  0.21520000  0.29130000  1.0 0.1400654223
H  H16  1  0.92390000  0.88140000  0.70870000  1.0 0.1400654223
H  H17  1  0.89780000  0.29290000  0.99610000  1.0 0.1313287923
H  H18  1  0.29680000  0.90170000  0.00390000  1.0 0.1313287923
H  H19  1  0.15170000  0.64780000  0.10490000  1.0 0.1313287923
H  H20  1  0.54290000  0.04680000  0.89510000  1.0 0.1313287923
H  H21  1  0.35220000  0.45710000  0.50390000  1.0 0.1313287923
H  H22  1  0.95320000  0.84830000  0.49610000  1.0 0.1313287923
H  H23  1  0.09830000  0.10220000  0.39510000  1.0 0.1313287923
H  H24  1  0.70710000  0.70320000  0.60490000  1.0 0.1313287923
H  H25  1  0.85600000  0.41470000  0.95590000  1.0 0.1206470076
H  H26  1  0.45880000  0.90010000  0.04410000  1.0 0.1206470076
H  H27  1  0.15010000  0.60600000  0.94130000  1.0 0.1206470076
H  H28  1  0.66470000  0.20880000  0.05870000  1.0 0.1206470076
H  H29  1  0.39400000  0.33530000  0.54410000  1.0 0.1206470076
H  H30  1  0.79120000  0.84990000  0.45590000  1.0 0.1206470076
H  H31  1  0.09990000  0.14400000  0.55870000  1.0 0.1206470076
H  H32  1  0.58530000  0.54120000  0.44130000  1.0 0.1206470076
H  H33  1  0.93680000  0.59860000  0.93980000  1.0 0.1206470076
H  H34  1  0.65880000  0.99700000  0.06020000  1.0 0.1206470076
H  H35  1  0.24700000  0.68680000  0.83820000  1.0 0.1206470076
H  H36  1  0.84860000  0.40880000  0.16180000  1.0 0.1206470076
H  H37  1  0.31320000  0.15140000  0.56020000  1.0 0.1206470076
H  H38  1  0.59120000  0.75300000  0.43980000  1.0 0.1206470076
H  H39  1  0.00300000  0.06320000  0.66180000  1.0 0.1206470076
H  H40  1  0.40140000  0.34120000  0.33820000  1.0 0.1206470076
H  H41  1  0.98070000  0.50900000  0.71130000  1.0 0.1206470076
H  H42  1  0.79770000  0.26940000  0.28870000  1.0 0.1206470076
H  H43  1  0.51940000  0.73070000  0.97170000  1.0 0.1206470076
H  H44  1  0.75900000  0.54770000  0.02830000  1.0 0.1206470076
H  H45  1  0.26930000  0.24100000  0.78870000  1.0 0.1206470076
H  H46  1  0.45230000  0.48060000  0.21130000  1.0 0.1206470076
H  H47  1  0.73060000  0.01930000  0.52830000  1.0 0.1206470076
H  H48  1  0.49100000  0.20230000  0.47170000  1.0 0.1206470076
H  H49  1  0.89820000  0.32560000  0.72580000  1.0 0.1313287923
H  H50  1  0.59980000  0.17240000  0.27420000  1.0 0.1313287923
H  H51  1  0.42240000  0.64820000  0.07260000  1.0 0.1313287923
H  H52  1  0.57560000  0.34980000  0.92740000  1.0 0.1313287923
H  H53  1  0.35180000  0.42440000  0.77420000  1.0 0.1313287923
H  H54  1  0.65020000  0.57760000  0.22580000  1.0 0.1313287923
H  H55  1  0.82760000  0.10180000  0.42740000  1.0 0.1313287923
H  H56  1  0.67440000  0.40020000  0.57260000  1.0 0.1313287923
C  C1  1  0.74610000  0.13090000  0.78540000  1.0 0.089581674
C  C2  1  0.34550000  0.96070000  0.21460000  1.0 0.089581674
C  C3  1  0.21070000  0.49610000  0.11520000  1.0 0.089581674
C  C4  1  0.38090000  0.09550000  0.88480000  1.0 0.089581674
C  C5  1  0.50390000  0.61910000  0.71460000  1.0 0.089581674
C  C6  1  0.90450000  0.78930000  0.28540000  1.0 0.089581674
C  C7  1  0.03930000  0.25390000  0.38480000  1.0 0.089581674
C  C8  1  0.86910000  0.65450000  0.61520000  1.0 0.089581674
C  C9  1  0.78500000  0.11100000  0.91500000  1.0 -0.0202504011
C  C10  1  0.19600000  0.87000000  0.08500000  1.0 -0.0202504011
C  C11  1  0.12000000  0.53500000  0.17400000  1.0 -0.0202504011
C  C12  1  0.36100000  0.94600000  0.82600000  1.0 -0.0202504011
C  C13  1  0.46500000  0.63900000  0.58500000  1.0 -0.0202504011
C  C14  1  0.05400000  0.88000000  0.41500000  1.0 -0.0202504011
C  C15  1  0.13000000  0.21500000  0.32600000  1.0 -0.0202504011
C  C16  1  0.88900000  0.80400000  0.67400000  1.0 -0.0202504011
C  C17  1  0.84810000  0.23100000  0.93710000  1.0 -0.090004067
C  C18  1  0.29390000  0.91100000  0.06290000  1.0 -0.090004067
C  C19  1  0.16100000  0.59810000  0.11710000  1.0 -0.090004067
C  C20  1  0.48100000  0.04390000  0.88290000  1.0 -0.090004067
C  C21  1  0.40190000  0.51900000  0.56290000  1.0 -0.090004067
C  C22  1  0.95610000  0.83900000  0.43710000  1.0 -0.090004067
C  C23  1  0.08900000  0.15190000  0.38290000  1.0 -0.090004067
C  C24  1  0.76900000  0.70610000  0.61710000  1.0 -0.090004067
C  C25  1  0.87020000  0.35440000  0.84160000  1.0 0.152821755
C  C26  1  0.51280000  0.02860000  0.15840000  1.0 0.152821755
C  C27  1  0.27860000  0.62020000  0.01580000  1.0 0.152821755
C  C28  1  0.60440000  0.26280000  0.98420000  1.0 0.152821755
C  C29  1  0.37980000  0.39560000  0.65840000  1.0 0.152821755
C  C30  1  0.73720000  0.72140000  0.34160000  1.0 0.152821755
C  C31  1  0.97140000  0.12980000  0.48420000  1.0 0.152821755
C  C32  1  0.64560000  0.48720000  0.51580000  1.0 0.152821755
C  C33  1  0.88080000  0.43390000  0.90650000  1.0 -0.1777407546
C  C34  1  0.52740000  0.97430000  0.09350000  1.0 -0.1777407546
C  C35  1  0.22430000  0.63080000  0.94690000  1.0 -0.1777407546
C  C36  1  0.68390000  0.27740000  0.05310000  1.0 -0.1777407546
C  C37  1  0.36920000  0.31610000  0.59350000  1.0 -0.1777407546
C  C38  1  0.72260000  0.77570000  0.40650000  1.0 -0.1777407546
C  C39  1  0.02570000  0.11920000  0.55310000  1.0 -0.1777407546
C  C40  1  0.56610000  0.47260000  0.44690000  1.0 -0.1777407546
C  C41  1  0.92950000  0.54410000  0.89660000  1.0 -0.090004067
C  C42  1  0.64750000  0.03290000  0.10340000  1.0 -0.090004067
C  C43  1  0.28290000  0.67950000  0.88540000  1.0 -0.090004067
C  C44  1  0.79410000  0.39750000  0.11460000  1.0 -0.090004067
C  C45  1  0.32050000  0.20590000  0.60340000  1.0 -0.090004067
C  C46  1  0.60250000  0.71710000  0.39660000  1.0 -0.090004067
C  C47  1  0.96710000  0.07050000  0.61460000  1.0 -0.090004067
C  C48  1  0.45590000  0.35250000  0.38540000  1.0 -0.090004067
C  C49  1  0.96650000  0.57290000  0.82480000  1.0 -0.0202504011
C  C50  1  0.74810000  0.14170000  0.17520000  1.0 -0.0202504011
C  C51  1  0.39170000  0.71650000  0.89360000  1.0 -0.0202504011
C  C52  1  0.82290000  0.49810000  0.10640000  1.0 -0.0202504011
C  C53  1  0.28350000  0.17710000  0.67520000  1.0 -0.0202504011
C  C54  1  0.50190000  0.60830000  0.32480000  1.0 -0.0202504011
C  C55  1  0.85830000  0.03350000  0.60640000  1.0 -0.0202504011
C  C56  1  0.42710000  0.25190000  0.39360000  1.0 -0.0202504011
C  C57  1  0.95500000  0.49000000  0.76040000  1.0 -0.09730299
C  C58  1  0.72960000  0.19460000  0.23960000  1.0 -0.09730299
C  C59  1  0.44460000  0.70500000  0.96500000  1.0 -0.09730299
C  C60  1  0.74000000  0.47960000  0.03500000  1.0 -0.09730299
C  C61  1  0.29500000  0.26000000  0.73960000  1.0 -0.09730299
C  C62  1  0.52040000  0.55540000  0.26040000  1.0 -0.09730299
C  C63  1  0.80540000  0.04500000  0.53500000  1.0 -0.09730299
C  C64  1  0.51000000  0.27040000  0.46500000  1.0 -0.09730299
C  C65  1  0.90630000  0.38080000  0.76910000  1.0 -0.1777407546
C  C66  1  0.61170000  0.13720000  0.23090000  1.0 -0.1777407546
C  C67  1  0.38720000  0.65630000  0.02550000  1.0 -0.1777407546
C  C68  1  0.63080000  0.36170000  0.97450000  1.0 -0.1777407546
C  C69  1  0.34370000  0.36920000  0.73090000  1.0 -0.1777407546
C  C70  1  0.63830000  0.61280000  0.26910000  1.0 -0.1777407546
C  C71  1  0.86280000  0.09370000  0.47450000  1.0 -0.1777407546
C  C72  1  0.61920000  0.38830000  0.52550000  1.0 -0.1777407546
C  C73  1  0.02510000  0.69490000  0.81600000  1.0 0.5357410964
C  C74  1  0.87890000  0.20910000  0.18400000  1.0 0.5357410964
C  C75  1  0.45910000  0.77510000  0.83020000  1.0 0.5357410964
C  C76  1  0.94490000  0.62890000  0.16980000  1.0 0.5357410964
C  C77  1  0.22490000  0.05510000  0.68400000  1.0 0.5357410964
C  C78  1  0.37110000  0.54090000  0.31600000  1.0 0.5357410964
C  C79  1  0.79090000  0.97490000  0.66980000  1.0 0.5357410964
C  C80  1  0.30510000  0.12110000  0.33020000  1.0 0.5357410964
N  N1  1  0.72150000  0.04800000  0.82130000  1.0 -0.2854255568
N  N2  1  0.22670000  0.90020000  0.17870000  1.0 -0.2854255568
N  N3  1  0.15020000  0.47150000  0.17350000  1.0 -0.2854255568
N  N4  1  0.29800000  0.97670000  0.82650000  1.0 -0.2854255568
N  N5  1  0.52850000  0.70200000  0.67870000  1.0 -0.2854255568
N  N6  1  0.02330000  0.84980000  0.32130000  1.0 -0.2854255568
N  N7  1  0.09980000  0.27850000  0.32650000  1.0 -0.2854255568
N  N8  1  0.95200000  0.77330000  0.67350000  1.0 -0.2854255568
N  N9  1  0.82410000  0.24340000  0.85450000  1.0 0.0092027023
N  N10  1  0.38890000  0.96960000  0.14550000  1.0 0.0092027023
N  N11  1  0.21960000  0.57410000  0.08070000  1.0 0.0092027023
N  N12  1  0.49340000  0.13890000  0.91930000  1.0 0.0092027023
N  N13  1  0.42590000  0.50660000  0.64550000  1.0 0.0092027023
N  N14  1  0.86110000  0.78040000  0.35450000  1.0 0.0092027023
N  N15  1  0.03040000  0.17590000  0.41930000  1.0 0.0092027023
N  N16  1  0.75660000  0.61110000  0.58070000  1.0 0.0092027023
O  O1  1  0.07590000  0.72570000  0.75860000  1.0 -0.5139572043
O  O2  1  0.96710000  0.31730000  0.24140000  1.0 -0.5139572043
O  O3  1  0.56730000  0.82590000  0.85020000  1.0 -0.5139572043
O  O4  1  0.97570000  0.71710000  0.14980000  1.0 -0.5139572043
O  O5  1  0.17410000  0.02430000  0.74140000  1.0 -0.5139572043
O  O6  1  0.28290000  0.43270000  0.25860000  1.0 -0.5139572043
O  O7  1  0.68270000  0.92410000  0.64980000  1.0 -0.5139572043
O  O8  1  0.27430000  0.03290000  0.35020000  1.0 -0.5139572043
O  O9  1  0.01690000  0.75670000  0.86920000  1.0 -0.5757107977
O  O10  1  0.88750000  0.14770000  0.13080000  1.0 -0.5757107977
O  O11  1  0.39770000  0.76690000  0.76020000  1.0 -0.5757107977
O  O12  1  0.00670000  0.63750000  0.23980000  1.0 -0.5757107977
O  O13  1  0.23310000  0.99330000  0.63080000  1.0 -0.5757107977
O  O14  1  0.36250000  0.60230000  0.36920000  1.0 -0.5757107977
O  O15  1  0.85230000  0.98310000  0.73980000  1.0 -0.5757107977
O  O16  1  0.24330000  0.11250000  0.26020000  1.0 -0.5757107977
