# DDEC6 charges by PACMAN v1.1 (https://github.com/mtap-research/PACMAN-charge/)
data_SUJNUH_FSR_pacman
_symmetry_space_group_name_H-M   'P 1'
_cell_length_a   20.53900000
_cell_length_b   20.53900000
_cell_length_c   6.99940000
_cell_angle_alpha   90.00000000
_cell_angle_beta   90.00000000
_cell_angle_gamma   90.00000000
_symmetry_Int_Tables_number   1
_chemical_formula_structural   CuH6C12O5
_chemical_formula_sum   'Cu8 H48 C96 O40'
_cell_volume   2952.70053669
_cell_formula_units_Z   8
loop_
 _symmetry_equiv_pos_site_id
 _symmetry_equiv_pos_as_xyz
  1  'x, y, z'
loop_
 _atom_site_type_symbol
 _atom_site_label
 _atom_site_symmetry_multiplicity
 _atom_site_fract_x
 _atom_site_fract_y
 _atom_site_fract_z
 _atom_site_occupancy
 _atom_site_charge
Cu  Cu1  1  0.72609000  0.73103000  0.08626000  1.0 0.8502135199
Cu  Cu2  1  0.27391000  0.26897000  0.08626000  1.0 0.8502135199
Cu  Cu3  1  0.23103000  0.77391000  0.58626000  1.0 0.8502135199
Cu  Cu4  1  0.76897000  0.22609000  0.58626000  1.0 0.8502135199
Cu  Cu5  1  0.77391000  0.76897000  0.41374000  1.0 0.8502135199
Cu  Cu6  1  0.22609000  0.23103000  0.41374000  1.0 0.8502135199
Cu  Cu7  1  0.26897000  0.72609000  0.91374000  1.0 0.8502135199
Cu  Cu8  1  0.73103000  0.27391000  0.91374000  1.0 0.8502135199
H  H1  1  0.72200000  0.57830000  0.68280000  1.0 0.1357356084
H  H2  1  0.27800000  0.42170000  0.68280000  1.0 0.1357356084
H  H3  1  0.07830000  0.77800000  0.18280000  1.0 0.1357356084
H  H4  1  0.92170000  0.22200000  0.18280000  1.0 0.1357356084
H  H5  1  0.77800000  0.92170000  0.81720000  1.0 0.1357356084
H  H6  1  0.22200000  0.07830000  0.81720000  1.0 0.1357356084
H  H7  1  0.42170000  0.72200000  0.31720000  1.0 0.1357356084
H  H8  1  0.57830000  0.27800000  0.31720000  1.0 0.1357356084
H  H9  1  0.72180000  0.46810000  0.77440000  1.0 0.1268399827
H  H10  1  0.27820000  0.53190000  0.77440000  1.0 0.1268399827
H  H11  1  0.96810000  0.77820000  0.27440000  1.0 0.1268399827
H  H12  1  0.03190000  0.22180000  0.27440000  1.0 0.1268399827
H  H13  1  0.77820000  0.03190000  0.72560000  1.0 0.1268399827
H  H14  1  0.22180000  0.96810000  0.72560000  1.0 0.1268399827
H  H15  1  0.53190000  0.72180000  0.22560000  1.0 0.1268399827
H  H16  1  0.46810000  0.27820000  0.22560000  1.0 0.1268399827
H  H17  1  0.84300000  0.36330000  0.29350000  1.0 0.1268399827
H  H18  1  0.15700000  0.63670000  0.29350000  1.0 0.1268399827
H  H19  1  0.86330000  0.65700000  0.79350000  1.0 0.1268399827
H  H20  1  0.13670000  0.34300000  0.79350000  1.0 0.1268399827
H  H21  1  0.65700000  0.13670000  0.20650000  1.0 0.1268399827
H  H22  1  0.34300000  0.86330000  0.20650000  1.0 0.1268399827
H  H23  1  0.63670000  0.84300000  0.70650000  1.0 0.1268399827
H  H24  1  0.36330000  0.15700000  0.70650000  1.0 0.1268399827
H  H25  1  0.89600000  0.39820000  0.02280000  1.0 0.1102666554
H  H26  1  0.10400000  0.60180000  0.02280000  1.0 0.1102666554
H  H27  1  0.89820000  0.60400000  0.52280000  1.0 0.1102666554
H  H28  1  0.10180000  0.39600000  0.52280000  1.0 0.1102666554
H  H29  1  0.60400000  0.10180000  0.47720000  1.0 0.1102666554
H  H30  1  0.39600000  0.89820000  0.47720000  1.0 0.1102666554
H  H31  1  0.60180000  0.89600000  0.97720000  1.0 0.1102666554
H  H32  1  0.39820000  0.10400000  0.97720000  1.0 0.1102666554
H  H33  1  0.88940000  0.50770000  0.92410000  1.0 0.1163789627
H  H34  1  0.11060000  0.49230000  0.92410000  1.0 0.1163789627
H  H35  1  0.00770000  0.61060000  0.42410000  1.0 0.1163789627
H  H36  1  0.99230000  0.38940000  0.42410000  1.0 0.1163789627
H  H37  1  0.61060000  0.99230000  0.57590000  1.0 0.1163789627
H  H38  1  0.38940000  0.00770000  0.57590000  1.0 0.1163789627
H  H39  1  0.49230000  0.88940000  0.07590000  1.0 0.1163789627
H  H40  1  0.50770000  0.11060000  0.07590000  1.0 0.1163789627
H  H41  1  0.82910000  0.58130000  0.09900000  1.0 0.1268399827
H  H42  1  0.17090000  0.41870000  0.09900000  1.0 0.1268399827
H  H43  1  0.08130000  0.67090000  0.59900000  1.0 0.1268399827
H  H44  1  0.91870000  0.32910000  0.59900000  1.0 0.1268399827
H  H45  1  0.67090000  0.91870000  0.40100000  1.0 0.1268399827
H  H46  1  0.32910000  0.08130000  0.40100000  1.0 0.1268399827
H  H47  1  0.41870000  0.82910000  0.90100000  1.0 0.1268399827
H  H48  1  0.58130000  0.17090000  0.90100000  1.0 0.1268399827
C  C1  1  0.76568000  0.56400000  0.42760000  1.0 -0.060263318
C  C2  1  0.23432000  0.43600000  0.42760000  1.0 -0.060263318
C  C3  1  0.06400000  0.73432000  0.92760000  1.0 -0.060263318
C  C4  1  0.93600000  0.26568000  0.92760000  1.0 -0.060263318
C  C5  1  0.73432000  0.93600000  0.07240000  1.0 -0.060263318
C  C6  1  0.26568000  0.06400000  0.07240000  1.0 -0.060263318
C  C7  1  0.43600000  0.76568000  0.57240000  1.0 -0.060263318
C  C8  1  0.56400000  0.23432000  0.57240000  1.0 -0.060263318
C  C9  1  0.74024000  0.54628000  0.60070000  1.0 -0.1108768868
C  C10  1  0.25976000  0.45372000  0.60070000  1.0 -0.1108768868
C  C11  1  0.04628000  0.75976000  0.10070000  1.0 -0.1108768868
C  C12  1  0.95372000  0.24024000  0.10070000  1.0 -0.1108768868
C  C13  1  0.75976000  0.95372000  0.89930000  1.0 -0.1150689351
C  C14  1  0.24024000  0.04628000  0.89930000  1.0 -0.1108768868
C  C15  1  0.45372000  0.74024000  0.39930000  1.0 -0.1150689351
C  C16  1  0.54628000  0.25976000  0.39930000  1.0 -0.1108768868
C  C17  1  0.74116000  0.48034000  0.65650000  1.0 -0.1108768868
C  C18  1  0.25884000  0.51966000  0.65650000  1.0 -0.1049245673
C  C19  1  0.98034000  0.75884000  0.15650000  1.0 -0.1049245673
C  C20  1  0.01966000  0.24116000  0.15650000  1.0 -0.1049245673
C  C21  1  0.75884000  0.01966000  0.84350000  1.0 -0.1108768868
C  C22  1  0.24116000  0.98034000  0.84350000  1.0 -0.1108768868
C  C23  1  0.51966000  0.74116000  0.34350000  1.0 -0.1108768868
C  C24  1  0.48034000  0.25884000  0.34350000  1.0 -0.1049245673
C  C25  1  0.76958000  0.43323000  0.54390000  1.0 -0.060263318
C  C26  1  0.23042000  0.56677000  0.54390000  1.0 -0.060263318
C  C27  1  0.93323000  0.73042000  0.04390000  1.0 -0.060263318
C  C28  1  0.06677000  0.26958000  0.04390000  1.0 -0.060263318
C  C29  1  0.73042000  0.06677000  0.95610000  1.0 -0.060263318
C  C30  1  0.26958000  0.93323000  0.95610000  1.0 -0.060263318
C  C31  1  0.56677000  0.76958000  0.45610000  1.0 -0.060263318
C  C32  1  0.43323000  0.23042000  0.45610000  1.0 -0.060263318
C  C33  1  0.83979000  0.40772000  0.25650000  1.0 -0.1254536959
C  C34  1  0.16021000  0.59228000  0.25650000  1.0 -0.1254536959
C  C35  1  0.90772000  0.66021000  0.75650000  1.0 -0.1254536959
C  C36  1  0.09228000  0.33979000  0.75650000  1.0 -0.1254536959
C  C37  1  0.66021000  0.09228000  0.24350000  1.0 -0.1254536959
C  C38  1  0.33979000  0.90772000  0.24350000  1.0 -0.1254536959
C  C39  1  0.59228000  0.83979000  0.74350000  1.0 -0.1254536959
C  C40  1  0.40772000  0.16021000  0.74350000  1.0 -0.1254536959
C  C41  1  0.87122000  0.42831000  0.09570000  1.0 -0.080849564
C  C42  1  0.12878000  0.57169000  0.09570000  1.0 -0.080849564
C  C43  1  0.92831000  0.62878000  0.59570000  1.0 -0.080849564
C  C44  1  0.07169000  0.37122000  0.59570000  1.0 -0.080849564
C  C45  1  0.62878000  0.07169000  0.40430000  1.0 -0.080849564
C  C46  1  0.37122000  0.92831000  0.40430000  1.0 -0.080849564
C  C47  1  0.57169000  0.87122000  0.90430000  1.0 -0.080849564
C  C48  1  0.42831000  0.12878000  0.90430000  1.0 -0.080849564
C  C49  1  0.86735000  0.49390000  0.03630000  1.0 -0.086831677
C  C50  1  0.13265000  0.50610000  0.03630000  1.0 -0.086831677
C  C51  1  0.99390000  0.63265000  0.53630000  1.0 -0.086831677
C  C52  1  0.00610000  0.36735000  0.53630000  1.0 -0.086831677
C  C53  1  0.63265000  0.00610000  0.46370000  1.0 -0.086831677
C  C54  1  0.36735000  0.99390000  0.46370000  1.0 -0.086831677
C  C55  1  0.50610000  0.86735000  0.96370000  1.0 -0.086831677
C  C56  1  0.49390000  0.13265000  0.96370000  1.0 -0.086831677
C  C57  1  0.83191000  0.53736000  0.14040000  1.0 -0.1377209651
C  C58  1  0.16809000  0.46264000  0.14040000  1.0 -0.1377209651
C  C59  1  0.03736000  0.66809000  0.64040000  1.0 -0.1377209651
C  C60  1  0.96264000  0.33191000  0.64040000  1.0 -0.1377209651
C  C61  1  0.66809000  0.96264000  0.35960000  1.0 -0.1377209651
C  C62  1  0.33191000  0.03736000  0.35960000  1.0 -0.1377209651
C  C63  1  0.46264000  0.83191000  0.85960000  1.0 -0.1377209651
C  C64  1  0.53736000  0.16809000  0.85960000  1.0 -0.1377209651
C  C65  1  0.79902000  0.51798000  0.31010000  1.0 0.0504217071
C  C66  1  0.20098000  0.48202000  0.31010000  1.0 0.0504217071
C  C67  1  0.01798000  0.70098000  0.81010000  1.0 0.0504217071
C  C68  1  0.98202000  0.29902000  0.81010000  1.0 0.0504217071
C  C69  1  0.70098000  0.98202000  0.18990000  1.0 0.0504217071
C  C70  1  0.29902000  0.01798000  0.18990000  1.0 0.0504217071
C  C71  1  0.48202000  0.79902000  0.68990000  1.0 0.0504217071
C  C72  1  0.51798000  0.20098000  0.68990000  1.0 0.0504217071
C  C73  1  0.80233000  0.45121000  0.37000000  1.0 0.0620902029
C  C74  1  0.19767000  0.54879000  0.37000000  1.0 0.0620902029
C  C75  1  0.95121000  0.69767000  0.87000000  1.0 0.0620902029
C  C76  1  0.04879000  0.30233000  0.87000000  1.0 0.0620902029
C  C77  1  0.69767000  0.04879000  0.13000000  1.0 0.0620902029
C  C78  1  0.30233000  0.95121000  0.13000000  1.0 0.0620902029
C  C79  1  0.54879000  0.80233000  0.63000000  1.0 0.0620902029
C  C80  1  0.45121000  0.19767000  0.63000000  1.0 0.0620902029
C  C81  1  0.75810000  0.63381000  0.36690000  1.0 0.5515023244
C  C82  1  0.24190000  0.36619000  0.36690000  1.0 0.5515023244
C  C83  1  0.13381000  0.74190000  0.86690000  1.0 0.5515023244
C  C84  1  0.86619000  0.25810000  0.86690000  1.0 0.5515023244
C  C85  1  0.74190000  0.86619000  0.13310000  1.0 0.5515023244
C  C86  1  0.25810000  0.13381000  0.13310000  1.0 0.5515023244
C  C87  1  0.36619000  0.75810000  0.63310000  1.0 0.5515023244
C  C88  1  0.63381000  0.24190000  0.63310000  1.0 0.5515023244
C  C89  1  0.76263000  0.36429000  0.61520000  1.0 0.5560652685
C  C90  1  0.23737000  0.63571000  0.61520000  1.0 0.5560652685
C  C91  1  0.86429000  0.73737000  0.11520000  1.0 0.5560652685
C  C92  1  0.13571000  0.26263000  0.11520000  1.0 0.5560652685
C  C93  1  0.73737000  0.13571000  0.88480000  1.0 0.5560652685
C  C94  1  0.26263000  0.86429000  0.88480000  1.0 0.5560652685
C  C95  1  0.63571000  0.76263000  0.38480000  1.0 0.5560652685
C  C96  1  0.36429000  0.23737000  0.38480000  1.0 0.5560652685
O  O1  1  0.73512000  0.64410000  0.20160000  1.0 -0.5190453458
O  O2  1  0.26488000  0.35590000  0.20160000  1.0 -0.5190453458
O  O3  1  0.14410000  0.76488000  0.70160000  1.0 -0.5190453458
O  O4  1  0.85590000  0.23512000  0.70160000  1.0 -0.5190453458
O  O5  1  0.76488000  0.85590000  0.29840000  1.0 -0.5190453458
O  O6  1  0.23512000  0.14410000  0.29840000  1.0 -0.5190453458
O  O7  1  0.35590000  0.73512000  0.79840000  1.0 -0.5190453458
O  O8  1  0.64410000  0.26488000  0.79840000  1.0 -0.5190453458
O  O9  1  0.77481000  0.67656000  0.48450000  1.0 -0.4791651594
O  O10  1  0.22519000  0.32344000  0.48450000  1.0 -0.4791651594
O  O11  1  0.17656000  0.72519000  0.98450000  1.0 -0.4791651594
O  O12  1  0.82344000  0.27481000  0.98450000  1.0 -0.4791651594
O  O13  1  0.72519000  0.82344000  0.01550000  1.0 -0.4791651594
O  O14  1  0.27481000  0.17656000  0.01550000  1.0 -0.4791651594
O  O15  1  0.32344000  0.77481000  0.51550000  1.0 -0.4791651594
O  O16  1  0.67656000  0.22519000  0.51550000  1.0 -0.4791651594
O  O17  1  0.77382000  0.31749000  0.50080000  1.0 -0.4884146082
O  O18  1  0.22618000  0.68251000  0.50080000  1.0 -0.4884146082
O  O19  1  0.81749000  0.72618000  0.00080000  1.0 -0.4884146082
O  O20  1  0.18251000  0.27382000  0.00080000  1.0 -0.4884146082
O  O21  1  0.72618000  0.18251000  0.99920000  1.0 -0.4884146082
O  O22  1  0.27382000  0.81749000  0.99920000  1.0 -0.4884146082
O  O23  1  0.68251000  0.77382000  0.49920000  1.0 -0.4884146082
O  O24  1  0.31749000  0.22618000  0.49920000  1.0 -0.4884146082
O  O25  1  0.74463000  0.35741000  0.78470000  1.0 -0.5190453458
O  O26  1  0.25537000  0.64259000  0.78470000  1.0 -0.5190453458
O  O27  1  0.85741000  0.75537000  0.28470000  1.0 -0.5190453458
O  O28  1  0.14259000  0.24463000  0.28470000  1.0 -0.5190453458
O  O29  1  0.75537000  0.14259000  0.71530000  1.0 -0.5190453458
O  O30  1  0.24463000  0.85741000  0.71530000  1.0 -0.5190453458
O  O31  1  0.64259000  0.74463000  0.21530000  1.0 -0.5190453458
O  O32  1  0.35741000  0.25537000  0.21530000  1.0 -0.5190453458
O  O33  1  0.68149000  0.69535000  0.83300000  1.0 -0.0368847818
O  O34  1  0.31851000  0.30465000  0.83300000  1.0 -0.0368847818
O  O35  1  0.19535000  0.81851000  0.33300000  1.0 -0.0368847818
O  O36  1  0.80465000  0.18149000  0.33300000  1.0 -0.0346079509
O  O37  1  0.81851000  0.80465000  0.66700000  1.0 -0.0368847818
O  O38  1  0.18149000  0.19535000  0.66700000  1.0 -0.0368847818
O  O39  1  0.30465000  0.68149000  0.16700000  1.0 -0.0368847818
O  O40  1  0.69535000  0.31851000  0.16700000  1.0 -0.0346079509
