# DDEC6 charges by PACMAN v1.1 (https://github.com/mtap-research/PACMAN-charge/)
data_SUKKOZ_FSR_pacman
_symmetry_space_group_name_H-M   'P 1'
_cell_length_a   9.30769000
_cell_length_b   9.30769000
_cell_length_c   8.49400000
_cell_angle_alpha   90.00000000
_cell_angle_beta   90.00000000
_cell_angle_gamma   97.81060000
_symmetry_Int_Tables_number   1
_chemical_formula_structural   K4P8Pt2IO20
_chemical_formula_sum   'K4 P8 Pt2 I1 O20'
_cell_volume   729.03469665
_cell_formula_units_Z   1
loop_
 _symmetry_equiv_pos_site_id
 _symmetry_equiv_pos_as_xyz
  1  'x, y, z'
loop_
 _atom_site_type_symbol
 _atom_site_label
 _atom_site_symmetry_multiplicity
 _atom_site_fract_x
 _atom_site_fract_y
 _atom_site_fract_z
 _atom_site_occupancy
 _atom_site_charge
K  K1  1  0.48520000  0.97220000  0.00000000  1.0 0.3767370198
K  K2  1  0.51480000  0.02780000  0.00000000  1.0 0.3724959258
K  K3  1  0.97220000  0.48520000  0.00000000  1.0 0.3724959258
K  K4  1  0.02780000  0.51480000  0.00000000  1.0 0.3767370198
P  P1  1  0.25230000  0.01650000  0.67270000  1.0 1.4398425435
P  P2  1  0.74770000  0.98350000  0.67270000  1.0 1.4398425435
P  P3  1  0.01650000  0.25230000  0.32730000  1.0 1.4398425435
P  P4  1  0.98350000  0.74770000  0.32730000  1.0 1.4398425435
P  P5  1  0.74770000  0.98350000  0.32730000  1.0 1.4398425435
P  P6  1  0.25230000  0.01650000  0.32730000  1.0 1.4398425435
P  P7  1  0.98350000  0.74770000  0.67270000  1.0 1.4398425435
P  P8  1  0.01650000  0.25230000  0.67270000  1.0 1.4398425435
Pt  Pt1  1  0.00000000  0.00000000  0.66510000  1.0 -0.4369990315
Pt  Pt2  1  0.00000000  0.00000000  0.33490000  1.0 -0.4273115482
I  I1  1  0.00000000  0.00000000  0.00000000  1.0 0.1683960174
O  O1  1  0.31030000  0.88930000  0.75150000  1.0 -0.6483716603
O  O2  1  0.68970000  0.11070000  0.75150000  1.0 -0.6483716603
O  O3  1  0.88930000  0.31030000  0.24850000  1.0 -0.6483716603
O  O4  1  0.11070000  0.68970000  0.24850000  1.0 -0.6483716603
O  O5  1  0.68970000  0.11070000  0.24850000  1.0 -0.6483716603
O  O6  1  0.31030000  0.88930000  0.24850000  1.0 -0.6483716603
O  O7  1  0.11070000  0.68970000  0.75150000  1.0 -0.6483716603
O  O8  1  0.88930000  0.31030000  0.75150000  1.0 -0.6483716603
O  O9  1  0.33140000  0.15560000  0.74720000  1.0 -0.6316967096
O  O10  1  0.66860000  0.84440000  0.74720000  1.0 -0.6316967096
O  O11  1  0.15560000  0.33140000  0.25280000  1.0 -0.6316967096
O  O12  1  0.84440000  0.66860000  0.25280000  1.0 -0.6316967096
O  O13  1  0.66860000  0.84440000  0.25280000  1.0 -0.6316967096
O  O14  1  0.33140000  0.15560000  0.25280000  1.0 -0.6316967096
O  O15  1  0.84440000  0.66860000  0.74720000  1.0 -0.6316967096
O  O16  1  0.15560000  0.33140000  0.74720000  1.0 -0.6359248843
O  O17  1  0.31870000  0.01690000  0.50000000  1.0 -0.5191291358
O  O18  1  0.68130000  0.98310000  0.50000000  1.0 -0.5191291358
O  O19  1  0.01690000  0.31870000  0.50000000  1.0 -0.5191291358
O  O20  1  0.98310000  0.68130000  0.50000000  1.0 -0.5191291358
