# DDEC6 charges by PACMAN v1.1 (https://github.com/mtap-research/PACMAN-charge/)
data_SUKKOZ_ASR_pacman
_symmetry_space_group_name_H-M   'P 1'
_cell_length_a   12.23600000
_cell_length_b   14.02900000
_cell_length_c   8.49400000
_cell_angle_alpha   90.00000000
_cell_angle_beta   90.00000000
_cell_angle_gamma   90.00000000
_symmetry_Int_Tables_number   1
_chemical_formula_structural   K2P8Pt2IO20
_chemical_formula_sum   'K4 P16 Pt4 I2 O40'
_cell_volume   1458.07022094
_cell_formula_units_Z   2
loop_
 _symmetry_equiv_pos_site_id
 _symmetry_equiv_pos_as_xyz
  1  'x, y, z'
loop_
 _atom_site_type_symbol
 _atom_site_label
 _atom_site_symmetry_multiplicity
 _atom_site_fract_x
 _atom_site_fract_y
 _atom_site_fract_z
 _atom_site_occupancy
 _atom_site_charge
K  K1  1  0.25000000  0.75000000  0.00000000  1.0 0.89345792
K  K2  1  0.75000000  0.25000000  0.00000000  1.0 0.89345792
K  K3  1  0.75000000  0.75000000  0.00000000  1.0 0.89345792
K  K4  1  0.25000000  0.25000000  0.00000000  1.0 0.89345792
P  P1  1  0.15210000  0.86690000  0.68449000  1.0 1.4943869248
P  P2  1  0.65210000  0.36690000  0.68449000  1.0 1.4943869248
P  P3  1  0.84790000  0.13310000  0.68449000  1.0 1.498626554
P  P4  1  0.34790000  0.63310000  0.68449000  1.0 1.498626554
P  P5  1  0.84790000  0.86690000  0.31551000  1.0 1.498626554
P  P6  1  0.34790000  0.36690000  0.31551000  1.0 1.498626554
P  P7  1  0.15210000  0.13310000  0.31551000  1.0 1.4943869248
P  P8  1  0.65210000  0.63310000  0.31551000  1.0 1.4943869248
P  P9  1  0.84790000  0.13310000  0.31551000  1.0 1.498626554
P  P10  1  0.34790000  0.63310000  0.31551000  1.0 1.498626554
P  P11  1  0.15210000  0.86690000  0.31551000  1.0 1.4943869248
P  P12  1  0.65210000  0.36690000  0.31551000  1.0 1.4943869248
P  P13  1  0.15210000  0.13310000  0.68449000  1.0 1.498626554
P  P14  1  0.65210000  0.63310000  0.68449000  1.0 1.4943869248
P  P15  1  0.84790000  0.86690000  0.68449000  1.0 1.498626554
P  P16  1  0.34790000  0.36690000  0.68449000  1.0 1.498626554
Pt  Pt1  1  0.00000000  0.00000000  0.67004000  1.0 -0.2423292764
Pt  Pt2  1  0.50000000  0.50000000  0.67004000  1.0 -0.2423292764
Pt  Pt3  1  0.00000000  0.00000000  0.32996000  1.0 -0.2423292764
Pt  Pt4  1  0.50000000  0.50000000  0.32996000  1.0 -0.2423292764
I  I1  1  0.50000000  0.50000000  0.00000000  1.0 0.0733812384
I  I2  1  0.00000000  0.00000000  0.00000000  1.0 0.0733812384
O  O1  1  0.09827000  0.78424000  0.75909000  1.0 -0.702359929
O  O2  1  0.24708000  0.91506000  0.75501000  1.0 -0.6807416894
O  O3  1  0.59827000  0.28424000  0.75909000  1.0 -0.702359929
O  O4  1  0.74708000  0.41506000  0.75501000  1.0 -0.6807416894
O  O5  1  0.90173000  0.21576000  0.75909000  1.0 -0.702359929
O  O6  1  0.75292000  0.08494000  0.75501000  1.0 -0.6807416894
O  O7  1  0.40173000  0.71576000  0.75909000  1.0 -0.702359929
O  O8  1  0.25292000  0.58494000  0.75501000  1.0 -0.6807416894
O  O9  1  0.90173000  0.78424000  0.24091000  1.0 -0.702359929
O  O10  1  0.75292000  0.91506000  0.24499000  1.0 -0.6807416894
O  O11  1  0.40173000  0.28424000  0.24091000  1.0 -0.702359929
O  O12  1  0.25292000  0.41506000  0.24499000  1.0 -0.6807416894
O  O13  1  0.09827000  0.21576000  0.24091000  1.0 -0.702359929
O  O14  1  0.24708000  0.08494000  0.24499000  1.0 -0.6807416894
O  O15  1  0.59827000  0.71576000  0.24091000  1.0 -0.702359929
O  O16  1  0.74708000  0.58494000  0.24499000  1.0 -0.6807416894
O  O17  1  0.90173000  0.21576000  0.24091000  1.0 -0.702359929
O  O18  1  0.75292000  0.08494000  0.24499000  1.0 -0.6807416894
O  O19  1  0.40173000  0.71576000  0.24091000  1.0 -0.702359929
O  O20  1  0.25292000  0.58494000  0.24499000  1.0 -0.6807416894
O  O21  1  0.09827000  0.78424000  0.24091000  1.0 -0.702359929
O  O22  1  0.24708000  0.91506000  0.24499000  1.0 -0.6807416894
O  O23  1  0.59827000  0.28424000  0.24091000  1.0 -0.702359929
O  O24  1  0.74708000  0.41506000  0.24499000  1.0 -0.6807416894
O  O25  1  0.09827000  0.21576000  0.75909000  1.0 -0.702359929
O  O26  1  0.24708000  0.08494000  0.75501000  1.0 -0.6807416894
O  O27  1  0.59827000  0.71576000  0.75909000  1.0 -0.702359929
O  O28  1  0.74708000  0.58494000  0.75501000  1.0 -0.6807416894
O  O29  1  0.90173000  0.78424000  0.75909000  1.0 -0.702359929
O  O30  1  0.75292000  0.91506000  0.75501000  1.0 -0.6807416894
O  O31  1  0.40173000  0.28424000  0.75909000  1.0 -0.702359929
O  O32  1  0.25292000  0.41506000  0.75501000  1.0 -0.6807416894
O  O33  1  0.16416000  0.85090000  0.50000000  1.0 -0.5712498271
O  O34  1  0.66416000  0.35090000  0.50000000  1.0 -0.5712498271
O  O35  1  0.83584000  0.14910000  0.50000000  1.0 -0.5712498271
O  O36  1  0.33584000  0.64910000  0.50000000  1.0 -0.5712498271
O  O37  1  0.83584000  0.85090000  0.50000000  1.0 -0.5712498271
O  O38  1  0.33584000  0.35090000  0.50000000  1.0 -0.5712498271
O  O39  1  0.16416000  0.14910000  0.50000000  1.0 -0.5712498271
O  O40  1  0.66416000  0.64910000  0.50000000  1.0 -0.5712498271
