# DDEC6 charges by PACMAN v1.1 (https://github.com/mtap-research/PACMAN-charge/)
data_SUKKOA_ASR_pacman
_symmetry_space_group_name_H-M   'P 1'
_cell_length_a   16.78560000
_cell_length_b   16.78560000
_cell_length_c   16.78560000
_cell_angle_alpha   67.26670000
_cell_angle_beta   67.26670000
_cell_angle_gamma   67.26670000
_symmetry_Int_Tables_number   1
_chemical_formula_structural   CuH13C24(NO2)2
_chemical_formula_sum   'Cu6 H78 C144 N12 O24'
_cell_volume   3863.72601802
_cell_formula_units_Z   6
loop_
 _symmetry_equiv_pos_site_id
 _symmetry_equiv_pos_as_xyz
  1  'x, y, z'
loop_
 _atom_site_type_symbol
 _atom_site_label
 _atom_site_symmetry_multiplicity
 _atom_site_fract_x
 _atom_site_fract_y
 _atom_site_fract_z
 _atom_site_occupancy
 _atom_site_charge
Cu  Cu1  1  0.49579000  0.49579000  0.92470000  1.0 0.8877393251
Cu  Cu2  1  0.49579000  0.92470000  0.49579000  1.0 0.8877393251
Cu  Cu3  1  0.50421000  0.07530000  0.50421000  1.0 0.8877393251
Cu  Cu4  1  0.92470000  0.49579000  0.49579000  1.0 0.8877393251
Cu  Cu5  1  0.50421000  0.50421000  0.07530000  1.0 0.8877393251
Cu  Cu6  1  0.07530000  0.50421000  0.50421000  1.0 0.8877393251
H  H1  1  0.53140000  0.22730000  0.22730000  1.0 0.151853258
H  H2  1  0.22730000  0.22730000  0.53140000  1.0 0.151853258
H  H3  1  0.46860000  0.77270000  0.77270000  1.0 0.151853258
H  H4  1  0.22730000  0.53140000  0.22730000  1.0 0.151853258
H  H5  1  0.77270000  0.46860000  0.77270000  1.0 0.151853258
H  H6  1  0.77270000  0.77270000  0.46860000  1.0 0.151853258
H  H7  1  0.51680000  0.21410000  0.99980000  1.0 0.156354258
H  H8  1  0.21410000  0.99980000  0.51680000  1.0 0.156354258
H  H9  1  0.48320000  0.00020000  0.78590000  1.0 0.156354258
H  H10  1  0.99980000  0.51680000  0.21410000  1.0 0.156354258
H  H11  1  0.78590000  0.48320000  0.00020000  1.0 0.156354258
H  H12  1  0.00020000  0.78590000  0.48320000  1.0 0.156354258
H  H13  1  0.48320000  0.78590000  0.00020000  1.0 0.156354258
H  H14  1  0.78590000  0.00020000  0.48320000  1.0 0.156354258
H  H15  1  0.51680000  0.99980000  0.21410000  1.0 0.156354258
H  H16  1  0.00020000  0.48320000  0.78590000  1.0 0.156354258
H  H17  1  0.21410000  0.51680000  0.99980000  1.0 0.156354258
H  H18  1  0.99980000  0.21410000  0.51680000  1.0 0.156354258
H  H19  1  0.64820000  0.94160000  0.79890000  1.0 0.1182393601
H  H20  1  0.94160000  0.79890000  0.64820000  1.0 0.1182393601
H  H21  1  0.35180000  0.20110000  0.05840000  1.0 0.1182393601
H  H22  1  0.79890000  0.64820000  0.94160000  1.0 0.1182393601
H  H23  1  0.05840000  0.35180000  0.20110000  1.0 0.1182393601
H  H24  1  0.20110000  0.05840000  0.35180000  1.0 0.1182393601
H  H25  1  0.35180000  0.05840000  0.20110000  1.0 0.1182393601
H  H26  1  0.05840000  0.20110000  0.35180000  1.0 0.1182393601
H  H27  1  0.64820000  0.79890000  0.94160000  1.0 0.1182393601
H  H28  1  0.20110000  0.35180000  0.05840000  1.0 0.1182393601
H  H29  1  0.94160000  0.64820000  0.79890000  1.0 0.1182393601
H  H30  1  0.79890000  0.94160000  0.64820000  1.0 0.1182393601
H  H31  1  0.78190000  0.96850000  0.77120000  1.0 0.1282791851
H  H32  1  0.96850000  0.77120000  0.78190000  1.0 0.1282791851
H  H33  1  0.21810000  0.22880000  0.03150000  1.0 0.1282791851
H  H34  1  0.77120000  0.78190000  0.96850000  1.0 0.1282791851
H  H35  1  0.03150000  0.21810000  0.22880000  1.0 0.1282791851
H  H36  1  0.22880000  0.03150000  0.21810000  1.0 0.1282791851
H  H37  1  0.21810000  0.03150000  0.22880000  1.0 0.1282791851
H  H38  1  0.03150000  0.22880000  0.21810000  1.0 0.1282791851
H  H39  1  0.78190000  0.77120000  0.96850000  1.0 0.1282791851
H  H40  1  0.22880000  0.21810000  0.03150000  1.0 0.1282791851
H  H41  1  0.96850000  0.78190000  0.77120000  1.0 0.1282791851
H  H42  1  0.77120000  0.96850000  0.78190000  1.0 0.1282791851
H  H43  1  0.79410000  0.05570000  0.84220000  1.0 0.0896788424
H  H44  1  0.05570000  0.84220000  0.79410000  1.0 0.0896788424
H  H45  1  0.20590000  0.15780000  0.94430000  1.0 0.0896788424
H  H46  1  0.84220000  0.79410000  0.05570000  1.0 0.0896788424
H  H47  1  0.94430000  0.20590000  0.15780000  1.0 0.0896788424
H  H48  1  0.15780000  0.94430000  0.20590000  1.0 0.0896788424
H  H49  1  0.20590000  0.94430000  0.15780000  1.0 0.0896788424
H  H50  1  0.94430000  0.15780000  0.20590000  1.0 0.0896788424
H  H51  1  0.79410000  0.84220000  0.05570000  1.0 0.0896788424
H  H52  1  0.15780000  0.20590000  0.94430000  1.0 0.0896788424
H  H53  1  0.05570000  0.79410000  0.84220000  1.0 0.0896788424
H  H54  1  0.84220000  0.05570000  0.79410000  1.0 0.0896788424
H  H55  1  0.41170000  0.02380000  0.12300000  1.0 0.0896788424
H  H56  1  0.02380000  0.12300000  0.41170000  1.0 0.0896788424
H  H57  1  0.58830000  0.87700000  0.97620000  1.0 0.0896788424
H  H58  1  0.12300000  0.41170000  0.02380000  1.0 0.0896788424
H  H59  1  0.97620000  0.58830000  0.87700000  1.0 0.0896788424
H  H60  1  0.87700000  0.97620000  0.58830000  1.0 0.0896788424
H  H61  1  0.58830000  0.97620000  0.87700000  1.0 0.0896788424
H  H62  1  0.97620000  0.87700000  0.58830000  1.0 0.0896788424
H  H63  1  0.41170000  0.12300000  0.02380000  1.0 0.0896788424
H  H64  1  0.87700000  0.58830000  0.97620000  1.0 0.0896788424
H  H65  1  0.02380000  0.41170000  0.12300000  1.0 0.0896788424
H  H66  1  0.12300000  0.02380000  0.41170000  1.0 0.0896788424
H  H67  1  0.39230000  0.95140000  0.03840000  1.0 0.1369239981
H  H68  1  0.95140000  0.03840000  0.39230000  1.0 0.1369239981
H  H69  1  0.60770000  0.96160000  0.04860000  1.0 0.1369239981
H  H70  1  0.03840000  0.39230000  0.95140000  1.0 0.1369239981
H  H71  1  0.04860000  0.60770000  0.96160000  1.0 0.1369239981
H  H72  1  0.96160000  0.04860000  0.60770000  1.0 0.1369239981
H  H73  1  0.60770000  0.04860000  0.96160000  1.0 0.1369239981
H  H74  1  0.04860000  0.96160000  0.60770000  1.0 0.1369239981
H  H75  1  0.39230000  0.03840000  0.95140000  1.0 0.1369239981
H  H76  1  0.96160000  0.60770000  0.04860000  1.0 0.1369239981
H  H77  1  0.95140000  0.39230000  0.03840000  1.0 0.1369239981
H  H78  1  0.03840000  0.95140000  0.39230000  1.0 0.1369239981
C  C1  1  0.52018000  0.33388000  0.06468000  1.0 0.585947538
C  C2  1  0.33388000  0.06468000  0.52018000  1.0 0.585947538
C  C3  1  0.47982000  0.93532000  0.66612000  1.0 0.585947538
C  C4  1  0.06468000  0.52018000  0.33388000  1.0 0.585947538
C  C5  1  0.66612000  0.47982000  0.93532000  1.0 0.585947538
C  C6  1  0.93532000  0.66612000  0.47982000  1.0 0.585947538
C  C7  1  0.47982000  0.66612000  0.93532000  1.0 0.585947538
C  C8  1  0.66612000  0.93532000  0.47982000  1.0 0.585947538
C  C9  1  0.52018000  0.06468000  0.33388000  1.0 0.5847843533
C  C10  1  0.93532000  0.47982000  0.66612000  1.0 0.585947538
C  C11  1  0.33388000  0.52018000  0.06468000  1.0 0.585947538
C  C12  1  0.06468000  0.33388000  0.52018000  1.0 0.585947538
C  C13  1  0.52473000  0.23573000  0.10683000  1.0 0.0123547007
C  C14  1  0.23573000  0.10683000  0.52473000  1.0 0.0123547007
C  C15  1  0.47527000  0.89317000  0.76427000  1.0 0.0123547007
C  C16  1  0.10683000  0.52473000  0.23573000  1.0 0.0123547007
C  C17  1  0.76427000  0.47527000  0.89317000  1.0 0.0123547007
C  C18  1  0.89317000  0.76427000  0.47527000  1.0 0.0123547007
C  C19  1  0.47527000  0.76427000  0.89317000  1.0 0.0123547007
C  C20  1  0.76427000  0.89317000  0.47527000  1.0 0.0123547007
C  C21  1  0.52473000  0.10683000  0.23573000  1.0 0.0123547007
C  C22  1  0.89317000  0.47527000  0.76427000  1.0 0.0123547007
C  C23  1  0.23573000  0.52473000  0.10683000  1.0 0.0123547007
C  C24  1  0.10683000  0.23573000  0.52473000  1.0 0.0123547007
C  C25  1  0.52756000  0.19508000  0.19508000  1.0 -0.0958885717
C  C26  1  0.19508000  0.19508000  0.52756000  1.0 -0.0958885717
C  C27  1  0.47244000  0.80492000  0.80492000  1.0 -0.0958885717
C  C28  1  0.19508000  0.52756000  0.19508000  1.0 -0.0958885717
C  C29  1  0.80492000  0.47244000  0.80492000  1.0 -0.0958885717
C  C30  1  0.80492000  0.80492000  0.47244000  1.0 -0.0958885717
C  C31  1  0.51911000  0.18681000  0.05901000  1.0 -0.2110029612
C  C32  1  0.18681000  0.05901000  0.51911000  1.0 -0.2110029612
C  C33  1  0.48089000  0.94099000  0.81319000  1.0 -0.2110029612
C  C34  1  0.05901000  0.51911000  0.18681000  1.0 -0.2110029612
C  C35  1  0.81319000  0.48089000  0.94099000  1.0 -0.2110029612
C  C36  1  0.94099000  0.81319000  0.48089000  1.0 -0.2110029612
C  C37  1  0.48089000  0.81319000  0.94099000  1.0 -0.2110029612
C  C38  1  0.81319000  0.94099000  0.48089000  1.0 -0.2110029612
C  C39  1  0.51911000  0.05901000  0.18681000  1.0 -0.2110029612
C  C40  1  0.94099000  0.48089000  0.81319000  1.0 -0.2110029612
C  C41  1  0.18681000  0.51911000  0.05901000  1.0 -0.2110029612
C  C42  1  0.05901000  0.18681000  0.51911000  1.0 -0.2110029612
C  C43  1  0.51700000  0.09860000  0.09860000  1.0 0.0404273224
C  C44  1  0.09860000  0.09860000  0.51700000  1.0 0.0404273224
C  C45  1  0.48300000  0.90140000  0.90140000  1.0 0.0404273224
C  C46  1  0.09860000  0.51700000  0.09860000  1.0 0.0404273224
C  C47  1  0.90140000  0.48300000  0.90140000  1.0 0.0404273224
C  C48  1  0.90140000  0.90140000  0.48300000  1.0 0.0404273224
C  C49  1  0.53150000  0.04020000  0.04020000  1.0 -0.0273367394
C  C50  1  0.04020000  0.04020000  0.53150000  1.0 -0.0273367394
C  C51  1  0.46850000  0.95980000  0.95980000  1.0 -0.0273367394
C  C52  1  0.04020000  0.53150000  0.04020000  1.0 -0.0273367394
C  C53  1  0.95980000  0.46850000  0.95980000  1.0 -0.0273367394
C  C54  1  0.95980000  0.95980000  0.46850000  1.0 -0.0273367394
C  C55  1  0.45490000  0.01170000  0.06880000  1.0 -0.0206485743
C  C56  1  0.01170000  0.06880000  0.45490000  1.0 -0.0206485743
C  C57  1  0.54510000  0.93120000  0.98830000  1.0 -0.0206485743
C  C58  1  0.06880000  0.45490000  0.01170000  1.0 -0.0206485743
C  C59  1  0.98830000  0.54510000  0.93120000  1.0 -0.0206485743
C  C60  1  0.93120000  0.98830000  0.54510000  1.0 -0.0206485743
C  C61  1  0.54510000  0.98830000  0.93120000  1.0 -0.0206485743
C  C62  1  0.98830000  0.93120000  0.54510000  1.0 -0.0206485743
C  C63  1  0.45490000  0.06880000  0.01170000  1.0 -0.0206485743
C  C64  1  0.93120000  0.54510000  0.98830000  1.0 -0.0206485743
C  C65  1  0.01170000  0.45490000  0.06880000  1.0 -0.0206485743
C  C66  1  0.06880000  0.01170000  0.45490000  1.0 -0.0206485743
C  C67  1  0.44650000  0.96670000  0.01960000  1.0 -0.0273367394
C  C68  1  0.96670000  0.01960000  0.44650000  1.0 -0.0206485743
C  C69  1  0.55350000  0.98040000  0.03330000  1.0 -0.0273367394
C  C70  1  0.01960000  0.44650000  0.96670000  1.0 -0.0273367394
C  C71  1  0.03330000  0.55350000  0.98040000  1.0 -0.0273367394
C  C72  1  0.98040000  0.03330000  0.55350000  1.0 -0.0206485743
C  C73  1  0.55350000  0.03330000  0.98040000  1.0 -0.0273367394
C  C74  1  0.03330000  0.98040000  0.55350000  1.0 -0.0206485743
C  C75  1  0.44650000  0.01960000  0.96670000  1.0 -0.0273367394
C  C76  1  0.98040000  0.55350000  0.03330000  1.0 -0.0206485743
C  C77  1  0.96670000  0.44650000  0.01960000  1.0 -0.0206485743
C  C78  1  0.01960000  0.96670000  0.44650000  1.0 -0.0273367394
C  C79  1  0.51300000  0.94610000  0.94610000  1.0 -0.0206485743
C  C80  1  0.94610000  0.94610000  0.51300000  1.0 -0.0206485743
C  C81  1  0.48700000  0.05390000  0.05390000  1.0 -0.0206485743
C  C82  1  0.94610000  0.51300000  0.94610000  1.0 -0.0206485743
C  C83  1  0.05390000  0.48700000  0.05390000  1.0 -0.0206485743
C  C84  1  0.05390000  0.05390000  0.48700000  1.0 -0.0206485743
C  C85  1  0.58620000  0.98340000  0.91120000  1.0 -0.0206485743
C  C86  1  0.98340000  0.91120000  0.58620000  1.0 -0.0206485743
C  C87  1  0.41380000  0.08880000  0.01660000  1.0 -0.0206485743
C  C88  1  0.91120000  0.58620000  0.98340000  1.0 -0.0206485743
C  C89  1  0.01660000  0.41380000  0.08880000  1.0 -0.0206485743
C  C90  1  0.08880000  0.01660000  0.41380000  1.0 -0.0206485743
C  C91  1  0.41380000  0.01660000  0.08880000  1.0 -0.0206485743
C  C92  1  0.01660000  0.08880000  0.41380000  1.0 -0.0206485743
C  C93  1  0.58620000  0.91120000  0.98340000  1.0 -0.0206485743
C  C94  1  0.08880000  0.41380000  0.01660000  1.0 -0.0206485743
C  C95  1  0.98340000  0.58620000  0.91120000  1.0 -0.0206485743
C  C96  1  0.91120000  0.98340000  0.58620000  1.0 -0.0206485743
C  C97  1  0.65530000  0.96670000  0.83540000  1.0 -0.1937705692
C  C98  1  0.96670000  0.83540000  0.65530000  1.0 -0.1937705692
C  C99  1  0.34470000  0.16460000  0.03330000  1.0 -0.1937705692
C  C100  1  0.83540000  0.65530000  0.96670000  1.0 -0.1937705692
C  C101  1  0.03330000  0.34470000  0.16460000  1.0 -0.1937705692
C  C102  1  0.16460000  0.03330000  0.34470000  1.0 -0.1937705692
C  C103  1  0.34470000  0.03330000  0.16460000  1.0 -0.1937705692
C  C104  1  0.03330000  0.16460000  0.34470000  1.0 -0.1937705692
C  C105  1  0.65530000  0.83540000  0.96670000  1.0 -0.1937705692
C  C106  1  0.16460000  0.34470000  0.03330000  1.0 -0.1937705692
C  C107  1  0.96670000  0.65530000  0.83540000  1.0 -0.1937705692
C  C108  1  0.83540000  0.96670000  0.65530000  1.0 -0.1937705692
C  C109  1  0.73490000  0.98630000  0.81570000  1.0 -0.1162433735
C  C110  1  0.98630000  0.81570000  0.73490000  1.0 -0.1162433735
C  C111  1  0.26510000  0.18430000  0.01370000  1.0 -0.1162433735
C  C112  1  0.81570000  0.73490000  0.98630000  1.0 -0.1162433735
C  C113  1  0.01370000  0.26510000  0.18430000  1.0 -0.1162433735
C  C114  1  0.18430000  0.01370000  0.26510000  1.0 -0.1162433735
C  C115  1  0.26510000  0.01370000  0.18430000  1.0 -0.1162433735
C  C116  1  0.01370000  0.18430000  0.26510000  1.0 -0.1162433735
C  C117  1  0.73490000  0.81570000  0.98630000  1.0 -0.1162433735
C  C118  1  0.18430000  0.26510000  0.01370000  1.0 -0.1162433735
C  C119  1  0.98630000  0.73490000  0.81570000  1.0 -0.1162433735
C  C120  1  0.81570000  0.98630000  0.73490000  1.0 -0.1162433735
C  C121  1  0.74220000  0.03420000  0.86220000  1.0 -0.0369783415
C  C122  1  0.03420000  0.86220000  0.74220000  1.0 -0.0369783415
C  C123  1  0.25780000  0.13780000  0.96580000  1.0 -0.0369783415
C  C124  1  0.86220000  0.74220000  0.03420000  1.0 -0.0369783415
C  C125  1  0.96580000  0.25780000  0.13780000  1.0 -0.0369783415
C  C126  1  0.13780000  0.96580000  0.25780000  1.0 -0.0369783415
C  C127  1  0.25780000  0.96580000  0.13780000  1.0 -0.0369783415
C  C128  1  0.96580000  0.13780000  0.25780000  1.0 -0.0369783415
C  C129  1  0.74220000  0.86220000  0.03420000  1.0 -0.0369783415
C  C130  1  0.13780000  0.25780000  0.96580000  1.0 -0.0369783415
C  C131  1  0.03420000  0.74220000  0.86220000  1.0 -0.0369783415
C  C132  1  0.86220000  0.03420000  0.74220000  1.0 -0.0369783415
C  C133  1  0.59580000  0.02630000  0.96160000  1.0 0.0123547007
C  C134  1  0.02630000  0.96160000  0.59580000  1.0 0.0123547007
C  C135  1  0.40420000  0.03840000  0.97370000  1.0 0.0123547007
C  C136  1  0.96160000  0.59580000  0.02630000  1.0 0.0157014115
C  C137  1  0.97370000  0.40420000  0.03840000  1.0 0.0157014115
C  C138  1  0.03840000  0.97370000  0.40420000  1.0 0.0123547007
C  C139  1  0.40420000  0.97370000  0.03840000  1.0 0.0123547007
C  C140  1  0.97370000  0.03840000  0.40420000  1.0 0.0123547007
C  C141  1  0.59580000  0.96160000  0.02630000  1.0 0.0123547007
C  C142  1  0.03840000  0.40420000  0.97370000  1.0 0.0123547007
C  C143  1  0.02630000  0.59580000  0.96160000  1.0 0.0123547007
C  C144  1  0.96160000  0.02630000  0.59580000  1.0 0.0123547007
N  N1  1  0.67160000  0.05230000  0.93900000  1.0 -0.178610755
N  N2  1  0.05230000  0.93900000  0.67160000  1.0 -0.178610755
N  N3  1  0.32840000  0.06100000  0.94770000  1.0 -0.178610755
N  N4  1  0.93900000  0.67160000  0.05230000  1.0 -0.178610755
N  N5  1  0.94770000  0.32840000  0.06100000  1.0 -0.178610755
N  N6  1  0.06100000  0.94770000  0.32840000  1.0 -0.178610755
N  N7  1  0.32840000  0.94770000  0.06100000  1.0 -0.178610755
N  N8  1  0.94770000  0.06100000  0.32840000  1.0 -0.178610755
N  N9  1  0.67160000  0.93900000  0.05230000  1.0 -0.178610755
N  N10  1  0.06100000  0.32840000  0.94770000  1.0 -0.178610755
N  N11  1  0.05230000  0.67160000  0.93900000  1.0 -0.178610755
N  N12  1  0.93900000  0.05230000  0.67160000  1.0 -0.178610755
O  O1  1  0.51483000  0.36692000  0.98593000  1.0 -0.4979460679
O  O2  1  0.36692000  0.98593000  0.51483000  1.0 -0.4979460679
O  O3  1  0.48517000  0.01407000  0.63308000  1.0 -0.4979460679
O  O4  1  0.98593000  0.51483000  0.36692000  1.0 -0.4979460679
O  O5  1  0.63308000  0.48517000  0.01407000  1.0 -0.4979460679
O  O6  1  0.01407000  0.63308000  0.48517000  1.0 -0.4979460679
O  O7  1  0.48517000  0.63308000  0.01407000  1.0 -0.4979460679
O  O8  1  0.63308000  0.01407000  0.48517000  1.0 -0.4979460679
O  O9  1  0.51483000  0.98593000  0.36692000  1.0 -0.4979460679
O  O10  1  0.01407000  0.48517000  0.63308000  1.0 -0.4979460679
O  O11  1  0.36692000  0.51483000  0.98593000  1.0 -0.4979460679
O  O12  1  0.98593000  0.36692000  0.51483000  1.0 -0.4979460679
O  O13  1  0.52135000  0.37461000  0.11275000  1.0 -0.4979460679
O  O14  1  0.37461000  0.11275000  0.52135000  1.0 -0.4979460679
O  O15  1  0.47865000  0.88725000  0.62539000  1.0 -0.4979460679
O  O16  1  0.11275000  0.52135000  0.37461000  1.0 -0.4979460679
O  O17  1  0.62539000  0.47865000  0.88725000  1.0 -0.4979460679
O  O18  1  0.88725000  0.62539000  0.47865000  1.0 -0.4979460679
O  O19  1  0.47865000  0.62539000  0.88725000  1.0 -0.4979460679
O  O20  1  0.62539000  0.88725000  0.47865000  1.0 -0.4979460679
O  O21  1  0.52135000  0.11275000  0.37461000  1.0 -0.4979460679
O  O22  1  0.88725000  0.47865000  0.62539000  1.0 -0.4979460679
O  O23  1  0.37461000  0.52135000  0.11275000  1.0 -0.4979460679
O  O24  1  0.11275000  0.37461000  0.52135000  1.0 -0.4979460679
