# DDEC6 charges by PACMAN v1.1 (https://github.com/mtap-research/PACMAN-charge/)
data_SUKMAO_ASR_pacman
_symmetry_space_group_name_H-M   'P 1'
_cell_length_a   16.74800000
_cell_length_b   16.74800000
_cell_length_c   16.74800000
_cell_angle_alpha   67.28270000
_cell_angle_beta   67.28270000
_cell_angle_gamma   67.28270000
_symmetry_Int_Tables_number   1
_chemical_formula_structural   CuH11C22(NO)4
_chemical_formula_sum   'Cu6 H66 C132 N24 O24'
_cell_volume   3838.87299661
_cell_formula_units_Z   6
loop_
 _symmetry_equiv_pos_site_id
 _symmetry_equiv_pos_as_xyz
  1  'x, y, z'
loop_
 _atom_site_type_symbol
 _atom_site_label
 _atom_site_symmetry_multiplicity
 _atom_site_fract_x
 _atom_site_fract_y
 _atom_site_fract_z
 _atom_site_occupancy
 _atom_site_charge
Cu  Cu1  1  0.50424000  0.07587000  0.50424000  1.0 0.8951542289
Cu  Cu2  1  0.07587000  0.50424000  0.50424000  1.0 0.8951542289
Cu  Cu3  1  0.49576000  0.49576000  0.92413000  1.0 0.8951542289
Cu  Cu4  1  0.50424000  0.50424000  0.07587000  1.0 0.8951542289
Cu  Cu5  1  0.92413000  0.49576000  0.49576000  1.0 0.8951542289
Cu  Cu6  1  0.49576000  0.92413000  0.49576000  1.0 0.8951542289
H  H1  1  0.46870000  0.77250000  0.77250000  1.0 0.1510167382
H  H2  1  0.77250000  0.77250000  0.46870000  1.0 0.1510167382
H  H3  1  0.53130000  0.22750000  0.22750000  1.0 0.1510167382
H  H4  1  0.77250000  0.46870000  0.77250000  1.0 0.1510167382
H  H5  1  0.22750000  0.53130000  0.22750000  1.0 0.1510167382
H  H6  1  0.22750000  0.22750000  0.53130000  1.0 0.1510167382
H  H7  1  0.48130000  0.00060000  0.78560000  1.0 0.1568810156
H  H8  1  0.00060000  0.78560000  0.48130000  1.0 0.1568810156
H  H9  1  0.51870000  0.21440000  0.99940000  1.0 0.1568810156
H  H10  1  0.78560000  0.48130000  0.00060000  1.0 0.1568810156
H  H11  1  0.99940000  0.51870000  0.21440000  1.0 0.1568810156
H  H12  1  0.21440000  0.99940000  0.51870000  1.0 0.1568810156
H  H13  1  0.51870000  0.99940000  0.21440000  1.0 0.1568810156
H  H14  1  0.99940000  0.21440000  0.51870000  1.0 0.1568810156
H  H15  1  0.48130000  0.78560000  0.00060000  1.0 0.1568810156
H  H16  1  0.21440000  0.51870000  0.99940000  1.0 0.1568810156
H  H17  1  0.00060000  0.48130000  0.78560000  1.0 0.1568810156
H  H18  1  0.78560000  0.00060000  0.48130000  1.0 0.1568810156
H  H19  1  0.58070000  0.98980000  0.86800000  1.0 0.131272414
H  H20  1  0.98980000  0.86800000  0.58070000  1.0 0.131272414
H  H21  1  0.41930000  0.13200000  0.01020000  1.0 0.131272414
H  H22  1  0.86800000  0.58070000  0.98980000  1.0 0.131272414
H  H23  1  0.01020000  0.41930000  0.13200000  1.0 0.131272414
H  H24  1  0.13200000  0.01020000  0.41930000  1.0 0.131272414
H  H25  1  0.41930000  0.01020000  0.13200000  1.0 0.131272414
H  H26  1  0.01020000  0.13200000  0.41930000  1.0 0.131272414
H  H27  1  0.58070000  0.86800000  0.98980000  1.0 0.131272414
H  H28  1  0.13200000  0.41930000  0.01020000  1.0 0.131272414
H  H29  1  0.98980000  0.58070000  0.86800000  1.0 0.131272414
H  H30  1  0.86800000  0.98980000  0.58070000  1.0 0.131272414
H  H31  1  0.59900000  0.06440000  0.94970000  1.0 0.1420776042
H  H32  1  0.06440000  0.94970000  0.59900000  1.0 0.1420776042
H  H33  1  0.40100000  0.05030000  0.93560000  1.0 0.1420776042
H  H34  1  0.94970000  0.59900000  0.06440000  1.0 0.1420776042
H  H35  1  0.93560000  0.40100000  0.05030000  1.0 0.1420776042
H  H36  1  0.05030000  0.93560000  0.40100000  1.0 0.1420776042
H  H37  1  0.40100000  0.93560000  0.05030000  1.0 0.1420776042
H  H38  1  0.93560000  0.05030000  0.40100000  1.0 0.1420776042
H  H39  1  0.59900000  0.94970000  0.06440000  1.0 0.1420776042
H  H40  1  0.05030000  0.40100000  0.93560000  1.0 0.1420776042
H  H41  1  0.06440000  0.59900000  0.94970000  1.0 0.1420776042
H  H42  1  0.94970000  0.06440000  0.59900000  1.0 0.1420776042
H  H43  1  0.25250000  0.96540000  0.26800000  1.0 0.1420776042
H  H44  1  0.96540000  0.26800000  0.25250000  1.0 0.1420776042
H  H45  1  0.74750000  0.73200000  0.03460000  1.0 0.1420776042
H  H46  1  0.26800000  0.25250000  0.96540000  1.0 0.1420776042
H  H47  1  0.03460000  0.74750000  0.73200000  1.0 0.1420776042
H  H48  1  0.73200000  0.03460000  0.74750000  1.0 0.1420776042
H  H49  1  0.74750000  0.03460000  0.73200000  1.0 0.1420776042
H  H50  1  0.03460000  0.73200000  0.74750000  1.0 0.1420776042
H  H51  1  0.25250000  0.26800000  0.96540000  1.0 0.1420776042
H  H52  1  0.73200000  0.74750000  0.03460000  1.0 0.1420776042
H  H53  1  0.96540000  0.25250000  0.26800000  1.0 0.1420776042
H  H54  1  0.26800000  0.96540000  0.25250000  1.0 0.1420776042
H  H55  1  0.21700000  0.92820000  0.16490000  1.0 0.1017647434
H  H56  1  0.92820000  0.16490000  0.21700000  1.0 0.1017647434
H  H57  1  0.78300000  0.83510000  0.07180000  1.0 0.1017647434
H  H58  1  0.16490000  0.21700000  0.92820000  1.0 0.1017647434
H  H59  1  0.07180000  0.78300000  0.83510000  1.0 0.1017647434
H  H60  1  0.83510000  0.07180000  0.78300000  1.0 0.1017647434
H  H61  1  0.78300000  0.07180000  0.83510000  1.0 0.1017647434
H  H62  1  0.07180000  0.83510000  0.78300000  1.0 0.1017647434
H  H63  1  0.21700000  0.16490000  0.92820000  1.0 0.1017647434
H  H64  1  0.83510000  0.78300000  0.07180000  1.0 0.1017647434
H  H65  1  0.92820000  0.21700000  0.16490000  1.0 0.1017647434
H  H66  1  0.16490000  0.92820000  0.21700000  1.0 0.1017647434
C  C1  1  0.47970000  0.93452000  0.66641000  1.0 0.5931981515
C  C2  1  0.93452000  0.66641000  0.47970000  1.0 0.5931981515
C  C3  1  0.52030000  0.33359000  0.06548000  1.0 0.5931981515
C  C4  1  0.66641000  0.47970000  0.93452000  1.0 0.5931981515
C  C5  1  0.06548000  0.52030000  0.33359000  1.0 0.5931981515
C  C6  1  0.33359000  0.06548000  0.52030000  1.0 0.5931981515
C  C7  1  0.52030000  0.06548000  0.33359000  1.0 0.5931981515
C  C8  1  0.06548000  0.33359000  0.52030000  1.0 0.5931981515
C  C9  1  0.47970000  0.66641000  0.93452000  1.0 0.5931981515
C  C10  1  0.33359000  0.52030000  0.06548000  1.0 0.5931981515
C  C11  1  0.93452000  0.47970000  0.66641000  1.0 0.5931981515
C  C12  1  0.66641000  0.93452000  0.47970000  1.0 0.5931981515
C  C13  1  0.47532000  0.89294000  0.76343000  1.0 -0.0023699286
C  C14  1  0.89294000  0.76343000  0.47532000  1.0 -0.0023699286
C  C15  1  0.52468000  0.23657000  0.10706000  1.0 -0.0023699286
C  C16  1  0.76343000  0.47532000  0.89294000  1.0 -0.0023699286
C  C17  1  0.10706000  0.52468000  0.23657000  1.0 -0.0023699286
C  C18  1  0.23657000  0.10706000  0.52468000  1.0 -0.0023699286
C  C19  1  0.52468000  0.10706000  0.23657000  1.0 -0.0023699286
C  C20  1  0.10706000  0.23657000  0.52468000  1.0 -0.0023699286
C  C21  1  0.47532000  0.76343000  0.89294000  1.0 -0.0023699286
C  C22  1  0.23657000  0.52468000  0.10706000  1.0 -0.0023699286
C  C23  1  0.89294000  0.47532000  0.76343000  1.0 -0.0023699286
C  C24  1  0.76343000  0.89294000  0.47532000  1.0 -0.0023699286
C  C25  1  0.47253000  0.80480000  0.80480000  1.0 -0.0798263588
C  C26  1  0.80480000  0.80480000  0.47253000  1.0 -0.0798263588
C  C27  1  0.52747000  0.19520000  0.19520000  1.0 -0.0798263588
C  C28  1  0.80480000  0.47253000  0.80480000  1.0 -0.0798263588
C  C29  1  0.19520000  0.52747000  0.19520000  1.0 -0.0798263588
C  C30  1  0.19520000  0.19520000  0.52747000  1.0 -0.0798263588
C  C31  1  0.48028000  0.94078000  0.81248000  1.0 -0.1883073611
C  C32  1  0.94078000  0.81248000  0.48028000  1.0 -0.1883073611
C  C33  1  0.51972000  0.18752000  0.05922000  1.0 -0.1883073611
C  C34  1  0.81248000  0.48028000  0.94078000  1.0 -0.1883073611
C  C35  1  0.05922000  0.51972000  0.18752000  1.0 -0.1883073611
C  C36  1  0.18752000  0.05922000  0.51972000  1.0 -0.1883073611
C  C37  1  0.51972000  0.05922000  0.18752000  1.0 -0.1883073611
C  C38  1  0.05922000  0.18752000  0.51972000  1.0 -0.1883073611
C  C39  1  0.48028000  0.81248000  0.94078000  1.0 -0.1883073611
C  C40  1  0.18752000  0.51972000  0.05922000  1.0 -0.1883073611
C  C41  1  0.94078000  0.48028000  0.81248000  1.0 -0.1883073611
C  C42  1  0.81248000  0.94078000  0.48028000  1.0 -0.1883073611
C  C43  1  0.48366000  0.90056000  0.90056000  1.0 0.0490692767
C  C44  1  0.90056000  0.90056000  0.48366000  1.0 0.0490692767
C  C45  1  0.51634000  0.09944000  0.09944000  1.0 0.0490692767
C  C46  1  0.90056000  0.48366000  0.90056000  1.0 0.0490692767
C  C47  1  0.09944000  0.51634000  0.09944000  1.0 0.0490692767
C  C48  1  0.09944000  0.09944000  0.51634000  1.0 0.0490692767
C  C49  1  0.46840000  0.95700000  0.95700000  1.0 -0.0283497583
C  C50  1  0.95700000  0.95700000  0.46840000  1.0 -0.0283497583
C  C51  1  0.53160000  0.04300000  0.04300000  1.0 -0.0283497583
C  C52  1  0.95700000  0.46840000  0.95700000  1.0 -0.0283497583
C  C53  1  0.04300000  0.53160000  0.04300000  1.0 -0.0283497583
C  C54  1  0.04300000  0.04300000  0.53160000  1.0 -0.0283497583
C  C55  1  0.53760000  0.99490000  0.92490000  1.0 -0.0192543873
C  C56  1  0.99490000  0.92490000  0.53760000  1.0 -0.0192543873
C  C57  1  0.46240000  0.07510000  0.00510000  1.0 -0.0192543873
C  C58  1  0.92490000  0.53760000  0.99490000  1.0 -0.0192543873
C  C59  1  0.00510000  0.46240000  0.07510000  1.0 -0.0192543873
C  C60  1  0.07510000  0.00510000  0.46240000  1.0 -0.0192543873
C  C61  1  0.46240000  0.00510000  0.07510000  1.0 -0.0192543873
C  C62  1  0.00510000  0.07510000  0.46240000  1.0 -0.0192543873
C  C63  1  0.53760000  0.92490000  0.99490000  1.0 -0.0192543873
C  C64  1  0.07510000  0.46240000  0.00510000  1.0 -0.0192543873
C  C65  1  0.99490000  0.53760000  0.92490000  1.0 -0.0192543873
C  C66  1  0.92490000  0.99490000  0.53760000  1.0 -0.0192543873
C  C67  1  0.54740000  0.04150000  0.97260000  1.0 -0.0283497583
C  C68  1  0.04150000  0.97260000  0.54740000  1.0 -0.0283497583
C  C69  1  0.45260000  0.02740000  0.95850000  1.0 -0.0283497583
C  C70  1  0.97260000  0.54740000  0.04150000  1.0 -0.0283497583
C  C71  1  0.95850000  0.45260000  0.02740000  1.0 -0.0283497583
C  C72  1  0.02740000  0.95850000  0.45260000  1.0 -0.0283497583
C  C73  1  0.45260000  0.95850000  0.02740000  1.0 -0.0283497583
C  C74  1  0.95850000  0.02740000  0.45260000  1.0 -0.0283497583
C  C75  1  0.54740000  0.97260000  0.04150000  1.0 -0.0283497583
C  C76  1  0.02740000  0.45260000  0.95850000  1.0 -0.0283497583
C  C77  1  0.04150000  0.54740000  0.97260000  1.0 -0.0283497583
C  C78  1  0.97260000  0.04150000  0.54740000  1.0 -0.0283497583
C  C79  1  0.48530000  0.05340000  0.05340000  1.0 -0.0136371877
C  C80  1  0.05340000  0.05340000  0.48530000  1.0 -0.0136371877
C  C81  1  0.51470000  0.94660000  0.94660000  1.0 -0.0136371877
C  C82  1  0.05340000  0.48530000  0.05340000  1.0 -0.0136371877
C  C83  1  0.94660000  0.51470000  0.94660000  1.0 -0.0136371877
C  C84  1  0.94660000  0.94660000  0.51470000  1.0 -0.0136371877
C  C85  1  0.41880000  0.00740000  0.09030000  1.0 0.022944016
C  C86  1  0.00740000  0.09030000  0.41880000  1.0 0.022944016
C  C87  1  0.58120000  0.90970000  0.99260000  1.0 0.022944016
C  C88  1  0.09030000  0.41880000  0.00740000  1.0 0.022944016
C  C89  1  0.99260000  0.58120000  0.90970000  1.0 0.022944016
C  C90  1  0.90970000  0.99260000  0.58120000  1.0 0.022944016
C  C91  1  0.58120000  0.99260000  0.90970000  1.0 0.022944016
C  C92  1  0.99260000  0.90970000  0.58120000  1.0 0.022944016
C  C93  1  0.41880000  0.09030000  0.00740000  1.0 0.022944016
C  C94  1  0.90970000  0.58120000  0.99260000  1.0 0.022944016
C  C95  1  0.00740000  0.41880000  0.09030000  1.0 0.022944016
C  C96  1  0.09030000  0.00740000  0.41880000  1.0 0.022944016
C  C97  1  0.41080000  0.96340000  0.03880000  1.0 0.044138763
C  C98  1  0.96340000  0.03880000  0.41080000  1.0 0.0490692767
C  C99  1  0.58920000  0.96120000  0.03660000  1.0 0.0490692767
C  C100  1  0.03880000  0.41080000  0.96340000  1.0 0.0490692767
C  C101  1  0.03660000  0.58920000  0.96120000  1.0 0.044138763
C  C102  1  0.96120000  0.03660000  0.58920000  1.0 0.0490692767
C  C103  1  0.58920000  0.03660000  0.96120000  1.0 0.0490692767
C  C104  1  0.03660000  0.96120000  0.58920000  1.0 0.044138763
C  C105  1  0.41080000  0.03880000  0.96340000  1.0 0.0490692767
C  C106  1  0.96120000  0.58920000  0.03660000  1.0 0.0490692767
C  C107  1  0.96340000  0.41080000  0.03880000  1.0 0.0490692767
C  C108  1  0.03880000  0.96340000  0.41080000  1.0 0.044138763
C  C109  1  0.28740000  0.97420000  0.20600000  1.0 -0.1090463835
C  C110  1  0.97420000  0.20600000  0.28740000  1.0 -0.1090463835
C  C111  1  0.71260000  0.79400000  0.02580000  1.0 -0.1090463835
C  C112  1  0.20600000  0.28740000  0.97420000  1.0 -0.1090463835
C  C113  1  0.02580000  0.71260000  0.79400000  1.0 -0.1090463835
C  C114  1  0.79400000  0.02580000  0.71260000  1.0 -0.1090463835
C  C115  1  0.71260000  0.02580000  0.79400000  1.0 -0.1090463835
C  C116  1  0.02580000  0.79400000  0.71260000  1.0 -0.1090463835
C  C117  1  0.28740000  0.20600000  0.97420000  1.0 -0.1090463835
C  C118  1  0.79400000  0.71260000  0.02580000  1.0 -0.1090463835
C  C119  1  0.97420000  0.28740000  0.20600000  1.0 -0.1090463835
C  C120  1  0.20600000  0.97420000  0.28740000  1.0 -0.1090463835
C  C121  1  0.27210000  0.94360000  0.14750000  1.0 -0.0192543873
C  C122  1  0.94360000  0.14750000  0.27210000  1.0 -0.0192543873
C  C123  1  0.72790000  0.85250000  0.05640000  1.0 -0.0192543873
C  C124  1  0.14750000  0.27210000  0.94360000  1.0 -0.0192543873
C  C125  1  0.05640000  0.72790000  0.85250000  1.0 -0.0192543873
C  C126  1  0.85250000  0.05640000  0.72790000  1.0 -0.0192543873
C  C127  1  0.72790000  0.05640000  0.85250000  1.0 -0.0192543873
C  C128  1  0.05640000  0.85250000  0.72790000  1.0 -0.0192543873
C  C129  1  0.27210000  0.14750000  0.94360000  1.0 -0.0192543873
C  C130  1  0.85250000  0.72790000  0.05640000  1.0 -0.0192543873
C  C131  1  0.94360000  0.27210000  0.14750000  1.0 -0.0192543873
C  C132  1  0.14750000  0.94360000  0.27210000  1.0 -0.0192543873
N  N1  1  0.35410000  0.01820000  0.17270000  1.0 -0.2293861609
N  N2  1  0.01820000  0.17270000  0.35410000  1.0 -0.2293861609
N  N3  1  0.64590000  0.82730000  0.98180000  1.0 -0.2293861609
N  N4  1  0.17270000  0.35410000  0.01820000  1.0 -0.2293861609
N  N5  1  0.98180000  0.64590000  0.82730000  1.0 -0.2293861609
N  N6  1  0.82730000  0.98180000  0.64590000  1.0 -0.2293861609
N  N7  1  0.64590000  0.98180000  0.82730000  1.0 -0.2293861609
N  N8  1  0.98180000  0.82730000  0.64590000  1.0 -0.2293861609
N  N9  1  0.35410000  0.17270000  0.01820000  1.0 -0.2293861609
N  N10  1  0.82730000  0.64590000  0.98180000  1.0 -0.2293861609
N  N11  1  0.01820000  0.35410000  0.17270000  1.0 -0.2293861609
N  N12  1  0.17270000  0.01820000  0.35410000  1.0 -0.2293861609
N  N13  1  0.33290000  0.93490000  0.06630000  1.0 -0.2022910653
N  N14  1  0.93490000  0.06630000  0.33290000  1.0 -0.2022910653
N  N15  1  0.66710000  0.93370000  0.06510000  1.0 -0.2022910653
N  N16  1  0.06630000  0.33290000  0.93490000  1.0 -0.2022910653
N  N17  1  0.06510000  0.66710000  0.93370000  1.0 -0.2022910653
N  N18  1  0.93370000  0.06510000  0.66710000  1.0 -0.2022910653
N  N19  1  0.66710000  0.06510000  0.93370000  1.0 -0.2022910653
N  N20  1  0.06510000  0.93370000  0.66710000  1.0 -0.2022910653
N  N21  1  0.33290000  0.06630000  0.93490000  1.0 -0.2022910653
N  N22  1  0.93370000  0.66710000  0.06510000  1.0 -0.2022910653
N  N23  1  0.93490000  0.33290000  0.06630000  1.0 -0.2022910653
N  N24  1  0.06630000  0.93490000  0.33290000  1.0 -0.2022910653
O  O1  1  0.47876000  0.88571000  0.62577000  1.0 -0.5130476791
O  O2  1  0.88571000  0.62577000  0.47876000  1.0 -0.5130476791
O  O3  1  0.52124000  0.37423000  0.11429000  1.0 -0.5130476791
O  O4  1  0.62577000  0.47876000  0.88571000  1.0 -0.5130476791
O  O5  1  0.11429000  0.52124000  0.37423000  1.0 -0.5130476791
O  O6  1  0.37423000  0.11429000  0.52124000  1.0 -0.5130476791
O  O7  1  0.52124000  0.11429000  0.37423000  1.0 -0.5130476791
O  O8  1  0.11429000  0.37423000  0.52124000  1.0 -0.5130476791
O  O9  1  0.47876000  0.62577000  0.88571000  1.0 -0.5130476791
O  O10  1  0.37423000  0.52124000  0.11429000  1.0 -0.5130476791
O  O11  1  0.88571000  0.47876000  0.62577000  1.0 -0.5130476791
O  O12  1  0.62577000  0.88571000  0.47876000  1.0 -0.5130476791
O  O13  1  0.48585000  0.01410000  0.63237000  1.0 -0.5130476791
O  O14  1  0.01410000  0.63237000  0.48585000  1.0 -0.5130476791
O  O15  1  0.51415000  0.36763000  0.98590000  1.0 -0.5130476791
O  O16  1  0.63237000  0.48585000  0.01410000  1.0 -0.5130476791
O  O17  1  0.98590000  0.51415000  0.36763000  1.0 -0.5130476791
O  O18  1  0.36763000  0.98590000  0.51415000  1.0 -0.5130476791
O  O19  1  0.51415000  0.98590000  0.36763000  1.0 -0.5130476791
O  O20  1  0.98590000  0.36763000  0.51415000  1.0 -0.5130476791
O  O21  1  0.48585000  0.63237000  0.01410000  1.0 -0.5130476791
O  O22  1  0.36763000  0.51415000  0.98590000  1.0 -0.5130476791
O  O23  1  0.01410000  0.48585000  0.63237000  1.0 -0.5130476791
O  O24  1  0.63237000  0.01410000  0.48585000  1.0 -0.5130476791
