# DDEC6 charges by PACMAN v1.1 (https://github.com/mtap-research/PACMAN-charge/)
data_SUKPAQ_ASR_pacman
_symmetry_space_group_name_H-M   'P 1'
_cell_length_a   22.59820000
_cell_length_b   22.59820000
_cell_length_c   20.37000000
_cell_angle_alpha   90.00000000
_cell_angle_beta   90.00000000
_cell_angle_gamma   120.00000000
_symmetry_Int_Tables_number   1
_chemical_formula_structural   CsCd3H60C78(N3O2)6
_chemical_formula_sum   'Cs2 Cd6 H120 C156 N36 O24'
_cell_volume   9008.85001526
_cell_formula_units_Z   2
loop_
 _symmetry_equiv_pos_site_id
 _symmetry_equiv_pos_as_xyz
  1  'x, y, z'
loop_
 _atom_site_type_symbol
 _atom_site_label
 _atom_site_symmetry_multiplicity
 _atom_site_fract_x
 _atom_site_fract_y
 _atom_site_fract_z
 _atom_site_occupancy
 _atom_site_charge
Cs  Cs1  1  0.33333333  0.66666667  0.75000000  1.0 0.8748704853
Cs  Cs2  1  0.66666667  0.33333333  0.25000000  1.0 0.8748704853
Cd  Cd1  1  0.54382000  0.77191000  0.75000000  1.0 0.8103944721
Cd  Cd2  1  0.22809000  0.77191000  0.75000000  1.0 0.8103944721
Cd  Cd3  1  0.22809000  0.45618000  0.75000000  1.0 0.8103944721
Cd  Cd4  1  0.45618000  0.22809000  0.25000000  1.0 0.8103944721
Cd  Cd5  1  0.77191000  0.22809000  0.25000000  1.0 0.8103944721
Cd  Cd6  1  0.77191000  0.54382000  0.25000000  1.0 0.8103944721
H  H1  1  0.39660000  0.90780000  0.40810000  1.0 0.2942583399
H  H2  1  0.09220000  0.48880000  0.40810000  1.0 0.2942583399
H  H3  1  0.51120000  0.60340000  0.40810000  1.0 0.2942583399
H  H4  1  0.09220000  0.60340000  0.09190000  1.0 0.2942583399
H  H5  1  0.51120000  0.90780000  0.09190000  1.0 0.2942583399
H  H6  1  0.39660000  0.48880000  0.09190000  1.0 0.2942583399
H  H7  1  0.60340000  0.09220000  0.59190000  1.0 0.2942583399
H  H8  1  0.90780000  0.51120000  0.59190000  1.0 0.2942583399
H  H9  1  0.48880000  0.39660000  0.59190000  1.0 0.2942583399
H  H10  1  0.90780000  0.39660000  0.90810000  1.0 0.2942583399
H  H11  1  0.48880000  0.09220000  0.90810000  1.0 0.2942583399
H  H12  1  0.60340000  0.51120000  0.90810000  1.0 0.2942583399
H  H13  1  0.32780000  0.84630000  0.42620000  1.0 0.3001034471
H  H14  1  0.15370000  0.48150000  0.42620000  1.0 0.3001034471
H  H15  1  0.51850000  0.67220000  0.42620000  1.0 0.3001034471
H  H16  1  0.15370000  0.67220000  0.07380000  1.0 0.3001034471
H  H17  1  0.51850000  0.84630000  0.07380000  1.0 0.3001034471
H  H18  1  0.32780000  0.48150000  0.07380000  1.0 0.3001034471
H  H19  1  0.67220000  0.15370000  0.57380000  1.0 0.3001034471
H  H20  1  0.84630000  0.51850000  0.57380000  1.0 0.3001034471
H  H21  1  0.48150000  0.32780000  0.57380000  1.0 0.3001034471
H  H22  1  0.84630000  0.32780000  0.92620000  1.0 0.3001034471
H  H23  1  0.48150000  0.15370000  0.92620000  1.0 0.3001034471
H  H24  1  0.67220000  0.51850000  0.92620000  1.0 0.3001034471
H  H25  1  0.54850000  0.90360000  0.55120000  1.0 0.1285960711
H  H26  1  0.09640000  0.64490000  0.55120000  1.0 0.1285960711
H  H27  1  0.35510000  0.45150000  0.55120000  1.0 0.1285960711
H  H28  1  0.09640000  0.45150000  0.94880000  1.0 0.1285960711
H  H29  1  0.35510000  0.90360000  0.94880000  1.0 0.1285960711
H  H30  1  0.54850000  0.64490000  0.94880000  1.0 0.1285960711
H  H31  1  0.45150000  0.09640000  0.44880000  1.0 0.1285960711
H  H32  1  0.90360000  0.35510000  0.44880000  1.0 0.1285960711
H  H33  1  0.64490000  0.54850000  0.44880000  1.0 0.1285960711
H  H34  1  0.90360000  0.54850000  0.05120000  1.0 0.1285960711
H  H35  1  0.64490000  0.09640000  0.05120000  1.0 0.1285960711
H  H36  1  0.45150000  0.35510000  0.05120000  1.0 0.1285960711
H  H37  1  0.31540000  0.77320000  0.51980000  1.0 0.1285960711
H  H38  1  0.22680000  0.54220000  0.51980000  1.0 0.1285960711
H  H39  1  0.45780000  0.68460000  0.51980000  1.0 0.1285960711
H  H40  1  0.22680000  0.68460000  0.98020000  1.0 0.1285960711
H  H41  1  0.45780000  0.77320000  0.98020000  1.0 0.1285960711
H  H42  1  0.31540000  0.54220000  0.98020000  1.0 0.1285960711
H  H43  1  0.68460000  0.22680000  0.48020000  1.0 0.1285960711
H  H44  1  0.77320000  0.45780000  0.48020000  1.0 0.1285960711
H  H45  1  0.54220000  0.31540000  0.48020000  1.0 0.1285960711
H  H46  1  0.77320000  0.31540000  0.01980000  1.0 0.1285960711
H  H47  1  0.54220000  0.22680000  0.01980000  1.0 0.1285960711
H  H48  1  0.68460000  0.45780000  0.01980000  1.0 0.1285960711
H  H49  1  0.36570000  0.75350000  0.60780000  1.0 0.1116663577
H  H50  1  0.24650000  0.61220000  0.60780000  1.0 0.1116663577
H  H51  1  0.38780000  0.63430000  0.60780000  1.0 0.1116663577
H  H52  1  0.24650000  0.63430000  0.89220000  1.0 0.1116663577
H  H53  1  0.38780000  0.75350000  0.89220000  1.0 0.1116663577
H  H54  1  0.36570000  0.61220000  0.89220000  1.0 0.1116663577
H  H55  1  0.63430000  0.24650000  0.39220000  1.0 0.1116663577
H  H56  1  0.75350000  0.38780000  0.39220000  1.0 0.1116663577
H  H57  1  0.61220000  0.36570000  0.39220000  1.0 0.1116663577
H  H58  1  0.75350000  0.36570000  0.10780000  1.0 0.1116663577
H  H59  1  0.61220000  0.24650000  0.10780000  1.0 0.1116663577
H  H60  1  0.63430000  0.38780000  0.10780000  1.0 0.1116663577
H  H61  1  0.59410000  0.98480000  0.49330000  1.0 0.0859533312
H  H62  1  0.01520000  0.60930000  0.49330000  1.0 0.0859533312
H  H63  1  0.39070000  0.40590000  0.49330000  1.0 0.0859533312
H  H64  1  0.01520000  0.40590000  0.00670000  1.0 0.0859533312
H  H65  1  0.39070000  0.98480000  0.00670000  1.0 0.0859533312
H  H66  1  0.59410000  0.60930000  0.00670000  1.0 0.0859533312
H  H67  1  0.40590000  0.01520000  0.50670000  1.0 0.0859533312
H  H68  1  0.98480000  0.39070000  0.50670000  1.0 0.0859533312
H  H69  1  0.60930000  0.59410000  0.50670000  1.0 0.0859533312
H  H70  1  0.98480000  0.59410000  0.99330000  1.0 0.0859533312
H  H71  1  0.60930000  0.01520000  0.99330000  1.0 0.0859533312
H  H72  1  0.40590000  0.39070000  0.99330000  1.0 0.0859533312
H  H73  1  0.77380000  0.15610000  0.38060000  1.0 0.1116663577
H  H74  1  0.84390000  0.61770000  0.38060000  1.0 0.1116663577
H  H75  1  0.38230000  0.22620000  0.38060000  1.0 0.1116663577
H  H76  1  0.84390000  0.22620000  0.11940000  1.0 0.1116663577
H  H77  1  0.38230000  0.15610000  0.11940000  1.0 0.1116663577
H  H78  1  0.77380000  0.61770000  0.11940000  1.0 0.1116663577
H  H79  1  0.22620000  0.84390000  0.61940000  1.0 0.1116663577
H  H80  1  0.15610000  0.38230000  0.61940000  1.0 0.1116663577
H  H81  1  0.61770000  0.77380000  0.61940000  1.0 0.1116663577
H  H82  1  0.15610000  0.77380000  0.88060000  1.0 0.1116663577
H  H83  1  0.61770000  0.84390000  0.88060000  1.0 0.1116663577
H  H84  1  0.22620000  0.38230000  0.88060000  1.0 0.1116663577
H  H85  1  0.70240000  0.06730000  0.45170000  1.0 0.1285960711
H  H86  1  0.93270000  0.63510000  0.45170000  1.0 0.1285960711
H  H87  1  0.36490000  0.29760000  0.45170000  1.0 0.1285960711
H  H88  1  0.93270000  0.29760000  0.04830000  1.0 0.1285960711
H  H89  1  0.36490000  0.06730000  0.04830000  1.0 0.1285960711
H  H90  1  0.70240000  0.63510000  0.04830000  1.0 0.1285960711
H  H91  1  0.29760000  0.93270000  0.54830000  1.0 0.1285960711
H  H92  1  0.06730000  0.36490000  0.54830000  1.0 0.1285960711
H  H93  1  0.63510000  0.70240000  0.54830000  1.0 0.1285960711
H  H94  1  0.06730000  0.70240000  0.95170000  1.0 0.1285960711
H  H95  1  0.63510000  0.93270000  0.95170000  1.0 0.1285960711
H  H96  1  0.29760000  0.36490000  0.95170000  1.0 0.1285960711
H  H97  1  0.53890000  0.02720000  0.34270000  1.0 0.136539063
H  H98  1  0.97280000  0.51170000  0.34270000  1.0 0.136539063
H  H99  1  0.48830000  0.46110000  0.34270000  1.0 0.136539063
H  H100  1  0.97280000  0.46110000  0.15730000  1.0 0.136539063
H  H101  1  0.48830000  0.02720000  0.15730000  1.0 0.136539063
H  H102  1  0.53890000  0.51170000  0.15730000  1.0 0.136539063
H  H103  1  0.46110000  0.97280000  0.65730000  1.0 0.136539063
H  H104  1  0.02720000  0.48830000  0.65730000  1.0 0.136539063
H  H105  1  0.51170000  0.53890000  0.65730000  1.0 0.136539063
H  H106  1  0.02720000  0.53890000  0.84270000  1.0 0.136539063
H  H107  1  0.51170000  0.97280000  0.84270000  1.0 0.136539063
H  H108  1  0.46110000  0.48830000  0.84270000  1.0 0.136539063
H  H109  1  0.61130000  0.11630000  0.27480000  1.0 0.0998780042
H  H110  1  0.88370000  0.49500000  0.27480000  1.0 0.0998780042
H  H111  1  0.50500000  0.38870000  0.27480000  1.0 0.0998780042
H  H112  1  0.88370000  0.38870000  0.22520000  1.0 0.0998780042
H  H113  1  0.50500000  0.11630000  0.22520000  1.0 0.0998780042
H  H114  1  0.61130000  0.49500000  0.22520000  1.0 0.0998780042
H  H115  1  0.38870000  0.88370000  0.72520000  1.0 0.0998780042
H  H116  1  0.11630000  0.50500000  0.72520000  1.0 0.0998780042
H  H117  1  0.49500000  0.61130000  0.72520000  1.0 0.0998780042
H  H118  1  0.11630000  0.61130000  0.77480000  1.0 0.0998780042
H  H119  1  0.49500000  0.88370000  0.77480000  1.0 0.0998780042
H  H120  1  0.38870000  0.50500000  0.77480000  1.0 0.0998780042
C  C1  1  0.49420000  0.81270000  0.64480000  1.0 0.5366513195
C  C2  1  0.18730000  0.68150000  0.64480000  1.0 0.5366513195
C  C3  1  0.31850000  0.50580000  0.64480000  1.0 0.5366513195
C  C4  1  0.18730000  0.50580000  0.85520000  1.0 0.5366513195
C  C5  1  0.31850000  0.81270000  0.85520000  1.0 0.5366513195
C  C6  1  0.49420000  0.68150000  0.85520000  1.0 0.5366513195
C  C7  1  0.50580000  0.18730000  0.35520000  1.0 0.5366513195
C  C8  1  0.81270000  0.31850000  0.35520000  1.0 0.5366513195
C  C9  1  0.68150000  0.49420000  0.35520000  1.0 0.5366513195
C  C10  1  0.81270000  0.49420000  0.14480000  1.0 0.5366513195
C  C11  1  0.68150000  0.18730000  0.14480000  1.0 0.5366513195
C  C12  1  0.50580000  0.31850000  0.14480000  1.0 0.5366513195
C  C13  1  0.46240000  0.82590000  0.58840000  1.0 -0.0620061222
C  C14  1  0.17410000  0.63650000  0.58840000  1.0 -0.0620061222
C  C15  1  0.36350000  0.53760000  0.58840000  1.0 -0.0620061222
C  C16  1  0.17410000  0.53760000  0.91160000  1.0 -0.0620061222
C  C17  1  0.36350000  0.82590000  0.91160000  1.0 -0.0620061222
C  C18  1  0.46240000  0.63650000  0.91160000  1.0 -0.0620061222
C  C19  1  0.53760000  0.17410000  0.41160000  1.0 -0.0620061222
C  C20  1  0.82590000  0.36350000  0.41160000  1.0 -0.0620061222
C  C21  1  0.63650000  0.46240000  0.41160000  1.0 -0.0620061222
C  C22  1  0.82590000  0.46240000  0.08840000  1.0 -0.0620061222
C  C23  1  0.63650000  0.17410000  0.08840000  1.0 -0.0620061222
C  C24  1  0.53760000  0.36350000  0.08840000  1.0 -0.0620061222
C  C25  1  0.50050000  0.87750000  0.54460000  1.0 -0.183837497
C  C26  1  0.12250000  0.62300000  0.54460000  1.0 -0.183837497
C  C27  1  0.37700000  0.49950000  0.54460000  1.0 -0.183837497
C  C28  1  0.12250000  0.49950000  0.95540000  1.0 -0.183837497
C  C29  1  0.37700000  0.87750000  0.95540000  1.0 -0.183837497
C  C30  1  0.50050000  0.62300000  0.95540000  1.0 -0.183837497
C  C31  1  0.49950000  0.12250000  0.45540000  1.0 -0.183837497
C  C32  1  0.87750000  0.37700000  0.45540000  1.0 -0.183837497
C  C33  1  0.62300000  0.50050000  0.45540000  1.0 -0.183837497
C  C34  1  0.87750000  0.50050000  0.04460000  1.0 -0.183837497
C  C35  1  0.62300000  0.12250000  0.04460000  1.0 -0.183837497
C  C36  1  0.49950000  0.37700000  0.04460000  1.0 -0.183837497
C  C37  1  0.47380000  0.89300000  0.49300000  1.0 0.0798869083
C  C38  1  0.10700000  0.58080000  0.49300000  1.0 0.0798869083
C  C39  1  0.41920000  0.52620000  0.49300000  1.0 0.0798869083
C  C40  1  0.10700000  0.52620000  0.00700000  1.0 0.0798869083
C  C41  1  0.41920000  0.89300000  0.00700000  1.0 0.0798869083
C  C42  1  0.47380000  0.58080000  0.00700000  1.0 0.0798869083
C  C43  1  0.52620000  0.10700000  0.50700000  1.0 0.0798869083
C  C44  1  0.89300000  0.41920000  0.50700000  1.0 0.0798869083
C  C45  1  0.58080000  0.47380000  0.50700000  1.0 0.0798869083
C  C46  1  0.89300000  0.47380000  0.99300000  1.0 0.0798869083
C  C47  1  0.58080000  0.10700000  0.99300000  1.0 0.0798869083
C  C48  1  0.52620000  0.41920000  0.99300000  1.0 0.0798869083
C  C49  1  0.40340000  0.85400000  0.48160000  1.0 0.2066798098
C  C50  1  0.14600000  0.54940000  0.48160000  1.0 0.2066798098
C  C51  1  0.45060000  0.59660000  0.48160000  1.0 0.2066798098
C  C52  1  0.14600000  0.59660000  0.01840000  1.0 0.2066798098
C  C53  1  0.45060000  0.85400000  0.01840000  1.0 0.2066798098
C  C54  1  0.40340000  0.54940000  0.01840000  1.0 0.2066798098
C  C55  1  0.59660000  0.14600000  0.51840000  1.0 0.2066798098
C  C56  1  0.85400000  0.45060000  0.51840000  1.0 0.2066798098
C  C57  1  0.54940000  0.40340000  0.51840000  1.0 0.2066798098
C  C58  1  0.85400000  0.40340000  0.98160000  1.0 0.2066798098
C  C59  1  0.54940000  0.14600000  0.98160000  1.0 0.2066798098
C  C60  1  0.59660000  0.45060000  0.98160000  1.0 0.2066798098
C  C61  1  0.36330000  0.80060000  0.52620000  1.0 -0.2070052314
C  C62  1  0.19940000  0.56270000  0.52620000  1.0 -0.2070052314
C  C63  1  0.43730000  0.63670000  0.52620000  1.0 -0.2070052314
C  C64  1  0.19940000  0.63670000  0.97380000  1.0 -0.2070052314
C  C65  1  0.43730000  0.80060000  0.97380000  1.0 -0.2070052314
C  C66  1  0.36330000  0.56270000  0.97380000  1.0 -0.2070052314
C  C67  1  0.63670000  0.19940000  0.47380000  1.0 -0.2070052314
C  C68  1  0.80060000  0.43730000  0.47380000  1.0 -0.2070052314
C  C69  1  0.56270000  0.36330000  0.47380000  1.0 -0.2070052314
C  C70  1  0.80060000  0.36330000  0.02620000  1.0 -0.2070052314
C  C71  1  0.56270000  0.19940000  0.02620000  1.0 -0.2070052314
C  C72  1  0.63670000  0.43730000  0.02620000  1.0 -0.2070052314
C  C73  1  0.39340000  0.78880000  0.57780000  1.0 -0.1047077863
C  C74  1  0.21120000  0.60460000  0.57780000  1.0 -0.1047077863
C  C75  1  0.39540000  0.60660000  0.57780000  1.0 -0.1051116152
C  C76  1  0.21120000  0.60660000  0.92220000  1.0 -0.1051116152
C  C77  1  0.39540000  0.78880000  0.92220000  1.0 -0.1047077863
C  C78  1  0.39340000  0.60460000  0.92220000  1.0 -0.1051116152
C  C79  1  0.60660000  0.21120000  0.42220000  1.0 -0.1051116152
C  C80  1  0.78880000  0.39540000  0.42220000  1.0 -0.1051116152
C  C81  1  0.60460000  0.39340000  0.42220000  1.0 -0.1051116152
C  C82  1  0.78880000  0.39340000  0.07780000  1.0 -0.1047077863
C  C83  1  0.60460000  0.21120000  0.07780000  1.0 -0.1051116152
C  C84  1  0.60660000  0.39540000  0.07780000  1.0 -0.1051116152
C  C85  1  0.57280000  0.98710000  0.45390000  1.0 0.0523001483
C  C86  1  0.01290000  0.58570000  0.45390000  1.0 0.0523001483
C  C87  1  0.41430000  0.42720000  0.45390000  1.0 0.0523001483
C  C88  1  0.01290000  0.42720000  0.04610000  1.0 0.0523001483
C  C89  1  0.41430000  0.98710000  0.04610000  1.0 0.0523001483
C  C90  1  0.57280000  0.58570000  0.04610000  1.0 0.0523001483
C  C91  1  0.42720000  0.01290000  0.54610000  1.0 0.0523001483
C  C92  1  0.98710000  0.41430000  0.54610000  1.0 0.0523001483
C  C93  1  0.58570000  0.57280000  0.54610000  1.0 0.0523001483
C  C94  1  0.98710000  0.57280000  0.95390000  1.0 0.0523001483
C  C95  1  0.58570000  0.01290000  0.95390000  1.0 0.0523001483
C  C96  1  0.42720000  0.41430000  0.95390000  1.0 0.0523001483
C  C97  1  0.72590000  0.12990000  0.37300000  1.0 0.0566186147
C  C98  1  0.87010000  0.59600000  0.37300000  1.0 0.0566186147
C  C99  1  0.40400000  0.27410000  0.37300000  1.0 0.0566186147
C  C100  1  0.87010000  0.27410000  0.12700000  1.0 0.0566186147
C  C101  1  0.40400000  0.12990000  0.12700000  1.0 0.0566186147
C  C102  1  0.72590000  0.59600000  0.12700000  1.0 0.0566186147
C  C103  1  0.27410000  0.87010000  0.62700000  1.0 0.0566186147
C  C104  1  0.12990000  0.40400000  0.62700000  1.0 0.0566186147
C  C105  1  0.59600000  0.72590000  0.62700000  1.0 0.0566186147
C  C106  1  0.12990000  0.72590000  0.87300000  1.0 0.0566186147
C  C107  1  0.59600000  0.87010000  0.87300000  1.0 0.0566186147
C  C108  1  0.27410000  0.40400000  0.87300000  1.0 0.0566186147
C  C109  1  0.68270000  0.07750000  0.41540000  1.0 -0.1929643316
C  C110  1  0.92250000  0.60520000  0.41540000  1.0 -0.1929643316
C  C111  1  0.39480000  0.31730000  0.41540000  1.0 -0.1929643316
C  C112  1  0.92250000  0.31730000  0.08460000  1.0 -0.1929643316
C  C113  1  0.39480000  0.07750000  0.08460000  1.0 -0.1929643316
C  C114  1  0.68270000  0.60520000  0.08460000  1.0 -0.1929643316
C  C115  1  0.31730000  0.92250000  0.58460000  1.0 -0.1929643316
C  C116  1  0.07750000  0.39480000  0.58460000  1.0 -0.1929643316
C  C117  1  0.60520000  0.68270000  0.58460000  1.0 -0.1929643316
C  C118  1  0.07750000  0.68270000  0.91540000  1.0 -0.1929643316
C  C119  1  0.60520000  0.92250000  0.91540000  1.0 -0.1929643316
C  C120  1  0.31730000  0.39480000  0.91540000  1.0 -0.1929643316
C  C121  1  0.61280000  0.03980000  0.40720000  1.0 0.0998780042
C  C122  1  0.96020000  0.57300000  0.40720000  1.0 0.0998780042
C  C123  1  0.42700000  0.38720000  0.40720000  1.0 0.0998780042
C  C124  1  0.96020000  0.38720000  0.09280000  1.0 0.0998780042
C  C125  1  0.42700000  0.03980000  0.09280000  1.0 0.0998780042
C  C126  1  0.61280000  0.57300000  0.09280000  1.0 0.0998780042
C  C127  1  0.38720000  0.96020000  0.59280000  1.0 0.0998780042
C  C128  1  0.03980000  0.42700000  0.59280000  1.0 0.0998780042
C  C129  1  0.57300000  0.61280000  0.59280000  1.0 0.0998780042
C  C130  1  0.03980000  0.61280000  0.90720000  1.0 0.0998780042
C  C131  1  0.57300000  0.96020000  0.90720000  1.0 0.0998780042
C  C132  1  0.38720000  0.42700000  0.90720000  1.0 0.0998780042
C  C133  1  0.58630000  0.05330000  0.35230000  1.0 -0.1989989914
C  C134  1  0.94670000  0.53300000  0.35230000  1.0 -0.1989989914
C  C135  1  0.46700000  0.41370000  0.35230000  1.0 -0.1989989914
C  C136  1  0.94670000  0.41370000  0.14770000  1.0 -0.1989989914
C  C137  1  0.46700000  0.05330000  0.14770000  1.0 -0.1989989914
C  C138  1  0.58630000  0.53300000  0.14770000  1.0 -0.1989989914
C  C139  1  0.41370000  0.94670000  0.64770000  1.0 -0.1989989914
C  C140  1  0.05330000  0.46700000  0.64770000  1.0 -0.1989989914
C  C141  1  0.53300000  0.58630000  0.64770000  1.0 -0.1989989914
C  C142  1  0.05330000  0.58630000  0.85230000  1.0 -0.1989989914
C  C143  1  0.53300000  0.94670000  0.85230000  1.0 -0.1989989914
C  C144  1  0.41370000  0.46700000  0.85230000  1.0 -0.1989989914
C  C145  1  0.63050000  0.10600000  0.31140000  1.0 0.0998780042
C  C146  1  0.89400000  0.52450000  0.31140000  1.0 0.0998780042
C  C147  1  0.47550000  0.36950000  0.31140000  1.0 0.0998780042
C  C148  1  0.89400000  0.36950000  0.18860000  1.0 0.0998780042
C  C149  1  0.47550000  0.10600000  0.18860000  1.0 0.0998780042
C  C150  1  0.63050000  0.52450000  0.18860000  1.0 0.0998780042
C  C151  1  0.36950000  0.89400000  0.68860000  1.0 0.0998780042
C  C152  1  0.10600000  0.47550000  0.68860000  1.0 0.0998780042
C  C153  1  0.52450000  0.63050000  0.68860000  1.0 0.0998780042
C  C154  1  0.10600000  0.63050000  0.81140000  1.0 0.0998780042
C  C155  1  0.52450000  0.89400000  0.81140000  1.0 0.0998780042
C  C156  1  0.36950000  0.47550000  0.81140000  1.0 0.0998780042
N  N1  1  0.51110000  0.94400000  0.44510000  1.0 -0.2743371932
N  N2  1  0.05600000  0.56710000  0.44510000  1.0 -0.2743371932
N  N3  1  0.43290000  0.48890000  0.44510000  1.0 -0.2755673168
N  N4  1  0.05600000  0.48890000  0.05490000  1.0 -0.2755673168
N  N5  1  0.43290000  0.94400000  0.05490000  1.0 -0.2743371932
N  N6  1  0.51110000  0.56710000  0.05490000  1.0 -0.2743371932
N  N7  1  0.48890000  0.05600000  0.55490000  1.0 -0.2743371932
N  N8  1  0.94400000  0.43290000  0.55490000  1.0 -0.2743371932
N  N9  1  0.56710000  0.51110000  0.55490000  1.0 -0.2743371932
N  N10  1  0.94400000  0.51110000  0.94510000  1.0 -0.2743371932
N  N11  1  0.56710000  0.05600000  0.94510000  1.0 -0.2743371932
N  N12  1  0.48890000  0.43290000  0.94510000  1.0 -0.2743371932
N  N13  1  0.69610000  0.14210000  0.31970000  1.0 -0.2315232692
N  N14  1  0.85790000  0.55400000  0.31970000  1.0 -0.2315232692
N  N15  1  0.44600000  0.30390000  0.31970000  1.0 -0.2315232692
N  N16  1  0.85790000  0.30390000  0.18030000  1.0 -0.2315232692
N  N17  1  0.44600000  0.14210000  0.18030000  1.0 -0.2315232692
N  N18  1  0.69610000  0.55400000  0.18030000  1.0 -0.2315232692
N  N19  1  0.30390000  0.85790000  0.68030000  1.0 -0.2315232692
N  N20  1  0.14210000  0.44600000  0.68030000  1.0 -0.2315232692
N  N21  1  0.55400000  0.69610000  0.68030000  1.0 -0.2315232692
N  N22  1  0.14210000  0.69610000  0.81970000  1.0 -0.2315232692
N  N23  1  0.55400000  0.85790000  0.81970000  1.0 -0.2315232692
N  N24  1  0.30390000  0.44600000  0.81970000  1.0 -0.2315232692
N  N25  1  0.37210000  0.87150000  0.43260000  1.0 -0.589097151
N  N26  1  0.12850000  0.50060000  0.43260000  1.0 -0.589097151
N  N27  1  0.49940000  0.62790000  0.43260000  1.0 -0.589097151
N  N28  1  0.12850000  0.62790000  0.06740000  1.0 -0.589097151
N  N29  1  0.49940000  0.87150000  0.06740000  1.0 -0.589097151
N  N30  1  0.37210000  0.50060000  0.06740000  1.0 -0.589097151
N  N31  1  0.62790000  0.12850000  0.56740000  1.0 -0.589097151
N  N32  1  0.87150000  0.49940000  0.56740000  1.0 -0.589097151
N  N33  1  0.50060000  0.37210000  0.56740000  1.0 -0.589097151
N  N34  1  0.87150000  0.37210000  0.93260000  1.0 -0.589097151
N  N35  1  0.50060000  0.12850000  0.93260000  1.0 -0.589097151
N  N36  1  0.62790000  0.49940000  0.93260000  1.0 -0.589097151
O  O1  1  0.45450000  0.76580000  0.68440000  1.0 -0.6243229447
O  O2  1  0.23420000  0.68870000  0.68440000  1.0 -0.6243229447
O  O3  1  0.31130000  0.54550000  0.68440000  1.0 -0.6243229447
O  O4  1  0.23420000  0.54550000  0.81560000  1.0 -0.6243229447
O  O5  1  0.31130000  0.76580000  0.81560000  1.0 -0.6243229447
O  O6  1  0.45450000  0.68870000  0.81560000  1.0 -0.6243229447
O  O7  1  0.54550000  0.23420000  0.31560000  1.0 -0.6243229447
O  O8  1  0.76580000  0.31130000  0.31560000  1.0 -0.6243229447
O  O9  1  0.68870000  0.45450000  0.31560000  1.0 -0.6243229447
O  O10  1  0.76580000  0.45450000  0.18440000  1.0 -0.6243229447
O  O11  1  0.68870000  0.23420000  0.18440000  1.0 -0.6243229447
O  O12  1  0.54550000  0.31130000  0.18440000  1.0 -0.6243229447
O  O13  1  0.55640000  0.84420000  0.65330000  1.0 -0.5394801486
O  O14  1  0.15580000  0.71220000  0.65330000  1.0 -0.5394801486
O  O15  1  0.28780000  0.44360000  0.65330000  1.0 -0.5394801486
O  O16  1  0.15580000  0.44360000  0.84670000  1.0 -0.5394801486
O  O17  1  0.28780000  0.84420000  0.84670000  1.0 -0.5394801486
O  O18  1  0.55640000  0.71220000  0.84670000  1.0 -0.5394801486
O  O19  1  0.44360000  0.15580000  0.34670000  1.0 -0.5394801486
O  O20  1  0.84420000  0.28780000  0.34670000  1.0 -0.5394801486
O  O21  1  0.71220000  0.55640000  0.34670000  1.0 -0.5394801486
O  O22  1  0.84420000  0.55640000  0.15330000  1.0 -0.5394801486
O  O23  1  0.71220000  0.15580000  0.15330000  1.0 -0.5394801486
O  O24  1  0.44360000  0.28780000  0.15330000  1.0 -0.5394801486
