# DDEC6 charges by PACMAN v1.1 (https://github.com/mtap-research/PACMAN-charge/)
data_SUKYON_ASR_pacman
_symmetry_space_group_name_H-M   'P 1'
_cell_length_a   18.14270000
_cell_length_b   18.14270000
_cell_length_c   35.41000000
_cell_angle_alpha   90.00000000
_cell_angle_beta   90.00000000
_cell_angle_gamma   90.00000000
_symmetry_Int_Tables_number   1
_chemical_formula_structural   Cu2H32C53O8
_chemical_formula_sum   'Cu8 H128 C212 O32'
_cell_volume   11655.46931610
_cell_formula_units_Z   4
loop_
 _symmetry_equiv_pos_site_id
 _symmetry_equiv_pos_as_xyz
  1  'x, y, z'
loop_
 _atom_site_type_symbol
 _atom_site_label
 _atom_site_symmetry_multiplicity
 _atom_site_fract_x
 _atom_site_fract_y
 _atom_site_fract_z
 _atom_site_occupancy
 _atom_site_charge
Cu  Cu1  1  0.57321000  0.50705000  0.71189000  1.0 0.9080399744
Cu  Cu2  1  0.42679000  0.49295000  0.71189000  1.0 0.9080399744
Cu  Cu3  1  0.00705000  0.07321000  0.21189000  1.0 0.9080399744
Cu  Cu4  1  0.99295000  0.92679000  0.21189000  1.0 0.9080399744
Cu  Cu5  1  0.49295000  0.57321000  0.28811000  1.0 0.9080399744
Cu  Cu6  1  0.50705000  0.42679000  0.28811000  1.0 0.9080399744
Cu  Cu7  1  0.92679000  0.00705000  0.78811000  1.0 0.9080399744
Cu  Cu8  1  0.07321000  0.99295000  0.78811000  1.0 0.9080399744
H  H1  1  0.39230000  0.82560000  0.53920000  1.0 0.1131225342
H  H2  1  0.60770000  0.17440000  0.53920000  1.0 0.1196435668
H  H3  1  0.32560000  0.89230000  0.03920000  1.0 0.1131225342
H  H4  1  0.67440000  0.10770000  0.03920000  1.0 0.1131225342
H  H5  1  0.38740000  0.91840000  0.49380000  1.0 0.1131225342
H  H6  1  0.61260000  0.08160000  0.49380000  1.0 0.1131225342
H  H7  1  0.41840000  0.88740000  0.99380000  1.0 0.1131225342
H  H8  1  0.58160000  0.11260000  0.99380000  1.0 0.1131225342
H  H9  1  0.60920000  0.93430000  0.49590000  1.0 0.1196435668
H  H10  1  0.39080000  0.06570000  0.49590000  1.0 0.1196435668
H  H11  1  0.43430000  0.10920000  0.99590000  1.0 0.1196435668
H  H12  1  0.56570000  0.89080000  0.99590000  1.0 0.1196435668
H  H13  1  0.61420000  0.84150000  0.54130000  1.0 0.1196435668
H  H14  1  0.38580000  0.15850000  0.54130000  1.0 0.1196435668
H  H15  1  0.34150000  0.11420000  0.04130000  1.0 0.1196435668
H  H16  1  0.65850000  0.88580000  0.04130000  1.0 0.1196435668
H  H17  1  0.35490000  0.09730000  0.36990000  1.0 0.1196435668
H  H18  1  0.64510000  0.90270000  0.36990000  1.0 0.1196435668
H  H19  1  0.59730000  0.85490000  0.86990000  1.0 0.1196435668
H  H20  1  0.40270000  0.14510000  0.86990000  1.0 0.1196435668
H  H21  1  0.44980000  0.09940000  0.41420000  1.0 0.1301087668
H  H22  1  0.55020000  0.90060000  0.41420000  1.0 0.1301087668
H  H23  1  0.59940000  0.94980000  0.91420000  1.0 0.1196435668
H  H24  1  0.40060000  0.05020000  0.91420000  1.0 0.1196435668
H  H25  1  0.40040000  0.89080000  0.44460000  1.0 0.1196435668
H  H26  1  0.59960000  0.10920000  0.44460000  1.0 0.1196435668
H  H27  1  0.39080000  0.90040000  0.94460000  1.0 0.1196435668
H  H28  1  0.60920000  0.09960000  0.94460000  1.0 0.1196435668
H  H29  1  0.30550000  0.88870000  0.40030000  1.0 0.1196435668
H  H30  1  0.69450000  0.11130000  0.40030000  1.0 0.1196435668
H  H31  1  0.38870000  0.80550000  0.90030000  1.0 0.1196435668
H  H32  1  0.61130000  0.19450000  0.90030000  1.0 0.1196435668
H  H33  1  0.38790000  0.65180000  0.61660000  1.0 0.1301087668
H  H34  1  0.61210000  0.34820000  0.61660000  1.0 0.1301087668
H  H35  1  0.15180000  0.88790000  0.11660000  1.0 0.1301087668
H  H36  1  0.84820000  0.11210000  0.11660000  1.0 0.1301087668
H  H37  1  0.39160000  0.74200000  0.56980000  1.0 0.1131225342
H  H38  1  0.60840000  0.25800000  0.56980000  1.0 0.1131225342
H  H39  1  0.24200000  0.89160000  0.06980000  1.0 0.1131225342
H  H40  1  0.75800000  0.10840000  0.06980000  1.0 0.1131225342
H  H41  1  0.60960000  0.76850000  0.58770000  1.0 0.1131225342
H  H42  1  0.39040000  0.23150000  0.58770000  1.0 0.1131225342
H  H43  1  0.26850000  0.10960000  0.08770000  1.0 0.1131225342
H  H44  1  0.73150000  0.89040000  0.08770000  1.0 0.1131225342
H  H45  1  0.60600000  0.67830000  0.63450000  1.0 0.1301087668
H  H46  1  0.39400000  0.32170000  0.63450000  1.0 0.1301087668
H  H47  1  0.17830000  0.10600000  0.13450000  1.0 0.1301087668
H  H48  1  0.82170000  0.89400000  0.13450000  1.0 0.1301087668
H  H49  1  0.15990000  0.88300000  0.30020000  1.0 0.1301087668
H  H50  1  0.84010000  0.11700000  0.30020000  1.0 0.1301087668
H  H51  1  0.38300000  0.65990000  0.80020000  1.0 0.1301087668
H  H52  1  0.61700000  0.34010000  0.80020000  1.0 0.1301087668
H  H53  1  0.24680000  0.88160000  0.34860000  1.0 0.1196435668
H  H54  1  0.75320000  0.11840000  0.34860000  1.0 0.1196435668
H  H55  1  0.38160000  0.74680000  0.84860000  1.0 0.1196435668
H  H56  1  0.61840000  0.25320000  0.84860000  1.0 0.1196435668
H  H57  1  0.25810000  0.10360000  0.34490000  1.0 0.1131225342
H  H58  1  0.74190000  0.89640000  0.34490000  1.0 0.1131225342
H  H59  1  0.60360000  0.75810000  0.84490000  1.0 0.1131225342
H  H60  1  0.39640000  0.24190000  0.84490000  1.0 0.1131225342
H  H61  1  0.17120000  0.10500000  0.29650000  1.0 0.1301087668
H  H62  1  0.82880000  0.89500000  0.29650000  1.0 0.1301087668
H  H63  1  0.60500000  0.67120000  0.79650000  1.0 0.1301087668
H  H64  1  0.39500000  0.32880000  0.79650000  1.0 0.1301087668
H  H65  1  0.17440000  0.39230000  0.46080000  1.0 0.1131225342
H  H66  1  0.82560000  0.60770000  0.46080000  1.0 0.1131225342
H  H67  1  0.10770000  0.32560000  0.96080000  1.0 0.1131225342
H  H68  1  0.89230000  0.67440000  0.96080000  1.0 0.1131225342
H  H69  1  0.08160000  0.38740000  0.50620000  1.0 0.1131225342
H  H70  1  0.91840000  0.61260000  0.50620000  1.0 0.1131225342
H  H71  1  0.11260000  0.41840000  0.00620000  1.0 0.1131225342
H  H72  1  0.88740000  0.58160000  0.00620000  1.0 0.1131225342
H  H73  1  0.06570000  0.60920000  0.50410000  1.0 0.1196435668
H  H74  1  0.93430000  0.39080000  0.50410000  1.0 0.1196435668
H  H75  1  0.89080000  0.43430000  0.00410000  1.0 0.1196435668
H  H76  1  0.10920000  0.56570000  0.00410000  1.0 0.1196435668
H  H77  1  0.15850000  0.61420000  0.45870000  1.0 0.1196435668
H  H78  1  0.84150000  0.38580000  0.45870000  1.0 0.1196435668
H  H79  1  0.88580000  0.34150000  0.95870000  1.0 0.1196435668
H  H80  1  0.11420000  0.65850000  0.95870000  1.0 0.1196435668
H  H81  1  0.90270000  0.35490000  0.63010000  1.0 0.1196435668
H  H82  1  0.09730000  0.64510000  0.63010000  1.0 0.1196435668
H  H83  1  0.14510000  0.59730000  0.13010000  1.0 0.1196435668
H  H84  1  0.85490000  0.40270000  0.13010000  1.0 0.1196435668
H  H85  1  0.90060000  0.44980000  0.58580000  1.0 0.1196435668
H  H86  1  0.09940000  0.55020000  0.58580000  1.0 0.1196435668
H  H87  1  0.05020000  0.59940000  0.08580000  1.0 0.1301087668
H  H88  1  0.94980000  0.40060000  0.08580000  1.0 0.1301087668
H  H89  1  0.10920000  0.40040000  0.55540000  1.0 0.1196435668
H  H90  1  0.89080000  0.59960000  0.55540000  1.0 0.1196435668
H  H91  1  0.09960000  0.39080000  0.05540000  1.0 0.1196435668
H  H92  1  0.90040000  0.60920000  0.05540000  1.0 0.1196435668
H  H93  1  0.11130000  0.30550000  0.59970000  1.0 0.1196435668
H  H94  1  0.88870000  0.69450000  0.59970000  1.0 0.1196435668
H  H95  1  0.19450000  0.38870000  0.09970000  1.0 0.1196435668
H  H96  1  0.80550000  0.61130000  0.09970000  1.0 0.1196435668
H  H97  1  0.34820000  0.38790000  0.38340000  1.0 0.1301087668
H  H98  1  0.65180000  0.61210000  0.38340000  1.0 0.1301087668
H  H99  1  0.11210000  0.15180000  0.88340000  1.0 0.1301087668
H  H100  1  0.88790000  0.84820000  0.88340000  1.0 0.1301087668
H  H101  1  0.25800000  0.39160000  0.43020000  1.0 0.1131225342
H  H102  1  0.74200000  0.60840000  0.43020000  1.0 0.1131225342
H  H103  1  0.10840000  0.24200000  0.93020000  1.0 0.1131225342
H  H104  1  0.89160000  0.75800000  0.93020000  1.0 0.1131225342
H  H105  1  0.23150000  0.60960000  0.41230000  1.0 0.1131225342
H  H106  1  0.76850000  0.39040000  0.41230000  1.0 0.1131225342
H  H107  1  0.89040000  0.26850000  0.91230000  1.0 0.1131225342
H  H108  1  0.10960000  0.73150000  0.91230000  1.0 0.1131225342
H  H109  1  0.32170000  0.60600000  0.36550000  1.0 0.1301087668
H  H110  1  0.67830000  0.39400000  0.36550000  1.0 0.1301087668
H  H111  1  0.89400000  0.17830000  0.86550000  1.0 0.1301087668
H  H112  1  0.10600000  0.82170000  0.86550000  1.0 0.1301087668
H  H113  1  0.11700000  0.15990000  0.69980000  1.0 0.1301087668
H  H114  1  0.88300000  0.84010000  0.69980000  1.0 0.1301087668
H  H115  1  0.34010000  0.38300000  0.19980000  1.0 0.1301087668
H  H116  1  0.65990000  0.61700000  0.19980000  1.0 0.1301087668
H  H117  1  0.11840000  0.24680000  0.65140000  1.0 0.1196435668
H  H118  1  0.88160000  0.75320000  0.65140000  1.0 0.1196435668
H  H119  1  0.25320000  0.38160000  0.15140000  1.0 0.1196435668
H  H120  1  0.74680000  0.61840000  0.15140000  1.0 0.1196435668
H  H121  1  0.89640000  0.25810000  0.65510000  1.0 0.1131225342
H  H122  1  0.10360000  0.74190000  0.65510000  1.0 0.1131225342
H  H123  1  0.24190000  0.60360000  0.15510000  1.0 0.1131225342
H  H124  1  0.75810000  0.39640000  0.15510000  1.0 0.1131225342
H  H125  1  0.89500000  0.17120000  0.70350000  1.0 0.1301087668
H  H126  1  0.10500000  0.82880000  0.70350000  1.0 0.1301087668
H  H127  1  0.32880000  0.60500000  0.20350000  1.0 0.1301087668
H  H128  1  0.67120000  0.39500000  0.20350000  1.0 0.1301087668
C  C1  1  0.50370000  0.82460000  0.54460000  1.0 0.0731096988
C  C2  1  0.49630000  0.17540000  0.54460000  1.0 0.0731096988
C  C3  1  0.32460000  0.00370000  0.04460000  1.0 0.0731096988
C  C4  1  0.67540000  0.99630000  0.04460000  1.0 0.0731096988
C  C5  1  0.43610000  0.84750000  0.53040000  1.0 -0.142542822
C  C6  1  0.56390000  0.15250000  0.53040000  1.0 -0.142542822
C  C7  1  0.34750000  0.93610000  0.03040000  1.0 -0.142542822
C  C8  1  0.65250000  0.06390000  0.03040000  1.0 -0.142542822
C  C9  1  0.43310000  0.90290000  0.50340000  1.0 -0.1500483631
C  C10  1  0.56690000  0.09710000  0.50340000  1.0 -0.1500483631
C  C11  1  0.40290000  0.93310000  0.00340000  1.0 -0.1500483631
C  C12  1  0.59710000  0.06690000  0.00340000  1.0 -0.1500483631
C  C13  1  0.49780000  0.93530000  0.49040000  1.0 0.0488743699
C  C14  1  0.50220000  0.06470000  0.49040000  1.0 0.0488743699
C  C15  1  0.43530000  0.99780000  0.99040000  1.0 0.0488743699
C  C16  1  0.56470000  0.00220000  0.99040000  1.0 0.0488743699
C  C17  1  0.56550000  0.91230000  0.50460000  1.0 -0.1500483631
C  C18  1  0.43450000  0.08770000  0.50460000  1.0 -0.1500483631
C  C19  1  0.41230000  0.06550000  0.00460000  1.0 -0.1500483631
C  C20  1  0.58770000  0.93450000  0.00460000  1.0 -0.1500483631
C  C21  1  0.56840000  0.85700000  0.53170000  1.0 -0.1500483631
C  C22  1  0.43160000  0.14300000  0.53170000  1.0 -0.1500483631
C  C23  1  0.35700000  0.06840000  0.03170000  1.0 -0.1500483631
C  C24  1  0.64300000  0.93160000  0.03170000  1.0 -0.1500483631
C  C25  1  0.49070000  0.59780000  0.66020000  1.0 0.5845746612
C  C26  1  0.50930000  0.40220000  0.66020000  1.0 0.5845746612
C  C27  1  0.09780000  0.99070000  0.16020000  1.0 0.5845746612
C  C28  1  0.90220000  0.00930000  0.16020000  1.0 0.5859015854
C  C29  1  0.32100000  0.99280000  0.38080000  1.0 0.0731096988
C  C30  1  0.67900000  0.00720000  0.38080000  1.0 0.0731096988
C  C31  1  0.49280000  0.82100000  0.88080000  1.0 0.0731096988
C  C32  1  0.50720000  0.17900000  0.88080000  1.0 0.0731096988
C  C33  1  0.36400000  0.05560000  0.38490000  1.0 -0.1500483631
C  C34  1  0.63600000  0.94440000  0.38490000  1.0 -0.1500483631
C  C35  1  0.55560000  0.86400000  0.88490000  1.0 -0.1500483631
C  C36  1  0.44440000  0.13600000  0.88490000  1.0 -0.1500483631
C  C37  1  0.42070000  0.05690000  0.41140000  1.0 -0.1572327983
C  C38  1  0.57930000  0.94310000  0.41140000  1.0 -0.1572327983
C  C39  1  0.55690000  0.92070000  0.91140000  1.0 -0.1572327983
C  C40  1  0.44310000  0.07930000  0.91140000  1.0 -0.1572327983
C  C41  1  0.43430000  0.99530000  0.43360000  1.0 0.0488743699
C  C42  1  0.56570000  0.00470000  0.43360000  1.0 0.0488743699
C  C43  1  0.49530000  0.93430000  0.93360000  1.0 0.0488743699
C  C44  1  0.50470000  0.06570000  0.93360000  1.0 0.0488743699
C  C45  1  0.39120000  0.93250000  0.42950000  1.0 -0.1572327983
C  C46  1  0.60880000  0.06750000  0.42950000  1.0 -0.1572327983
C  C47  1  0.43250000  0.89120000  0.92950000  1.0 -0.1572327983
C  C48  1  0.56750000  0.10880000  0.92950000  1.0 -0.1572327983
C  C49  1  0.33460000  0.93120000  0.40310000  1.0 -0.1500483631
C  C50  1  0.66540000  0.06880000  0.40310000  1.0 -0.1500483631
C  C51  1  0.43120000  0.83460000  0.90310000  1.0 -0.1500483631
C  C52  1  0.56880000  0.16540000  0.90310000  1.0 -0.1500483631
C  C53  1  0.49660000  0.65640000  0.63010000  1.0 -0.0183693838
C  C54  1  0.50340000  0.34360000  0.63010000  1.0 -0.0183693838
C  C55  1  0.15640000  0.99660000  0.13010000  1.0 -0.0183693838
C  C56  1  0.84360000  0.00340000  0.13010000  1.0 -0.0183693838
C  C57  1  0.43260000  0.67540000  0.61080000  1.0 -0.0831221898
C  C58  1  0.56740000  0.32460000  0.61080000  1.0 -0.0831221898
C  C59  1  0.17540000  0.93260000  0.11080000  1.0 -0.0831221898
C  C60  1  0.82460000  0.06740000  0.11080000  1.0 -0.0831221898
C  C61  1  0.43480000  0.72920000  0.58280000  1.0 -0.1659937554
C  C62  1  0.56520000  0.27080000  0.58280000  1.0 -0.1659937554
C  C63  1  0.22920000  0.93480000  0.08280000  1.0 -0.1572327983
C  C64  1  0.77080000  0.06520000  0.08280000  1.0 -0.1572327983
C  C65  1  0.50100000  0.76400000  0.57420000  1.0 0.0795875912
C  C66  1  0.49900000  0.23600000  0.57420000  1.0 0.0795875912
C  C67  1  0.26400000  0.00100000  0.07420000  1.0 0.0795875912
C  C68  1  0.73600000  0.99900000  0.07420000  1.0 0.0795875912
C  C69  1  0.56490000  0.74500000  0.59350000  1.0 -0.1572327983
C  C70  1  0.43510000  0.25500000  0.59350000  1.0 -0.1500483631
C  C71  1  0.24500000  0.06490000  0.09350000  1.0 -0.1572327983
C  C72  1  0.75500000  0.93510000  0.09350000  1.0 -0.1572327983
C  C73  1  0.56270000  0.69120000  0.62140000  1.0 -0.0876463863
C  C74  1  0.43730000  0.30880000  0.62140000  1.0 -0.0876463863
C  C75  1  0.19120000  0.06270000  0.12140000  1.0 -0.0876463863
C  C76  1  0.80880000  0.93730000  0.12140000  1.0 -0.0876463863
C  C77  1  0.15710000  0.99410000  0.29370000  1.0 -0.0318821698
C  C78  1  0.84290000  0.00590000  0.29370000  1.0 -0.0318821698
C  C79  1  0.49410000  0.65710000  0.79370000  1.0 -0.0318821698
C  C80  1  0.50590000  0.34290000  0.79370000  1.0 -0.0318821698
C  C81  1  0.17970000  0.92750000  0.30920000  1.0 -0.0831221898
C  C82  1  0.82030000  0.07250000  0.30920000  1.0 -0.0831221898
C  C83  1  0.42750000  0.67970000  0.80920000  1.0 -0.0831221898
C  C84  1  0.57250000  0.32030000  0.80920000  1.0 -0.0831221898
C  C85  1  0.23160000  0.92670000  0.33810000  1.0 -0.1500483631
C  C86  1  0.76840000  0.07330000  0.33810000  1.0 -0.1500483631
C  C87  1  0.42670000  0.73160000  0.83810000  1.0 -0.1572327983
C  C88  1  0.57330000  0.26840000  0.83810000  1.0 -0.1572327983
C  C89  1  0.26090000  0.99250000  0.35140000  1.0 0.0795875912
C  C90  1  0.73910000  0.00750000  0.35140000  1.0 0.0795875912
C  C91  1  0.49250000  0.76090000  0.85140000  1.0 0.0795875912
C  C92  1  0.50750000  0.23910000  0.85140000  1.0 0.0795875912
C  C93  1  0.23830000  0.05910000  0.33590000  1.0 -0.1572327983
C  C94  1  0.76170000  0.94090000  0.33590000  1.0 -0.1572327983
C  C95  1  0.55910000  0.73830000  0.83590000  1.0 -0.1572327983
C  C96  1  0.44090000  0.26170000  0.83590000  1.0 -0.1572327983
C  C97  1  0.18640000  0.05990000  0.30700000  1.0 -0.0831221898
C  C98  1  0.81360000  0.94010000  0.30700000  1.0 -0.0831221898
C  C99  1  0.55990000  0.68640000  0.80700000  1.0 -0.0831221898
C  C100  1  0.44010000  0.31360000  0.80700000  1.0 -0.0831221898
C  C101  1  0.50000000  0.00000000  0.46170000  1.0 -0.0040230992
C  C102  1  0.50000000  0.00000000  0.96170000  1.0 -0.0040230992
C  C103  1  0.10260000  0.99820000  0.26250000  1.0 0.5859015854
C  C104  1  0.89740000  0.00180000  0.26250000  1.0 0.5859015854
C  C105  1  0.49820000  0.60260000  0.76250000  1.0 0.5859015854
C  C106  1  0.50180000  0.39740000  0.76250000  1.0 0.5859015854
C  C107  1  0.17540000  0.50370000  0.45540000  1.0 0.0731096988
C  C108  1  0.82460000  0.49630000  0.45540000  1.0 0.0731096988
C  C109  1  0.99630000  0.32460000  0.95540000  1.0 0.0731096988
C  C110  1  0.00370000  0.67540000  0.95540000  1.0 0.0731096988
C  C111  1  0.15250000  0.43610000  0.46960000  1.0 -0.142542822
C  C112  1  0.84750000  0.56390000  0.46960000  1.0 -0.142542822
C  C113  1  0.06390000  0.34750000  0.96960000  1.0 -0.142542822
C  C114  1  0.93610000  0.65250000  0.96960000  1.0 -0.142542822
C  C115  1  0.09710000  0.43310000  0.49660000  1.0 -0.1500483631
C  C116  1  0.90290000  0.56690000  0.49660000  1.0 -0.1500483631
C  C117  1  0.06690000  0.40290000  0.99660000  1.0 -0.1500483631
C  C118  1  0.93310000  0.59710000  0.99660000  1.0 -0.1500483631
C  C119  1  0.06470000  0.49780000  0.50960000  1.0 0.0488743699
C  C120  1  0.93530000  0.50220000  0.50960000  1.0 0.0488743699
C  C121  1  0.00220000  0.43530000  0.00960000  1.0 0.0488743699
C  C122  1  0.99780000  0.56470000  0.00960000  1.0 0.0488743699
C  C123  1  0.08770000  0.56550000  0.49540000  1.0 -0.1500483631
C  C124  1  0.91230000  0.43450000  0.49540000  1.0 -0.1500483631
C  C125  1  0.93450000  0.41230000  0.99540000  1.0 -0.1500483631
C  C126  1  0.06550000  0.58770000  0.99540000  1.0 -0.1500483631
C  C127  1  0.14300000  0.56840000  0.46830000  1.0 -0.1500483631
C  C128  1  0.85700000  0.43160000  0.46830000  1.0 -0.1500483631
C  C129  1  0.93160000  0.35700000  0.96830000  1.0 -0.1500483631
C  C130  1  0.06840000  0.64300000  0.96830000  1.0 -0.1500483631
C  C131  1  0.40220000  0.49070000  0.33980000  1.0 0.5845746612
C  C132  1  0.59780000  0.50930000  0.33980000  1.0 0.5845746612
C  C133  1  0.00930000  0.09780000  0.83980000  1.0 0.5845746612
C  C134  1  0.99070000  0.90220000  0.83980000  1.0 0.5845746612
C  C135  1  0.00720000  0.32100000  0.61920000  1.0 0.0731096988
C  C136  1  0.99280000  0.67900000  0.61920000  1.0 0.0731096988
C  C137  1  0.17900000  0.49280000  0.11920000  1.0 0.0731096988
C  C138  1  0.82100000  0.50720000  0.11920000  1.0 0.0731096988
C  C139  1  0.94440000  0.36400000  0.61510000  1.0 -0.1500483631
C  C140  1  0.05560000  0.63600000  0.61510000  1.0 -0.1500483631
C  C141  1  0.13600000  0.55560000  0.11510000  1.0 -0.1500483631
C  C142  1  0.86400000  0.44440000  0.11510000  1.0 -0.1500483631
C  C143  1  0.94310000  0.42070000  0.58860000  1.0 -0.1572327983
C  C144  1  0.05690000  0.57930000  0.58860000  1.0 -0.1572327983
C  C145  1  0.07930000  0.55690000  0.08860000  1.0 -0.1572327983
C  C146  1  0.92070000  0.44310000  0.08860000  1.0 -0.1572327983
C  C147  1  0.00470000  0.43430000  0.56640000  1.0 0.0488743699
C  C148  1  0.99530000  0.56570000  0.56640000  1.0 0.0488743699
C  C149  1  0.06570000  0.49530000  0.06640000  1.0 0.0488743699
C  C150  1  0.93430000  0.50470000  0.06640000  1.0 0.0488743699
C  C151  1  0.06750000  0.39120000  0.57050000  1.0 -0.1572327983
C  C152  1  0.93250000  0.60880000  0.57050000  1.0 -0.1572327983
C  C153  1  0.10880000  0.43250000  0.07050000  1.0 -0.1572327983
C  C154  1  0.89120000  0.56750000  0.07050000  1.0 -0.1572327983
C  C155  1  0.06880000  0.33460000  0.59690000  1.0 -0.1500483631
C  C156  1  0.93120000  0.66540000  0.59690000  1.0 -0.1500483631
C  C157  1  0.16540000  0.43120000  0.09690000  1.0 -0.1500483631
C  C158  1  0.83460000  0.56880000  0.09690000  1.0 -0.1500483631
C  C159  1  0.34360000  0.49660000  0.36990000  1.0 -0.0183693838
C  C160  1  0.65640000  0.50340000  0.36990000  1.0 -0.0183693838
C  C161  1  0.00340000  0.15640000  0.86990000  1.0 -0.0183693838
C  C162  1  0.99660000  0.84360000  0.86990000  1.0 -0.0183693838
C  C163  1  0.32460000  0.43260000  0.38920000  1.0 -0.0831221898
C  C164  1  0.67540000  0.56740000  0.38920000  1.0 -0.0831221898
C  C165  1  0.06740000  0.17540000  0.88920000  1.0 -0.0831221898
C  C166  1  0.93260000  0.82460000  0.88920000  1.0 -0.0831221898
C  C167  1  0.27080000  0.43480000  0.41720000  1.0 -0.1572327983
C  C168  1  0.72920000  0.56520000  0.41720000  1.0 -0.1572327983
C  C169  1  0.06520000  0.22920000  0.91720000  1.0 -0.1659937554
C  C170  1  0.93480000  0.77080000  0.91720000  1.0 -0.1659937554
C  C171  1  0.23600000  0.50100000  0.42580000  1.0 0.0795875912
C  C172  1  0.76400000  0.49900000  0.42580000  1.0 0.0795875912
C  C173  1  0.99900000  0.26400000  0.92580000  1.0 0.0795875912
C  C174  1  0.00100000  0.73600000  0.92580000  1.0 0.0795875912
C  C175  1  0.25500000  0.56490000  0.40650000  1.0 -0.1572327983
C  C176  1  0.74500000  0.43510000  0.40650000  1.0 -0.1572327983
C  C177  1  0.93510000  0.24500000  0.90650000  1.0 -0.1572327983
C  C178  1  0.06490000  0.75500000  0.90650000  1.0 -0.1572327983
C  C179  1  0.30880000  0.56270000  0.37860000  1.0 -0.0876463863
C  C180  1  0.69120000  0.43730000  0.37860000  1.0 -0.0876463863
C  C181  1  0.93730000  0.19120000  0.87860000  1.0 -0.0876463863
C  C182  1  0.06270000  0.80880000  0.87860000  1.0 -0.0876463863
C  C183  1  0.00590000  0.15710000  0.70630000  1.0 -0.0318821698
C  C184  1  0.99410000  0.84290000  0.70630000  1.0 -0.0318821698
C  C185  1  0.34290000  0.49410000  0.20630000  1.0 -0.0318821698
C  C186  1  0.65710000  0.50590000  0.20630000  1.0 -0.0318821698
C  C187  1  0.07250000  0.17970000  0.69080000  1.0 -0.0831221898
C  C188  1  0.92750000  0.82030000  0.69080000  1.0 -0.0831221898
C  C189  1  0.32030000  0.42750000  0.19080000  1.0 -0.0831221898
C  C190  1  0.67970000  0.57250000  0.19080000  1.0 -0.0831221898
C  C191  1  0.07330000  0.23160000  0.66190000  1.0 -0.1572327983
C  C192  1  0.92670000  0.76840000  0.66190000  1.0 -0.1572327983
C  C193  1  0.26840000  0.42670000  0.16190000  1.0 -0.1572327983
C  C194  1  0.73160000  0.57330000  0.16190000  1.0 -0.1572327983
C  C195  1  0.00750000  0.26090000  0.64860000  1.0 0.0795875912
C  C196  1  0.99250000  0.73910000  0.64860000  1.0 0.0795875912
C  C197  1  0.23910000  0.49250000  0.14860000  1.0 0.0795875912
C  C198  1  0.76090000  0.50750000  0.14860000  1.0 0.0795875912
C  C199  1  0.94090000  0.23830000  0.66410000  1.0 -0.1572327983
C  C200  1  0.05910000  0.76170000  0.66410000  1.0 -0.1572327983
C  C201  1  0.26170000  0.55910000  0.16410000  1.0 -0.1572327983
C  C202  1  0.73830000  0.44090000  0.16410000  1.0 -0.1500483631
C  C203  1  0.94010000  0.18640000  0.69300000  1.0 -0.0831221898
C  C204  1  0.05990000  0.81360000  0.69300000  1.0 -0.0831221898
C  C205  1  0.31360000  0.55990000  0.19300000  1.0 -0.0831221898
C  C206  1  0.68640000  0.44010000  0.19300000  1.0 -0.0831221898
C  C207  1  0.00000000  0.50000000  0.53830000  1.0 -0.0040230992
C  C208  1  0.00000000  0.50000000  0.03830000  1.0 -0.0067436142
C  C209  1  0.00180000  0.10260000  0.73750000  1.0 0.5859015854
C  C210  1  0.99820000  0.89740000  0.73750000  1.0 0.5859015854
C  C211  1  0.39740000  0.49820000  0.23750000  1.0 0.5859015854
C  C212  1  0.60260000  0.50180000  0.23750000  1.0 0.5859015854
O  O1  1  0.55260000  0.57780000  0.67540000  1.0 -0.5341803037
O  O2  1  0.44740000  0.42220000  0.67540000  1.0 -0.5341803037
O  O3  1  0.07780000  0.05260000  0.17540000  1.0 -0.5341803037
O  O4  1  0.92220000  0.94740000  0.17540000  1.0 -0.5341803037
O  O5  1  0.08550000  0.06240000  0.24840000  1.0 -0.5117367112
O  O6  1  0.91450000  0.93760000  0.24840000  1.0 -0.5117367112
O  O7  1  0.56240000  0.58550000  0.74840000  1.0 -0.5117367112
O  O8  1  0.43760000  0.41450000  0.74840000  1.0 -0.5117367112
O  O9  1  0.42520000  0.56970000  0.66666667  1.0 -0.5611627676
O  O10  1  0.57480000  0.43030000  0.66666667  1.0 -0.5611627676
O  O11  1  0.06970000  0.92520000  0.16660000  1.0 -0.5611627676
O  O12  1  0.93030000  0.07480000  0.16660000  1.0 -0.5611627676
O  O13  1  0.06470000  0.93840000  0.25160000  1.0 -0.5777602472
O  O14  1  0.93530000  0.06160000  0.25160000  1.0 -0.5777602472
O  O15  1  0.43840000  0.56470000  0.75160000  1.0 -0.5777602472
O  O16  1  0.56160000  0.43530000  0.75160000  1.0 -0.5777602472
O  O17  1  0.42220000  0.55260000  0.32460000  1.0 -0.5341803037
O  O18  1  0.57780000  0.44740000  0.32460000  1.0 -0.5341803037
O  O19  1  0.94740000  0.07780000  0.82460000  1.0 -0.5341803037
O  O20  1  0.05260000  0.92220000  0.82460000  1.0 -0.5341803037
O  O21  1  0.93760000  0.08550000  0.75160000  1.0 -0.5117367112
O  O22  1  0.06240000  0.91450000  0.75160000  1.0 -0.5117367112
O  O23  1  0.41450000  0.56240000  0.25160000  1.0 -0.5117367112
O  O24  1  0.58550000  0.43760000  0.25160000  1.0 -0.5117367112
O  O25  1  0.43030000  0.42520000  0.33340000  1.0 -0.5611627676
O  O26  1  0.56970000  0.57480000  0.33340000  1.0 -0.5611627676
O  O27  1  0.07480000  0.06970000  0.83340000  1.0 -0.5611627676
O  O28  1  0.92520000  0.93030000  0.83340000  1.0 -0.5611627676
O  O29  1  0.06160000  0.06470000  0.74840000  1.0 -0.5777602472
O  O30  1  0.93840000  0.93530000  0.74840000  1.0 -0.5777602472
O  O31  1  0.43530000  0.43840000  0.24840000  1.0 -0.5777602472
O  O32  1  0.56470000  0.56160000  0.24840000  1.0 -0.5777602472
