# DDEC6 charges by PACMAN v1.1 (https://github.com/mtap-research/PACMAN-charge/)
data_SULRID_ASR_pacman
_symmetry_space_group_name_H-M   'P 1'
_cell_length_a   18.52110000
_cell_length_b   18.52110000
_cell_length_c   23.81990000
_cell_angle_alpha   90.00000000
_cell_angle_beta   90.00000000
_cell_angle_gamma   120.00000000
_symmetry_Int_Tables_number   1
_chemical_formula_structural   CuH5C15NO4
_chemical_formula_sum   'Cu12 H60 C180 N12 O48'
_cell_volume   7076.26549413
_cell_formula_units_Z   12
loop_
 _symmetry_equiv_pos_site_id
 _symmetry_equiv_pos_as_xyz
  1  'x, y, z'
loop_
 _atom_site_type_symbol
 _atom_site_label
 _atom_site_symmetry_multiplicity
 _atom_site_fract_x
 _atom_site_fract_y
 _atom_site_fract_z
 _atom_site_occupancy
 _atom_site_charge
Cu  Cu1  1  0.47612000  0.95224000  0.45448000  1.0 0.8656796083
Cu  Cu2  1  0.47612000  0.52388000  0.45448000  1.0 0.8656796083
Cu  Cu3  1  0.04776000  0.52388000  0.45448000  1.0 0.8656796083
Cu  Cu4  1  0.52388000  0.04776000  0.95448000  1.0 0.8656796083
Cu  Cu5  1  0.52388000  0.47612000  0.95448000  1.0 0.8656796083
Cu  Cu6  1  0.95224000  0.47612000  0.95448000  1.0 0.8656796083
Cu  Cu7  1  0.52388000  0.04776000  0.54552000  1.0 0.8656796083
Cu  Cu8  1  0.95224000  0.47612000  0.54552000  1.0 0.8656796083
Cu  Cu9  1  0.52388000  0.47612000  0.54552000  1.0 0.8656796083
Cu  Cu10  1  0.47612000  0.95224000  0.04552000  1.0 0.8656796083
Cu  Cu11  1  0.04776000  0.52388000  0.04552000  1.0 0.8656796083
Cu  Cu12  1  0.47612000  0.52388000  0.04552000  1.0 0.8656796083
H  H1  1  0.36381000  0.07428000  0.36368000  1.0 0.138083404
H  H2  1  0.21232000  0.17300000  0.33377000  1.0 0.1119230852
H  H3  1  0.71047000  0.63619000  0.36368000  1.0 0.138083404
H  H4  1  0.96068000  0.78768000  0.33377000  1.0 0.1119230852
H  H5  1  0.92572000  0.28953000  0.36368000  1.0 0.138083404
H  H6  1  0.82700000  0.03932000  0.33377000  1.0 0.1119230852
H  H7  1  0.63619000  0.92572000  0.86368000  1.0 0.138083404
H  H8  1  0.78768000  0.82700000  0.83377000  1.0 0.1119230852
H  H9  1  0.28953000  0.36381000  0.86368000  1.0 0.138083404
H  H10  1  0.03932000  0.21232000  0.83377000  1.0 0.1119230852
H  H11  1  0.07428000  0.71047000  0.86368000  1.0 0.138083404
H  H12  1  0.17300000  0.96068000  0.83377000  1.0 0.1119230852
H  H13  1  0.28953000  0.92572000  0.63632000  1.0 0.138083404
H  H14  1  0.03932000  0.82700000  0.66623000  1.0 0.1119230852
H  H15  1  0.07428000  0.36381000  0.63632000  1.0 0.138083404
H  H16  1  0.17300000  0.21232000  0.66623000  1.0 0.1119230852
H  H17  1  0.63619000  0.71047000  0.63632000  1.0 0.138083404
H  H18  1  0.78768000  0.96068000  0.66623000  1.0 0.1119230852
H  H19  1  0.71047000  0.07428000  0.13632000  1.0 0.138083404
H  H20  1  0.96068000  0.17300000  0.16623000  1.0 0.1119230852
H  H21  1  0.92572000  0.63619000  0.13632000  1.0 0.138083404
H  H22  1  0.82700000  0.78768000  0.16623000  1.0 0.1119230852
H  H23  1  0.36381000  0.28953000  0.13632000  1.0 0.138083404
H  H24  1  0.21232000  0.03932000  0.16623000  1.0 0.1119230852
H  H25  1  0.63619000  0.92572000  0.63632000  1.0 0.138083404
H  H26  1  0.78768000  0.82700000  0.66623000  1.0 0.1119230852
H  H27  1  0.28953000  0.36381000  0.63632000  1.0 0.138083404
H  H28  1  0.03932000  0.21232000  0.66623000  1.0 0.1119230852
H  H29  1  0.07428000  0.71047000  0.63632000  1.0 0.138083404
H  H30  1  0.17300000  0.96068000  0.66623000  1.0 0.1119230852
H  H31  1  0.36381000  0.07428000  0.13632000  1.0 0.138083404
H  H32  1  0.21232000  0.17300000  0.16623000  1.0 0.1119230852
H  H33  1  0.71047000  0.63619000  0.13632000  1.0 0.138083404
H  H34  1  0.96068000  0.78768000  0.16623000  1.0 0.1119230852
H  H35  1  0.92572000  0.28953000  0.13632000  1.0 0.138083404
H  H36  1  0.82700000  0.03932000  0.16623000  1.0 0.1119230852
H  H37  1  0.71047000  0.07428000  0.36368000  1.0 0.138083404
H  H38  1  0.96068000  0.17300000  0.33377000  1.0 0.1119230852
H  H39  1  0.92572000  0.63619000  0.36368000  1.0 0.138083404
H  H40  1  0.82700000  0.78768000  0.33377000  1.0 0.1119230852
H  H41  1  0.36381000  0.28953000  0.36368000  1.0 0.138083404
H  H42  1  0.21232000  0.03932000  0.33377000  1.0 0.1119230852
H  H43  1  0.28953000  0.92572000  0.86368000  1.0 0.138083404
H  H44  1  0.03932000  0.82700000  0.83377000  1.0 0.1119230852
H  H45  1  0.07428000  0.36381000  0.86368000  1.0 0.138083404
H  H46  1  0.17300000  0.21232000  0.83377000  1.0 0.1119230852
H  H47  1  0.63619000  0.71047000  0.86368000  1.0 0.138083404
H  H48  1  0.78768000  0.96068000  0.83377000  1.0 0.1119230852
H  H49  1  0.46970000  0.23485000  0.49084000  1.0 0.138083404
H  H50  1  0.76515000  0.53030000  0.49084000  1.0 0.138083404
H  H51  1  0.76515000  0.23485000  0.49084000  1.0 0.138083404
H  H52  1  0.53030000  0.76515000  0.99084000  1.0 0.138083404
H  H53  1  0.23485000  0.46970000  0.99084000  1.0 0.138083404
H  H54  1  0.23485000  0.76515000  0.99084000  1.0 0.138083404
H  H55  1  0.23485000  0.76515000  0.50916000  1.0 0.138083404
H  H56  1  0.23485000  0.46970000  0.50916000  1.0 0.138083404
H  H57  1  0.53030000  0.76515000  0.50916000  1.0 0.138083404
H  H58  1  0.76515000  0.23485000  0.00916000  1.0 0.138083404
H  H59  1  0.76515000  0.53030000  0.00916000  1.0 0.138083404
H  H60  1  0.46970000  0.23485000  0.00916000  1.0 0.138083404
C  C1  1  0.42090000  0.14590000  0.43070000  1.0 -0.0114432549
C  C2  1  0.44920000  0.09030000  0.45650000  1.0 0.5835200116
C  C3  1  0.37770000  0.12470000  0.38077000  1.0 -0.129051574
C  C4  1  0.22960000  0.15660000  0.29950000  1.0 -0.0977390046
C  C5  1  0.72500000  0.57910000  0.43070000  1.0 -0.0114432549
C  C6  1  0.64110000  0.55080000  0.45650000  1.0 0.5835200116
C  C7  1  0.74700000  0.62230000  0.38077000  1.0 -0.129051574
C  C8  1  0.92700000  0.77040000  0.29950000  1.0 -0.0977390046
C  C9  1  0.85410000  0.27500000  0.43070000  1.0 -0.0114432549
C  C10  1  0.90970000  0.35890000  0.45650000  1.0 0.5835200116
C  C11  1  0.87530000  0.25300000  0.38077000  1.0 -0.129051574
C  C12  1  0.84340000  0.07300000  0.29950000  1.0 -0.0977390046
C  C13  1  0.57910000  0.85410000  0.93070000  1.0 -0.0114432549
C  C14  1  0.55080000  0.90970000  0.95650000  1.0 0.5835200116
C  C15  1  0.62230000  0.87530000  0.88077000  1.0 -0.129051574
C  C16  1  0.77040000  0.84340000  0.79950000  1.0 -0.0977390046
C  C17  1  0.27500000  0.42090000  0.93070000  1.0 -0.0114432549
C  C18  1  0.35890000  0.44920000  0.95650000  1.0 0.5835200116
C  C19  1  0.25300000  0.37770000  0.88077000  1.0 -0.129051574
C  C20  1  0.07300000  0.22960000  0.79950000  1.0 -0.0977390046
C  C21  1  0.14590000  0.72500000  0.93070000  1.0 -0.0114432549
C  C22  1  0.09030000  0.64110000  0.95650000  1.0 0.5835200116
C  C23  1  0.12470000  0.74700000  0.88077000  1.0 -0.129051574
C  C24  1  0.15660000  0.92700000  0.79950000  1.0 -0.0977390046
C  C25  1  0.27500000  0.85410000  0.56930000  1.0 -0.0114432549
C  C26  1  0.35890000  0.90970000  0.54350000  1.0 0.5835200116
C  C27  1  0.25300000  0.87530000  0.61923000  1.0 -0.129051574
C  C28  1  0.07300000  0.84340000  0.70050000  1.0 -0.0977390046
C  C29  1  0.14590000  0.42090000  0.56930000  1.0 -0.0114432549
C  C30  1  0.09030000  0.44920000  0.54350000  1.0 0.5835200116
C  C31  1  0.12470000  0.37770000  0.61923000  1.0 -0.129051574
C  C32  1  0.15660000  0.22960000  0.70050000  1.0 -0.0977390046
C  C33  1  0.57910000  0.72500000  0.56930000  1.0 -0.0114432549
C  C34  1  0.55080000  0.64110000  0.54350000  1.0 0.5835200116
C  C35  1  0.62230000  0.74700000  0.61923000  1.0 -0.129051574
C  C36  1  0.77040000  0.92700000  0.70050000  1.0 -0.0977390046
C  C37  1  0.72500000  0.14590000  0.06930000  1.0 -0.0114432549
C  C38  1  0.64110000  0.09030000  0.04350000  1.0 0.5835200116
C  C39  1  0.74700000  0.12470000  0.11923000  1.0 -0.129051574
C  C40  1  0.92700000  0.15660000  0.20050000  1.0 -0.0977390046
C  C41  1  0.85410000  0.57910000  0.06930000  1.0 -0.0114432549
C  C42  1  0.90970000  0.55080000  0.04350000  1.0 0.5835200116
C  C43  1  0.87530000  0.62230000  0.11923000  1.0 -0.129051574
C  C44  1  0.84340000  0.77040000  0.20050000  1.0 -0.0977390046
C  C45  1  0.42090000  0.27500000  0.06930000  1.0 -0.0114432549
C  C46  1  0.44920000  0.35890000  0.04350000  1.0 0.5835200116
C  C47  1  0.37770000  0.25300000  0.11923000  1.0 -0.129051574
C  C48  1  0.22960000  0.07300000  0.20050000  1.0 -0.0977390046
C  C49  1  0.57910000  0.85410000  0.56930000  1.0 -0.0114432549
C  C50  1  0.55080000  0.90970000  0.54350000  1.0 0.5835200116
C  C51  1  0.62230000  0.87530000  0.61923000  1.0 -0.129051574
C  C52  1  0.77040000  0.84340000  0.70050000  1.0 -0.0977390046
C  C53  1  0.27500000  0.42090000  0.56930000  1.0 -0.0114432549
C  C54  1  0.35890000  0.44920000  0.54350000  1.0 0.5835200116
C  C55  1  0.25300000  0.37770000  0.61923000  1.0 -0.129051574
C  C56  1  0.07300000  0.22960000  0.70050000  1.0 -0.0977390046
C  C57  1  0.14590000  0.72500000  0.56930000  1.0 -0.0114432549
C  C58  1  0.09030000  0.64110000  0.54350000  1.0 0.5835200116
C  C59  1  0.12470000  0.74700000  0.61923000  1.0 -0.129051574
C  C60  1  0.15660000  0.92700000  0.70050000  1.0 -0.0977390046
C  C61  1  0.42090000  0.14590000  0.06930000  1.0 -0.0114432549
C  C62  1  0.44920000  0.09030000  0.04350000  1.0 0.5835200116
C  C63  1  0.37770000  0.12470000  0.11923000  1.0 -0.129051574
C  C64  1  0.22960000  0.15660000  0.20050000  1.0 -0.0977390046
C  C65  1  0.72500000  0.57910000  0.06930000  1.0 -0.0114432549
C  C66  1  0.64110000  0.55080000  0.04350000  1.0 0.5835200116
C  C67  1  0.74700000  0.62230000  0.11923000  1.0 -0.129051574
C  C68  1  0.92700000  0.77040000  0.20050000  1.0 -0.0977390046
C  C69  1  0.85410000  0.27500000  0.06930000  1.0 -0.0114432549
C  C70  1  0.90970000  0.35890000  0.04350000  1.0 0.5835200116
C  C71  1  0.87530000  0.25300000  0.11923000  1.0 -0.129051574
C  C72  1  0.84340000  0.07300000  0.20050000  1.0 -0.0977390046
C  C73  1  0.72500000  0.14590000  0.43070000  1.0 -0.0114432549
C  C74  1  0.64110000  0.09030000  0.45650000  1.0 0.5835200116
C  C75  1  0.74700000  0.12470000  0.38077000  1.0 -0.129051574
C  C76  1  0.92700000  0.15660000  0.29950000  1.0 -0.0977390046
C  C77  1  0.85410000  0.57910000  0.43070000  1.0 -0.0114432549
C  C78  1  0.90970000  0.55080000  0.45650000  1.0 0.5835200116
C  C79  1  0.87530000  0.62230000  0.38077000  1.0 -0.129051574
C  C80  1  0.84340000  0.77040000  0.29950000  1.0 -0.0977390046
C  C81  1  0.42090000  0.27500000  0.43070000  1.0 -0.0114432549
C  C82  1  0.44920000  0.35890000  0.45650000  1.0 0.5835200116
C  C83  1  0.37770000  0.25300000  0.38077000  1.0 -0.129051574
C  C84  1  0.22960000  0.07300000  0.29950000  1.0 -0.0977390046
C  C85  1  0.27500000  0.85410000  0.93070000  1.0 -0.0114432549
C  C86  1  0.35890000  0.90970000  0.95650000  1.0 0.5835200116
C  C87  1  0.25300000  0.87530000  0.88077000  1.0 -0.129051574
C  C88  1  0.07300000  0.84340000  0.79950000  1.0 -0.0977390046
C  C89  1  0.14590000  0.42090000  0.93070000  1.0 -0.0114432549
C  C90  1  0.09030000  0.44920000  0.95650000  1.0 0.5835200116
C  C91  1  0.12470000  0.37770000  0.88077000  1.0 -0.129051574
C  C92  1  0.15660000  0.22960000  0.79950000  1.0 -0.0977390046
C  C93  1  0.57910000  0.72500000  0.93070000  1.0 -0.0114432549
C  C94  1  0.55080000  0.64110000  0.95650000  1.0 0.5835200116
C  C95  1  0.62230000  0.74700000  0.88077000  1.0 -0.129051574
C  C96  1  0.77040000  0.92700000  0.79950000  1.0 -0.0977390046
C  C97  1  0.44190000  0.22095000  0.45660000  1.0 -0.0977390046
C  C98  1  0.35500000  0.17750000  0.35580000  1.0 0.0690451907
C  C99  1  0.31050000  0.15525000  0.30030000  1.0 0.0241864916
C  C100  1  0.77905000  0.55810000  0.45660000  1.0 -0.0977390046
C  C101  1  0.82250000  0.64500000  0.35580000  1.0 0.0690451907
C  C102  1  0.84475000  0.68950000  0.30030000  1.0 0.0241864916
C  C103  1  0.77905000  0.22095000  0.45660000  1.0 -0.0977390046
C  C104  1  0.82250000  0.17750000  0.35580000  1.0 0.0690451907
C  C105  1  0.84475000  0.15525000  0.30030000  1.0 0.0241864916
C  C106  1  0.55810000  0.77905000  0.95660000  1.0 -0.0977390046
C  C107  1  0.64500000  0.82250000  0.85580000  1.0 0.0690451907
C  C108  1  0.68950000  0.84475000  0.80030000  1.0 0.0241864916
C  C109  1  0.22095000  0.44190000  0.95660000  1.0 -0.0977390046
C  C110  1  0.17750000  0.35500000  0.85580000  1.0 0.0690451907
C  C111  1  0.15525000  0.31050000  0.80030000  1.0 0.0241864916
C  C112  1  0.22095000  0.77905000  0.95660000  1.0 -0.0977390046
C  C113  1  0.17750000  0.82250000  0.85580000  1.0 0.0690451907
C  C114  1  0.15525000  0.84475000  0.80030000  1.0 0.0241864916
C  C115  1  0.22095000  0.77905000  0.54340000  1.0 -0.0977390046
C  C116  1  0.17750000  0.82250000  0.64420000  1.0 0.0690451907
C  C117  1  0.15525000  0.84475000  0.69970000  1.0 0.0241864916
C  C118  1  0.22095000  0.44190000  0.54340000  1.0 -0.0977390046
C  C119  1  0.17750000  0.35500000  0.64420000  1.0 0.0690451907
C  C120  1  0.15525000  0.31050000  0.69970000  1.0 0.0241864916
C  C121  1  0.55810000  0.77905000  0.54340000  1.0 -0.0977390046
C  C122  1  0.64500000  0.82250000  0.64420000  1.0 0.0690451907
C  C123  1  0.68950000  0.84475000  0.69970000  1.0 0.0241864916
C  C124  1  0.77905000  0.22095000  0.04340000  1.0 -0.0977390046
C  C125  1  0.82250000  0.17750000  0.14420000  1.0 0.0690451907
C  C126  1  0.84475000  0.15525000  0.19970000  1.0 0.0241864916
C  C127  1  0.77905000  0.55810000  0.04340000  1.0 -0.0977390046
C  C128  1  0.82250000  0.64500000  0.14420000  1.0 0.0690451907
C  C129  1  0.84475000  0.68950000  0.19970000  1.0 0.0241864916
C  C130  1  0.44190000  0.22095000  0.04340000  1.0 -0.0977390046
C  C131  1  0.35500000  0.17750000  0.14420000  1.0 0.0690451907
C  C132  1  0.31050000  0.15525000  0.19970000  1.0 0.0241864916
C  C133  1  0.35020000  0.17510000  0.25000000  1.0 0.1268743217
C  C134  1  0.82490000  0.64980000  0.25000000  1.0 0.1268743217
C  C135  1  0.82490000  0.17510000  0.25000000  1.0 0.1268743217
C  C136  1  0.64980000  0.82490000  0.75000000  1.0 0.1268743217
C  C137  1  0.17510000  0.35020000  0.75000000  1.0 0.1268743217
C  C138  1  0.17510000  0.82490000  0.75000000  1.0 0.1268743217
C  C139  1  0.18990000  0.15380000  0.25000000  1.0 -0.0518443445
C  C140  1  0.10340000  0.14710000  0.25000000  1.0 0.0690451907
C  C141  1  0.96390000  0.81010000  0.25000000  1.0 -0.0518443445
C  C142  1  0.04370000  0.89660000  0.25000000  1.0 0.0690451907
C  C143  1  0.84620000  0.03610000  0.25000000  1.0 -0.0518443445
C  C144  1  0.85290000  0.95630000  0.25000000  1.0 0.0690451907
C  C145  1  0.81010000  0.84620000  0.75000000  1.0 -0.0518443445
C  C146  1  0.89660000  0.85290000  0.75000000  1.0 0.0690451907
C  C147  1  0.03610000  0.18990000  0.75000000  1.0 -0.0518443445
C  C148  1  0.95630000  0.10340000  0.75000000  1.0 0.0690451907
C  C149  1  0.15380000  0.96390000  0.75000000  1.0 -0.0518443445
C  C150  1  0.14710000  0.04370000  0.75000000  1.0 0.0690451907
C  C151  1  0.03610000  0.84620000  0.75000000  1.0 -0.0518443445
C  C152  1  0.95630000  0.85290000  0.75000000  1.0 0.0690451907
C  C153  1  0.15380000  0.18990000  0.75000000  1.0 -0.0518443445
C  C154  1  0.14710000  0.10340000  0.75000000  1.0 0.0690451907
C  C155  1  0.81010000  0.96390000  0.75000000  1.0 -0.0518443445
C  C156  1  0.89660000  0.04370000  0.75000000  1.0 0.0690451907
C  C157  1  0.96390000  0.15380000  0.25000000  1.0 -0.0518443445
C  C158  1  0.04370000  0.14710000  0.25000000  1.0 0.0690451907
C  C159  1  0.84620000  0.81010000  0.25000000  1.0 -0.0518443445
C  C160  1  0.85290000  0.89660000  0.25000000  1.0 0.0690451907
C  C161  1  0.18990000  0.03610000  0.25000000  1.0 -0.0518443445
C  C162  1  0.10340000  0.95630000  0.25000000  1.0 0.0690451907
C  C163  1  0.07420000  0.14840000  0.30870000  1.0 -0.0291985375
C  C164  1  0.07420000  0.92580000  0.30870000  1.0 -0.0291985375
C  C165  1  0.85160000  0.92580000  0.30870000  1.0 -0.0291985375
C  C166  1  0.92580000  0.85160000  0.80870000  1.0 -0.0291985375
C  C167  1  0.92580000  0.07420000  0.80870000  1.0 -0.0291985375
C  C168  1  0.14840000  0.07420000  0.80870000  1.0 -0.0291985375
C  C169  1  0.92580000  0.85160000  0.69130000  1.0 -0.0291985375
C  C170  1  0.14840000  0.07420000  0.69130000  1.0 -0.0291985375
C  C171  1  0.92580000  0.07420000  0.69130000  1.0 -0.0291985375
C  C172  1  0.07420000  0.14840000  0.19130000  1.0 -0.0291985375
C  C173  1  0.85160000  0.92580000  0.19130000  1.0 -0.0291985375
C  C174  1  0.07420000  0.92580000  0.19130000  1.0 -0.0291985375
C  C175  1  0.11610000  0.23220000  0.25000000  1.0 -0.0518443445
C  C176  1  0.11610000  0.88390000  0.25000000  1.0 -0.0518443445
C  C177  1  0.76780000  0.88390000  0.25000000  1.0 -0.0518443445
C  C178  1  0.88390000  0.76780000  0.75000000  1.0 -0.0518443445
C  C179  1  0.88390000  0.11610000  0.75000000  1.0 -0.0518443445
C  C180  1  0.23220000  0.11610000  0.75000000  1.0 -0.0518443445
N  N1  1  0.43460000  0.18420000  0.25000000  1.0 -0.1355862453
N  N2  1  0.74960000  0.56540000  0.25000000  1.0 -0.129051574
N  N3  1  0.81580000  0.25040000  0.25000000  1.0 -0.129051574
N  N4  1  0.56540000  0.81580000  0.75000000  1.0 -0.129051574
N  N5  1  0.25040000  0.43460000  0.75000000  1.0 -0.129051574
N  N6  1  0.18420000  0.74960000  0.75000000  1.0 -0.129051574
N  N7  1  0.25040000  0.81580000  0.75000000  1.0 -0.129051574
N  N8  1  0.18420000  0.43460000  0.75000000  1.0 -0.129051574
N  N9  1  0.56540000  0.74960000  0.75000000  1.0 -0.129051574
N  N10  1  0.74960000  0.18420000  0.25000000  1.0 -0.129051574
N  N11  1  0.81580000  0.56540000  0.25000000  1.0 -0.129051574
N  N12  1  0.43460000  0.25040000  0.25000000  1.0 -0.129051574
O  O1  1  0.48140000  0.11080000  0.50524000  1.0 -0.5283763617
O  O2  1  0.43950000  0.02940000  0.42832000  1.0 -0.5144671647
O  O3  1  0.62940000  0.51860000  0.50524000  1.0 -0.5283763617
O  O4  1  0.58990000  0.56050000  0.42832000  1.0 -0.5153688326
O  O5  1  0.88920000  0.37060000  0.50524000  1.0 -0.5283763617
O  O6  1  0.97060000  0.41010000  0.42832000  1.0 -0.5144671647
O  O7  1  0.51860000  0.88920000  0.00524000  1.0 -0.5283763617
O  O8  1  0.56050000  0.97060000  0.92832000  1.0 -0.5144671647
O  O9  1  0.37060000  0.48140000  0.00524000  1.0 -0.5283763617
O  O10  1  0.41010000  0.43950000  0.92832000  1.0 -0.5144671647
O  O11  1  0.11080000  0.62940000  0.00524000  1.0 -0.5283763617
O  O12  1  0.02940000  0.58990000  0.92832000  1.0 -0.5144671647
O  O13  1  0.37060000  0.88920000  0.49476000  1.0 -0.5283763617
O  O14  1  0.41010000  0.97060000  0.57168000  1.0 -0.5144671647
O  O15  1  0.11080000  0.48140000  0.49476000  1.0 -0.5283763617
O  O16  1  0.02940000  0.43950000  0.57168000  1.0 -0.5144671647
O  O17  1  0.51860000  0.62940000  0.49476000  1.0 -0.5283763617
O  O18  1  0.56050000  0.58990000  0.57168000  1.0 -0.5144671647
O  O19  1  0.62940000  0.11080000  0.99476000  1.0 -0.5283763617
O  O20  1  0.58990000  0.02940000  0.07168000  1.0 -0.5144671647
O  O21  1  0.88920000  0.51860000  0.99476000  1.0 -0.5283763617
O  O22  1  0.97060000  0.56050000  0.07168000  1.0 -0.5144671647
O  O23  1  0.48140000  0.37060000  0.99476000  1.0 -0.5283763617
O  O24  1  0.43950000  0.41010000  0.07168000  1.0 -0.5144671647
O  O25  1  0.51860000  0.88920000  0.49476000  1.0 -0.5283763617
O  O26  1  0.56050000  0.97060000  0.57168000  1.0 -0.5144671647
O  O27  1  0.37060000  0.48140000  0.49476000  1.0 -0.5283763617
O  O28  1  0.41010000  0.43950000  0.57168000  1.0 -0.5144671647
O  O29  1  0.11080000  0.62940000  0.49476000  1.0 -0.5283763617
O  O30  1  0.02940000  0.58990000  0.57168000  1.0 -0.5144671647
O  O31  1  0.48140000  0.11080000  0.99476000  1.0 -0.5283763617
O  O32  1  0.43950000  0.02940000  0.07168000  1.0 -0.5144671647
O  O33  1  0.62940000  0.51860000  0.99476000  1.0 -0.5283763617
O  O34  1  0.58990000  0.56050000  0.07168000  1.0 -0.5144671647
O  O35  1  0.88920000  0.37060000  0.99476000  1.0 -0.5283763617
O  O36  1  0.97060000  0.41010000  0.07168000  1.0 -0.5144671647
O  O37  1  0.62940000  0.11080000  0.50524000  1.0 -0.5283763617
O  O38  1  0.58990000  0.02940000  0.42832000  1.0 -0.5144671647
O  O39  1  0.88920000  0.51860000  0.50524000  1.0 -0.5283763617
O  O40  1  0.97060000  0.56050000  0.42832000  1.0 -0.5144671647
O  O41  1  0.48140000  0.37060000  0.50524000  1.0 -0.5283763617
O  O42  1  0.43950000  0.41010000  0.42832000  1.0 -0.5144671647
O  O43  1  0.37060000  0.88920000  0.00524000  1.0 -0.5283763617
O  O44  1  0.41010000  0.97060000  0.92832000  1.0 -0.5144671647
O  O45  1  0.11080000  0.48140000  0.00524000  1.0 -0.5283763617
O  O46  1  0.02940000  0.43950000  0.92832000  1.0 -0.5144671647
O  O47  1  0.51860000  0.62940000  0.00524000  1.0 -0.5283763617
O  O48  1  0.56050000  0.58990000  0.92832000  1.0 -0.5144671647
