# DDEC6 charges by PACMAN v1.1 (https://github.com/mtap-research/PACMAN-charge/)
data_SUMBAG_ASR_pacman
_symmetry_space_group_name_H-M   'P 1'
_cell_length_a   11.34430000
_cell_length_b   11.34430000
_cell_length_c   16.23500000
_cell_angle_alpha   90.00000000
_cell_angle_beta   90.00000000
_cell_angle_gamma   142.50800000
_symmetry_Int_Tables_number   1
_chemical_formula_structural   ScC17O5
_chemical_formula_sum   'Sc2 C34 O10'
_cell_volume   1271.67399108
_cell_formula_units_Z   2
loop_
 _symmetry_equiv_pos_site_id
 _symmetry_equiv_pos_as_xyz
  1  'x, y, z'
loop_
 _atom_site_type_symbol
 _atom_site_label
 _atom_site_symmetry_multiplicity
 _atom_site_fract_x
 _atom_site_fract_y
 _atom_site_fract_z
 _atom_site_occupancy
 _atom_site_charge
Sc  Sc1  1  0.00000000  0.50000000  0.00000000  1.0 1.746411979
Sc  Sc2  1  0.50000000  0.00000000  0.00000000  1.0 1.746411979
C  C1  1  0.04560000  0.28440000  0.75980000  1.0 0.077501676
C  C2  1  0.08110000  0.24690000  0.68640000  1.0 -0.0391286041
C  C3  1  0.95440000  0.71560000  0.75980000  1.0 0.077501676
C  C4  1  0.91890000  0.75310000  0.68640000  1.0 -0.0391286041
C  C5  1  0.28440000  0.04560000  0.24020000  1.0 0.0748200638
C  C6  1  0.24690000  0.08110000  0.31360000  1.0 -0.0391286041
C  C7  1  0.71560000  0.95440000  0.24020000  1.0 0.0748200638
C  C8  1  0.75310000  0.91890000  0.31360000  1.0 -0.0391286041
C  C9  1  0.95440000  0.71560000  0.24020000  1.0 0.077501676
C  C10  1  0.91890000  0.75310000  0.31360000  1.0 -0.0391286041
C  C11  1  0.04560000  0.28440000  0.24020000  1.0 0.077501676
C  C12  1  0.08110000  0.24690000  0.31360000  1.0 -0.0391286041
C  C13  1  0.71560000  0.95440000  0.75980000  1.0 0.077501676
C  C14  1  0.75310000  0.91890000  0.68640000  1.0 -0.0391286041
C  C15  1  0.28440000  0.04560000  0.75980000  1.0 0.077501676
C  C16  1  0.24690000  0.08110000  0.68640000  1.0 -0.0391286041
C  C17  1  0.82000000  0.18000000  0.87100000  1.0 0.6793411073
C  C18  1  0.86300000  0.13700000  0.79800000  1.0 -0.0618451873
C  C19  1  0.93100000  0.06900000  0.64600000  1.0 0.077501676
C  C20  1  0.96700000  0.03300000  0.57400000  1.0 0.05017025
C  C21  1  0.18000000  0.82000000  0.87100000  1.0 0.6793411073
C  C22  1  0.13700000  0.86300000  0.79800000  1.0 -0.0618451873
C  C23  1  0.06900000  0.93100000  0.64600000  1.0 0.077501676
C  C24  1  0.03300000  0.96700000  0.57400000  1.0 0.0438681366
C  C25  1  0.18000000  0.82000000  0.12900000  1.0 0.6793411073
C  C26  1  0.13700000  0.86300000  0.20200000  1.0 -0.0618451873
C  C27  1  0.06900000  0.93100000  0.35400000  1.0 0.077501676
C  C28  1  0.03300000  0.96700000  0.42600000  1.0 0.0438681366
C  C29  1  0.82000000  0.18000000  0.12900000  1.0 0.6793411073
C  C30  1  0.86300000  0.13700000  0.20200000  1.0 -0.0618451873
C  C31  1  0.93100000  0.06900000  0.35400000  1.0 0.077501676
C  C32  1  0.96700000  0.03300000  0.42600000  1.0 0.0438681366
C  C33  1  0.93400000  0.06600000  0.50000000  1.0 -0.0699117
C  C34  1  0.06600000  0.93400000  0.50000000  1.0 -0.0699117
O  O1  1  0.97040000  0.35160000  0.90370000  1.0 -0.573593952
O  O2  1  0.02960000  0.64840000  0.90370000  1.0 -0.573593952
O  O3  1  0.35160000  0.97040000  0.09630000  1.0 -0.573593952
O  O4  1  0.64840000  0.02960000  0.09630000  1.0 -0.573593952
O  O5  1  0.02960000  0.64840000  0.09630000  1.0 -0.573593952
O  O6  1  0.97040000  0.35160000  0.09630000  1.0 -0.573593952
O  O7  1  0.64840000  0.02960000  0.90370000  1.0 -0.573593952
O  O8  1  0.35160000  0.97040000  0.90370000  1.0 -0.573593952
O  O9  1  0.30040000  0.69960000  0.00000000  1.0 -1.0060611966
O  O10  1  0.69960000  0.30040000  0.00000000  1.0 -1.0215741398
