# DDEC6 charges by PACMAN v1.1 (https://github.com/mtap-research/PACMAN-charge/)
data_SUMCIP_ASR_pacman
_symmetry_space_group_name_H-M   'P 1'
_cell_length_a   7.97450000
_cell_length_b   33.16100000
_cell_length_c   15.96440000
_cell_angle_alpha   90.00000000
_cell_angle_beta   108.06600000
_cell_angle_gamma   90.00000000
_symmetry_Int_Tables_number   1
_chemical_formula_structural   ZnH35C51N3O5
_chemical_formula_sum   'Zn4 H140 C204 N12 O20'
_cell_volume   4013.53579601
_cell_formula_units_Z   4
loop_
 _symmetry_equiv_pos_site_id
 _symmetry_equiv_pos_as_xyz
  1  'x, y, z'
loop_
 _atom_site_type_symbol
 _atom_site_label
 _atom_site_symmetry_multiplicity
 _atom_site_fract_x
 _atom_site_fract_y
 _atom_site_fract_z
 _atom_site_occupancy
 _atom_site_charge
Zn  Zn1  1  0.03313000  0.36778000  0.23080000  1.0 0.6279911918
Zn  Zn2  1  0.03313000  0.13222000  0.73080000  1.0 0.6279911918
Zn  Zn3  1  0.96687000  0.86778000  0.26920000  1.0 0.6279911918
Zn  Zn4  1  0.96687000  0.63222000  0.76920000  1.0 0.6279911918
H  H1  1  0.60900000  0.59720000  0.91700000  1.0 0.1191595083
H  H2  1  0.74000000  0.54690000  0.01820000  1.0 0.1008357341
H  H3  1  0.59640000  0.46020000  0.82870000  1.0 0.1090573232
H  H4  1  0.41750000  0.46010000  0.64140000  1.0 0.1191595083
H  H5  1  0.17570000  0.54460000  0.46060000  1.0 0.1090573232
H  H6  1  0.24710000  0.59520000  0.56630000  1.0 0.1264575605
H  H7  1  0.84880000  0.44720000  0.21290000  1.0 0.069822571
H  H8  1  0.73600000  0.49870000  0.11090000  1.0 0.1191595083
H  H9  1  0.80590000  0.42520000  0.92160000  1.0 0.1008357341
H  H10  1  0.92470000  0.37740000  0.02920000  1.0 0.1008357341
H  H11  1  0.92180000  0.44900000  0.29090000  1.0 0.069822571
H  H12  1  0.00140000  0.49580000  0.40580000  1.0 0.1090573232
H  H13  1  0.44950000  0.43500000  0.51220000  1.0 0.1191595083
H  H14  1  0.37230000  0.39130000  0.39760000  1.0 0.1191595083
H  H15  1  0.67550000  0.29010000  0.08160000  1.0 0.1090573232
H  H16  1  0.51370000  0.33150000  0.14830000  1.0 0.1191595083
H  H17  1  0.05500000  0.28730000  0.98990000  1.0 0.0830028659
H  H18  1  0.20970000  0.25160000  0.91100000  1.0 0.1008357341
H  H19  1  0.38720000  0.19900000  0.89380000  1.0 0.1008357341
H  H20  1  0.54600000  0.16500000  0.81480000  1.0 0.1090573232
H  H21  1  0.92800000  0.25000000  0.88810000  1.0 0.0830028659
H  H22  1  0.76880000  0.28550000  0.96460000  1.0 0.1008357341
H  H23  1  0.42130000  0.60790000  0.74200000  1.0 0.2841767443
H  H24  1  0.09480000  0.45600000  0.17710000  1.0 0.0830028659
H  H25  1  0.96420000  0.50390000  0.07060000  1.0 0.1090573232
H  H26  1  0.60320000  0.41960000  0.95070000  1.0 0.1090573232
H  H27  1  0.74030000  0.37550000  0.05950000  1.0 0.1090573232
H  H28  1  0.19790000  0.44650000  0.26070000  1.0 0.0830028659
H  H29  1  0.27460000  0.49600000  0.36380000  1.0 0.1090573232
H  H30  1  0.22720000  0.41390000  0.54440000  1.0 0.1191595083
H  H31  1  0.13940000  0.36720000  0.42880000  1.0 0.1090573232
H  H32  1  0.10580000  0.25520000  0.05270000  1.0 0.0914242172
H  H33  1  0.25790000  0.21980000  0.97530000  1.0 0.0914242172
H  H34  1  0.99280000  0.20990000  0.97210000  1.0 0.0830028659
H  H35  1  0.83320000  0.24350000  0.05120000  1.0 0.1090573232
H  H36  1  0.60900000  0.90280000  0.41700000  1.0 0.1191595083
H  H37  1  0.74000000  0.95310000  0.51820000  1.0 0.1008357341
H  H38  1  0.59640000  0.03980000  0.32870000  1.0 0.1090573232
H  H39  1  0.41750000  0.03990000  0.14140000  1.0 0.1191595083
H  H40  1  0.17570000  0.95540000  0.96060000  1.0 0.1090573232
H  H41  1  0.24710000  0.90480000  0.06630000  1.0 0.1264575605
H  H42  1  0.84880000  0.05280000  0.71290000  1.0 0.069822571
H  H43  1  0.73600000  0.00130000  0.61090000  1.0 0.1191595083
H  H44  1  0.80590000  0.07480000  0.42160000  1.0 0.1008357341
H  H45  1  0.92470000  0.12260000  0.52920000  1.0 0.1008357341
H  H46  1  0.92180000  0.05100000  0.79090000  1.0 0.069822571
H  H47  1  0.00140000  0.00420000  0.90580000  1.0 0.1090573232
H  H48  1  0.44950000  0.06500000  0.01220000  1.0 0.1191595083
H  H49  1  0.37230000  0.10870000  0.89760000  1.0 0.1191595083
H  H50  1  0.67550000  0.20990000  0.58160000  1.0 0.1090573232
H  H51  1  0.51370000  0.16850000  0.64830000  1.0 0.1191595083
H  H52  1  0.05500000  0.21270000  0.48990000  1.0 0.0830028659
H  H53  1  0.20970000  0.24840000  0.41100000  1.0 0.1008357341
H  H54  1  0.38720000  0.30100000  0.39380000  1.0 0.1008357341
H  H55  1  0.54600000  0.33500000  0.31480000  1.0 0.1090573232
H  H56  1  0.92800000  0.25000000  0.38810000  1.0 0.0830028659
H  H57  1  0.76880000  0.21450000  0.46460000  1.0 0.1008357341
H  H58  1  0.42130000  0.89210000  0.24200000  1.0 0.2841767443
H  H59  1  0.09480000  0.04400000  0.67710000  1.0 0.0830028659
H  H60  1  0.96420000  0.99610000  0.57060000  1.0 0.1090573232
H  H61  1  0.60320000  0.08040000  0.45070000  1.0 0.1090573232
H  H62  1  0.74030000  0.12450000  0.55950000  1.0 0.1090573232
H  H63  1  0.19790000  0.05350000  0.76070000  1.0 0.0830028659
H  H64  1  0.27460000  0.00400000  0.86380000  1.0 0.1090573232
H  H65  1  0.22720000  0.08610000  0.04440000  1.0 0.1191595083
H  H66  1  0.13940000  0.13280000  0.92880000  1.0 0.1090573232
H  H67  1  0.10580000  0.24480000  0.55270000  1.0 0.0914242172
H  H68  1  0.25790000  0.28020000  0.47530000  1.0 0.0914242172
H  H69  1  0.99280000  0.29010000  0.47210000  1.0 0.0830028659
H  H70  1  0.83320000  0.25650000  0.55120000  1.0 0.1090573232
H  H71  1  0.39100000  0.09720000  0.58300000  1.0 0.1191595083
H  H72  1  0.26000000  0.04690000  0.48180000  1.0 0.1008357341
H  H73  1  0.40360000  0.96020000  0.67130000  1.0 0.1090573232
H  H74  1  0.58250000  0.96010000  0.85860000  1.0 0.1191595083
H  H75  1  0.82430000  0.04460000  0.03940000  1.0 0.1090573232
H  H76  1  0.75290000  0.09520000  0.93370000  1.0 0.1264575605
H  H77  1  0.15120000  0.94720000  0.28710000  1.0 0.069822571
H  H78  1  0.26400000  0.99870000  0.38910000  1.0 0.1191595083
H  H79  1  0.19410000  0.92520000  0.57840000  1.0 0.1008357341
H  H80  1  0.07530000  0.87740000  0.47080000  1.0 0.1008357341
H  H81  1  0.07820000  0.94900000  0.20910000  1.0 0.069822571
H  H82  1  0.99860000  0.99580000  0.09420000  1.0 0.1090573232
H  H83  1  0.55050000  0.93500000  0.98780000  1.0 0.1191595083
H  H84  1  0.62770000  0.89130000  0.10240000  1.0 0.1191595083
H  H85  1  0.32450000  0.79010000  0.41840000  1.0 0.1090573232
H  H86  1  0.48630000  0.83150000  0.35170000  1.0 0.1191595083
H  H87  1  0.94500000  0.78730000  0.51010000  1.0 0.0830028659
H  H88  1  0.79030000  0.75160000  0.58900000  1.0 0.1008357341
H  H89  1  0.61280000  0.69900000  0.60620000  1.0 0.1008357341
H  H90  1  0.45400000  0.66500000  0.68520000  1.0 0.1090573232
H  H91  1  0.07200000  0.75000000  0.61190000  1.0 0.0830028659
H  H92  1  0.23120000  0.78550000  0.53540000  1.0 0.1008357341
H  H93  1  0.57870000  0.10790000  0.75800000  1.0 0.2841767443
H  H94  1  0.90520000  0.95600000  0.32290000  1.0 0.0830028659
H  H95  1  0.03580000  0.00390000  0.42940000  1.0 0.1090573232
H  H96  1  0.39680000  0.91960000  0.54930000  1.0 0.1090573232
H  H97  1  0.25970000  0.87550000  0.44050000  1.0 0.1090573232
H  H98  1  0.80210000  0.94650000  0.23930000  1.0 0.0830028659
H  H99  1  0.72540000  0.99600000  0.13620000  1.0 0.1090573232
H  H100  1  0.77280000  0.91390000  0.95560000  1.0 0.1191595083
H  H101  1  0.86060000  0.86720000  0.07120000  1.0 0.1090573232
H  H102  1  0.89420000  0.75520000  0.44730000  1.0 0.0914242172
H  H103  1  0.74210000  0.71980000  0.52470000  1.0 0.0914242172
H  H104  1  0.00720000  0.70990000  0.52790000  1.0 0.0830028659
H  H105  1  0.16680000  0.74350000  0.44880000  1.0 0.1090573232
H  H106  1  0.39100000  0.40280000  0.08300000  1.0 0.1191595083
H  H107  1  0.26000000  0.45310000  0.98180000  1.0 0.1008357341
H  H108  1  0.40360000  0.53980000  0.17130000  1.0 0.1090573232
H  H109  1  0.58250000  0.53990000  0.35860000  1.0 0.1191595083
H  H110  1  0.82430000  0.45540000  0.53940000  1.0 0.1090573232
H  H111  1  0.75290000  0.40480000  0.43370000  1.0 0.1264575605
H  H112  1  0.15120000  0.55280000  0.78710000  1.0 0.069822571
H  H113  1  0.26400000  0.50130000  0.88910000  1.0 0.1191595083
H  H114  1  0.19410000  0.57480000  0.07840000  1.0 0.1008357341
H  H115  1  0.07530000  0.62260000  0.97080000  1.0 0.1008357341
H  H116  1  0.07820000  0.55100000  0.70910000  1.0 0.069822571
H  H117  1  0.99860000  0.50420000  0.59420000  1.0 0.1090573232
H  H118  1  0.55050000  0.56500000  0.48780000  1.0 0.1191595083
H  H119  1  0.62770000  0.60870000  0.60240000  1.0 0.1191595083
H  H120  1  0.32450000  0.70990000  0.91840000  1.0 0.1090573232
H  H121  1  0.48630000  0.66850000  0.85170000  1.0 0.1191595083
H  H122  1  0.94500000  0.71270000  0.01010000  1.0 0.0830028659
H  H123  1  0.79030000  0.74840000  0.08900000  1.0 0.1008357341
H  H124  1  0.61280000  0.80100000  0.10620000  1.0 0.1008357341
H  H125  1  0.45400000  0.83500000  0.18520000  1.0 0.1090573232
H  H126  1  0.07200000  0.75000000  0.11190000  1.0 0.0830028659
H  H127  1  0.23120000  0.71450000  0.03540000  1.0 0.1008357341
H  H128  1  0.57870000  0.39210000  0.25800000  1.0 0.2841767443
H  H129  1  0.90520000  0.54400000  0.82290000  1.0 0.0830028659
H  H130  1  0.03580000  0.49610000  0.92940000  1.0 0.1090573232
H  H131  1  0.39680000  0.58040000  0.04930000  1.0 0.1090573232
H  H132  1  0.25970000  0.62450000  0.94050000  1.0 0.1090573232
H  H133  1  0.80210000  0.55350000  0.73930000  1.0 0.0830028659
H  H134  1  0.72540000  0.50400000  0.63620000  1.0 0.1090573232
H  H135  1  0.77280000  0.58610000  0.45560000  1.0 0.1191595083
H  H136  1  0.86060000  0.63280000  0.57120000  1.0 0.1090573232
H  H137  1  0.89420000  0.74480000  0.94730000  1.0 0.0914242172
H  H138  1  0.74210000  0.78020000  0.02470000  1.0 0.0914242172
H  H139  1  0.00720000  0.79010000  0.02790000  1.0 0.0830028659
H  H140  1  0.16680000  0.75650000  0.94880000  1.0 0.1090573232
C  C1  1  0.52340000  0.55819000  0.81210000  1.0 0.1090573232
C  C2  1  0.60580000  0.56981000  0.89930000  1.0 -0.2298612578
C  C3  1  0.68230000  0.53974000  0.95860000  1.0 -0.2487779635
C  C4  1  0.67800000  0.49871000  0.93400000  1.0 -0.0334009027
C  C5  1  0.59810000  0.48763000  0.84620000  1.0 -0.2298612578
C  C6  1  0.52080000  0.51739000  0.78460000  1.0 -0.0500243606
C  C7  1  0.42620000  0.51692000  0.69110000  1.0 -0.0500243606
C  C8  1  0.38320000  0.48729000  0.62640000  1.0 -0.2173944379
C  C9  1  0.29050000  0.49728000  0.54000000  1.0 0.0088869628
C  C10  1  0.24060000  0.53788000  0.51960000  1.0 -0.1927880126
C  C11  1  0.28200000  0.56809000  0.58160000  1.0 -0.2415395009
C  C12  1  0.37730000  0.55750000  0.66810000  1.0 0.1090573232
C  C13  1  0.84820000  0.44380000  0.15370000  1.0 -0.0073530933
C  C14  1  0.77540000  0.47420000  0.09240000  1.0 -0.0803937933
C  C15  1  0.76040000  0.46810000  0.00090000  1.0 0.069822571
C  C16  1  0.81730000  0.43130000  0.98120000  1.0 -0.0803937933
C  C17  1  0.89100000  0.40290000  0.04590000  1.0 0.0088869628
C  C18  1  0.02950000  0.44530000  0.33710000  1.0 -0.0500243606
C  C19  1  0.07470000  0.47350000  0.40360000  1.0 -0.1798933672
C  C20  1  0.24220000  0.46649000  0.46960000  1.0 0.0585779084
C  C21  1  0.33980000  0.43830000  0.46720000  1.0 -0.0803937933
C  C22  1  0.28760000  0.41136000  0.39810000  1.0 0.0505669468
C  C23  1  0.45680000  0.26990000  0.98570000  1.0 0.0585779084
C  C24  1  0.55020000  0.29051000  0.06120000  1.0 -0.1475675481
C  C25  1  0.45540000  0.31181000  0.10610000  1.0 -0.2487779635
C  C26  1  0.27780000  0.30483000  0.09060000  1.0 0.0028220589
C  C27  1  0.18020000  0.28630000  0.00980000  1.0 -0.0607661989
C  C28  1  0.27170000  0.26700000  0.96130000  1.0 -0.0654835261
C  C29  1  0.55800000  0.24740000  0.93550000  1.0 0.0585779084
C  C30  1  0.49640000  0.20975000  0.89180000  1.0 -0.1659241246
C  C31  1  0.59230000  0.18871000  0.84690000  1.0 -0.1278648809
C  C32  1  0.75590000  0.20300000  0.85000000  1.0 0.069822571
C  C33  1  0.81860000  0.23970000  0.89060000  1.0 -0.0925505611
C  C34  1  0.72230000  0.26130000  0.93480000  1.0 -0.1278648809
C  C35  1  0.17400000  0.32629000  0.14000000  1.0 0.4912843404
C  C36  1  0.87520000  0.17394000  0.81470000  1.0 0.3747718108
C  C37  1  0.98920000  0.44930000  0.13190000  1.0 -0.0334009027
C  C38  1  0.91290000  0.47790000  0.06830000  1.0 -0.1247637498
C  C39  1  0.70100000  0.42840000  0.99820000  1.0 -0.0803937933
C  C40  1  0.78430000  0.40230000  0.06430000  1.0 0.0396693232
C  C41  1  0.19090000  0.44120000  0.31800000  1.0 0.0396693232
C  C42  1  0.23970000  0.47080000  0.38090000  1.0 -0.0429816025
C  C43  1  0.21100000  0.42260000  0.48570000  1.0 -0.0654835261
C  C44  1  0.15990000  0.39470000  0.41810000  1.0 -0.1475675481
C  C45  1  0.48480000  0.25370000  0.01320000  1.0 0.0505669468
C  C46  1  0.21530000  0.26540000  0.04990000  1.0 -0.022374653
C  C47  1  0.31030000  0.24300000  0.00820000  1.0 -0.0803937933
C  C48  1  0.58630000  0.22960000  0.96850000  1.0 0.0585779084
C  C49  1  0.77980000  0.18800000  0.87540000  1.0 0.0396693232
C  C50  1  0.86750000  0.20926000  0.95180000  1.0 -0.1077988476
C  C51  1  0.77230000  0.22950000  0.99850000  1.0 -0.0991891867
C  C52  1  0.52340000  0.94181000  0.31210000  1.0 0.1090573232
C  C53  1  0.60580000  0.93019000  0.39930000  1.0 -0.2298612578
C  C54  1  0.68230000  0.96026000  0.45860000  1.0 -0.2487779635
C  C55  1  0.67800000  0.00129000  0.43400000  1.0 -0.0334009027
C  C56  1  0.59810000  0.01237000  0.34620000  1.0 -0.2298612578
C  C57  1  0.52080000  0.98261000  0.28460000  1.0 -0.0500243606
C  C58  1  0.42620000  0.98308000  0.19110000  1.0 -0.0500243606
C  C59  1  0.38320000  0.01271000  0.12640000  1.0 -0.2173944379
C  C60  1  0.29050000  0.00272000  0.04000000  1.0 0.0088869628
C  C61  1  0.24060000  0.96212000  0.01960000  1.0 -0.1927880126
C  C62  1  0.28200000  0.93191000  0.08160000  1.0 -0.2415395009
C  C63  1  0.37730000  0.94250000  0.16810000  1.0 0.1090573232
C  C64  1  0.84820000  0.05620000  0.65370000  1.0 -0.0073530933
C  C65  1  0.77540000  0.02580000  0.59240000  1.0 -0.0803937933
C  C66  1  0.76040000  0.03190000  0.50090000  1.0 0.069822571
C  C67  1  0.81730000  0.06870000  0.48120000  1.0 -0.0803937933
C  C68  1  0.89100000  0.09710000  0.54590000  1.0 0.0088869628
C  C69  1  0.02950000  0.05470000  0.83710000  1.0 -0.0500243606
C  C70  1  0.07470000  0.02650000  0.90360000  1.0 -0.1798933672
C  C71  1  0.24220000  0.03351000  0.96960000  1.0 0.0585779084
C  C72  1  0.33980000  0.06170000  0.96720000  1.0 -0.0803937933
C  C73  1  0.28760000  0.08864000  0.89810000  1.0 0.0505669468
C  C74  1  0.45680000  0.23010000  0.48570000  1.0 0.0585779084
C  C75  1  0.55020000  0.20949000  0.56120000  1.0 -0.1475675481
C  C76  1  0.45540000  0.18819000  0.60610000  1.0 -0.2487779635
C  C77  1  0.27780000  0.19517000  0.59060000  1.0 0.0028220589
C  C78  1  0.18020000  0.21370000  0.50980000  1.0 -0.0607661989
C  C79  1  0.27170000  0.23300000  0.46130000  1.0 -0.0654835261
C  C80  1  0.55800000  0.25260000  0.43550000  1.0 0.0585779084
C  C81  1  0.49640000  0.29025000  0.39180000  1.0 -0.1659241246
C  C82  1  0.59230000  0.31129000  0.34690000  1.0 -0.1278648809
C  C83  1  0.75590000  0.29700000  0.35000000  1.0 0.069822571
C  C84  1  0.81860000  0.26030000  0.39060000  1.0 -0.0925505611
C  C85  1  0.72230000  0.23870000  0.43480000  1.0 -0.1278648809
C  C86  1  0.17400000  0.17371000  0.64000000  1.0 0.4912843404
C  C87  1  0.87520000  0.32606000  0.31470000  1.0 0.3747718108
C  C88  1  0.98920000  0.05070000  0.63190000  1.0 -0.0334009027
C  C89  1  0.91290000  0.02210000  0.56830000  1.0 -0.1247637498
C  C90  1  0.70100000  0.07160000  0.49820000  1.0 -0.0803937933
C  C91  1  0.78430000  0.09770000  0.56430000  1.0 0.0396693232
C  C92  1  0.19090000  0.05880000  0.81800000  1.0 0.0396693232
C  C93  1  0.23970000  0.02920000  0.88090000  1.0 -0.0429816025
C  C94  1  0.21100000  0.07740000  0.98570000  1.0 -0.0654835261
C  C95  1  0.15990000  0.10530000  0.91810000  1.0 -0.1475675481
C  C96  1  0.48480000  0.24630000  0.51320000  1.0 0.0505669468
C  C97  1  0.21530000  0.23460000  0.54990000  1.0 -0.022374653
C  C98  1  0.31030000  0.25700000  0.50820000  1.0 -0.0803937933
C  C99  1  0.58630000  0.27040000  0.46850000  1.0 0.0585779084
C  C100  1  0.77980000  0.31200000  0.37540000  1.0 0.0396693232
C  C101  1  0.86750000  0.29074000  0.45180000  1.0 -0.1077988476
C  C102  1  0.77230000  0.27050000  0.49850000  1.0 -0.0991891867
C  C103  1  0.47660000  0.05819000  0.68790000  1.0 0.1090573232
C  C104  1  0.39420000  0.06981000  0.60070000  1.0 -0.2298612578
C  C105  1  0.31770000  0.03974000  0.54140000  1.0 -0.2487779635
C  C106  1  0.32200000  0.99871000  0.56600000  1.0 -0.0334009027
C  C107  1  0.40190000  0.98763000  0.65380000  1.0 -0.2298612578
C  C108  1  0.47920000  0.01739000  0.71540000  1.0 -0.0500243606
C  C109  1  0.57380000  0.01692000  0.80890000  1.0 -0.0500243606
C  C110  1  0.61680000  0.98729000  0.87360000  1.0 -0.2173944379
C  C111  1  0.70950000  0.99728000  0.96000000  1.0 0.0088869628
C  C112  1  0.75940000  0.03788000  0.98040000  1.0 -0.1927880126
C  C113  1  0.71800000  0.06809000  0.91840000  1.0 -0.2415395009
C  C114  1  0.62270000  0.05750000  0.83190000  1.0 0.1090573232
C  C115  1  0.15180000  0.94380000  0.34630000  1.0 -0.0073530933
C  C116  1  0.22460000  0.97420000  0.40760000  1.0 -0.0803937933
C  C117  1  0.23960000  0.96810000  0.49910000  1.0 0.069822571
C  C118  1  0.18270000  0.93130000  0.51880000  1.0 -0.0803937933
C  C119  1  0.10900000  0.90290000  0.45410000  1.0 0.0088869628
C  C120  1  0.97050000  0.94530000  0.16290000  1.0 -0.0500243606
C  C121  1  0.92530000  0.97350000  0.09640000  1.0 -0.1798933672
C  C122  1  0.75780000  0.96649000  0.03040000  1.0 0.0585779084
C  C123  1  0.66020000  0.93830000  0.03280000  1.0 -0.0803937933
C  C124  1  0.71240000  0.91136000  0.10190000  1.0 0.0505669468
C  C125  1  0.54320000  0.76990000  0.51430000  1.0 0.0585779084
C  C126  1  0.44980000  0.79051000  0.43880000  1.0 -0.1475675481
C  C127  1  0.54460000  0.81181000  0.39390000  1.0 -0.2487779635
C  C128  1  0.72220000  0.80483000  0.40940000  1.0 0.0028220589
C  C129  1  0.81980000  0.78630000  0.49020000  1.0 -0.0607661989
C  C130  1  0.72830000  0.76700000  0.53870000  1.0 -0.0654835261
C  C131  1  0.44200000  0.74740000  0.56450000  1.0 0.0585779084
C  C132  1  0.50360000  0.70975000  0.60820000  1.0 -0.1659241246
C  C133  1  0.40770000  0.68871000  0.65310000  1.0 -0.1278648809
C  C134  1  0.24410000  0.70300000  0.65000000  1.0 0.069822571
C  C135  1  0.18140000  0.73970000  0.60940000  1.0 -0.0925505611
C  C136  1  0.27770000  0.76130000  0.56520000  1.0 -0.1278648809
C  C137  1  0.82600000  0.82629000  0.36000000  1.0 0.4912843404
C  C138  1  0.12480000  0.67394000  0.68530000  1.0 0.3747718108
C  C139  1  0.01080000  0.94930000  0.36810000  1.0 -0.0334009027
C  C140  1  0.08710000  0.97790000  0.43170000  1.0 -0.1247637498
C  C141  1  0.29900000  0.92840000  0.50180000  1.0 -0.0803937933
C  C142  1  0.21570000  0.90230000  0.43570000  1.0 0.0396693232
C  C143  1  0.80910000  0.94120000  0.18200000  1.0 0.0396693232
C  C144  1  0.76030000  0.97080000  0.11910000  1.0 -0.0429816025
C  C145  1  0.78900000  0.92260000  0.01430000  1.0 -0.0654835261
C  C146  1  0.84010000  0.89470000  0.08190000  1.0 -0.1475675481
C  C147  1  0.51520000  0.75370000  0.48680000  1.0 0.0505669468
C  C148  1  0.78470000  0.76540000  0.45010000  1.0 -0.022374653
C  C149  1  0.68970000  0.74300000  0.49180000  1.0 -0.0803937933
C  C150  1  0.41370000  0.72960000  0.53150000  1.0 0.0585779084
C  C151  1  0.22020000  0.68800000  0.62460000  1.0 0.0396693232
C  C152  1  0.13250000  0.70926000  0.54820000  1.0 -0.1077988476
C  C153  1  0.22770000  0.72950000  0.50150000  1.0 -0.0991891867
C  C154  1  0.47660000  0.44181000  0.18790000  1.0 0.1090573232
C  C155  1  0.39420000  0.43019000  0.10070000  1.0 -0.2298612578
C  C156  1  0.31770000  0.46026000  0.04140000  1.0 -0.2487779635
C  C157  1  0.32200000  0.50129000  0.06600000  1.0 -0.0334009027
C  C158  1  0.40190000  0.51237000  0.15380000  1.0 -0.2298612578
C  C159  1  0.47920000  0.48261000  0.21540000  1.0 -0.0500243606
C  C160  1  0.57380000  0.48308000  0.30890000  1.0 -0.0500243606
C  C161  1  0.61680000  0.51271000  0.37360000  1.0 -0.2173944379
C  C162  1  0.70950000  0.50272000  0.46000000  1.0 0.0088869628
C  C163  1  0.75940000  0.46212000  0.48040000  1.0 -0.1927880126
C  C164  1  0.71800000  0.43191000  0.41840000  1.0 -0.2415395009
C  C165  1  0.62270000  0.44250000  0.33190000  1.0 0.1090573232
C  C166  1  0.15180000  0.55620000  0.84630000  1.0 -0.0073530933
C  C167  1  0.22460000  0.52580000  0.90760000  1.0 -0.0803937933
C  C168  1  0.23960000  0.53190000  0.99910000  1.0 0.069822571
C  C169  1  0.18270000  0.56870000  0.01880000  1.0 -0.0803937933
C  C170  1  0.10900000  0.59710000  0.95410000  1.0 0.0088869628
C  C171  1  0.97050000  0.55470000  0.66290000  1.0 -0.0500243606
C  C172  1  0.92530000  0.52650000  0.59640000  1.0 -0.1798933672
C  C173  1  0.75780000  0.53351000  0.53040000  1.0 0.0585779084
C  C174  1  0.66020000  0.56170000  0.53280000  1.0 -0.0803937933
C  C175  1  0.71240000  0.58864000  0.60190000  1.0 0.0505669468
C  C176  1  0.54320000  0.73010000  0.01430000  1.0 0.0585779084
C  C177  1  0.44980000  0.70949000  0.93880000  1.0 -0.1475675481
C  C178  1  0.54460000  0.68819000  0.89390000  1.0 -0.2487779635
C  C179  1  0.72220000  0.69517000  0.90940000  1.0 0.0028220589
C  C180  1  0.81980000  0.71370000  0.99020000  1.0 -0.0607661989
C  C181  1  0.72830000  0.73300000  0.03870000  1.0 -0.0607661989
C  C182  1  0.44200000  0.75260000  0.06450000  1.0 0.0585779084
C  C183  1  0.50360000  0.79025000  0.10820000  1.0 -0.1659241246
C  C184  1  0.40770000  0.81129000  0.15310000  1.0 -0.1278648809
C  C185  1  0.24410000  0.79700000  0.15000000  1.0 0.069822571
C  C186  1  0.18140000  0.76030000  0.10940000  1.0 -0.0925505611
C  C187  1  0.27770000  0.73870000  0.06520000  1.0 -0.1278648809
C  C188  1  0.82600000  0.67371000  0.86000000  1.0 0.4912843404
C  C189  1  0.12480000  0.82606000  0.18530000  1.0 0.3747718108
C  C190  1  0.01080000  0.55070000  0.86810000  1.0 -0.0334009027
C  C191  1  0.08710000  0.52210000  0.93170000  1.0 -0.1247637498
C  C192  1  0.29900000  0.57160000  0.00180000  1.0 -0.0803937933
C  C193  1  0.21570000  0.59770000  0.93570000  1.0 0.0396693232
C  C194  1  0.80910000  0.55880000  0.68200000  1.0 0.0396693232
C  C195  1  0.76030000  0.52920000  0.61910000  1.0 -0.0429816025
C  C196  1  0.78900000  0.57740000  0.51430000  1.0 -0.0654835261
C  C197  1  0.84010000  0.60530000  0.58190000  1.0 -0.1475675481
C  C198  1  0.51520000  0.74630000  0.98680000  1.0 0.0505669468
C  C199  1  0.78470000  0.73460000  0.95010000  1.0 -0.022374653
C  C200  1  0.68970000  0.75700000  0.99180000  1.0 -0.0803937933
C  C201  1  0.41370000  0.77040000  0.03150000  1.0 0.0585779084
C  C202  1  0.22020000  0.81200000  0.12460000  1.0 0.0396693232
C  C203  1  0.13250000  0.79074000  0.04820000  1.0 -0.1077988476
C  C204  1  0.22770000  0.77050000  0.00150000  1.0 -0.0991891867
N  N1  1  0.43650000  0.58164000  0.74100000  1.0 -0.3957070115
N  N2  1  0.91626000  0.41049000  0.13226000  1.0 -0.0607661989
N  N3  1  0.14006000  0.40906000  0.33296000  1.0 -0.0073530933
N  N4  1  0.43650000  0.91836000  0.24100000  1.0 -0.3957070115
N  N5  1  0.91626000  0.08951000  0.63226000  1.0 -0.0607661989
N  N6  1  0.14006000  0.09094000  0.83296000  1.0 -0.0073530933
N  N7  1  0.56350000  0.08164000  0.75900000  1.0 -0.3957070115
N  N8  1  0.08374000  0.91049000  0.36774000  1.0 -0.0607661989
N  N9  1  0.85994000  0.90906000  0.16704000  1.0 -0.0073530933
N  N10  1  0.56350000  0.41836000  0.25900000  1.0 -0.3957070115
N  N11  1  0.08374000  0.58951000  0.86774000  1.0 -0.0500243606
N  N12  1  0.85994000  0.59094000  0.66704000  1.0 -0.0073530933
O  O1  1  0.25243000  0.35200000  0.19733000  1.0 -0.5265979993
O  O2  1  0.01200000  0.31946000  0.12290000  1.0 -0.5207246321
O  O3  1  0.80232000  0.14683000  0.76052000  1.0 -0.5493718611
O  O4  1  0.02330000  0.18870000  0.81990000  1.0 -0.1077988476
O  O5  1  0.04890000  0.17440000  0.84230000  1.0 -0.1278648809
O  O6  1  0.25243000  0.14800000  0.69733000  1.0 -0.5265979993
O  O7  1  0.01200000  0.18054000  0.62290000  1.0 -0.5207246321
O  O8  1  0.80232000  0.35317000  0.26052000  1.0 -0.5493718611
O  O9  1  0.02330000  0.31130000  0.31990000  1.0 -0.1077988476
O  O10  1  0.04890000  0.32560000  0.34230000  1.0 -0.1387569683
O  O11  1  0.74757000  0.85200000  0.30267000  1.0 -0.5265979993
O  O12  1  0.98800000  0.81946000  0.37710000  1.0 -0.5207246321
O  O13  1  0.19768000  0.64683000  0.73948000  1.0 -0.5493718611
O  O14  1  0.97670000  0.68870000  0.68010000  1.0 -0.1077988476
O  O15  1  0.95110000  0.67440000  0.65770000  1.0 -0.1387569683
O  O16  1  0.74757000  0.64800000  0.80267000  1.0 -0.5265979993
O  O17  1  0.98800000  0.68054000  0.87710000  1.0 -0.5207246321
O  O18  1  0.19768000  0.85317000  0.23948000  1.0 -0.5493718611
O  O19  1  0.97670000  0.81130000  0.18010000  1.0 -0.1077988476
O  O20  1  0.95110000  0.82560000  0.15770000  1.0 -0.1387569683
