# DDEC6 charges by PACMAN v1.1 (https://github.com/mtap-research/PACMAN-charge/)
data_SUQHUJ_ion_pacman
_symmetry_space_group_name_H-M   'P 1'
_cell_length_a   10.98340000
_cell_length_b   10.98340000
_cell_length_c   10.98340000
_cell_angle_alpha   78.85230000
_cell_angle_beta   78.85230000
_cell_angle_gamma   78.85230000
_symmetry_Int_Tables_number   1
_chemical_formula_structural   In3H6C18NO22
_chemical_formula_sum   'In3 H6 C18 N1 O22'
_cell_volume   1258.60458155
_cell_formula_units_Z   1
loop_
 _symmetry_equiv_pos_site_id
 _symmetry_equiv_pos_as_xyz
  1  'x, y, z'
loop_
 _atom_site_type_symbol
 _atom_site_label
 _atom_site_symmetry_multiplicity
 _atom_site_fract_x
 _atom_site_fract_y
 _atom_site_fract_z
 _atom_site_occupancy
 _atom_site_charge
In  In1  1  0.35371000  0.64629000  0.50000000  1.0 1.5122246944
In  In2  1  0.64629000  0.50000000  0.35371000  1.0 1.5122246944
In  In3  1  0.50000000  0.35371000  0.64629000  1.0 1.5122246944
H  H1  1  0.11210000  0.22300000  0.79000000  1.0 0.1761448572
H  H2  1  0.22300000  0.79000000  0.11210000  1.0 0.1761448572
H  H3  1  0.79000000  0.11210000  0.22300000  1.0 0.1743255261
H  H4  1  0.88790000  0.21000000  0.77700000  1.0 0.1761448572
H  H5  1  0.77700000  0.88790000  0.21000000  1.0 0.1743255261
H  H6  1  0.21000000  0.77700000  0.88790000  1.0 0.1761448572
C  C1  1  0.21410000  0.42010000  0.61420000  1.0 0.5846395496
C  C2  1  0.42010000  0.61420000  0.21410000  1.0 0.585273743
C  C3  1  0.61420000  0.21410000  0.42010000  1.0 0.5846395496
C  C4  1  0.78590000  0.38580000  0.57990000  1.0 0.5846395496
C  C5  1  0.57990000  0.78590000  0.38580000  1.0 0.5846395496
C  C6  1  0.38580000  0.57990000  0.78590000  1.0 0.5846395496
C  C7  1  0.09520000  0.36520000  0.64730000  1.0 0.0931047353
C  C8  1  0.36520000  0.64730000  0.09520000  1.0 0.0931047353
C  C9  1  0.64730000  0.09520000  0.36520000  1.0 0.0931047353
C  C10  1  0.90480000  0.35270000  0.63480000  1.0 0.0931047353
C  C11  1  0.63480000  0.90480000  0.35270000  1.0 0.0931047353
C  C12  1  0.35270000  0.63480000  0.90480000  1.0 0.0931047353
C  C13  1  0.06270000  0.27370000  0.73380000  1.0 -0.1508258479
C  C14  1  0.27370000  0.73380000  0.06270000  1.0 -0.1508258479
C  C15  1  0.73380000  0.06270000  0.27370000  1.0 -0.1508258479
C  C16  1  0.93730000  0.26620000  0.72630000  1.0 -0.1508258479
C  C17  1  0.72630000  0.93730000  0.26620000  1.0 -0.1508258479
C  C18  1  0.26620000  0.72630000  0.93730000  1.0 -0.1508258479
N  N1  1  0.00000000  0.00000000  0.00000000  1.0 0.5462373498
O  O1  1  0.20435000  0.79565000  0.50000000  1.0 -0.4675221292
O  O2  1  0.79565000  0.50000000  0.20435000  1.0 -0.4639954564
O  O3  1  0.50000000  0.20435000  0.79565000  1.0 -0.4675221292
O  O4  1  0.21390000  0.52360000  0.53610000  1.0 -0.5066100753
O  O5  1  0.52360000  0.53610000  0.21390000  1.0 -0.5066100753
O  O6  1  0.53610000  0.21390000  0.52360000  1.0 -0.5066100753
O  O7  1  0.78610000  0.46390000  0.47640000  1.0 -0.5066100753
O  O8  1  0.47640000  0.78610000  0.46390000  1.0 -0.5066100753
O  O9  1  0.46390000  0.47640000  0.78610000  1.0 -0.5066100753
O  O10  1  0.30050000  0.35820000  0.66860000  1.0 -0.498313228
O  O11  1  0.35820000  0.66860000  0.30050000  1.0 -0.498313228
O  O12  1  0.66860000  0.30050000  0.35820000  1.0 -0.498313228
O  O13  1  0.69950000  0.33140000  0.64180000  1.0 -0.498313228
O  O14  1  0.64180000  0.69950000  0.33140000  1.0 -0.498313228
O  O15  1  0.33140000  0.64180000  0.69950000  1.0 -0.498313228
O  O16  1  0.00000000  0.42150000  0.57850000  1.0 -0.0744767037
O  O17  1  0.42150000  0.57850000  0.00000000  1.0 -0.075475305
O  O18  1  0.57850000  0.00000000  0.42150000  1.0 -0.075475305
O  O19  1  0.50000000  0.50000000  0.50000000  1.0 -1.0967929956
O  O20  1  0.08300000  0.00000000  0.91700000  1.0 -0.1824956285
O  O21  1  0.00000000  0.91700000  0.08300000  1.0 -0.1824956285
O  O22  1  0.91700000  0.08300000  0.00000000  1.0 -0.1824956285
