# DDEC6 charges by PACMAN v1.1 (https://github.com/mtap-research/PACMAN-charge/)
data_SURHEU01_ASR_pacman
_symmetry_space_group_name_H-M   'P 1'
_cell_length_a   14.67770000
_cell_length_b   14.67770000
_cell_length_c   14.67770000
_cell_angle_alpha   60.00000000
_cell_angle_beta   60.00000000
_cell_angle_gamma   60.00000000
_symmetry_Int_Tables_number   1
_chemical_formula_structural   Zr3H16(C3O4)8
_chemical_formula_sum   'Zr6 H32 C48 O64'
_cell_volume   2235.93421993
_cell_formula_units_Z   2
loop_
 _symmetry_equiv_pos_site_id
 _symmetry_equiv_pos_as_xyz
  1  'x, y, z'
loop_
 _atom_site_type_symbol
 _atom_site_label
 _atom_site_symmetry_multiplicity
 _atom_site_fract_x
 _atom_site_fract_y
 _atom_site_fract_z
 _atom_site_occupancy
 _atom_site_charge
Zr  Zr1  1  0.88050000  0.11950000  0.11950000  1.0 1.7422993309
Zr  Zr2  1  0.11950000  0.88050000  0.88050000  1.0 1.7422993309
Zr  Zr3  1  0.11950000  0.88050000  0.11950000  1.0 1.7422993309
Zr  Zr4  1  0.88050000  0.11950000  0.88050000  1.0 1.7422993309
Zr  Zr5  1  0.11950000  0.11950000  0.88050000  1.0 1.7460242397
Zr  Zr6  1  0.88050000  0.88050000  0.11950000  1.0 1.7422993309
H  H1  1  0.13640000  0.86360000  0.42080000  1.0 0.1314630576
H  H2  1  0.86360000  0.13640000  0.57920000  1.0 0.1314630576
H  H3  1  0.42080000  0.57920000  0.13640000  1.0 0.1314630576
H  H4  1  0.57920000  0.42080000  0.86360000  1.0 0.1314630576
H  H5  1  0.42080000  0.13640000  0.86360000  1.0 0.1314630576
H  H6  1  0.57920000  0.86360000  0.13640000  1.0 0.1314630576
H  H7  1  0.13640000  0.42080000  0.57920000  1.0 0.1314630576
H  H8  1  0.86360000  0.57920000  0.42080000  1.0 0.1314630576
H  H9  1  0.86360000  0.42080000  0.13640000  1.0 0.1314630576
H  H10  1  0.13640000  0.57920000  0.86360000  1.0 0.1314630576
H  H11  1  0.57920000  0.13640000  0.42080000  1.0 0.1314630576
H  H12  1  0.42080000  0.86360000  0.57920000  1.0 0.1314630576
H  H13  1  0.86360000  0.13640000  0.42080000  1.0 0.1314630576
H  H14  1  0.13640000  0.86360000  0.57920000  1.0 0.1314630576
H  H15  1  0.57920000  0.42080000  0.13640000  1.0 0.1314630576
H  H16  1  0.42080000  0.57920000  0.86360000  1.0 0.1314630576
H  H17  1  0.57920000  0.86360000  0.42080000  1.0 0.1314630576
H  H18  1  0.42080000  0.13640000  0.57920000  1.0 0.1314630576
H  H19  1  0.86360000  0.57920000  0.13640000  1.0 0.1314630576
H  H20  1  0.13640000  0.42080000  0.86360000  1.0 0.1314630576
H  H21  1  0.13640000  0.57920000  0.42080000  1.0 0.1314630576
H  H22  1  0.86360000  0.42080000  0.57920000  1.0 0.1314630576
H  H23  1  0.42080000  0.86360000  0.13640000  1.0 0.1314630576
H  H24  1  0.57920000  0.13640000  0.86360000  1.0 0.1314630576
H  H25  1  0.09450000  0.09450000  0.09450000  1.0 0.2496432689
H  H26  1  0.09450000  0.09450000  0.71650000  1.0 0.2559899501
H  H27  1  0.09450000  0.71650000  0.09450000  1.0 0.2496432689
H  H28  1  0.71650000  0.09450000  0.09450000  1.0 0.2496432689
H  H29  1  0.90550000  0.90550000  0.28350000  1.0 0.2559899501
H  H30  1  0.90550000  0.90550000  0.90550000  1.0 0.2559899501
H  H31  1  0.90550000  0.28350000  0.90550000  1.0 0.2559899501
H  H32  1  0.28350000  0.90550000  0.90550000  1.0 0.2496432689
C  C1  1  0.00000000  0.00000000  0.30350000  1.0 0.2496432689
C  C2  1  0.00000000  0.00000000  0.69650000  1.0 0.2496432689
C  C3  1  0.30350000  0.69650000  0.00000000  1.0 0.2449014969
C  C4  1  0.69650000  0.30350000  0.00000000  1.0 0.2496432689
C  C5  1  0.30350000  0.00000000  0.00000000  1.0 0.2496432689
C  C6  1  0.69650000  0.00000000  0.00000000  1.0 0.2496432689
C  C7  1  0.00000000  0.30350000  0.69650000  1.0 0.2496432689
C  C8  1  0.00000000  0.69650000  0.30350000  1.0 0.2496432689
C  C9  1  0.00000000  0.30350000  0.00000000  1.0 0.2496432689
C  C10  1  0.00000000  0.69650000  0.00000000  1.0 0.2496432689
C  C11  1  0.69650000  0.00000000  0.30350000  1.0 0.2496432689
C  C12  1  0.30350000  0.00000000  0.69650000  1.0 0.2496432689
C  C13  1  0.00000000  0.00000000  0.40538000  1.0 -0.0175120451
C  C14  1  0.00000000  0.00000000  0.59462000  1.0 -0.0175120451
C  C15  1  0.40538000  0.59462000  0.00000000  1.0 -0.0175120451
C  C16  1  0.59462000  0.40538000  0.00000000  1.0 -0.0175120451
C  C17  1  0.40538000  0.00000000  0.00000000  1.0 -0.0175120451
C  C18  1  0.59462000  0.00000000  0.00000000  1.0 -0.0175120451
C  C19  1  0.00000000  0.40538000  0.59462000  1.0 -0.0175120451
C  C20  1  0.00000000  0.59462000  0.40538000  1.0 -0.0175120451
C  C21  1  0.00000000  0.40538000  0.00000000  1.0 -0.0175120451
C  C22  1  0.00000000  0.59462000  0.00000000  1.0 -0.0175120451
C  C23  1  0.59462000  0.00000000  0.40538000  1.0 -0.0175120451
C  C24  1  0.40538000  0.00000000  0.59462000  1.0 -0.0175120451
C  C25  1  0.08156000  0.91844000  0.45252000  1.0 -0.1039309903
C  C26  1  0.91844000  0.08156000  0.54748000  1.0 -0.1039309903
C  C27  1  0.45252000  0.54748000  0.08156000  1.0 -0.1039309903
C  C28  1  0.54748000  0.45252000  0.91844000  1.0 -0.1039309903
C  C29  1  0.45252000  0.08156000  0.91844000  1.0 -0.1039309903
C  C30  1  0.54748000  0.91844000  0.08156000  1.0 -0.1039309903
C  C31  1  0.08156000  0.45252000  0.54748000  1.0 -0.1039309903
C  C32  1  0.91844000  0.54748000  0.45252000  1.0 -0.1039309903
C  C33  1  0.91844000  0.45252000  0.08156000  1.0 -0.1039309903
C  C34  1  0.08156000  0.54748000  0.91844000  1.0 -0.1039309903
C  C35  1  0.54748000  0.08156000  0.45252000  1.0 -0.1039309903
C  C36  1  0.45252000  0.91844000  0.54748000  1.0 -0.1039309903
C  C37  1  0.91844000  0.08156000  0.45252000  1.0 -0.1039309903
C  C38  1  0.08156000  0.91844000  0.54748000  1.0 -0.1039309903
C  C39  1  0.54748000  0.45252000  0.08156000  1.0 -0.1039309903
C  C40  1  0.45252000  0.54748000  0.91844000  1.0 -0.1039309903
C  C41  1  0.54748000  0.91844000  0.45252000  1.0 -0.1039309903
C  C42  1  0.45252000  0.08156000  0.54748000  1.0 -0.1039309903
C  C43  1  0.91844000  0.54748000  0.08156000  1.0 -0.1039309903
C  C44  1  0.08156000  0.45252000  0.91844000  1.0 -0.1039309903
C  C45  1  0.08156000  0.54748000  0.45252000  1.0 -0.1039309903
C  C46  1  0.91844000  0.45252000  0.54748000  1.0 -0.1039309903
C  C47  1  0.45252000  0.91844000  0.08156000  1.0 -0.1039309903
C  C48  1  0.54748000  0.08156000  0.91844000  1.0 -0.1039309903
O  O1  1  0.92291000  0.07709000  0.26467000  1.0 -0.1845758551
O  O2  1  0.07709000  0.92291000  0.73533000  1.0 -0.1872625722
O  O3  1  0.26467000  0.73533000  0.92291000  1.0 -0.1872625722
O  O4  1  0.73533000  0.26467000  0.07709000  1.0 -0.1872625722
O  O5  1  0.26467000  0.92291000  0.07709000  1.0 -0.1872625722
O  O6  1  0.73533000  0.07709000  0.92291000  1.0 -0.1845758551
O  O7  1  0.92291000  0.26467000  0.73533000  1.0 -0.1872625722
O  O8  1  0.07709000  0.73533000  0.26467000  1.0 -0.1872625722
O  O9  1  0.07709000  0.26467000  0.92291000  1.0 -0.1872625722
O  O10  1  0.92291000  0.73533000  0.07709000  1.0 -0.1872625722
O  O11  1  0.73533000  0.92291000  0.26467000  1.0 -0.1872625722
O  O12  1  0.26467000  0.07709000  0.73533000  1.0 -0.1872625722
O  O13  1  0.07709000  0.92291000  0.26467000  1.0 -0.1872625722
O  O14  1  0.92291000  0.07709000  0.73533000  1.0 -0.1872625722
O  O15  1  0.73533000  0.26467000  0.92291000  1.0 -0.1845758551
O  O16  1  0.26467000  0.73533000  0.07709000  1.0 -0.1872625722
O  O17  1  0.73533000  0.07709000  0.26467000  1.0 -0.1872625722
O  O18  1  0.26467000  0.92291000  0.73533000  1.0 -0.1872625722
O  O19  1  0.07709000  0.73533000  0.92291000  1.0 -0.1872625722
O  O20  1  0.92291000  0.26467000  0.07709000  1.0 -0.1872625722
O  O21  1  0.92291000  0.73533000  0.26467000  1.0 -0.1872625722
O  O22  1  0.07709000  0.26467000  0.73533000  1.0 -0.1872625722
O  O23  1  0.26467000  0.07709000  0.92291000  1.0 -0.1845758551
O  O24  1  0.73533000  0.92291000  0.07709000  1.0 -0.1845758551
O  O25  1  0.05006000  0.05006000  0.05006000  1.0 -0.3886569665
O  O26  1  0.05006000  0.05006000  0.84982000  1.0 -0.3886569665
O  O27  1  0.05006000  0.84982000  0.05006000  1.0 -0.3886569665
O  O28  1  0.84982000  0.05006000  0.05006000  1.0 -0.3886569665
O  O29  1  0.94994000  0.94994000  0.15018000  1.0 -0.3886569665
O  O30  1  0.94994000  0.94994000  0.94994000  1.0 -0.3886569665
O  O31  1  0.94994000  0.15018000  0.94994000  1.0 -0.3886569665
O  O32  1  0.15018000  0.94994000  0.94994000  1.0 -0.3886569665
O  O33  1  0.06724000  0.06724000  0.06724000  1.0 -0.4008766339
O  O34  1  0.06724000  0.06724000  0.79828000  1.0 -0.4008766339
O  O35  1  0.06724000  0.79828000  0.06724000  1.0 -0.4008766339
O  O36  1  0.79828000  0.06724000  0.06724000  1.0 -0.4008766339
O  O37  1  0.93276000  0.93276000  0.20172000  1.0 -0.4008766339
O  O38  1  0.93276000  0.93276000  0.93276000  1.0 -0.4008766339
O  O39  1  0.93276000  0.20172000  0.93276000  1.0 -0.4008766339
O  O40  1  0.20172000  0.93276000  0.93276000  1.0 -0.4008766339
O  O41  1  0.88600000  0.11400000  0.27020000  1.0 -0.2132372997
O  O42  1  0.11400000  0.88600000  0.72980000  1.0 -0.2155120187
O  O43  1  0.27020000  0.72980000  0.88600000  1.0 -0.2132372997
O  O44  1  0.72980000  0.27020000  0.11400000  1.0 -0.2132372997
O  O45  1  0.27020000  0.88600000  0.11400000  1.0 -0.2155120187
O  O46  1  0.72980000  0.11400000  0.88600000  1.0 -0.2132372997
O  O47  1  0.88600000  0.27020000  0.72980000  1.0 -0.2132372997
O  O48  1  0.11400000  0.72980000  0.27020000  1.0 -0.2132372997
O  O49  1  0.11400000  0.27020000  0.88600000  1.0 -0.2132372997
O  O50  1  0.88600000  0.72980000  0.11400000  1.0 -0.2132372997
O  O51  1  0.72980000  0.88600000  0.27020000  1.0 -0.2132372997
O  O52  1  0.27020000  0.11400000  0.72980000  1.0 -0.2132372997
O  O53  1  0.11400000  0.88600000  0.27020000  1.0 -0.2155120187
O  O54  1  0.88600000  0.11400000  0.72980000  1.0 -0.2132372997
O  O55  1  0.72980000  0.27020000  0.88600000  1.0 -0.2132372997
O  O56  1  0.27020000  0.72980000  0.11400000  1.0 -0.2132372997
O  O57  1  0.72980000  0.11400000  0.27020000  1.0 -0.2132372997
O  O58  1  0.27020000  0.88600000  0.72980000  1.0 -0.2132372997
O  O59  1  0.11400000  0.72980000  0.88600000  1.0 -0.2132372997
O  O60  1  0.88600000  0.27020000  0.11400000  1.0 -0.2132372997
O  O61  1  0.88600000  0.72980000  0.27020000  1.0 -0.2132372997
O  O62  1  0.11400000  0.27020000  0.72980000  1.0 -0.2132372997
O  O63  1  0.27020000  0.11400000  0.88600000  1.0 -0.2132372997
O  O64  1  0.72980000  0.88600000  0.11400000  1.0 -0.2132372997
