# DDEC6 charges by PACMAN v1.1 (https://github.com/mtap-research/PACMAN-charge/)
data_SURKUN_ASR_pacman
_symmetry_space_group_name_H-M   'P 1'
_cell_length_a   14.67740000
_cell_length_b   14.67740000
_cell_length_c   14.67740000
_cell_angle_alpha   60.00000000
_cell_angle_beta   60.00000000
_cell_angle_gamma   60.00000000
_symmetry_Int_Tables_number   1
_chemical_formula_structural   Zr3H16(C3O4)8
_chemical_formula_sum   'Zr6 H32 C48 O64'
_cell_volume   2235.79712082
_cell_formula_units_Z   2
loop_
 _symmetry_equiv_pos_site_id
 _symmetry_equiv_pos_as_xyz
  1  'x, y, z'
loop_
 _atom_site_type_symbol
 _atom_site_label
 _atom_site_symmetry_multiplicity
 _atom_site_fract_x
 _atom_site_fract_y
 _atom_site_fract_z
 _atom_site_occupancy
 _atom_site_charge
Zr  Zr1  1  0.88064000  0.11936000  0.11936000  1.0 1.7565684014
Zr  Zr2  1  0.11936000  0.88064000  0.88064000  1.0 1.7565684014
Zr  Zr3  1  0.11936000  0.88064000  0.11936000  1.0 1.7565684014
Zr  Zr4  1  0.88064000  0.11936000  0.88064000  1.0 1.7565684014
Zr  Zr5  1  0.11936000  0.11936000  0.88064000  1.0 1.7565684014
Zr  Zr6  1  0.88064000  0.88064000  0.11936000  1.0 1.7565684014
H  H1  1  0.86380000  0.13620000  0.42040000  1.0 0.1330590787
H  H2  1  0.13620000  0.86380000  0.57960000  1.0 0.1330590787
H  H3  1  0.42040000  0.57960000  0.86380000  1.0 0.1330590787
H  H4  1  0.57960000  0.42040000  0.13620000  1.0 0.1330590787
H  H5  1  0.42040000  0.86380000  0.13620000  1.0 0.1330590787
H  H6  1  0.57960000  0.13620000  0.86380000  1.0 0.1330590787
H  H7  1  0.86380000  0.42040000  0.57960000  1.0 0.1330590787
H  H8  1  0.13620000  0.57960000  0.42040000  1.0 0.1330590787
H  H9  1  0.13620000  0.42040000  0.86380000  1.0 0.1330590787
H  H10  1  0.86380000  0.57960000  0.13620000  1.0 0.1330590787
H  H11  1  0.57960000  0.86380000  0.42040000  1.0 0.1330590787
H  H12  1  0.42040000  0.13620000  0.57960000  1.0 0.1330590787
H  H13  1  0.13620000  0.86380000  0.42040000  1.0 0.1330590787
H  H14  1  0.86380000  0.13620000  0.57960000  1.0 0.1330590787
H  H15  1  0.57960000  0.42040000  0.86380000  1.0 0.1330590787
H  H16  1  0.42040000  0.57960000  0.13620000  1.0 0.1330590787
H  H17  1  0.57960000  0.13620000  0.42040000  1.0 0.1330590787
H  H18  1  0.42040000  0.86380000  0.57960000  1.0 0.1330590787
H  H19  1  0.13620000  0.57960000  0.86380000  1.0 0.1330590787
H  H20  1  0.86380000  0.42040000  0.13620000  1.0 0.1330590787
H  H21  1  0.86380000  0.57960000  0.42040000  1.0 0.1330590787
H  H22  1  0.13620000  0.42040000  0.57960000  1.0 0.1330590787
H  H23  1  0.42040000  0.13620000  0.86380000  1.0 0.1330590787
H  H24  1  0.57960000  0.86380000  0.13620000  1.0 0.1330590787
H  H25  1  0.09580000  0.09580000  0.09580000  1.0 0.2644673629
H  H26  1  0.09580000  0.09580000  0.71260000  1.0 0.2644673629
H  H27  1  0.09580000  0.71260000  0.09580000  1.0 0.2644673629
H  H28  1  0.71260000  0.09580000  0.09580000  1.0 0.2644673629
H  H29  1  0.90420000  0.90420000  0.28740000  1.0 0.2659072968
H  H30  1  0.90420000  0.90420000  0.90420000  1.0 0.2659072968
H  H31  1  0.90420000  0.28740000  0.90420000  1.0 0.2644673629
H  H32  1  0.28740000  0.90420000  0.90420000  1.0 0.2644673629
C  C1  1  0.00000000  0.00000000  0.30360000  1.0 0.2389069218
C  C2  1  0.00000000  0.00000000  0.69640000  1.0 0.2389069218
C  C3  1  0.30360000  0.69640000  0.00000000  1.0 0.2389069218
C  C4  1  0.69640000  0.30360000  0.00000000  1.0 0.2389069218
C  C5  1  0.30360000  0.00000000  0.00000000  1.0 0.2389069218
C  C6  1  0.69640000  0.00000000  0.00000000  1.0 0.2389069218
C  C7  1  0.00000000  0.30360000  0.69640000  1.0 0.2389069218
C  C8  1  0.00000000  0.69640000  0.30360000  1.0 0.2389069218
C  C9  1  0.00000000  0.30360000  0.00000000  1.0 0.2389069218
C  C10  1  0.00000000  0.69640000  0.00000000  1.0 0.2389069218
C  C11  1  0.69640000  0.00000000  0.30360000  1.0 0.2389069218
C  C12  1  0.30360000  0.00000000  0.69640000  1.0 0.2389069218
C  C13  1  0.00000000  0.00000000  0.40560000  1.0 -0.0153721802
C  C14  1  0.00000000  0.00000000  0.59440000  1.0 -0.0153721802
C  C15  1  0.40560000  0.59440000  0.00000000  1.0 -0.0153721802
C  C16  1  0.59440000  0.40560000  0.00000000  1.0 -0.0153721802
C  C17  1  0.40560000  0.00000000  0.00000000  1.0 -0.0153721802
C  C18  1  0.59440000  0.00000000  0.00000000  1.0 -0.0153721802
C  C19  1  0.00000000  0.40560000  0.59440000  1.0 -0.0153721802
C  C20  1  0.00000000  0.59440000  0.40560000  1.0 -0.0137815895
C  C21  1  0.00000000  0.40560000  0.00000000  1.0 -0.0153721802
C  C22  1  0.00000000  0.59440000  0.00000000  1.0 -0.0137815895
C  C23  1  0.59440000  0.00000000  0.40560000  1.0 -0.0153721802
C  C24  1  0.40560000  0.00000000  0.59440000  1.0 -0.0153721802
C  C25  1  0.92000000  0.08000000  0.45260000  1.0 -0.1010492603
C  C26  1  0.08000000  0.92000000  0.54740000  1.0 -0.1010492603
C  C27  1  0.45260000  0.54740000  0.92000000  1.0 -0.1010492603
C  C28  1  0.54740000  0.45260000  0.08000000  1.0 -0.1010492603
C  C29  1  0.45260000  0.92000000  0.08000000  1.0 -0.1010492603
C  C30  1  0.54740000  0.08000000  0.92000000  1.0 -0.1010492603
C  C31  1  0.92000000  0.45260000  0.54740000  1.0 -0.1010492603
C  C32  1  0.08000000  0.54740000  0.45260000  1.0 -0.1010492603
C  C33  1  0.08000000  0.45260000  0.92000000  1.0 -0.1010492603
C  C34  1  0.92000000  0.54740000  0.08000000  1.0 -0.1010492603
C  C35  1  0.54740000  0.92000000  0.45260000  1.0 -0.1010492603
C  C36  1  0.45260000  0.08000000  0.54740000  1.0 -0.1010492603
C  C37  1  0.08000000  0.92000000  0.45260000  1.0 -0.1010492603
C  C38  1  0.92000000  0.08000000  0.54740000  1.0 -0.1010492603
C  C39  1  0.54740000  0.45260000  0.92000000  1.0 -0.1010492603
C  C40  1  0.45260000  0.54740000  0.08000000  1.0 -0.1010492603
C  C41  1  0.54740000  0.08000000  0.45260000  1.0 -0.1010492603
C  C42  1  0.45260000  0.92000000  0.54740000  1.0 -0.1010492603
C  C43  1  0.08000000  0.54740000  0.92000000  1.0 -0.1010492603
C  C44  1  0.92000000  0.45260000  0.08000000  1.0 -0.1010492603
C  C45  1  0.92000000  0.54740000  0.45260000  1.0 -0.1010492603
C  C46  1  0.08000000  0.45260000  0.54740000  1.0 -0.1010492603
C  C47  1  0.45260000  0.08000000  0.92000000  1.0 -0.1010492603
C  C48  1  0.54740000  0.92000000  0.08000000  1.0 -0.1010492603
O  O1  1  0.92376000  0.07624000  0.26446000  1.0 -0.188293413
O  O2  1  0.07624000  0.92376000  0.73554000  1.0 -0.188293413
O  O3  1  0.26446000  0.73554000  0.92376000  1.0 -0.188293413
O  O4  1  0.73554000  0.26446000  0.07624000  1.0 -0.188293413
O  O5  1  0.26446000  0.92376000  0.07624000  1.0 -0.188293413
O  O6  1  0.73554000  0.07624000  0.92376000  1.0 -0.188293413
O  O7  1  0.92376000  0.26446000  0.73554000  1.0 -0.188293413
O  O8  1  0.07624000  0.73554000  0.26446000  1.0 -0.188293413
O  O9  1  0.07624000  0.26446000  0.92376000  1.0 -0.188293413
O  O10  1  0.92376000  0.73554000  0.07624000  1.0 -0.188293413
O  O11  1  0.73554000  0.92376000  0.26446000  1.0 -0.188293413
O  O12  1  0.26446000  0.07624000  0.73554000  1.0 -0.188293413
O  O13  1  0.07624000  0.92376000  0.26446000  1.0 -0.188293413
O  O14  1  0.92376000  0.07624000  0.73554000  1.0 -0.188293413
O  O15  1  0.73554000  0.26446000  0.92376000  1.0 -0.188293413
O  O16  1  0.26446000  0.73554000  0.07624000  1.0 -0.188293413
O  O17  1  0.73554000  0.07624000  0.26446000  1.0 -0.188293413
O  O18  1  0.26446000  0.92376000  0.73554000  1.0 -0.188293413
O  O19  1  0.07624000  0.73554000  0.92376000  1.0 -0.188293413
O  O20  1  0.92376000  0.26446000  0.07624000  1.0 -0.188293413
O  O21  1  0.92376000  0.73554000  0.26446000  1.0 -0.188293413
O  O22  1  0.07624000  0.26446000  0.73554000  1.0 -0.188293413
O  O23  1  0.26446000  0.07624000  0.92376000  1.0 -0.188293413
O  O24  1  0.73554000  0.92376000  0.07624000  1.0 -0.188293413
O  O25  1  0.06790000  0.06790000  0.06790000  1.0 -0.3901110832
O  O26  1  0.06790000  0.06790000  0.79630000  1.0 -0.3901110832
O  O27  1  0.06790000  0.79630000  0.06790000  1.0 -0.3901110832
O  O28  1  0.79630000  0.06790000  0.06790000  1.0 -0.3901110832
O  O29  1  0.93210000  0.93210000  0.20370000  1.0 -0.3901110832
O  O30  1  0.93210000  0.93210000  0.93210000  1.0 -0.3901110832
O  O31  1  0.93210000  0.20370000  0.93210000  1.0 -0.3901110832
O  O32  1  0.20370000  0.93210000  0.93210000  1.0 -0.3901110832
O  O33  1  0.88580000  0.11420000  0.27000000  1.0 -0.2140829073
O  O34  1  0.11420000  0.88580000  0.73000000  1.0 -0.2140829073
O  O35  1  0.27000000  0.73000000  0.88580000  1.0 -0.2140829073
O  O36  1  0.73000000  0.27000000  0.11420000  1.0 -0.2140829073
O  O37  1  0.27000000  0.88580000  0.11420000  1.0 -0.2140829073
O  O38  1  0.73000000  0.11420000  0.88580000  1.0 -0.2140829073
O  O39  1  0.88580000  0.27000000  0.73000000  1.0 -0.2140829073
O  O40  1  0.11420000  0.73000000  0.27000000  1.0 -0.2140829073
O  O41  1  0.11420000  0.27000000  0.88580000  1.0 -0.2140829073
O  O42  1  0.88580000  0.73000000  0.11420000  1.0 -0.2140829073
O  O43  1  0.73000000  0.88580000  0.27000000  1.0 -0.2140829073
O  O44  1  0.27000000  0.11420000  0.73000000  1.0 -0.2140829073
O  O45  1  0.11420000  0.88580000  0.27000000  1.0 -0.2140829073
O  O46  1  0.88580000  0.11420000  0.73000000  1.0 -0.2140829073
O  O47  1  0.73000000  0.27000000  0.88580000  1.0 -0.2140829073
O  O48  1  0.27000000  0.73000000  0.11420000  1.0 -0.2140829073
O  O49  1  0.73000000  0.11420000  0.27000000  1.0 -0.2140829073
O  O50  1  0.27000000  0.88580000  0.73000000  1.0 -0.2140829073
O  O51  1  0.11420000  0.73000000  0.88580000  1.0 -0.2140829073
O  O52  1  0.88580000  0.27000000  0.11420000  1.0 -0.2140829073
O  O53  1  0.88580000  0.73000000  0.27000000  1.0 -0.2140829073
O  O54  1  0.11420000  0.27000000  0.73000000  1.0 -0.2140829073
O  O55  1  0.27000000  0.11420000  0.88580000  1.0 -0.2140829073
O  O56  1  0.73000000  0.88580000  0.11420000  1.0 -0.2140829073
O  O57  1  0.05090000  0.05090000  0.05090000  1.0 -0.4167428185
O  O58  1  0.05090000  0.05090000  0.84730000  1.0 -0.4167428185
O  O59  1  0.05090000  0.84730000  0.05090000  1.0 -0.4167428185
O  O60  1  0.84730000  0.05090000  0.05090000  1.0 -0.4167428185
O  O61  1  0.94910000  0.94910000  0.15270000  1.0 -0.4167428185
O  O62  1  0.94910000  0.94910000  0.94910000  1.0 -0.4167428185
O  O63  1  0.94910000  0.15270000  0.94910000  1.0 -0.4167428185
O  O64  1  0.15270000  0.94910000  0.94910000  1.0 -0.4167428185
