# DDEC6 charges by PACMAN v1.1 (https://github.com/mtap-research/PACMAN-charge/)
data_SURKUN01_ASR_pacman
_symmetry_space_group_name_H-M   'P 1'
_cell_length_a   14.67980000
_cell_length_b   14.67980000
_cell_length_c   14.67980000
_cell_angle_alpha   60.00000000
_cell_angle_beta   60.00000000
_cell_angle_gamma   60.00000000
_symmetry_Int_Tables_number   1
_chemical_formula_structural   Zr3H16(C3O4)8
_chemical_formula_sum   'Zr6 H32 C48 O64'
_cell_volume   2236.89407066
_cell_formula_units_Z   2
loop_
 _symmetry_equiv_pos_site_id
 _symmetry_equiv_pos_as_xyz
  1  'x, y, z'
loop_
 _atom_site_type_symbol
 _atom_site_label
 _atom_site_symmetry_multiplicity
 _atom_site_fract_x
 _atom_site_fract_y
 _atom_site_fract_z
 _atom_site_occupancy
 _atom_site_charge
Zr  Zr1  1  0.88069000  0.11931000  0.11931000  1.0 1.8521556177
Zr  Zr2  1  0.11931000  0.88069000  0.88069000  1.0 1.8521556177
Zr  Zr3  1  0.11931000  0.88069000  0.11931000  1.0 1.8521556177
Zr  Zr4  1  0.88069000  0.11931000  0.88069000  1.0 1.8521556177
Zr  Zr5  1  0.11931000  0.11931000  0.88069000  1.0 1.8521556177
Zr  Zr6  1  0.88069000  0.88069000  0.11931000  1.0 1.8521556177
H  H1  1  0.86240000  0.13760000  0.42020000  1.0 0.1463788765
H  H2  1  0.13760000  0.86240000  0.57980000  1.0 0.1463788765
H  H3  1  0.42020000  0.57980000  0.86240000  1.0 0.1463788765
H  H4  1  0.57980000  0.42020000  0.13760000  1.0 0.1463788765
H  H5  1  0.42020000  0.86240000  0.13760000  1.0 0.1463788765
H  H6  1  0.57980000  0.13760000  0.86240000  1.0 0.1463788765
H  H7  1  0.86240000  0.42020000  0.57980000  1.0 0.1463788765
H  H8  1  0.13760000  0.57980000  0.42020000  1.0 0.1463788765
H  H9  1  0.13760000  0.42020000  0.86240000  1.0 0.1463788765
H  H10  1  0.86240000  0.57980000  0.13760000  1.0 0.1463788765
H  H11  1  0.57980000  0.86240000  0.42020000  1.0 0.1463788765
H  H12  1  0.42020000  0.13760000  0.57980000  1.0 0.1463788765
H  H13  1  0.13760000  0.86240000  0.42020000  1.0 0.1463788765
H  H14  1  0.86240000  0.13760000  0.57980000  1.0 0.1463788765
H  H15  1  0.57980000  0.42020000  0.86240000  1.0 0.1463788765
H  H16  1  0.42020000  0.57980000  0.13760000  1.0 0.1463788765
H  H17  1  0.57980000  0.13760000  0.42020000  1.0 0.1463788765
H  H18  1  0.42020000  0.86240000  0.57980000  1.0 0.1463788765
H  H19  1  0.13760000  0.57980000  0.86240000  1.0 0.1463788765
H  H20  1  0.86240000  0.42020000  0.13760000  1.0 0.1463788765
H  H21  1  0.86240000  0.57980000  0.42020000  1.0 0.1463788765
H  H22  1  0.13760000  0.42020000  0.57980000  1.0 0.1463788765
H  H23  1  0.42020000  0.13760000  0.86240000  1.0 0.1463788765
H  H24  1  0.57980000  0.86240000  0.13760000  1.0 0.1463788765
H  H25  1  0.09580000  0.09580000  0.09580000  1.0 0.3369891922
H  H26  1  0.09580000  0.09580000  0.71260000  1.0 0.3369891922
H  H27  1  0.09580000  0.71260000  0.09580000  1.0 0.3369891922
H  H28  1  0.71260000  0.09580000  0.09580000  1.0 0.3369891922
H  H29  1  0.90420000  0.90420000  0.28740000  1.0 0.3369891922
H  H30  1  0.90420000  0.90420000  0.90420000  1.0 0.3369891922
H  H31  1  0.90420000  0.28740000  0.90420000  1.0 0.3369891922
H  H32  1  0.28740000  0.90420000  0.90420000  1.0 0.3369891922
C  C1  1  0.00000000  0.00000000  0.30360000  1.0 0.4924617129
C  C2  1  0.00000000  0.00000000  0.69640000  1.0 0.4924617129
C  C3  1  0.30360000  0.69640000  0.00000000  1.0 0.4924617129
C  C4  1  0.69640000  0.30360000  0.00000000  1.0 0.4924617129
C  C5  1  0.30360000  0.00000000  0.00000000  1.0 0.4924617129
C  C6  1  0.69640000  0.00000000  0.00000000  1.0 0.4924617129
C  C7  1  0.00000000  0.30360000  0.69640000  1.0 0.4924617129
C  C8  1  0.00000000  0.69640000  0.30360000  1.0 0.4924617129
C  C9  1  0.00000000  0.30360000  0.00000000  1.0 0.4924617129
C  C10  1  0.00000000  0.69640000  0.00000000  1.0 0.4924617129
C  C11  1  0.69640000  0.00000000  0.30360000  1.0 0.4924617129
C  C12  1  0.30360000  0.00000000  0.69640000  1.0 0.4924617129
C  C13  1  0.00000000  0.00000000  0.40540000  1.0 0.0031590208
C  C14  1  0.00000000  0.00000000  0.59460000  1.0 0.0031590208
C  C15  1  0.40540000  0.59460000  0.00000000  1.0 0.0031590208
C  C16  1  0.59460000  0.40540000  0.00000000  1.0 0.0031590208
C  C17  1  0.40540000  0.00000000  0.00000000  1.0 0.0031590208
C  C18  1  0.59460000  0.00000000  0.00000000  1.0 0.0031590208
C  C19  1  0.00000000  0.40540000  0.59460000  1.0 0.0031590208
C  C20  1  0.00000000  0.59460000  0.40540000  1.0 0.0031590208
C  C21  1  0.00000000  0.40540000  0.00000000  1.0 0.0031590208
C  C22  1  0.00000000  0.59460000  0.00000000  1.0 0.0031590208
C  C23  1  0.59460000  0.00000000  0.40540000  1.0 0.0031590208
C  C24  1  0.40540000  0.00000000  0.59460000  1.0 0.0031590208
C  C25  1  0.91850000  0.08150000  0.45250000  1.0 -0.0781943818
C  C26  1  0.08150000  0.91850000  0.54750000  1.0 -0.0781943818
C  C27  1  0.45250000  0.54750000  0.91850000  1.0 -0.0781943818
C  C28  1  0.54750000  0.45250000  0.08150000  1.0 -0.0781943818
C  C29  1  0.45250000  0.91850000  0.08150000  1.0 -0.0781943818
C  C30  1  0.54750000  0.08150000  0.91850000  1.0 -0.0781943818
C  C31  1  0.91850000  0.45250000  0.54750000  1.0 -0.0781943818
C  C32  1  0.08150000  0.54750000  0.45250000  1.0 -0.0781943818
C  C33  1  0.08150000  0.45250000  0.91850000  1.0 -0.0781943818
C  C34  1  0.91850000  0.54750000  0.08150000  1.0 -0.0781943818
C  C35  1  0.54750000  0.91850000  0.45250000  1.0 -0.0781943818
C  C36  1  0.45250000  0.08150000  0.54750000  1.0 -0.0781943818
C  C37  1  0.08150000  0.91850000  0.45250000  1.0 -0.0781943818
C  C38  1  0.91850000  0.08150000  0.54750000  1.0 -0.0781943818
C  C39  1  0.54750000  0.45250000  0.91850000  1.0 -0.0781943818
C  C40  1  0.45250000  0.54750000  0.08150000  1.0 -0.0781943818
C  C41  1  0.54750000  0.08150000  0.45250000  1.0 -0.0781943818
C  C42  1  0.45250000  0.91850000  0.54750000  1.0 -0.0781943818
C  C43  1  0.08150000  0.54750000  0.91850000  1.0 -0.0781943818
C  C44  1  0.91850000  0.45250000  0.08150000  1.0 -0.0781943818
C  C45  1  0.91850000  0.54750000  0.45250000  1.0 -0.0781943818
C  C46  1  0.08150000  0.45250000  0.54750000  1.0 -0.0781943818
C  C47  1  0.45250000  0.08150000  0.91850000  1.0 -0.0781943818
C  C48  1  0.54750000  0.91850000  0.08150000  1.0 -0.0781943818
O  O1  1  0.92490000  0.07510000  0.26450000  1.0 -0.2941091986
O  O2  1  0.07510000  0.92490000  0.73550000  1.0 -0.2941091986
O  O3  1  0.26450000  0.73550000  0.92490000  1.0 -0.2941091986
O  O4  1  0.73550000  0.26450000  0.07510000  1.0 -0.2941091986
O  O5  1  0.26450000  0.92490000  0.07510000  1.0 -0.2941091986
O  O6  1  0.73550000  0.07510000  0.92490000  1.0 -0.2941091986
O  O7  1  0.92490000  0.26450000  0.73550000  1.0 -0.2941091986
O  O8  1  0.07510000  0.73550000  0.26450000  1.0 -0.2941091986
O  O9  1  0.07510000  0.26450000  0.92490000  1.0 -0.2941091986
O  O10  1  0.92490000  0.73550000  0.07510000  1.0 -0.2941091986
O  O11  1  0.73550000  0.92490000  0.26450000  1.0 -0.2941091986
O  O12  1  0.26450000  0.07510000  0.73550000  1.0 -0.2941091986
O  O13  1  0.07510000  0.92490000  0.26450000  1.0 -0.2941091986
O  O14  1  0.92490000  0.07510000  0.73550000  1.0 -0.2941091986
O  O15  1  0.73550000  0.26450000  0.92490000  1.0 -0.2941091986
O  O16  1  0.26450000  0.73550000  0.07510000  1.0 -0.2941091986
O  O17  1  0.73550000  0.07510000  0.26450000  1.0 -0.2941091986
O  O18  1  0.26450000  0.92490000  0.73550000  1.0 -0.2941091986
O  O19  1  0.07510000  0.73550000  0.92490000  1.0 -0.2941091986
O  O20  1  0.92490000  0.26450000  0.07510000  1.0 -0.2941091986
O  O21  1  0.92490000  0.73550000  0.26450000  1.0 -0.2941091986
O  O22  1  0.07510000  0.26450000  0.73550000  1.0 -0.2941091986
O  O23  1  0.26450000  0.07510000  0.92490000  1.0 -0.2941091986
O  O24  1  0.73550000  0.92490000  0.07510000  1.0 -0.2941091986
O  O25  1  0.05000000  0.05000000  0.05000000  1.0 -0.3429004644
O  O26  1  0.05000000  0.05000000  0.85000000  1.0 -0.3429004644
O  O27  1  0.05000000  0.85000000  0.05000000  1.0 -0.3429004644
O  O28  1  0.85000000  0.05000000  0.05000000  1.0 -0.3429004644
O  O29  1  0.95000000  0.95000000  0.15000000  1.0 -0.3429004644
O  O30  1  0.95000000  0.95000000  0.95000000  1.0 -0.3429004644
O  O31  1  0.95000000  0.15000000  0.95000000  1.0 -0.3429004644
O  O32  1  0.15000000  0.95000000  0.95000000  1.0 -0.3429004644
O  O33  1  0.89590000  0.10410000  0.26510000  1.0 -0.3601219674
O  O34  1  0.10410000  0.89590000  0.73490000  1.0 -0.3601219674
O  O35  1  0.26510000  0.73490000  0.89590000  1.0 -0.3601219674
O  O36  1  0.73490000  0.26510000  0.10410000  1.0 -0.3601219674
O  O37  1  0.26510000  0.89590000  0.10410000  1.0 -0.3601219674
O  O38  1  0.73490000  0.10410000  0.89590000  1.0 -0.3601219674
O  O39  1  0.89590000  0.26510000  0.73490000  1.0 -0.3601219674
O  O40  1  0.10410000  0.73490000  0.26510000  1.0 -0.3601219674
O  O41  1  0.10410000  0.26510000  0.89590000  1.0 -0.3601219674
O  O42  1  0.89590000  0.73490000  0.10410000  1.0 -0.3601219674
O  O43  1  0.73490000  0.89590000  0.26510000  1.0 -0.3601219674
O  O44  1  0.26510000  0.10410000  0.73490000  1.0 -0.3601219674
O  O45  1  0.10410000  0.89590000  0.26510000  1.0 -0.3601219674
O  O46  1  0.89590000  0.10410000  0.73490000  1.0 -0.3601219674
O  O47  1  0.73490000  0.26510000  0.89590000  1.0 -0.3601219674
O  O48  1  0.26510000  0.73490000  0.10410000  1.0 -0.3601219674
O  O49  1  0.73490000  0.10410000  0.26510000  1.0 -0.3601219674
O  O50  1  0.26510000  0.89590000  0.73490000  1.0 -0.3601219674
O  O51  1  0.10410000  0.73490000  0.89590000  1.0 -0.3601219674
O  O52  1  0.89590000  0.26510000  0.10410000  1.0 -0.3601219674
O  O53  1  0.89590000  0.73490000  0.26510000  1.0 -0.3601219674
O  O54  1  0.10410000  0.26510000  0.73490000  1.0 -0.3601219674
O  O55  1  0.26510000  0.10410000  0.89590000  1.0 -0.3601219674
O  O56  1  0.73490000  0.89590000  0.10410000  1.0 -0.3601219674
O  O57  1  0.06740000  0.06740000  0.06740000  1.0 -0.368496528
O  O58  1  0.06740000  0.06740000  0.79780000  1.0 -0.368496528
O  O59  1  0.06740000  0.79780000  0.06740000  1.0 -0.368496528
O  O60  1  0.79780000  0.06740000  0.06740000  1.0 -0.368496528
O  O61  1  0.93260000  0.93260000  0.20220000  1.0 -0.368496528
O  O62  1  0.93260000  0.93260000  0.93260000  1.0 -0.368496528
O  O63  1  0.93260000  0.20220000  0.93260000  1.0 -0.368496528
O  O64  1  0.20220000  0.93260000  0.93260000  1.0 -0.368496528
