# DDEC6 charges by PACMAN v1.1 (https://github.com/mtap-research/PACMAN-charge/)
data_SURLEY_ASR_pacman
_symmetry_space_group_name_H-M   'P 1'
_cell_length_a   14.67070000
_cell_length_b   14.67070000
_cell_length_c   14.67070000
_cell_angle_alpha   60.00000000
_cell_angle_beta   60.00000000
_cell_angle_gamma   60.00000000
_symmetry_Int_Tables_number   1
_chemical_formula_structural   Zr3H16(C3O4)8
_chemical_formula_sum   'Zr6 H32 C48 O64'
_cell_volume   2232.73670064
_cell_formula_units_Z   2
loop_
 _symmetry_equiv_pos_site_id
 _symmetry_equiv_pos_as_xyz
  1  'x, y, z'
loop_
 _atom_site_type_symbol
 _atom_site_label
 _atom_site_symmetry_multiplicity
 _atom_site_fract_x
 _atom_site_fract_y
 _atom_site_fract_z
 _atom_site_occupancy
 _atom_site_charge
Zr  Zr1  1  0.88043000  0.11957000  0.11957000  1.0 1.7819414578
Zr  Zr2  1  0.11957000  0.88043000  0.88043000  1.0 1.7869571171
Zr  Zr3  1  0.11957000  0.88043000  0.11957000  1.0 1.7819414578
Zr  Zr4  1  0.88043000  0.11957000  0.88043000  1.0 1.7819414578
Zr  Zr5  1  0.11957000  0.11957000  0.88043000  1.0 1.7819414578
Zr  Zr6  1  0.88043000  0.88043000  0.11957000  1.0 1.7819414578
H  H1  1  0.13750000  0.86250000  0.42050000  1.0 0.1354515872
H  H2  1  0.86250000  0.13750000  0.57950000  1.0 0.1349020771
H  H3  1  0.42050000  0.57950000  0.13750000  1.0 0.1354515872
H  H4  1  0.57950000  0.42050000  0.86250000  1.0 0.1354515872
H  H5  1  0.42050000  0.13750000  0.86250000  1.0 0.1354515872
H  H6  1  0.57950000  0.86250000  0.13750000  1.0 0.1354515872
H  H7  1  0.13750000  0.42050000  0.57950000  1.0 0.1354515872
H  H8  1  0.86250000  0.57950000  0.42050000  1.0 0.1354515872
H  H9  1  0.86250000  0.42050000  0.13750000  1.0 0.1354515872
H  H10  1  0.13750000  0.57950000  0.86250000  1.0 0.1354515872
H  H11  1  0.57950000  0.13750000  0.42050000  1.0 0.1354515872
H  H12  1  0.42050000  0.86250000  0.57950000  1.0 0.1354515872
H  H13  1  0.86250000  0.13750000  0.42050000  1.0 0.1354515872
H  H14  1  0.13750000  0.86250000  0.57950000  1.0 0.1354515872
H  H15  1  0.57950000  0.42050000  0.13750000  1.0 0.1354515872
H  H16  1  0.42050000  0.57950000  0.86250000  1.0 0.1354515872
H  H17  1  0.57950000  0.86250000  0.42050000  1.0 0.1354515872
H  H18  1  0.42050000  0.13750000  0.57950000  1.0 0.1354515872
H  H19  1  0.86250000  0.57950000  0.13750000  1.0 0.1354515872
H  H20  1  0.13750000  0.42050000  0.86250000  1.0 0.1354515872
H  H21  1  0.13750000  0.57950000  0.42050000  1.0 0.1354515872
H  H22  1  0.86250000  0.42050000  0.57950000  1.0 0.1354515872
H  H23  1  0.42050000  0.86250000  0.13750000  1.0 0.1354515872
H  H24  1  0.57950000  0.13750000  0.86250000  1.0 0.1354515872
H  H25  1  0.09460000  0.09460000  0.09460000  1.0 0.2997661776
H  H26  1  0.09460000  0.09460000  0.71620000  1.0 0.2997661776
H  H27  1  0.09460000  0.71620000  0.09460000  1.0 0.2997661776
H  H28  1  0.71620000  0.09460000  0.09460000  1.0 0.2997661776
H  H29  1  0.90540000  0.90540000  0.28380000  1.0 0.2997661776
H  H30  1  0.90540000  0.90540000  0.90540000  1.0 0.2997661776
H  H31  1  0.90540000  0.28380000  0.90540000  1.0 0.2997661776
H  H32  1  0.28380000  0.90540000  0.90540000  1.0 0.2997661776
C  C1  1  0.00000000  0.00000000  0.30338000  1.0 0.458467143
C  C2  1  0.00000000  0.00000000  0.69662000  1.0 0.458467143
C  C3  1  0.30338000  0.69662000  0.00000000  1.0 0.458467143
C  C4  1  0.69662000  0.30338000  0.00000000  1.0 0.458467143
C  C5  1  0.30338000  0.00000000  0.00000000  1.0 0.458467143
C  C6  1  0.69662000  0.00000000  0.00000000  1.0 0.458467143
C  C7  1  0.00000000  0.30338000  0.69662000  1.0 0.458467143
C  C8  1  0.00000000  0.69662000  0.30338000  1.0 0.458467143
C  C9  1  0.00000000  0.30338000  0.00000000  1.0 0.458467143
C  C10  1  0.00000000  0.69662000  0.00000000  1.0 0.458467143
C  C11  1  0.69662000  0.00000000  0.30338000  1.0 0.458467143
C  C12  1  0.30338000  0.00000000  0.69662000  1.0 0.458467143
C  C13  1  0.00000000  0.00000000  0.40612000  1.0 -0.0036177226
C  C14  1  0.00000000  0.00000000  0.59388000  1.0 -0.0054014066
C  C15  1  0.40612000  0.59388000  0.00000000  1.0 -0.0036177226
C  C16  1  0.59388000  0.40612000  0.00000000  1.0 -0.0036177226
C  C17  1  0.40612000  0.00000000  0.00000000  1.0 -0.0036177226
C  C18  1  0.59388000  0.00000000  0.00000000  1.0 -0.0036177226
C  C19  1  0.00000000  0.40612000  0.59388000  1.0 -0.0036177226
C  C20  1  0.00000000  0.59388000  0.40612000  1.0 -0.0054014066
C  C21  1  0.00000000  0.40612000  0.00000000  1.0 -0.0036177226
C  C22  1  0.00000000  0.59388000  0.00000000  1.0 -0.0036177226
C  C23  1  0.59388000  0.00000000  0.40612000  1.0 -0.0036177226
C  C24  1  0.40612000  0.00000000  0.59388000  1.0 -0.0036177226
C  C25  1  0.08146000  0.91854000  0.45296000  1.0 -0.092893936
C  C26  1  0.91854000  0.08146000  0.54704000  1.0 -0.092893936
C  C27  1  0.45296000  0.54704000  0.08146000  1.0 -0.092893936
C  C28  1  0.54704000  0.45296000  0.91854000  1.0 -0.092893936
C  C29  1  0.45296000  0.08146000  0.91854000  1.0 -0.092893936
C  C30  1  0.54704000  0.91854000  0.08146000  1.0 -0.092893936
C  C31  1  0.08146000  0.45296000  0.54704000  1.0 -0.092893936
C  C32  1  0.91854000  0.54704000  0.45296000  1.0 -0.092893936
C  C33  1  0.91854000  0.45296000  0.08146000  1.0 -0.092893936
C  C34  1  0.08146000  0.54704000  0.91854000  1.0 -0.092893936
C  C35  1  0.54704000  0.08146000  0.45296000  1.0 -0.092893936
C  C36  1  0.45296000  0.91854000  0.54704000  1.0 -0.092893936
C  C37  1  0.91854000  0.08146000  0.45296000  1.0 -0.092893936
C  C38  1  0.08146000  0.91854000  0.54704000  1.0 -0.092893936
C  C39  1  0.54704000  0.45296000  0.08146000  1.0 -0.092893936
C  C40  1  0.45296000  0.54704000  0.91854000  1.0 -0.092893936
C  C41  1  0.54704000  0.91854000  0.45296000  1.0 -0.092893936
C  C42  1  0.45296000  0.08146000  0.54704000  1.0 -0.092893936
C  C43  1  0.91854000  0.54704000  0.08146000  1.0 -0.092893936
C  C44  1  0.08146000  0.45296000  0.91854000  1.0 -0.092893936
C  C45  1  0.08146000  0.54704000  0.45296000  1.0 -0.092893936
C  C46  1  0.91854000  0.45296000  0.54704000  1.0 -0.092893936
C  C47  1  0.45296000  0.91854000  0.08146000  1.0 -0.092893936
C  C48  1  0.54704000  0.08146000  0.91854000  1.0 -0.092893936
O  O1  1  0.92465000  0.07535000  0.26431000  1.0 -0.2578080362
O  O2  1  0.07535000  0.92465000  0.73569000  1.0 -0.2578080362
O  O3  1  0.26431000  0.73569000  0.92465000  1.0 -0.2578080362
O  O4  1  0.73569000  0.26431000  0.07535000  1.0 -0.2578080362
O  O5  1  0.26431000  0.92465000  0.07535000  1.0 -0.2578080362
O  O6  1  0.73569000  0.07535000  0.92465000  1.0 -0.2578080362
O  O7  1  0.92465000  0.26431000  0.73569000  1.0 -0.2578080362
O  O8  1  0.07535000  0.73569000  0.26431000  1.0 -0.2578080362
O  O9  1  0.07535000  0.26431000  0.92465000  1.0 -0.2578080362
O  O10  1  0.92465000  0.73569000  0.07535000  1.0 -0.2578080362
O  O11  1  0.73569000  0.92465000  0.26431000  1.0 -0.2578080362
O  O12  1  0.26431000  0.07535000  0.73569000  1.0 -0.2578080362
O  O13  1  0.07535000  0.92465000  0.26431000  1.0 -0.2578080362
O  O14  1  0.92465000  0.07535000  0.73569000  1.0 -0.2578080362
O  O15  1  0.73569000  0.26431000  0.92465000  1.0 -0.2578080362
O  O16  1  0.26431000  0.73569000  0.07535000  1.0 -0.2578080362
O  O17  1  0.73569000  0.07535000  0.26431000  1.0 -0.2578080362
O  O18  1  0.26431000  0.92465000  0.73569000  1.0 -0.2578080362
O  O19  1  0.07535000  0.73569000  0.92465000  1.0 -0.2578080362
O  O20  1  0.92465000  0.26431000  0.07535000  1.0 -0.2578080362
O  O21  1  0.92465000  0.73569000  0.26431000  1.0 -0.2578080362
O  O22  1  0.07535000  0.26431000  0.73569000  1.0 -0.2578080362
O  O23  1  0.26431000  0.07535000  0.92465000  1.0 -0.2578080362
O  O24  1  0.73569000  0.92465000  0.07535000  1.0 -0.2578080362
O  O25  1  0.06680000  0.06680000  0.06680000  1.0 -0.398428572
O  O26  1  0.06680000  0.06680000  0.79960000  1.0 -0.398428572
O  O27  1  0.06680000  0.79960000  0.06680000  1.0 -0.398428572
O  O28  1  0.79960000  0.06680000  0.06680000  1.0 -0.398428572
O  O29  1  0.93320000  0.93320000  0.20040000  1.0 -0.398428572
O  O30  1  0.93320000  0.93320000  0.93320000  1.0 -0.398428572
O  O31  1  0.93320000  0.20040000  0.93320000  1.0 -0.398428572
O  O32  1  0.20040000  0.93320000  0.93320000  1.0 -0.398428572
O  O33  1  0.89340000  0.10660000  0.26380000  1.0 -0.3090034168
O  O34  1  0.10660000  0.89340000  0.73620000  1.0 -0.3090034168
O  O35  1  0.26380000  0.73620000  0.89340000  1.0 -0.3090034168
O  O36  1  0.73620000  0.26380000  0.10660000  1.0 -0.3090034168
O  O37  1  0.26380000  0.89340000  0.10660000  1.0 -0.3090034168
O  O38  1  0.73620000  0.10660000  0.89340000  1.0 -0.3090034168
O  O39  1  0.89340000  0.26380000  0.73620000  1.0 -0.3090034168
O  O40  1  0.10660000  0.73620000  0.26380000  1.0 -0.3090034168
O  O41  1  0.10660000  0.26380000  0.89340000  1.0 -0.3090034168
O  O42  1  0.89340000  0.73620000  0.10660000  1.0 -0.3090034168
O  O43  1  0.73620000  0.89340000  0.26380000  1.0 -0.3090034168
O  O44  1  0.26380000  0.10660000  0.73620000  1.0 -0.3090034168
O  O45  1  0.10660000  0.89340000  0.26380000  1.0 -0.3090034168
O  O46  1  0.89340000  0.10660000  0.73620000  1.0 -0.3090034168
O  O47  1  0.73620000  0.26380000  0.89340000  1.0 -0.3090034168
O  O48  1  0.26380000  0.73620000  0.10660000  1.0 -0.3090034168
O  O49  1  0.73620000  0.10660000  0.26380000  1.0 -0.3090034168
O  O50  1  0.26380000  0.89340000  0.73620000  1.0 -0.3090034168
O  O51  1  0.10660000  0.73620000  0.89340000  1.0 -0.3090034168
O  O52  1  0.89340000  0.26380000  0.10660000  1.0 -0.3090034168
O  O53  1  0.89340000  0.73620000  0.26380000  1.0 -0.3090034168
O  O54  1  0.10660000  0.26380000  0.73620000  1.0 -0.3090034168
O  O55  1  0.26380000  0.10660000  0.89340000  1.0 -0.3090034168
O  O56  1  0.73620000  0.89340000  0.10660000  1.0 -0.3090034168
O  O57  1  0.04960000  0.04960000  0.04960000  1.0 -0.3477845128
O  O58  1  0.04960000  0.04960000  0.85120000  1.0 -0.3477845128
O  O59  1  0.04960000  0.85120000  0.04960000  1.0 -0.3477845128
O  O60  1  0.85120000  0.04960000  0.04960000  1.0 -0.3477845128
O  O61  1  0.95040000  0.95040000  0.14880000  1.0 -0.3477845128
O  O62  1  0.95040000  0.95040000  0.95040000  1.0 -0.3477845128
O  O63  1  0.95040000  0.14880000  0.95040000  1.0 -0.3448585846
O  O64  1  0.14880000  0.95040000  0.95040000  1.0 -0.3477845128
