# DDEC6 charges by PACMAN v1.1 (https://github.com/mtap-research/PACMAN-charge/)
data_SUSMIE01_ASR_pacman
_symmetry_space_group_name_H-M   'P 1'
_cell_length_a   8.89940000
_cell_length_b   10.71900000
_cell_length_c   13.65600000
_cell_angle_alpha   69.08000000
_cell_angle_beta   78.07000000
_cell_angle_gamma   79.98000000
_symmetry_Int_Tables_number   1
_chemical_formula_structural   Ni3P4H38C38(N4O7)2
_chemical_formula_sum   'Ni3 P4 H38 C38 N8 O14'
_cell_volume   1183.35287877
_cell_formula_units_Z   1
loop_
 _symmetry_equiv_pos_site_id
 _symmetry_equiv_pos_as_xyz
  1  'x, y, z'
loop_
 _atom_site_type_symbol
 _atom_site_label
 _atom_site_symmetry_multiplicity
 _atom_site_fract_x
 _atom_site_fract_y
 _atom_site_fract_z
 _atom_site_occupancy
 _atom_site_charge
Ni  Ni1  1  0.00000000  0.50000000  0.00000000  1.0 0.9596891937
Ni  Ni2  1  0.81105000  0.90161000  0.14884000  1.0 0.809418076
Ni  Ni3  1  0.18895000  0.09839000  0.85116000  1.0 0.809418076
P  P1  1  0.71883000  0.71816000  0.04872000  1.0 1.1973749933
P  P2  1  0.28117000  0.28184000  0.95128000  1.0 1.1973749933
P  P3  1  0.03281000  0.81838000  0.96776000  1.0 1.2078288135
P  P4  1  0.96719000  0.18162000  0.03224000  1.0 1.2078288135
H  H1  1  0.51100000  0.71500000  0.00600000  1.0 0.3990632531
H  H2  1  0.48900000  0.28500000  0.99400000  1.0 0.3990632531
H  H3  1  0.81900000  0.03400000  0.95800000  1.0 0.3355649647
H  H4  1  0.18100000  0.96600000  0.04200000  1.0 0.3355649647
H  H5  1  0.86320000  0.97340000  0.79660000  1.0 0.1204935525
H  H6  1  0.13680000  0.02660000  0.20340000  1.0 0.1204935525
H  H7  1  0.85750000  0.82270000  0.81140000  1.0 0.1127868431
H  H8  1  0.14250000  0.17730000  0.18860000  1.0 0.1127868431
H  H9  1  0.54110000  0.05940000  0.88710000  1.0 0.1295721916
H  H10  1  0.45890000  0.94060000  0.11290000  1.0 0.1295721916
H  H11  1  0.37850000  0.91900000  0.70800000  1.0 0.1127868431
H  H12  1  0.62150000  0.08100000  0.29200000  1.0 0.1127868431
H  H13  1  0.64440000  0.82040000  0.71480000  1.0 0.1204935525
H  H14  1  0.35560000  0.17960000  0.28520000  1.0 0.1204935525
H  H15  1  0.76730000  0.53590000  0.68400000  1.0 0.1204935525
H  H16  1  0.23270000  0.46410000  0.31600000  1.0 0.1204935525
H  H17  1  0.12990000  0.74330000  0.60780000  1.0 0.1295721916
H  H18  1  0.87010000  0.25670000  0.39220000  1.0 0.1295721916
H  H19  1  0.16290000  0.65860000  0.78230000  1.0 0.1204935525
H  H20  1  0.83710000  0.34140000  0.21770000  1.0 0.1204935525
H  H21  1  0.85130000  0.54360000  0.50060000  1.0 0.099037191
H  H22  1  0.14870000  0.45640000  0.49940000  1.0 0.099037191
H  H23  1  0.82030000  0.63450000  0.32590000  1.0 0.1295721916
H  H24  1  0.17970000  0.36550000  0.67410000  1.0 0.1295721916
H  H25  1  0.90490000  0.98460000  0.31430000  1.0 0.1127868431
H  H26  1  0.09510000  0.01540000  0.68570000  1.0 0.1127868431
H  H27  1  0.95360000  0.89830000  0.48570000  1.0 0.099037191
H  H28  1  0.04640000  0.10170000  0.51430000  1.0 0.099037191
H  H29  1  0.80530000  0.46200000  0.85710000  1.0 0.1204935525
H  H30  1  0.19470000  0.53800000  0.14290000  1.0 0.1204935525
H  H31  1  0.64550000  0.80780000  0.36940000  1.0 0.1127868431
H  H32  1  0.35450000  0.19220000  0.63060000  1.0 0.1127868431
H  H33  1  0.68410000  0.69430000  0.54140000  1.0 0.099037191
H  H34  1  0.31590000  0.30570000  0.45860000  1.0 0.099037191
H  H35  1  0.09060000  0.80080000  0.26880000  1.0 0.1204935525
H  H36  1  0.90940000  0.19920000  0.73120000  1.0 0.1204935525
H  H37  1  0.13400000  0.72330000  0.44160000  1.0 0.099037191
H  H38  1  0.86600000  0.27670000  0.55840000  1.0 0.099037191
C  C1  1  0.82430000  0.85650000  0.95280000  1.0 -0.2640218797
C  C2  1  0.17570000  0.14350000  0.04720000  1.0 -0.2640218797
C  C3  1  0.80750000  0.89590000  0.83660000  1.0 -0.1688363316
C  C4  1  0.19250000  0.10410000  0.16340000  1.0 -0.1688363316
C  C5  1  0.53310000  0.01210000  0.84340000  1.0 0.1204935525
C  C6  1  0.46690000  0.98790000  0.15660000  1.0 0.1127868431
C  C7  1  0.44470000  0.93550000  0.74540000  1.0 -0.0447470384
C  C8  1  0.55530000  0.06450000  0.25460000  1.0 -0.0447470384
C  C9  1  0.59180000  0.88010000  0.74890000  1.0 -0.1324886332
C  C10  1  0.40820000  0.11990000  0.25110000  1.0 -0.1324886332
C  C11  1  0.84710000  0.56460000  0.70220000  1.0 -0.2376046392
C  C12  1  0.15290000  0.43540000  0.29780000  1.0 -0.2376046392
C  C13  1  0.94230000  0.65240000  0.62490000  1.0 0.0838889343
C  C14  1  0.05770000  0.34760000  0.37510000  1.0 0.0838889343
C  C15  1  0.06160000  0.68620000  0.65720000  1.0 -0.2287212722
C  C16  1  0.93840000  0.31380000  0.34280000  1.0 -0.224456987
C  C17  1  0.08010000  0.63580000  0.76280000  1.0 0.0922610698
C  C18  1  0.91990000  0.36420000  0.23720000  1.0 0.0922610698
C  C19  1  0.91370000  0.70870000  0.51280000  1.0 0.0498485028
C  C20  1  0.08630000  0.29130000  0.48720000  1.0 0.0498485028
C  C21  1  0.86780000  0.63270000  0.46320000  1.0 -0.110425566
C  C22  1  0.13220000  0.36730000  0.53680000  1.0 -0.110425566
C  C23  1  0.84640000  0.68880000  0.35840000  1.0 -0.0092533478
C  C24  1  0.15360000  0.31120000  0.64160000  1.0 -0.0092533478
C  C25  1  0.89820000  0.89370000  0.35140000  1.0 0.015525793
C  C26  1  0.10180000  0.10630000  0.64860000  1.0 0.015525793
C  C27  1  0.92630000  0.84250000  0.45500000  1.0 -0.1324886332
C  C28  1  0.07370000  0.15750000  0.54500000  1.0 -0.1324886332
C  C29  1  0.87130000  0.52010000  0.80620000  1.0 0.099037191
C  C30  1  0.12870000  0.47990000  0.19380000  1.0 0.099037191
C  C31  1  0.74600000  0.78600000  0.38390000  1.0 -0.0092533478
C  C32  1  0.25400000  0.21400000  0.61610000  1.0 -0.0092533478
C  C33  1  0.76700000  0.72400000  0.48900000  1.0 -0.0945496211
C  C34  1  0.23300000  0.27600000  0.51100000  1.0 -0.0945496211
C  C35  1  0.00730000  0.78800000  0.32400000  1.0 -0.0020188635
C  C36  1  0.99270000  0.21200000  0.67600000  1.0 -0.0020188635
C  C37  1  0.03300000  0.73800000  0.42810000  1.0 -0.110425566
C  C38  1  0.96700000  0.26200000  0.57190000  1.0 -0.110425566
N  N1  1  0.64960000  0.92820000  0.81230000  1.0 0.0498485028
N  N2  1  0.35040000  0.07180000  0.18770000  1.0 0.0498485028
N  N3  1  0.40570000  0.01910000  0.80400000  1.0 -0.3021497789
N  N4  1  0.59430000  0.98090000  0.19600000  1.0 -0.3021497789
N  N5  1  0.98470000  0.55600000  0.83780000  1.0 -0.2287212722
N  N6  1  0.01530000  0.44400000  0.16220000  1.0 -0.2287212722
N  N7  1  0.86140000  0.81750000  0.30170000  1.0 0.0030028274
N  N8  1  0.13860000  0.18250000  0.69830000  1.0 0.0030028274
O  O1  1  0.77670000  0.59120000  0.02360000  1.0 -0.7677754673
O  O2  1  0.22330000  0.40880000  0.97640000  1.0 -0.7677754673
O  O3  1  0.73480000  0.72560000  0.15400000  1.0 -0.7391972008
O  O4  1  0.26520000  0.27440000  0.84600000  1.0 -0.7391972008
O  O5  1  0.54140000  0.75490000  0.03790000  1.0 -0.5969616237
O  O6  1  0.45860000  0.24510000  0.96210000  1.0 -0.5969616237
O  O7  1  0.09030000  0.67600000  0.96980000  1.0 -0.7677754673
O  O8  1  0.90970000  0.32400000  0.03020000  1.0 -0.7677754673
O  O9  1  0.03370000  0.84100000  0.07310000  1.0 -0.7534935239
O  O10  1  0.96630000  0.15900000  0.92690000  1.0 -0.7534935239
O  O11  1  0.11330000  0.92120000  0.87310000  1.0 -0.7534935239
O  O12  1  0.88670000  0.07880000  0.12690000  1.0 -0.7534935239
O  O13  1  0.76640000  0.97190000  0.98880000  1.0 -0.4458512875
O  O14  1  0.23360000  0.02810000  0.01120000  1.0 -0.4458512875
