# DDEC6 charges by PACMAN v1.1 (https://github.com/mtap-research/PACMAN-charge/)
data_SUSZOW_FSR_pacman
_symmetry_space_group_name_H-M   'P 1'
_cell_length_a   16.09170000
_cell_length_b   16.09170000
_cell_length_c   16.09170000
_cell_angle_alpha   149.93000000
_cell_angle_beta   125.23500000
_cell_angle_gamma   63.74690000
_symmetry_Int_Tables_number   1
_chemical_formula_structural   AlPO4
_chemical_formula_sum   'Al16 P16 O64'
_cell_volume   1688.72802618
_cell_formula_units_Z   16
loop_
 _symmetry_equiv_pos_site_id
 _symmetry_equiv_pos_as_xyz
  1  'x, y, z'
loop_
 _atom_site_type_symbol
 _atom_site_label
 _atom_site_symmetry_multiplicity
 _atom_site_fract_x
 _atom_site_fract_y
 _atom_site_fract_z
 _atom_site_occupancy
 _atom_site_charge
Al  Al1  1  0.87226000  0.04686000  0.36180000  1.0 1.7114915618
Al  Al2  1  0.68506000  0.54686000  0.67460000  1.0 1.7114915618
Al  Al3  1  0.31494000  0.98954000  0.86180000  1.0 1.7114915618
Al  Al4  1  0.12774000  0.48954000  0.17460000  1.0 1.7114915618
Al  Al5  1  0.57481000  0.93555000  0.16126000  1.0 1.7114915618
Al  Al6  1  0.77429000  0.43555000  0.86074000  1.0 1.7114915618
Al  Al7  1  0.22571000  0.08645000  0.66126000  1.0 1.7114915618
Al  Al8  1  0.42519000  0.58645000  0.36074000  1.0 1.7114915618
Al  Al9  1  0.03772000  0.20933000  0.35799000  1.0 1.7165981301
Al  Al10  1  0.85134000  0.70933000  0.67161000  1.0 1.7114915618
Al  Al11  1  0.14866000  0.82027000  0.85799000  1.0 1.7165981301
Al  Al12  1  0.96228000  0.32027000  0.17161000  1.0 1.7114915618
Al  Al13  1  0.63859000  0.12798000  0.03701000  1.0 1.7114915618
Al  Al14  1  0.09097000  0.62798000  0.98939000  1.0 1.7114915618
Al  Al15  1  0.90903000  0.89842000  0.53701000  1.0 1.7114915618
Al  Al16  1  0.36141000  0.39842000  0.48939000  1.0 1.7114915618
P  P1  1  0.68409000  0.92444000  0.04445000  1.0 1.5306178578
P  P2  1  0.87999000  0.42444000  0.74035000  1.0 1.5306178578
P  P3  1  0.12001000  0.86036000  0.54445000  1.0 1.5306178578
P  P4  1  0.31591000  0.36036000  0.24035000  1.0 1.5306178578
P  P5  1  0.76562000  0.80935000  0.23367000  1.0 1.5381682448
P  P6  1  0.57568000  0.30935000  0.54373000  1.0 1.5381682448
P  P7  1  0.42432000  0.96805000  0.73367000  1.0 1.5381682448
P  P8  1  0.23438000  0.46805000  0.04373000  1.0 1.5381682448
P  P9  1  0.08043000  0.99818000  0.35765000  1.0 1.5381682448
P  P10  1  0.64053000  0.49818000  0.41775000  1.0 1.5381682448
P  P11  1  0.35947000  0.77722000  0.85765000  1.0 1.5381682448
P  P12  1  0.91957000  0.27722000  0.91775000  1.0 1.5306178578
P  P13  1  0.84604000  0.08995000  0.04169000  1.0 1.5381682448
P  P14  1  0.04826000  0.58995000  0.74391000  1.0 1.5381682448
P  P15  1  0.95174000  0.69565000  0.54169000  1.0 1.5381682448
P  P16  1  0.15396000  0.19565000  0.24391000  1.0 1.5381682448
O  O1  1  0.61360000  0.95520000  0.10060000  1.0 -0.8099055775
O  O2  1  0.85460000  0.45520000  0.84160000  1.0 -0.8099055775
O  O3  1  0.14540000  0.98700000  0.60060000  1.0 -0.8099055775
O  O4  1  0.38640000  0.48700000  0.34160000  1.0 -0.8099055775
O  O5  1  0.79395000  0.00565000  0.19570000  1.0 -0.8421700529
O  O6  1  0.80995000  0.50565000  0.71170000  1.0 -0.8421700529
O  O7  1  0.19005000  0.90175000  0.69570000  1.0 -0.8421700529
O  O8  1  0.20605000  0.40175000  0.21170000  1.0 -0.8421700529
O  O9  1  0.64690000  0.98580000  0.99510000  1.0 -0.7895433089
O  O10  1  0.99070000  0.48580000  0.83890000  1.0 -0.7895433089
O  O11  1  0.00930000  0.84820000  0.49510000  1.0 -0.7895433089
O  O12  1  0.35310000  0.34820000  0.33890000  1.0 -0.7895433089
O  O13  1  0.68087000  0.74007000  0.87660000  1.0 -0.8099055775
O  O14  1  0.86347000  0.24007000  0.55920000  1.0 -0.8099055775
O  O15  1  0.13653000  0.69573000  0.37660000  1.0 -0.8016288212
O  O16  1  0.31913000  0.19573000  0.05920000  1.0 -0.8016288212
O  O17  1  0.83388000  0.91258000  0.30250000  1.0 -0.8206808882
O  O18  1  0.61008000  0.41258000  0.57870000  1.0 -0.8206808882
O  O19  1  0.38992000  0.96862000  0.80250000  1.0 -0.8206808882
O  O20  1  0.16612000  0.46862000  0.07870000  1.0 -0.8206808882
O  O21  1  0.79649000  0.84464000  0.37185000  1.0 -0.8099055775
O  O22  1  0.47279000  0.34464000  0.54815000  1.0 -0.8099055775
O  O23  1  0.52721000  0.07536000  0.87185000  1.0 -0.8099055775
O  O24  1  0.20351000  0.57536000  0.04815000  1.0 -0.8099055775
O  O25  1  0.77148000  0.63068000  0.06420000  1.0 -0.7793831459
O  O26  1  0.56648000  0.13068000  0.35920000  1.0 -0.7793831459
O  O27  1  0.43352000  0.79272000  0.56420000  1.0 -0.7793831459
O  O28  1  0.22852000  0.29272000  0.85920000  1.0 -0.7793831459
O  O29  1  0.65476000  0.83896000  0.18520000  1.0 -0.8291933468
O  O30  1  0.65376000  0.33896000  0.68420000  1.0 -0.8291933468
O  O31  1  0.34624000  0.03044000  0.68520000  1.0 -0.8291933468
O  O32  1  0.34524000  0.53044000  0.18420000  1.0 -0.8291933468
O  O33  1  0.18244000  0.05173000  0.50651000  1.0 -0.8206808882
O  O34  1  0.54522000  0.55173000  0.36929000  1.0 -0.8206808882
O  O35  1  0.45478000  0.82407000  0.00651000  1.0 -0.8206808882
O  O36  1  0.81756000  0.32407000  0.86929000  1.0 -0.8206808882
O  O37  1  0.99496000  0.02646000  0.39050000  1.0 -0.8099055775
O  O38  1  0.63596000  0.52646000  0.53150000  1.0 -0.8099055775
O  O39  1  0.36404000  0.89554000  0.89050000  1.0 -0.8016288212
O  O40  1  0.00504000  0.39554000  0.03150000  1.0 -0.8016288212
O  O41  1  0.07021000  0.81611000  0.17570000  1.0 -0.7895433089
O  O42  1  0.64041000  0.31611000  0.24590000  1.0 -0.7895433089
O  O43  1  0.35959000  0.60549000  0.67570000  1.0 -0.7895433089
O  O44  1  0.92979000  0.10549000  0.74590000  1.0 -0.7895433089
O  O45  1  0.08113000  0.09963000  0.36810000  1.0 -0.8206808882
O  O46  1  0.73153000  0.59963000  0.51850000  1.0 -0.8099055775
O  O47  1  0.26847000  0.78697000  0.86810000  1.0 -0.8206808882
O  O48  1  0.91887000  0.28697000  0.01850000  1.0 -0.8099055775
O  O49  1  0.91198000  0.13258000  0.19460000  1.0 -0.8499822697
O  O50  1  0.93798000  0.63258000  0.72060000  1.0 -0.8499822697
O  O51  1  0.06202000  0.78262000  0.69460000  1.0 -0.8499822697
O  O52  1  0.08802000  0.28262000  0.22060000  1.0 -0.8499822697
O  O53  1  0.88534000  0.19144000  0.07850000  1.0 -0.8206808882
O  O54  1  0.11294000  0.69144000  0.80610000  1.0 -0.8206808882
O  O55  1  0.88706000  0.69316000  0.57850000  1.0 -0.8206808882
O  O56  1  0.11466000  0.19316000  0.30610000  1.0 -0.8206808882
O  O57  1  0.73789000  0.12799000  0.02710000  1.0 -0.8016288212
O  O58  1  0.10089000  0.62799000  0.89010000  1.0 -0.8016288212
O  O59  1  0.89911000  0.78921000  0.52710000  1.0 -0.8016288212
O  O60  1  0.26211000  0.28921000  0.39010000  1.0 -0.8016288212
O  O61  1  0.84418000  0.91098000  0.86460000  1.0 -0.8016288212
O  O62  1  0.04638000  0.41098000  0.56680000  1.0 -0.8016288212
O  O63  1  0.95362000  0.52042000  0.36460000  1.0 -0.8016288212
O  O64  1  0.15582000  0.02042000  0.06680000  1.0 -0.8016288212
