# DDEC6 charges by PACMAN v1.1 (https://github.com/mtap-research/PACMAN-charge/)
data_TACFIN01_ASR_pacman
_symmetry_space_group_name_H-M   'P 1'
_cell_length_a   14.69380000
_cell_length_b   8.92400000
_cell_length_c   14.69010000
_cell_angle_alpha   90.00000000
_cell_angle_beta   90.00000000
_cell_angle_gamma   90.00000000
_symmetry_Int_Tables_number   1
_chemical_formula_structural   ZnCo(PO4)2
_chemical_formula_sum   'Zn8 Co8 P16 O64'
_cell_volume   1926.27566468
_cell_formula_units_Z   8
loop_
 _symmetry_equiv_pos_site_id
 _symmetry_equiv_pos_as_xyz
  1  'x, y, z'
loop_
 _atom_site_type_symbol
 _atom_site_label
 _atom_site_symmetry_multiplicity
 _atom_site_fract_x
 _atom_site_fract_y
 _atom_site_fract_z
 _atom_site_occupancy
 _atom_site_charge
Zn  Zn1  1  0.51848000  0.17842000  0.10570000  1.0 1.200174318
Zn  Zn2  1  0.48152000  0.82158000  0.89430000  1.0 1.200174318
Zn  Zn3  1  0.98152000  0.82157000  0.10571000  1.0 1.200174318
Zn  Zn4  1  0.01848000  0.17843000  0.89429000  1.0 1.200174318
Zn  Zn5  1  0.48152000  0.17842000  0.39430000  1.0 1.200174318
Zn  Zn6  1  0.51848000  0.82158000  0.60570000  1.0 1.200174318
Zn  Zn7  1  0.01848000  0.82157000  0.39429000  1.0 1.200174318
Zn  Zn8  1  0.98152000  0.17843000  0.60571000  1.0 1.200174318
Co  Co1  1  0.35855000  0.32214000  0.74269000  1.0 1.146837048
Co  Co2  1  0.64145000  0.67786000  0.25731000  1.0 1.1441298289
Co  Co3  1  0.14145000  0.67787000  0.74268000  1.0 1.146837048
Co  Co4  1  0.85855000  0.32213000  0.25732000  1.0 1.1441298289
Co  Co5  1  0.64145000  0.32214000  0.75731000  1.0 1.146837048
Co  Co6  1  0.35855000  0.67786000  0.24269000  1.0 1.1441298289
Co  Co7  1  0.85855000  0.67787000  0.75732000  1.0 1.146837048
Co  Co8  1  0.14145000  0.32213000  0.24268000  1.0 1.146837048
P  P1  1  0.48838000  0.18560000  0.88318000  1.0 1.4597987396
P  P2  1  0.51162000  0.81440000  0.11682000  1.0 1.4597987396
P  P3  1  0.01162000  0.81442000  0.88319000  1.0 1.4597987396
P  P4  1  0.98838000  0.18558000  0.11681000  1.0 1.4597987396
P  P5  1  0.51162000  0.18560000  0.61682000  1.0 1.4597987396
P  P6  1  0.48838000  0.81440000  0.38318000  1.0 1.4597987396
P  P7  1  0.98838000  0.81442000  0.61681000  1.0 1.4597987396
P  P8  1  0.01162000  0.18558000  0.38319000  1.0 1.4597987396
P  P9  1  0.36552000  0.66846000  0.73753000  1.0 1.4510709805
P  P10  1  0.63448000  0.33154000  0.26247000  1.0 1.4510709805
P  P11  1  0.13448000  0.33153000  0.73754000  1.0 1.4510709805
P  P12  1  0.86552000  0.66847000  0.26246000  1.0 1.4510709805
P  P13  1  0.63448000  0.66846000  0.76247000  1.0 1.4510709805
P  P14  1  0.36552000  0.33154000  0.23753000  1.0 1.4510709805
P  P15  1  0.86552000  0.33153000  0.76246000  1.0 1.4510709805
P  P16  1  0.13448000  0.66847000  0.23754000  1.0 1.4510709805
O  O1  1  0.51418000  0.23364000  0.97817000  1.0 -0.6894090014
O  O2  1  0.48582000  0.76636000  0.02183000  1.0 -0.6894090014
O  O3  1  0.98581000  0.76635000  0.97817000  1.0 -0.6894090014
O  O4  1  0.01419000  0.23365000  0.02183000  1.0 -0.6894090014
O  O5  1  0.48582000  0.23364000  0.52183000  1.0 -0.6894090014
O  O6  1  0.51418000  0.76636000  0.47817000  1.0 -0.6894090014
O  O7  1  0.01419000  0.76635000  0.52183000  1.0 -0.6894090014
O  O8  1  0.98581000  0.23365000  0.47817000  1.0 -0.6894090014
O  O9  1  0.42173000  0.31306000  0.84670000  1.0 -0.6100598412
O  O10  1  0.57827000  0.68694000  0.15330000  1.0 -0.6100598412
O  O11  1  0.07828000  0.68695000  0.84670000  1.0 -0.6100598412
O  O12  1  0.92172000  0.31305000  0.15330000  1.0 -0.6100598412
O  O13  1  0.57827000  0.31306000  0.65330000  1.0 -0.6100598412
O  O14  1  0.42173000  0.68694000  0.34670000  1.0 -0.6100598412
O  O15  1  0.92172000  0.68695000  0.65330000  1.0 -0.6100598412
O  O16  1  0.07828000  0.31305000  0.34670000  1.0 -0.6100598412
O  O17  1  0.38002000  0.50481000  0.69666000  1.0 -0.6347043353
O  O18  1  0.61998000  0.49519000  0.30334000  1.0 -0.6364954429
O  O19  1  0.11998000  0.49521000  0.69666000  1.0 -0.6364954429
O  O20  1  0.88002000  0.50479000  0.30334000  1.0 -0.6364954429
O  O21  1  0.61998000  0.50481000  0.80334000  1.0 -0.6347043353
O  O22  1  0.38002000  0.49519000  0.19666000  1.0 -0.6364954429
O  O23  1  0.88002000  0.49521000  0.80334000  1.0 -0.6347043353
O  O24  1  0.11998000  0.50479000  0.19666000  1.0 -0.6364954429
O  O25  1  0.42562000  0.19003000  0.68242000  1.0 -0.5968816231
O  O26  1  0.57438000  0.80997000  0.31758000  1.0 -0.5968816231
O  O27  1  0.07439000  0.80998000  0.68242000  1.0 -0.5968816231
O  O28  1  0.92561000  0.19002000  0.31758000  1.0 -0.5968816231
O  O29  1  0.57438000  0.19003000  0.81758000  1.0 -0.5968816231
O  O30  1  0.42562000  0.80997000  0.18242000  1.0 -0.5968816231
O  O31  1  0.92561000  0.80998000  0.81758000  1.0 -0.5968816231
O  O32  1  0.07439000  0.19002000  0.18242000  1.0 -0.5968816231
O  O33  1  0.24090000  0.30218000  0.73662000  1.0 -0.5968816231
O  O34  1  0.75910000  0.69782000  0.26338000  1.0 -0.5968816231
O  O35  1  0.25911000  0.69781000  0.73663000  1.0 -0.5968816231
O  O36  1  0.74089000  0.30219000  0.26337000  1.0 -0.5968816231
O  O37  1  0.75910000  0.30218000  0.76338000  1.0 -0.5968816231
O  O38  1  0.24090000  0.69782000  0.23662000  1.0 -0.5968816231
O  O39  1  0.74089000  0.69781000  0.76337000  1.0 -0.5968816231
O  O40  1  0.25911000  0.30219000  0.23663000  1.0 -0.5968816231
O  O41  1  0.40568000  0.22220000  0.16992000  1.0 -0.7050136762
O  O42  1  0.59432000  0.77780000  0.83008000  1.0 -0.7007162193
O  O43  1  0.09432000  0.77780000  0.16992000  1.0 -0.7050136762
O  O44  1  0.90568000  0.22220000  0.83008000  1.0 -0.7007162193
O  O45  1  0.59432000  0.22220000  0.33008000  1.0 -0.7050136762
O  O46  1  0.40568000  0.77780000  0.66992000  1.0 -0.7007162193
O  O47  1  0.90568000  0.77780000  0.33008000  1.0 -0.7050136762
O  O48  1  0.09432000  0.22220000  0.66992000  1.0 -0.7050136762
O  O49  1  0.55177000  0.96972000  0.12654000  1.0 -0.7236916634
O  O50  1  0.44823000  0.03028000  0.87346000  1.0 -0.7236916634
O  O51  1  0.94823000  0.03029000  0.12654000  1.0 -0.7236916634
O  O52  1  0.05177000  0.96971000  0.87346000  1.0 -0.7236916634
O  O53  1  0.44823000  0.96972000  0.37346000  1.0 -0.7236916634
O  O54  1  0.55177000  0.03028000  0.62654000  1.0 -0.7236916634
O  O55  1  0.05177000  0.03029000  0.37346000  1.0 -0.7236916634
O  O56  1  0.94823000  0.96971000  0.62654000  1.0 -0.7236916634
O  O57  1  0.60254000  0.32138000  0.16505000  1.0 -0.7007162193
O  O58  1  0.39746000  0.67862000  0.83495000  1.0 -0.7007162193
O  O59  1  0.89745000  0.67861000  0.16505000  1.0 -0.7007162193
O  O60  1  0.10255000  0.32139000  0.83495000  1.0 -0.7007162193
O  O61  1  0.39746000  0.32138000  0.33495000  1.0 -0.7007162193
O  O62  1  0.60254000  0.67862000  0.66505000  1.0 -0.7007162193
O  O63  1  0.10255000  0.67861000  0.33495000  1.0 -0.7007162193
O  O64  1  0.89745000  0.32139000  0.66505000  1.0 -0.7007162193
