# DDEC6 charges by PACMAN v1.1 (https://github.com/mtap-research/PACMAN-charge/)
data_TACFIN02_ASR_pacman
_symmetry_space_group_name_H-M   'P 1'
_cell_length_a   14.69400000
_cell_length_b   14.69400000
_cell_length_c   8.93600000
_cell_angle_alpha   90.00000000
_cell_angle_beta   90.00000000
_cell_angle_gamma   90.00000000
_symmetry_Int_Tables_number   1
_chemical_formula_structural   ZnPO4
_chemical_formula_sum   'Zn16 P16 O64'
_cell_volume   1929.40425130
_cell_formula_units_Z   16
loop_
 _symmetry_equiv_pos_site_id
 _symmetry_equiv_pos_as_xyz
  1  'x, y, z'
loop_
 _atom_site_type_symbol
 _atom_site_label
 _atom_site_symmetry_multiplicity
 _atom_site_fract_x
 _atom_site_fract_y
 _atom_site_fract_z
 _atom_site_occupancy
 _atom_site_charge
Zn  Zn1  1  0.49551000  0.13503000  0.23121000  1.0 1.2128421658
Zn  Zn2  1  0.50449000  0.86497000  0.23121000  1.0 1.2128421658
Zn  Zn3  1  0.86497000  0.49551000  0.73121000  1.0 1.2128421658
Zn  Zn4  1  0.13503000  0.50449000  0.73121000  1.0 1.2171393825
Zn  Zn5  1  0.99626000  0.36529000  0.22986000  1.0 1.2128421658
Zn  Zn6  1  0.00374000  0.63471000  0.22986000  1.0 1.2128421658
Zn  Zn7  1  0.36529000  0.00374000  0.72986000  1.0 1.2171393825
Zn  Zn8  1  0.63471000  0.99626000  0.72986000  1.0 1.2128421658
Zn  Zn9  1  0.13052000  0.00885000  0.04817000  1.0 1.1897141729
Zn  Zn10  1  0.86948000  0.99115000  0.04817000  1.0 1.1844139292
Zn  Zn11  1  0.99115000  0.13052000  0.54817000  1.0 1.1897141729
Zn  Zn12  1  0.00885000  0.86948000  0.54817000  1.0 1.1897141729
Zn  Zn13  1  0.63099000  0.49074000  0.04822000  1.0 1.2016062333
Zn  Zn14  1  0.36901000  0.50926000  0.04822000  1.0 1.2016062333
Zn  Zn15  1  0.49074000  0.36901000  0.54822000  1.0 1.2016062333
Zn  Zn16  1  0.50926000  0.63099000  0.54822000  1.0 1.2016062333
P  P1  1  0.34949000  0.99704000  0.09229000  1.0 1.4589933051
P  P2  1  0.65051000  0.00296000  0.09229000  1.0 1.4589933051
P  P3  1  0.00296000  0.34949000  0.59229000  1.0 1.4589933051
P  P4  1  0.99704000  0.65051000  0.59229000  1.0 1.4589933051
P  P5  1  0.84991000  0.50237000  0.09080000  1.0 1.5114526146
P  P6  1  0.15009000  0.49763000  0.09080000  1.0 1.5166092111
P  P7  1  0.50237000  0.15009000  0.59080000  1.0 1.5114526146
P  P8  1  0.49763000  0.84991000  0.59080000  1.0 1.5166092111
P  P9  1  0.48761000  0.35424000  0.19162000  1.0 1.5114526146
P  P10  1  0.51239000  0.64576000  0.19162000  1.0 1.5114526146
P  P11  1  0.64576000  0.48761000  0.69162000  1.0 1.5114526146
P  P12  1  0.35424000  0.51239000  0.69162000  1.0 1.5114526146
P  P13  1  0.98770000  0.14565000  0.19126000  1.0 1.4915472462
P  P14  1  0.01230000  0.85435000  0.19126000  1.0 1.4915472462
P  P15  1  0.14565000  0.01230000  0.69126000  1.0 1.4915472462
P  P16  1  0.85435000  0.98770000  0.69126000  1.0 1.4915472462
O  O1  1  0.39792000  0.08691000  0.10484000  1.0 -0.7109971301
O  O2  1  0.60208000  0.91309000  0.10484000  1.0 -0.7109971301
O  O3  1  0.91309000  0.39792000  0.60484000  1.0 -0.7109971301
O  O4  1  0.08691000  0.60208000  0.60484000  1.0 -0.7109971301
O  O5  1  0.89962000  0.41161000  0.10638000  1.0 -0.7180628211
O  O6  1  0.10038000  0.58839000  0.10638000  1.0 -0.7180628211
O  O7  1  0.41161000  0.10038000  0.60638000  1.0 -0.7180628211
O  O8  1  0.58839000  0.89962000  0.60638000  1.0 -0.7180628211
O  O9  1  0.35629000  0.95593000  0.93495000  1.0 -0.7010754631
O  O10  1  0.64371000  0.04407000  0.93495000  1.0 -0.6940540081
O  O11  1  0.04407000  0.35629000  0.43495000  1.0 -0.6940540081
O  O12  1  0.95593000  0.64371000  0.43495000  1.0 -0.6940540081
O  O13  1  0.85650000  0.54474000  0.93134000  1.0 -0.7010754631
O  O14  1  0.14350000  0.45526000  0.93134000  1.0 -0.7010754631
O  O15  1  0.54474000  0.14350000  0.43134000  1.0 -0.7010754631
O  O16  1  0.45526000  0.85650000  0.43134000  1.0 -0.7010754631
O  O17  1  0.38823000  0.92604000  0.19935000  1.0 -0.6398888932
O  O18  1  0.61177000  0.07396000  0.19935000  1.0 -0.6398888932
O  O19  1  0.07396000  0.38823000  0.69935000  1.0 -0.6398888932
O  O20  1  0.92604000  0.61177000  0.69935000  1.0 -0.6398888932
O  O21  1  0.88807000  0.57532000  0.20281000  1.0 -0.6461938725
O  O22  1  0.11193000  0.42468000  0.20281000  1.0 -0.6398888932
O  O23  1  0.57532000  0.11193000  0.70281000  1.0 -0.6398888932
O  O24  1  0.42468000  0.88807000  0.70281000  1.0 -0.6461938725
O  O25  1  0.25068000  0.01001000  0.13788000  1.0 -0.6398888932
O  O26  1  0.74932000  0.98999000  0.13788000  1.0 -0.6398888932
O  O27  1  0.98999000  0.25068000  0.63788000  1.0 -0.6398888932
O  O28  1  0.01001000  0.74932000  0.63788000  1.0 -0.6398888932
O  O29  1  0.74808000  0.48956000  0.13899000  1.0 -0.6398888932
O  O30  1  0.25192000  0.51044000  0.13899000  1.0 -0.6398888932
O  O31  1  0.48956000  0.25192000  0.63899000  1.0 -0.6398888932
O  O32  1  0.51044000  0.74808000  0.63899000  1.0 -0.6398888932
O  O33  1  0.50418000  0.25451000  0.14800000  1.0 -0.6461938725
O  O34  1  0.49582000  0.74549000  0.14800000  1.0 -0.6461938725
O  O35  1  0.74549000  0.50418000  0.64800000  1.0 -0.6461938725
O  O36  1  0.25451000  0.49582000  0.64800000  1.0 -0.6461938725
O  O37  1  0.00395000  0.24584000  0.14910000  1.0 -0.6398888932
O  O38  1  0.99605000  0.75416000  0.14910000  1.0 -0.6398888932
O  O39  1  0.24584000  0.99605000  0.64910000  1.0 -0.6398888932
O  O40  1  0.75416000  0.00395000  0.64910000  1.0 -0.6398888932
O  O41  1  0.57992000  0.40493000  0.18767000  1.0 -0.6708130495
O  O42  1  0.42008000  0.59507000  0.18767000  1.0 -0.6708130495
O  O43  1  0.59507000  0.57992000  0.68767000  1.0 -0.6708130495
O  O44  1  0.40493000  0.42008000  0.68767000  1.0 -0.6708130495
O  O45  1  0.07930000  0.09606000  0.18771000  1.0 -0.6708130495
O  O46  1  0.92070000  0.90394000  0.18771000  1.0 -0.6708130495
O  O47  1  0.09606000  0.92070000  0.68771000  1.0 -0.6708130495
O  O48  1  0.90394000  0.07930000  0.68771000  1.0 -0.6708130495
O  O49  1  0.44543000  0.36352000  0.34883000  1.0 -0.7180628211
O  O50  1  0.55457000  0.63648000  0.34883000  1.0 -0.7180628211
O  O51  1  0.63648000  0.44543000  0.84883000  1.0 -0.7180628211
O  O52  1  0.36352000  0.55457000  0.84883000  1.0 -0.7180628211
O  O53  1  0.94569000  0.13692000  0.34641000  1.0 -0.7109971301
O  O54  1  0.05431000  0.86308000  0.34641000  1.0 -0.7109971301
O  O55  1  0.13692000  0.05431000  0.84641000  1.0 -0.7109971301
O  O56  1  0.86308000  0.94569000  0.84641000  1.0 -0.7109971301
O  O57  1  0.42182000  0.39201000  0.07097000  1.0 -0.6776176499
O  O58  1  0.57818000  0.60799000  0.07097000  1.0 -0.6776176499
O  O59  1  0.60799000  0.42182000  0.57097000  1.0 -0.6776176499
O  O60  1  0.39201000  0.57818000  0.57097000  1.0 -0.6776176499
O  O61  1  0.92284000  0.10921000  0.07096000  1.0 -0.6708130495
O  O62  1  0.07716000  0.89079000  0.07096000  1.0 -0.6708130495
O  O63  1  0.10921000  0.07716000  0.57096000  1.0 -0.6708130495
O  O64  1  0.89079000  0.92284000  0.57096000  1.0 -0.6708130495
