# DDEC6 charges by PACMAN v1.1 (https://github.com/mtap-research/PACMAN-charge/)
data_TACFIN01_ion_pacman
_symmetry_space_group_name_H-M   'P 1'
_cell_length_a   8.92400000
_cell_length_b   14.69010000
_cell_length_c   14.69380000
_cell_angle_alpha   90.00000000
_cell_angle_beta   90.00000000
_cell_angle_gamma   90.00000000
_symmetry_Int_Tables_number   1
_chemical_formula_structural   Zn2P2H5CNO9
_chemical_formula_sum   'Zn16 P16 H40 C8 N8 O72'
_cell_volume   1926.27566468
_cell_formula_units_Z   8
loop_
 _symmetry_equiv_pos_site_id
 _symmetry_equiv_pos_as_xyz
  1  'x, y, z'
loop_
 _atom_site_type_symbol
 _atom_site_label
 _atom_site_symmetry_multiplicity
 _atom_site_fract_x
 _atom_site_fract_y
 _atom_site_fract_z
 _atom_site_occupancy
 _atom_site_charge
Zn  Zn1  1  0.15614000  0.11849000  0.51133000  1.0 1.1784838525
Zn  Zn2  1  0.84386000  0.11849000  0.98867000  1.0 1.1784838525
Zn  Zn3  1  0.15614000  0.38151000  0.48867000  1.0 1.1784838525
Zn  Zn4  1  0.84386000  0.38151000  0.01133000  1.0 1.1746538794
Zn  Zn5  1  0.84386000  0.88151000  0.48867000  1.0 1.1784838525
Zn  Zn6  1  0.15614000  0.88151000  0.01133000  1.0 1.1784838525
Zn  Zn7  1  0.84386000  0.61849000  0.51133000  1.0 1.1784838525
Zn  Zn8  1  0.15614000  0.61849000  0.98867000  1.0 1.1784838525
Zn  Zn9  1  0.34324000  0.74144000  0.36869000  1.0 1.0486333286
Zn  Zn10  1  0.65676000  0.74144000  0.13131000  1.0 1.0486333286
Zn  Zn11  1  0.34324000  0.75856000  0.63131000  1.0 1.0486333286
Zn  Zn12  1  0.65676000  0.75856000  0.86869000  1.0 1.0486333286
Zn  Zn13  1  0.65676000  0.25856000  0.63131000  1.0 1.0486333286
Zn  Zn14  1  0.34324000  0.25856000  0.86869000  1.0 1.0486333286
Zn  Zn15  1  0.65676000  0.24144000  0.36869000  1.0 1.0486333286
Zn  Zn16  1  0.34324000  0.24144000  0.13131000  1.0 1.0486333286
P  P1  1  0.20162000  0.89781000  0.48809000  1.0 1.5326078024
P  P2  1  0.79838000  0.89781000  0.01191000  1.0 1.5326078024
P  P3  1  0.20162000  0.60219000  0.51191000  1.0 1.5326078024
P  P4  1  0.79838000  0.60219000  0.98809000  1.0 1.5326078024
P  P5  1  0.79838000  0.10219000  0.51191000  1.0 1.5326078024
P  P6  1  0.20162000  0.10219000  0.98809000  1.0 1.5352069056
P  P7  1  0.79838000  0.39781000  0.48809000  1.0 1.5326078024
P  P8  1  0.20162000  0.39781000  0.01191000  1.0 1.5326078024
P  P9  1  0.29705000  0.23912000  0.35377000  1.0 1.3245507735
P  P10  1  0.70295000  0.23912000  0.14623000  1.0 1.3245507735
P  P11  1  0.29705000  0.26088000  0.64623000  1.0 1.3245507735
P  P12  1  0.70295000  0.26088000  0.85377000  1.0 1.3245507735
P  P13  1  0.70295000  0.76088000  0.64623000  1.0 1.3245507735
P  P14  1  0.29705000  0.76088000  0.85377000  1.0 1.3255053675
P  P15  1  0.70295000  0.73912000  0.35377000  1.0 1.3245507735
P  P16  1  0.29705000  0.73912000  0.14623000  1.0 1.3245507735
H  H1  1  0.55370000  0.45910000  0.38760000  1.0 0.3076746008
H  H2  1  0.44630000  0.45910000  0.11240000  1.0 0.3076746008
H  H3  1  0.53470000  0.55960000  0.38660000  1.0 0.2979047513
H  H4  1  0.46530000  0.55960000  0.11340000  1.0 0.2979047513
H  H5  1  0.40900000  0.50020000  0.41620000  1.0 0.3076746008
H  H6  1  0.59100000  0.50020000  0.08380000  1.0 0.3076746008
H  H7  1  0.37390000  0.44440000  0.27370000  1.0 0.1098428434
H  H8  1  0.62610000  0.44440000  0.22630000  1.0 0.1098428434
H  H9  1  0.36820000  0.55350000  0.26940000  1.0 0.0991214504
H  H10  1  0.63180000  0.55350000  0.23060000  1.0 0.0991214504
H  H11  1  0.55370000  0.04090000  0.61240000  1.0 0.3076746008
H  H12  1  0.44630000  0.04090000  0.88760000  1.0 0.3076746008
H  H13  1  0.53470000  0.94040000  0.61340000  1.0 0.2979047513
H  H14  1  0.46530000  0.94040000  0.88660000  1.0 0.2979047513
H  H15  1  0.40900000  0.99980000  0.58380000  1.0 0.3076746008
H  H16  1  0.59100000  0.99980000  0.91620000  1.0 0.3076746008
H  H17  1  0.37390000  0.05560000  0.72630000  1.0 0.1098428434
H  H18  1  0.62610000  0.05560000  0.77370000  1.0 0.1098428434
H  H19  1  0.36820000  0.94650000  0.73060000  1.0 0.0991214504
H  H20  1  0.63180000  0.94650000  0.76940000  1.0 0.0991214504
H  H21  1  0.44630000  0.54090000  0.61240000  1.0 0.3076746008
H  H22  1  0.55370000  0.54090000  0.88760000  1.0 0.3076746008
H  H23  1  0.46530000  0.44040000  0.61340000  1.0 0.2979047513
H  H24  1  0.53470000  0.44040000  0.88660000  1.0 0.2979047513
H  H25  1  0.59100000  0.49980000  0.58380000  1.0 0.3076746008
H  H26  1  0.40900000  0.49980000  0.91620000  1.0 0.3076746008
H  H27  1  0.62610000  0.55560000  0.72630000  1.0 0.1098428434
H  H28  1  0.37390000  0.55560000  0.77370000  1.0 0.1098428434
H  H29  1  0.63180000  0.44650000  0.73060000  1.0 0.0991214504
H  H30  1  0.36820000  0.44650000  0.76940000  1.0 0.0991214504
H  H31  1  0.44630000  0.95910000  0.38760000  1.0 0.3076746008
H  H32  1  0.55370000  0.95910000  0.11240000  1.0 0.3076746008
H  H33  1  0.46530000  0.05960000  0.38660000  1.0 0.2979047513
H  H34  1  0.53470000  0.05960000  0.11340000  1.0 0.2979047513
H  H35  1  0.59100000  0.00020000  0.41620000  1.0 0.3076746008
H  H36  1  0.40900000  0.00020000  0.08380000  1.0 0.3076746008
H  H37  1  0.62610000  0.94440000  0.27370000  1.0 0.1098428434
H  H38  1  0.37390000  0.94440000  0.22630000  1.0 0.1098428434
H  H39  1  0.63180000  0.05350000  0.26940000  1.0 0.0991214504
H  H40  1  0.36820000  0.05350000  0.23060000  1.0 0.0991214504
C  C1  1  0.43350000  0.50057000  0.28243000  1.0 -0.0464017661
C  C2  1  0.56650000  0.50057000  0.21757000  1.0 -0.0464017661
C  C3  1  0.43350000  0.99943000  0.71757000  1.0 -0.0464017661
C  C4  1  0.56650000  0.99943000  0.78243000  1.0 -0.0464017661
C  C5  1  0.56650000  0.49943000  0.71757000  1.0 -0.0464017661
C  C6  1  0.43350000  0.49943000  0.78243000  1.0 -0.0464017661
C  C7  1  0.56650000  0.00057000  0.28243000  1.0 -0.0464017661
C  C8  1  0.43350000  0.00057000  0.21757000  1.0 -0.0464017661
N  N1  1  0.48790000  0.50533000  0.37735000  1.0 -0.4396212185
N  N2  1  0.51210000  0.50533000  0.12265000  1.0 -0.4396212185
N  N3  1  0.48790000  0.99467000  0.62265000  1.0 -0.4396212185
N  N4  1  0.51210000  0.99467000  0.87735000  1.0 -0.4396212185
N  N5  1  0.51210000  0.49467000  0.62265000  1.0 -0.4396212185
N  N6  1  0.48790000  0.49467000  0.87735000  1.0 -0.4396212185
N  N7  1  0.51210000  0.00533000  0.37735000  1.0 -0.4396212185
N  N8  1  0.48790000  0.00533000  0.12265000  1.0 -0.4396212185
O  O1  1  0.24706000  0.99790000  0.50527000  1.0 -0.8116858164
O  O2  1  0.75294000  0.99790000  0.99473000  1.0 -0.8116858164
O  O3  1  0.24706000  0.50210000  0.49473000  1.0 -0.8116858164
O  O4  1  0.75294000  0.50210000  0.00527000  1.0 -0.8116858164
O  O5  1  0.75294000  0.00210000  0.49473000  1.0 -0.8116858164
O  O6  1  0.24706000  0.00210000  0.00527000  1.0 -0.8116858164
O  O7  1  0.75294000  0.49790000  0.50527000  1.0 -0.8116858164
O  O8  1  0.24706000  0.49790000  0.99473000  1.0 -0.8116858164
O  O9  1  0.31980000  0.86109000  0.42057000  1.0 -0.8116858164
O  O10  1  0.68020000  0.86109000  0.07943000  1.0 -0.8116858164
O  O11  1  0.31980000  0.63891000  0.57943000  1.0 -0.8116858164
O  O12  1  0.68020000  0.63891000  0.92057000  1.0 -0.8116858164
O  O13  1  0.68020000  0.13891000  0.57943000  1.0 -0.8116858164
O  O14  1  0.31980000  0.13891000  0.92057000  1.0 -0.8116858164
O  O15  1  0.68020000  0.36109000  0.42057000  1.0 -0.8116858164
O  O16  1  0.31980000  0.36109000  0.07943000  1.0 -0.8116858164
O  O17  1  0.45270000  0.19712000  0.36622000  1.0 -0.7751642549
O  O18  1  0.54730000  0.19712000  0.13378000  1.0 -0.7751642549
O  O19  1  0.45270000  0.30288000  0.63378000  1.0 -0.7751642549
O  O20  1  0.54730000  0.30288000  0.86622000  1.0 -0.7751642549
O  O21  1  0.54730000  0.80288000  0.63378000  1.0 -0.7737979377
O  O22  1  0.45270000  0.80288000  0.86622000  1.0 -0.7737979377
O  O23  1  0.54730000  0.69712000  0.36622000  1.0 -0.7751642549
O  O24  1  0.45270000  0.69712000  0.13378000  1.0 -0.7751642549
O  O25  1  0.20645000  0.84708000  0.57855000  1.0 -0.7972256774
O  O26  1  0.79355000  0.84708000  0.92145000  1.0 -0.7972256774
O  O27  1  0.20645000  0.65292000  0.42145000  1.0 -0.7972256774
O  O28  1  0.79355000  0.65292000  0.07855000  1.0 -0.7972256774
O  O29  1  0.79355000  0.15292000  0.42145000  1.0 -0.7972256774
O  O30  1  0.20645000  0.15292000  0.07855000  1.0 -0.7972256774
O  O31  1  0.79355000  0.34708000  0.57855000  1.0 -0.7972256774
O  O32  1  0.20645000  0.34708000  0.92145000  1.0 -0.7972256774
O  O33  1  0.25330000  0.23160000  0.25210000  1.0 -0.140114517
O  O34  1  0.74670000  0.23160000  0.24790000  1.0 -0.140114517
O  O35  1  0.25330000  0.26840000  0.74790000  1.0 -0.140114517
O  O36  1  0.74670000  0.26840000  0.75210000  1.0 -0.134238095
O  O37  1  0.74670000  0.76840000  0.74790000  1.0 -0.140114517
O  O38  1  0.25330000  0.76840000  0.75210000  1.0 -0.134238095
O  O39  1  0.74670000  0.73160000  0.25210000  1.0 -0.134238095
O  O40  1  0.25330000  0.73160000  0.24790000  1.0 -0.134238095
O  O41  1  0.17950000  0.17541000  0.39498000  1.0 -0.7176803136
O  O42  1  0.82050000  0.17541000  0.10502000  1.0 -0.7176803136
O  O43  1  0.17950000  0.32459000  0.60502000  1.0 -0.7176803136
O  O44  1  0.82050000  0.32459000  0.89498000  1.0 -0.7176803136
O  O45  1  0.82050000  0.82459000  0.60502000  1.0 -0.7176803136
O  O46  1  0.17950000  0.82459000  0.89498000  1.0 -0.7176803136
O  O47  1  0.82050000  0.67541000  0.39498000  1.0 -0.7176803136
O  O48  1  0.17950000  0.67541000  0.10502000  1.0 -0.7176803136
O  O49  1  0.04650000  0.89186000  0.44411000  1.0 -0.7972256774
O  O50  1  0.95350000  0.89186000  0.05589000  1.0 -0.7972256774
O  O51  1  0.04650000  0.60814000  0.55589000  1.0 -0.7972256774
O  O52  1  0.95350000  0.60814000  0.94411000  1.0 -0.7972256774
O  O53  1  0.95350000  0.10814000  0.55589000  1.0 -0.7972256774
O  O54  1  0.04650000  0.10814000  0.94411000  1.0 -0.7972256774
O  O55  1  0.95350000  0.39186000  0.44411000  1.0 -0.7972256774
O  O56  1  0.04650000  0.39186000  0.05589000  1.0 -0.7972256774
O  O57  1  0.28660000  0.33368000  0.39461000  1.0 -0.7295550192
O  O58  1  0.71340000  0.33368000  0.10539000  1.0 -0.7295550192
O  O59  1  0.28660000  0.16632000  0.60539000  1.0 -0.7295550192
O  O60  1  0.71340000  0.16632000  0.89461000  1.0 -0.7295550192
O  O61  1  0.71340000  0.66632000  0.60539000  1.0 -0.7295550192
O  O62  1  0.28660000  0.66632000  0.89461000  1.0 -0.7295550192
O  O63  1  0.71340000  0.83368000  0.39461000  1.0 -0.7295550192
O  O64  1  0.28660000  0.83368000  0.10539000  1.0 -0.7295550192
O  O65  1  0.26050000  0.76180000  0.24660000  1.0 -0.1466438482
O  O66  1  0.73950000  0.76180000  0.25340000  1.0 -0.140114517
O  O67  1  0.26050000  0.73820000  0.75340000  1.0 -0.1466438482
O  O68  1  0.73950000  0.73820000  0.74660000  1.0 -0.1466438482
O  O69  1  0.73950000  0.23820000  0.75340000  1.0 -0.1466438482
O  O70  1  0.26050000  0.23820000  0.74660000  1.0 -0.140114517
O  O71  1  0.73950000  0.26180000  0.24660000  1.0 -0.140114517
O  O72  1  0.26050000  0.26180000  0.25340000  1.0 -0.140114517
