# DDEC6 charges by PACMAN v1.1 (https://github.com/mtap-research/PACMAN-charge/)
data_TADYEE_ASR_pacman
_symmetry_space_group_name_H-M   'P 1'
_cell_length_a   15.22460000
_cell_length_b   15.22460000
_cell_length_c   16.68600000
_cell_angle_alpha   73.65820000
_cell_angle_beta   106.34200000
_cell_angle_gamma   69.09300000
_symmetry_Int_Tables_number   1
_chemical_formula_structural   Ni2MoH60C32(N5O)4
_chemical_formula_sum   'Ni4 Mo2 H120 C64 N40 O8'
_cell_volume   3136.87114069
_cell_formula_units_Z   2
loop_
 _symmetry_equiv_pos_site_id
 _symmetry_equiv_pos_as_xyz
  1  'x, y, z'
loop_
 _atom_site_type_symbol
 _atom_site_label
 _atom_site_symmetry_multiplicity
 _atom_site_fract_x
 _atom_site_fract_y
 _atom_site_fract_z
 _atom_site_occupancy
 _atom_site_charge
Ni  Ni1  1  0.50000000  0.00000000  0.00000000  1.0 0.5712804202
Ni  Ni2  1  0.00000000  0.50000000  0.50000000  1.0 0.5712804202
Ni  Ni3  1  0.00000000  0.00000000  0.50000000  1.0 0.5627219681
Ni  Ni4  1  0.00000000  0.00000000  0.00000000  1.0 0.5627219681
Mo  Mo1  1  0.12871000  0.12871000  0.75000000  1.0 0.5994179253
Mo  Mo2  1  0.87129000  0.87129000  0.25000000  1.0 0.5994179253
H  H1  1  0.42210000  0.87170000  0.90150000  1.0 0.1271446668
H  H2  1  0.87170000  0.42210000  0.59850000  1.0 0.1271446668
H  H3  1  0.57790000  0.12830000  0.09850000  1.0 0.1271446668
H  H4  1  0.12830000  0.57790000  0.40150000  1.0 0.1271446668
H  H5  1  0.51950000  0.76150000  0.96570000  1.0 0.1106200432
H  H6  1  0.76150000  0.51950000  0.53430000  1.0 0.1106200432
H  H7  1  0.48050000  0.23850000  0.03430000  1.0 0.1106200432
H  H8  1  0.23850000  0.48050000  0.46570000  1.0 0.1106200432
H  H9  1  0.35270000  0.90290000  0.01800000  1.0 0.1202838995
H  H10  1  0.90290000  0.35270000  0.48200000  1.0 0.1202838995
H  H11  1  0.64730000  0.09710000  0.98200000  1.0 0.1202838995
H  H12  1  0.09710000  0.64730000  0.51800000  1.0 0.1202838995
H  H13  1  0.42720000  0.78480000  0.08100000  1.0 0.0829954784
H  H14  1  0.78480000  0.42720000  0.41900000  1.0 0.0829954784
H  H15  1  0.57280000  0.21520000  0.91900000  1.0 0.0829954784
H  H16  1  0.21520000  0.57280000  0.58100000  1.0 0.0829954784
H  H17  1  0.39650000  0.99390000  0.18970000  1.0 0.0934164835
H  H18  1  0.99390000  0.39650000  0.31030000  1.0 0.0974174891
H  H19  1  0.60350000  0.00610000  0.81030000  1.0 0.0974174891
H  H20  1  0.00610000  0.60350000  0.68970000  1.0 0.0974174891
H  H21  1  0.33140000  0.03120000  0.08400000  1.0 0.1106200432
H  H22  1  0.03120000  0.33140000  0.41600000  1.0 0.1106200432
H  H23  1  0.66860000  0.96880000  0.91600000  1.0 0.1106200432
H  H24  1  0.96880000  0.66860000  0.58400000  1.0 0.1106200432
H  H25  1  0.63020000  0.83140000  0.95570000  1.0 0.1202838995
H  H26  1  0.83140000  0.63020000  0.54430000  1.0 0.1202838995
H  H27  1  0.36980000  0.16860000  0.04430000  1.0 0.1202838995
H  H28  1  0.16860000  0.36980000  0.45570000  1.0 0.1202838995
H  H29  1  0.55460000  0.85960000  0.85550000  1.0 0.1106200432
H  H30  1  0.85960000  0.55460000  0.64450000  1.0 0.1106200432
H  H31  1  0.44540000  0.14040000  0.14450000  1.0 0.1106200432
H  H32  1  0.14040000  0.44540000  0.35550000  1.0 0.1106200432
H  H33  1  0.02620000  0.16160000  0.40450000  1.0 0.1106200432
H  H34  1  0.16160000  0.02620000  0.09550000  1.0 0.1106200432
H  H35  1  0.97380000  0.83840000  0.59550000  1.0 0.1106200432
H  H36  1  0.83840000  0.97380000  0.90450000  1.0 0.1106200432
H  H37  1  0.96190000  0.20610000  0.29800000  1.0 0.1106200432
H  H38  1  0.20610000  0.96190000  0.20200000  1.0 0.1106200432
H  H39  1  0.03810000  0.79390000  0.70200000  1.0 0.1106200432
H  H40  1  0.79390000  0.03810000  0.79800000  1.0 0.1106200432
H  H41  1  0.86020000  0.24760000  0.41110000  1.0 0.0974174891
H  H42  1  0.24760000  0.86020000  0.08890000  1.0 0.0974174891
H  H43  1  0.13980000  0.75240000  0.58890000  1.0 0.0974174891
H  H44  1  0.75240000  0.13980000  0.91110000  1.0 0.0974174891
H  H45  1  0.78510000  0.27410000  0.31070000  1.0 0.0829954784
H  H46  1  0.27410000  0.78510000  0.18930000  1.0 0.0829954784
H  H47  1  0.21490000  0.72590000  0.68930000  1.0 0.0829954784
H  H48  1  0.72590000  0.21490000  0.81070000  1.0 0.0829954784
H  H49  1  0.74870000  0.12190000  0.52890000  1.0 0.0934164835
H  H50  1  0.12190000  0.74870000  0.97110000  1.0 0.0934164835
H  H51  1  0.25130000  0.87810000  0.47110000  1.0 0.0934164835
H  H52  1  0.87810000  0.25130000  0.02890000  1.0 0.0934164835
H  H53  1  0.84000000  0.14980000  0.54580000  1.0 0.1202838995
H  H54  1  0.14980000  0.84000000  0.95420000  1.0 0.1202838995
H  H55  1  0.16000000  0.85020000  0.45420000  1.0 0.1202838995
H  H56  1  0.85020000  0.16000000  0.04580000  1.0 0.1202838995
H  H57  1  0.10190000  0.05750000  0.32780000  1.0 0.1106200432
H  H58  1  0.05750000  0.10190000  0.17220000  1.0 0.1106200432
H  H59  1  0.89810000  0.94250000  0.67220000  1.0 0.1106200432
H  H60  1  0.94250000  0.89810000  0.82780000  1.0 0.1106200432
H  H61  1  0.02120000  0.01740000  0.33400000  1.0 0.1202838995
H  H62  1  0.01740000  0.02120000  0.16600000  1.0 0.1202838995
H  H63  1  0.97880000  0.98260000  0.66600000  1.0 0.1202838995
H  H64  1  0.98260000  0.97880000  0.83400000  1.0 0.1202838995
H  H65  1  0.54440000  0.84740000  0.26430000  1.0 0.1271446668
H  H66  1  0.84740000  0.54440000  0.23570000  1.0 0.1271446668
H  H67  1  0.45560000  0.15260000  0.73570000  1.0 0.1271446668
H  H68  1  0.15260000  0.45560000  0.76430000  1.0 0.1271446668
H  H69  1  0.58430000  0.78010000  0.21400000  1.0 0.1106200432
H  H70  1  0.78010000  0.58430000  0.28600000  1.0 0.1106200432
H  H71  1  0.41570000  0.21990000  0.78600000  1.0 0.1106200432
H  H72  1  0.21990000  0.41570000  0.71400000  1.0 0.1106200432
H  H73  1  0.47940000  0.73980000  0.32310000  1.0 0.0974174891
H  H74  1  0.73980000  0.47940000  0.17690000  1.0 0.0974174891
H  H75  1  0.52060000  0.26020000  0.67690000  1.0 0.0974174891
H  H76  1  0.26020000  0.52060000  0.82310000  1.0 0.0974174891
H  H77  1  0.51330000  0.67450000  0.26930000  1.0 0.070350558
H  H78  1  0.67450000  0.51330000  0.23070000  1.0 0.070350558
H  H79  1  0.48670000  0.32550000  0.73070000  1.0 0.070350558
H  H80  1  0.32550000  0.48670000  0.76930000  1.0 0.070350558
H  H81  1  0.66370000  0.12750000  0.39730000  1.0 0.1106200432
H  H82  1  0.12750000  0.66370000  0.10270000  1.0 0.1106200432
H  H83  1  0.33630000  0.87250000  0.60270000  1.0 0.1106200432
H  H84  1  0.87250000  0.33630000  0.89730000  1.0 0.1106200432
H  H85  1  0.73280000  0.10240000  0.34490000  1.0 0.1202838995
H  H86  1  0.10240000  0.73280000  0.15510000  1.0 0.1202838995
H  H87  1  0.26720000  0.89760000  0.65510000  1.0 0.1202838995
H  H88  1  0.89760000  0.26720000  0.84490000  1.0 0.1202838995
H  H89  1  0.56950000  0.30270000  0.28040000  1.0 0.0934164835
H  H90  1  0.30270000  0.56950000  0.21960000  1.0 0.0934164835
H  H91  1  0.43050000  0.69730000  0.71960000  1.0 0.0934164835
H  H92  1  0.69730000  0.43050000  0.78040000  1.0 0.0934164835
H  H93  1  0.63030000  0.26270000  0.22510000  1.0 0.0974174891
H  H94  1  0.26270000  0.63030000  0.27490000  1.0 0.0974174891
H  H95  1  0.36970000  0.73730000  0.77490000  1.0 0.0974174891
H  H96  1  0.73730000  0.36970000  0.72510000  1.0 0.0974174891
H  H97  1  0.56340000  0.80960000  0.07290000  1.0 0.2359403674
H  H98  1  0.80960000  0.56340000  0.42710000  1.0 0.2359403674
H  H99  1  0.43660000  0.19040000  0.92710000  1.0 0.2359403674
H  H100  1  0.19040000  0.43660000  0.57290000  1.0 0.2359403674
H  H101  1  0.45960000  0.02200000  0.83620000  1.0 0.2523548011
H  H102  1  0.02200000  0.45960000  0.66380000  1.0 0.2523548011
H  H103  1  0.54040000  0.97800000  0.16380000  1.0 0.2523548011
H  H104  1  0.97800000  0.54040000  0.33620000  1.0 0.2523548011
H  H105  1  0.87730000  0.10630000  0.33280000  1.0 0.2523548011
H  H106  1  0.10630000  0.87730000  0.16720000  1.0 0.2523548011
H  H107  1  0.12270000  0.89370000  0.66720000  1.0 0.2523548011
H  H108  1  0.89370000  0.12270000  0.83280000  1.0 0.2523548011
H  H109  1  0.15270000  0.02250000  0.48340000  1.0 0.2523548011
H  H110  1  0.02250000  0.15270000  0.01660000  1.0 0.2523548011
H  H111  1  0.84730000  0.97750000  0.51660000  1.0 0.2523548011
H  H112  1  0.97750000  0.84730000  0.98340000  1.0 0.2523548011
H  H113  1  0.65460000  0.59140000  0.36400000  1.0 0.2854451541
H  H114  1  0.59140000  0.65460000  0.13600000  1.0 0.2846193616
H  H115  1  0.34540000  0.40860000  0.63600000  1.0 0.2846193616
H  H116  1  0.40860000  0.34540000  0.86400000  1.0 0.2846193616
H  H117  1  0.57440000  0.14660000  0.23150000  1.0 0.3306359951
H  H118  1  0.14660000  0.57440000  0.26850000  1.0 0.3306359951
H  H119  1  0.42560000  0.85340000  0.76850000  1.0 0.3306359951
H  H120  1  0.85340000  0.42560000  0.73150000  1.0 0.3306359951
C  C1  1  0.26625000  0.09765000  0.85590000  1.0 -0.0239979558
C  C2  1  0.09765000  0.26625000  0.64410000  1.0 -0.0239979558
C  C3  1  0.73375000  0.90235000  0.14410000  1.0 -0.0239979558
C  C4  1  0.90235000  0.73375000  0.35590000  1.0 -0.0239979558
C  C5  1  0.25544000  0.07884000  0.71380000  1.0 -0.0313801277
C  C6  1  0.07884000  0.25544000  0.78620000  1.0 -0.0313801277
C  C7  1  0.74456000  0.92116000  0.28620000  1.0 -0.0313801277
C  C8  1  0.92116000  0.74456000  0.21380000  1.0 -0.0313801277
C  C9  1  0.07003000  0.10583000  0.62940000  1.0 -0.0313801277
C  C10  1  0.10583000  0.07003000  0.87060000  1.0 -0.0313801277
C  C11  1  0.92997000  0.89417000  0.37060000  1.0 -0.0313801277
C  C12  1  0.89417000  0.92997000  0.12940000  1.0 -0.0313801277
C  C13  1  0.96388000  0.18528000  0.70180000  1.0 -0.0799849812
C  C14  1  0.18528000  0.96388000  0.79820000  1.0 -0.0799849812
C  C15  1  0.03612000  0.81472000  0.29820000  1.0 -0.0799849812
C  C16  1  0.81472000  0.03612000  0.20180000  1.0 -0.0799849812
C  C17  1  0.49347000  0.83547000  0.94760000  1.0 -0.106909053
C  C18  1  0.83547000  0.49347000  0.55240000  1.0 -0.106909053
C  C19  1  0.50653000  0.16453000  0.05240000  1.0 -0.106909053
C  C20  1  0.16453000  0.50653000  0.44760000  1.0 -0.106909053
C  C21  1  0.42176000  0.85336000  0.06630000  1.0 -0.0743307542
C  C22  1  0.85336000  0.42176000  0.43370000  1.0 -0.0743307542
C  C23  1  0.57824000  0.14664000  0.93370000  1.0 -0.0743307542
C  C24  1  0.14664000  0.57824000  0.56630000  1.0 -0.0743307542
C  C25  1  0.39978000  0.98578000  0.13480000  1.0 -0.0117495398
C  C26  1  0.98578000  0.39978000  0.36520000  1.0 -0.0117495398
C  C27  1  0.60022000  0.01422000  0.86520000  1.0 -0.0117495398
C  C28  1  0.01422000  0.60022000  0.63480000  1.0 -0.0117495398
C  C29  1  0.55824000  0.87124000  0.91030000  1.0 -0.1008453644
C  C30  1  0.87124000  0.55824000  0.58970000  1.0 -0.1008453644
C  C31  1  0.44176000  0.12876000  0.08970000  1.0 -0.1008453644
C  C32  1  0.12876000  0.44176000  0.41030000  1.0 -0.1008453644
C  C33  1  0.98936000  0.14836000  0.35630000  1.0 -0.1420958001
C  C34  1  0.14836000  0.98936000  0.14370000  1.0 -0.1420958001
C  C35  1  0.01064000  0.85164000  0.64370000  1.0 -0.1420958001
C  C36  1  0.85164000  0.01064000  0.85630000  1.0 -0.1420958001
C  C37  1  0.82712000  0.22032000  0.37340000  1.0 -0.0239979558
C  C38  1  0.22032000  0.82712000  0.12660000  1.0 -0.0239979558
C  C39  1  0.17288000  0.77968000  0.62660000  1.0 -0.0239979558
C  C40  1  0.77968000  0.17288000  0.87340000  1.0 -0.0239979558
C  C41  1  0.80515000  0.12035000  0.51220000  1.0 -0.0117495398
C  C42  1  0.12035000  0.80515000  0.98780000  1.0 -0.0117495398
C  C43  1  0.19485000  0.87965000  0.48780000  1.0 -0.0117495398
C  C44  1  0.87965000  0.19485000  0.01220000  1.0 -0.0117495398
C  C45  1  0.06015000  0.04815000  0.35970000  1.0 -0.1008453644
C  C46  1  0.04815000  0.06015000  0.14030000  1.0 -0.1008453644
C  C47  1  0.93985000  0.95185000  0.64030000  1.0 -0.1008453644
C  C48  1  0.95185000  0.93985000  0.85970000  1.0 -0.1008453644
C  C49  1  0.52930000  0.80610000  0.23290000  1.0 -0.1920689266
C  C50  1  0.80610000  0.52930000  0.26710000  1.0 -0.1920689266
C  C51  1  0.47070000  0.19390000  0.76710000  1.0 -0.1920689266
C  C52  1  0.19390000  0.47070000  0.73290000  1.0 -0.1920689266
C  C53  1  0.53131000  0.71451000  0.30080000  1.0 0.0315834884
C  C54  1  0.71451000  0.53131000  0.19920000  1.0 0.0315834884
C  C55  1  0.46869000  0.28549000  0.69920000  1.0 0.0315834884
C  C56  1  0.28549000  0.46869000  0.80080000  1.0 0.0315834884
C  C57  1  0.69246000  0.15666000  0.35870000  1.0 -0.1712151985
C  C58  1  0.15666000  0.69246000  0.14130000  1.0 -0.1712151985
C  C59  1  0.30754000  0.84334000  0.64130000  1.0 -0.1712151985
C  C60  1  0.84334000  0.30754000  0.85870000  1.0 -0.1712151985
C  C61  1  0.60440000  0.24260000  0.27030000  1.0 0.0068344105
C  C62  1  0.24260000  0.60440000  0.22970000  1.0 0.0068344105
C  C63  1  0.39560000  0.75740000  0.72970000  1.0 0.0068344105
C  C64  1  0.75740000  0.39560000  0.77030000  1.0 0.0068344105
N  N1  1  0.34168000  0.07894000  0.91640000  1.0 -0.3799856748
N  N2  1  0.07894000  0.34168000  0.58360000  1.0 -0.3799856748
N  N3  1  0.65832000  0.92106000  0.08360000  1.0 -0.3799856748
N  N4  1  0.92106000  0.65832000  0.41640000  1.0 -0.3799856748
N  N5  1  0.32402000  0.05522000  0.69770000  1.0 -0.4399970654
N  N6  1  0.05522000  0.32402000  0.80230000  1.0 -0.4399970654
N  N7  1  0.67598000  0.94478000  0.30230000  1.0 -0.4399970654
N  N8  1  0.94478000  0.67598000  0.19770000  1.0 -0.4399970654
N  N9  1  0.03676000  0.09022000  0.56660000  1.0 -0.3799856748
N  N10  1  0.09022000  0.03676000  0.93340000  1.0 -0.3799856748
N  N11  1  0.96324000  0.90978000  0.43340000  1.0 -0.3799856748
N  N12  1  0.90978000  0.96324000  0.06660000  1.0 -0.3799856748
N  N13  1  0.87930000  0.21070000  0.68060000  1.0 -0.4399970654
N  N14  1  0.21070000  0.87930000  0.81940000  1.0 -0.4399970654
N  N15  1  0.12070000  0.78930000  0.31940000  1.0 -0.4399970654
N  N16  1  0.78930000  0.12070000  0.18060000  1.0 -0.4399970654
N  N17  1  0.49962000  0.85842000  0.02690000  1.0 -0.3009927037
N  N18  1  0.85842000  0.49962000  0.47310000  1.0 -0.3009927037
N  N19  1  0.50038000  0.14158000  0.97310000  1.0 -0.3009927037
N  N20  1  0.14158000  0.50038000  0.52690000  1.0 -0.3009927037
N  N21  1  0.43087000  0.87387000  0.15020000  1.0 -0.1712151985
N  N22  1  0.87387000  0.43087000  0.34980000  1.0 -0.1712151985
N  N23  1  0.56913000  0.12613000  0.84980000  1.0 -0.1712151985
N  N24  1  0.12613000  0.56913000  0.65020000  1.0 -0.1712151985
N  N25  1  0.52174000  0.98414000  0.88670000  1.0 -0.3054093714
N  N26  1  0.98414000  0.52174000  0.61330000  1.0 -0.3009927037
N  N27  1  0.47826000  0.01586000  0.11330000  1.0 -0.3054093714
N  N28  1  0.01586000  0.47826000  0.38670000  1.0 -0.3054093714
N  N29  1  0.90764000  0.12532000  0.37540000  1.0 -0.3009927037
N  N30  1  0.12532000  0.90764000  0.12460000  1.0 -0.3009927037
N  N31  1  0.09236000  0.87468000  0.62460000  1.0 -0.3009927037
N  N32  1  0.87468000  0.09236000  0.87540000  1.0 -0.3009927037
N  N33  1  0.76178000  0.18478000  0.41120000  1.0 -0.1304053214
N  N34  1  0.18478000  0.76178000  0.08880000  1.0 -0.1304053214
N  N35  1  0.23822000  0.81522000  0.58880000  1.0 -0.1304053214
N  N36  1  0.81522000  0.23822000  0.91120000  1.0 -0.1304053214
N  N37  1  0.11938000  0.99018000  0.46000000  1.0 -0.2911976274
N  N38  1  0.99018000  0.11938000  0.04000000  1.0 -0.2911976274
N  N39  1  0.88062000  0.00982000  0.54000000  1.0 -0.2911976274
N  N40  1  0.00982000  0.88062000  0.96000000  1.0 -0.2911976274
O  O1  1  0.62274000  0.65358000  0.37160000  1.0 -0.4064699407
O  O2  1  0.65358000  0.62274000  0.12840000  1.0 -0.4064699407
O  O3  1  0.37726000  0.34642000  0.62840000  1.0 -0.4064699407
O  O4  1  0.34642000  0.37726000  0.87160000  1.0 -0.4064699407
O  O5  1  0.53645000  0.20719000  0.23870000  1.0 -0.4180131253
O  O6  1  0.20719000  0.53645000  0.26130000  1.0 -0.4180131253
O  O7  1  0.46355000  0.79281000  0.76130000  1.0 -0.4180131253
O  O8  1  0.79281000  0.46355000  0.73870000  1.0 -0.4180131253
