# DDEC6 charges by PACMAN v1.1 (https://github.com/mtap-research/PACMAN-charge/)
data_TAGTED_ASR_pacman
_symmetry_space_group_name_H-M   'P 1'
_cell_length_a   13.23890000
_cell_length_b   13.23890000
_cell_length_c   15.56370000
_cell_angle_alpha   86.76160000
_cell_angle_beta   93.23840000
_cell_angle_gamma   118.90600000
_symmetry_Int_Tables_number   1
_chemical_formula_structural   MgC6SO4
_chemical_formula_sum   'Mg6 C36 S6 O24'
_cell_volume   2382.83396645
_cell_formula_units_Z   6
loop_
 _symmetry_equiv_pos_site_id
 _symmetry_equiv_pos_as_xyz
  1  'x, y, z'
loop_
 _atom_site_type_symbol
 _atom_site_label
 _atom_site_symmetry_multiplicity
 _atom_site_fract_x
 _atom_site_fract_y
 _atom_site_fract_z
 _atom_site_occupancy
 _atom_site_charge
Mg  Mg1  1  0.06077000  0.55707000  0.25496000  1.0 1.3615940337
Mg  Mg2  1  0.55707000  0.06077000  0.74504000  1.0 1.3615940337
Mg  Mg3  1  0.18281000  0.87481000  0.23796000  1.0 1.3615940337
Mg  Mg4  1  0.87481000  0.18281000  0.76204000  1.0 1.3663086418
Mg  Mg5  1  0.86699000  0.67859000  0.26594000  1.0 1.3615940337
Mg  Mg6  1  0.67859000  0.86699000  0.73406000  1.0 1.3615940337
C  C1  1  0.34160000  0.64060000  0.04180000  1.0 0.0343710581
C  C2  1  0.64060000  0.34160000  0.95820000  1.0 0.0343710581
C  C3  1  0.86810000  0.30170000  0.53170000  1.0 0.0123549329
C  C4  1  0.30170000  0.86810000  0.46830000  1.0 0.0123549329
C  C5  1  0.10220000  0.06860000  0.46350000  1.0 -0.0033507185
C  C6  1  0.06860000  0.10220000  0.53650000  1.0 -0.0033507185
C  C7  1  0.84600000  0.80340000  0.03570000  1.0 -0.0033507185
C  C8  1  0.80340000  0.84600000  0.96430000  1.0 -0.0033507185
C  C9  1  0.02510000  0.95990000  0.44020000  1.0 -0.1502739962
C  C10  1  0.95990000  0.02510000  0.55980000  1.0 -0.1445350673
C  C11  1  0.45030000  0.78630000  0.94190000  1.0 -0.1502739962
C  C12  1  0.78630000  0.45030000  0.05810000  1.0 -0.1502739962
C  C13  1  0.42090000  0.67750000  0.96870000  1.0 0.0358231042
C  C14  1  0.67750000  0.42090000  0.03130000  1.0 0.0343710581
C  C15  1  0.31700000  0.72340000  0.06440000  1.0 -0.1502739962
C  C16  1  0.72340000  0.31700000  0.93560000  1.0 -0.1502739962
C  C17  1  0.03370000  0.89110000  0.37030000  1.0 0.6400339627
C  C18  1  0.89110000  0.03370000  0.62970000  1.0 0.6400339627
C  C19  1  0.95520000  0.88440000  0.06140000  1.0 -0.1502739962
C  C20  1  0.88440000  0.95520000  0.93860000  1.0 -0.1445350673
C  C21  1  0.52160000  0.85180000  0.86780000  1.0 0.6400339627
C  C22  1  0.85180000  0.52160000  0.13220000  1.0 0.6400339627
C  C23  1  0.03230000  0.87450000  0.13180000  1.0 0.6266229574
C  C24  1  0.87450000  0.03230000  0.86820000  1.0 0.6266229574
C  C25  1  0.90840000  0.38460000  0.46290000  1.0 -0.0033507185
C  C26  1  0.38460000  0.90840000  0.53710000  1.0 -0.0033507185
C  C27  1  0.24070000  0.71530000  0.13330000  1.0 0.6400339627
C  C28  1  0.71530000  0.24070000  0.86670000  1.0 0.6400339627
C  C29  1  0.85130000  0.51670000  0.37350000  1.0 0.6266229574
C  C30  1  0.51670000  0.85130000  0.62650000  1.0 0.6266229574
C  C31  1  0.69350000  0.20310000  0.62910000  1.0 0.6212008719
C  C32  1  0.20310000  0.69350000  0.37090000  1.0 0.6212008719
C  C33  1  0.76310000  0.28290000  0.56060000  1.0 -0.1655167367
C  C34  1  0.28290000  0.76310000  0.43940000  1.0 -0.1655167367
C  C35  1  0.83690000  0.42850000  0.44060000  1.0 -0.1502739962
C  C36  1  0.42850000  0.83690000  0.55940000  1.0 -0.1502739962
S  S1  1  0.38499000  0.84543000  0.00049000  1.0 0.1957839105
S  S2  1  0.84543000  0.38499000  0.99951000  1.0 0.1957839105
S  S3  1  0.90451000  0.90451000  0.50000000  1.0 0.215259311
S  S4  1  0.00717000  0.00717000  0.00000000  1.0 0.253168476
S  S5  1  0.71680000  0.36790000  0.50302000  1.0 0.2400779251
S  S6  1  0.36790000  0.71680000  0.49698000  1.0 0.2400779251
O  O1  1  0.94810000  0.79550000  0.35910000  1.0 -0.6389831256
O  O2  1  0.79550000  0.94810000  0.64090000  1.0 -0.6389831256
O  O3  1  0.23390000  0.80410000  0.14560000  1.0 -0.6389831256
O  O4  1  0.80410000  0.23390000  0.85440000  1.0 -0.6389831256
O  O5  1  0.74200000  0.16340000  0.68320000  1.0 -0.7131885167
O  O6  1  0.16340000  0.74200000  0.31680000  1.0 -0.7131885167
O  O7  1  0.19380000  0.62240000  0.17500000  1.0 -0.6325803276
O  O8  1  0.62240000  0.19380000  0.82500000  1.0 -0.6325803276
O  O9  1  0.12560000  0.93860000  0.33010000  1.0 -0.6389831256
O  O10  1  0.93860000  0.12560000  0.66990000  1.0 -0.6389831256
O  O11  1  0.56320000  0.80000000  0.82950000  1.0 -0.6389831256
O  O12  1  0.80000000  0.56320000  0.17050000  1.0 -0.6389831256
O  O13  1  0.99607000  0.78793000  0.18350000  1.0 -0.7047217961
O  O14  1  0.78793000  0.99607000  0.81650000  1.0 -0.7047217961
O  O15  1  0.13360000  0.95420000  0.13630000  1.0 -0.5916513976
O  O16  1  0.95420000  0.13360000  0.86370000  1.0 -0.5916513976
O  O17  1  0.53260000  0.94900000  0.84880000  1.0 -0.6499627705
O  O18  1  0.94900000  0.53260000  0.15120000  1.0 -0.6499627705
O  O19  1  0.77540000  0.54920000  0.36400000  1.0 -0.5962040301
O  O20  1  0.54920000  0.77540000  0.63600000  1.0 -0.5962040301
O  O21  1  0.58910000  0.17270000  0.63240000  1.0 -0.5757412191
O  O22  1  0.17270000  0.58910000  0.36760000  1.0 -0.5749937173
O  O23  1  0.93670000  0.55810000  0.32650000  1.0 -0.692778128
O  O24  1  0.55810000  0.93670000  0.67350000  1.0 -0.692778128
