# DDEC6 charges by PACMAN v1.1 (https://github.com/mtap-research/PACMAN-charge/)
data_TAGTUT_ASR_pacman
_symmetry_space_group_name_H-M   'P 1'
_cell_length_a   28.02680000
_cell_length_b   28.02680000
_cell_length_c   21.67200000
_cell_angle_alpha   67.25500000
_cell_angle_beta   112.74500000
_cell_angle_gamma   145.95600000
_symmetry_Int_Tables_number   1
_chemical_formula_structural   Mg5H24(C8O3)6
_chemical_formula_sum   'Mg20 H96 C192 O72'
_cell_volume   8716.38231402
_cell_formula_units_Z   4
loop_
 _symmetry_equiv_pos_site_id
 _symmetry_equiv_pos_as_xyz
  1  'x, y, z'
loop_
 _atom_site_type_symbol
 _atom_site_label
 _atom_site_symmetry_multiplicity
 _atom_site_fract_x
 _atom_site_fract_y
 _atom_site_fract_z
 _atom_site_occupancy
 _atom_site_charge
Mg  Mg1  1  0.75288000  0.75288000  0.75000000  1.0 1.376490994
Mg  Mg2  1  0.24712000  0.24712000  0.25000000  1.0 1.376490994
Mg  Mg3  1  0.81025000  0.91435000  0.70372000  1.0 1.432830109
Mg  Mg4  1  0.91435000  0.81025000  0.79628000  1.0 1.432830109
Mg  Mg5  1  0.18975000  0.08565000  0.29628000  1.0 1.432830109
Mg  Mg6  1  0.08565000  0.18975000  0.20372000  1.0 1.432830109
Mg  Mg7  1  0.59557000  0.71465000  0.67851000  1.0 1.4505487221
Mg  Mg8  1  0.71465000  0.59557000  0.82149000  1.0 1.4505487221
Mg  Mg9  1  0.40443000  0.28535000  0.32149000  1.0 1.4505487221
Mg  Mg10  1  0.28535000  0.40443000  0.17851000  1.0 1.4505487221
Mg  Mg11  1  0.45364000  0.83364000  0.04820000  1.0 1.4505487221
Mg  Mg12  1  0.83364000  0.45364000  0.45180000  1.0 1.4505487221
Mg  Mg13  1  0.54636000  0.16636000  0.95180000  1.0 1.4505487221
Mg  Mg14  1  0.16636000  0.54636000  0.54820000  1.0 1.4505487221
Mg  Mg15  1  0.50000000  0.00000000  0.00000000  1.0 1.376490994
Mg  Mg16  1  0.00000000  0.50000000  0.50000000  1.0 1.376490994
Mg  Mg17  1  0.65503000  0.04873000  0.05564000  1.0 1.4205360549
Mg  Mg18  1  0.04873000  0.65503000  0.44436000  1.0 1.4205360549
Mg  Mg19  1  0.34497000  0.95127000  0.94436000  1.0 1.4205360549
Mg  Mg20  1  0.95127000  0.34497000  0.55564000  1.0 1.4205360549
H  H1  1  0.44360000  0.77240000  0.26140000  1.0 0.1121335185
H  H2  1  0.77240000  0.44360000  0.23860000  1.0 0.1121335185
H  H3  1  0.55640000  0.22760000  0.73860000  1.0 0.1121335185
H  H4  1  0.22760000  0.55640000  0.76140000  1.0 0.1121335185
H  H5  1  0.69670000  0.01010000  0.26810000  1.0 0.1196925323
H  H6  1  0.01010000  0.69670000  0.23190000  1.0 0.1196925323
H  H7  1  0.30330000  0.98990000  0.73190000  1.0 0.1196925323
H  H8  1  0.98990000  0.30330000  0.76810000  1.0 0.1196925323
H  H9  1  0.54890000  0.78770000  0.48690000  1.0 0.1196925323
H  H10  1  0.78770000  0.54890000  0.01310000  1.0 0.1196925323
H  H11  1  0.45110000  0.21230000  0.51310000  1.0 0.1196925323
H  H12  1  0.21230000  0.45110000  0.98690000  1.0 0.1196925323
H  H13  1  0.52500000  0.79960000  0.95540000  1.0 0.1265581536
H  H14  1  0.79960000  0.52500000  0.54460000  1.0 0.1265581536
H  H15  1  0.47500000  0.20040000  0.04460000  1.0 0.1265581536
H  H16  1  0.20040000  0.47500000  0.45540000  1.0 0.1265581536
H  H17  1  0.80330000  0.03810000  0.90290000  1.0 0.1196925323
H  H18  1  0.03810000  0.80330000  0.59710000  1.0 0.1196925323
H  H19  1  0.19670000  0.96190000  0.09710000  1.0 0.1196925323
H  H20  1  0.96190000  0.19670000  0.40290000  1.0 0.1196925323
H  H21  1  0.76560000  0.95240000  0.83500000  1.0 0.1196925323
H  H22  1  0.95240000  0.76560000  0.66500000  1.0 0.1196925323
H  H23  1  0.23440000  0.04760000  0.16500000  1.0 0.1196925323
H  H24  1  0.04760000  0.23440000  0.33500000  1.0 0.1196925323
H  H25  1  0.52950000  0.71050000  0.82210000  1.0 0.1196925323
H  H26  1  0.71050000  0.52950000  0.67790000  1.0 0.1196925323
H  H27  1  0.47050000  0.28950000  0.17790000  1.0 0.1196925323
H  H28  1  0.28950000  0.47050000  0.32210000  1.0 0.1196925323
H  H29  1  0.94430000  0.01450000  0.55620000  1.0 0.1265581536
H  H30  1  0.01450000  0.94430000  0.94380000  1.0 0.1265581536
H  H31  1  0.05570000  0.98550000  0.44380000  1.0 0.1265581536
H  H32  1  0.98550000  0.05570000  0.05620000  1.0 0.1265581536
H  H33  1  0.91850000  0.84010000  0.63620000  1.0 0.1196925323
H  H34  1  0.84010000  0.91850000  0.86380000  1.0 0.1196925323
H  H35  1  0.08150000  0.15990000  0.36380000  1.0 0.1196925323
H  H36  1  0.15990000  0.08150000  0.13620000  1.0 0.1196925323
H  H37  1  0.97660000  0.88200000  0.54690000  1.0 0.1121335185
H  H38  1  0.88200000  0.97660000  0.95310000  1.0 0.1121335185
H  H39  1  0.02340000  0.11800000  0.45310000  1.0 0.1121335185
H  H40  1  0.11800000  0.02340000  0.04690000  1.0 0.1121335185
H  H41  1  0.46380000  0.74500000  0.38120000  1.0 0.1121335185
H  H42  1  0.74500000  0.46380000  0.11880000  1.0 0.1121335185
H  H43  1  0.53620000  0.25500000  0.61880000  1.0 0.1121335185
H  H44  1  0.25500000  0.53620000  0.88120000  1.0 0.1121335185
H  H45  1  0.78560000  0.05240000  0.38000000  1.0 0.1121335185
H  H46  1  0.05240000  0.78560000  0.12000000  1.0 0.1121335185
H  H47  1  0.21440000  0.94760000  0.62000000  1.0 0.1121335185
H  H48  1  0.94760000  0.21440000  0.88000000  1.0 0.1121335185
H  H49  1  0.80260000  0.01920000  0.49750000  1.0 0.1121335185
H  H50  1  0.01920000  0.80260000  0.00250000  1.0 0.1121335185
H  H51  1  0.19740000  0.98080000  0.50250000  1.0 0.1121335185
H  H52  1  0.98080000  0.19740000  0.99750000  1.0 0.1121335185
H  H53  1  0.76240000  0.04120000  0.97280000  1.0 0.1196925323
H  H54  1  0.04120000  0.76240000  0.52720000  1.0 0.1196925323
H  H55  1  0.23760000  0.95880000  0.02720000  1.0 0.1196925323
H  H56  1  0.95880000  0.23760000  0.47280000  1.0 0.1196925323
H  H57  1  0.48750000  0.71370000  0.88970000  1.0 0.1196925323
H  H58  1  0.71370000  0.48750000  0.61030000  1.0 0.1196925323
H  H59  1  0.51250000  0.28630000  0.11030000  1.0 0.1196925323
H  H60  1  0.28630000  0.51250000  0.38970000  1.0 0.1196925323
H  H61  1  0.45770000  0.52770000  0.05730000  1.0 0.1196925323
H  H62  1  0.52770000  0.45770000  0.44270000  1.0 0.1196925323
H  H63  1  0.54230000  0.47230000  0.94270000  1.0 0.1196925323
H  H64  1  0.47230000  0.54230000  0.55730000  1.0 0.1196925323
H  H65  1  0.60210000  0.67050000  0.87200000  1.0 0.1121335185
H  H66  1  0.67050000  0.60210000  0.62800000  1.0 0.1121335185
H  H67  1  0.39790000  0.32950000  0.12800000  1.0 0.1121335185
H  H68  1  0.32950000  0.39790000  0.37200000  1.0 0.1121335185
H  H69  1  0.54310000  0.63570000  0.95930000  1.0 0.1121335185
H  H70  1  0.63570000  0.54310000  0.54070000  1.0 0.1121335185
H  H71  1  0.45690000  0.36430000  0.04070000  1.0 0.1121335185
H  H72  1  0.36430000  0.45690000  0.45930000  1.0 0.1121335185
H  H73  1  0.26860000  0.86820000  0.70800000  1.0 0.1196925323
H  H74  1  0.86820000  0.26860000  0.79200000  1.0 0.1196925323
H  H75  1  0.73140000  0.13180000  0.29200000  1.0 0.1196925323
H  H76  1  0.13180000  0.73140000  0.20800000  1.0 0.1196925323
H  H77  1  0.18840000  0.76540000  0.62900000  1.0 0.1196925323
H  H78  1  0.76540000  0.18840000  0.87100000  1.0 0.1196925323
H  H79  1  0.81160000  0.23460000  0.37100000  1.0 0.1196925323
H  H80  1  0.23460000  0.81160000  0.12900000  1.0 0.1196925323
H  H81  1  0.32330000  0.90410000  0.81190000  1.0 0.1196925323
H  H82  1  0.90410000  0.32330000  0.68810000  1.0 0.1196925323
H  H83  1  0.67670000  0.09590000  0.18810000  1.0 0.1196925323
H  H84  1  0.09590000  0.67670000  0.31190000  1.0 0.1196925323
H  H85  1  0.12410000  0.56390000  0.70790000  1.0 0.1196925323
H  H86  1  0.56390000  0.12410000  0.79210000  1.0 0.1196925323
H  H87  1  0.87590000  0.43610000  0.29210000  1.0 0.1196925323
H  H88  1  0.43610000  0.87590000  0.20790000  1.0 0.1196925323
H  H89  1  0.26950000  0.71050000  0.88780000  1.0 0.1196925323
H  H90  1  0.71050000  0.26950000  0.61220000  1.0 0.1196925323
H  H91  1  0.73050000  0.28950000  0.11220000  1.0 0.1196925323
H  H92  1  0.28950000  0.73050000  0.38780000  1.0 0.1196925323
H  H93  1  0.17930000  0.60330000  0.81040000  1.0 0.1121335185
H  H94  1  0.60330000  0.17930000  0.68960000  1.0 0.1121335185
H  H95  1  0.82070000  0.39670000  0.18960000  1.0 0.1121335185
H  H96  1  0.39670000  0.82070000  0.31040000  1.0 0.1121335185
C  C1  1  0.67716000  0.89964000  0.50092000  1.0 -0.0086784164
C  C2  1  0.89964000  0.67716000  0.99908000  1.0 -0.0086784164
C  C3  1  0.32284000  0.10036000  0.49908000  1.0 -0.0086784164
C  C4  1  0.10036000  0.32284000  0.00092000  1.0 -0.0086784164
C  C5  1  0.88851000  0.90209000  0.65872000  1.0 0.6185974169
C  C6  1  0.90209000  0.88851000  0.84128000  1.0 0.6185974169
C  C7  1  0.11149000  0.09791000  0.34128000  1.0 0.6185974169
C  C8  1  0.09791000  0.11149000  0.15872000  1.0 0.6185974169
C  C9  1  0.68267000  0.86813000  0.57614000  1.0 0.6185974169
C  C10  1  0.86813000  0.68267000  0.92386000  1.0 0.6185974169
C  C11  1  0.31733000  0.13187000  0.42386000  1.0 0.6185974169
C  C12  1  0.13187000  0.31733000  0.07614000  1.0 0.6185974169
C  C13  1  0.93040000  0.92840000  0.60360000  1.0 -0.001288795
C  C14  1  0.92840000  0.93040000  0.89640000  1.0 -0.001288795
C  C15  1  0.06960000  0.07160000  0.39640000  1.0 -0.001288795
C  C16  1  0.07160000  0.06960000  0.10360000  1.0 -0.001288795
C  C17  1  0.61134000  0.92546000  0.01248000  1.0 0.6185974169
C  C18  1  0.92546000  0.61134000  0.48752000  1.0 0.6185974169
C  C19  1  0.38866000  0.07454000  0.98752000  1.0 0.6185974169
C  C20  1  0.07454000  0.38866000  0.51248000  1.0 0.6185974169
C  C21  1  0.49774000  0.81366000  0.28588000  1.0 -0.0996479404
C  C22  1  0.81366000  0.49774000  0.21412000  1.0 -0.0996479404
C  C23  1  0.50226000  0.18634000  0.71412000  1.0 -0.0996479404
C  C24  1  0.18634000  0.50226000  0.78588000  1.0 -0.0996479404
C  C25  1  0.58484000  0.85576000  0.39748000  1.0 0.058481559
C  C26  1  0.85576000  0.58484000  0.10252000  1.0 0.058481559
C  C27  1  0.41516000  0.14424000  0.60252000  1.0 0.058481559
C  C28  1  0.14424000  0.41516000  0.89748000  1.0 0.058481559
C  C29  1  0.56022000  0.90838000  0.17624000  1.0 0.6185974169
C  C30  1  0.90838000  0.56022000  0.32376000  1.0 0.6185974169
C  C31  1  0.43978000  0.09162000  0.82376000  1.0 0.6185974169
C  C32  1  0.09162000  0.43978000  0.67624000  1.0 0.6185974169
C  C33  1  0.64977000  0.95663000  0.28984000  1.0 -0.1503384072
C  C34  1  0.95663000  0.64977000  0.21016000  1.0 -0.1503384072
C  C35  1  0.35023000  0.04337000  0.71016000  1.0 -0.1503384072
C  C36  1  0.04337000  0.35023000  0.78984000  1.0 -0.1503384072
C  C37  1  0.57089000  0.89371000  0.25338000  1.0 -0.0241493218
C  C38  1  0.89371000  0.57089000  0.24662000  1.0 -0.0241493218
C  C39  1  0.42911000  0.10629000  0.74662000  1.0 -0.0241493218
C  C40  1  0.10629000  0.42911000  0.75338000  1.0 -0.0241493218
C  C41  1  0.65900000  0.93820000  0.36360000  1.0 0.0805991541
C  C42  1  0.93820000  0.65900000  0.13640000  1.0 0.0805991541
C  C43  1  0.34100000  0.06180000  0.63640000  1.0 0.0805991541
C  C44  1  0.06180000  0.34100000  0.86360000  1.0 0.0805991541
C  C45  1  0.64197000  0.92223000  0.96944000  1.0 -0.0086784164
C  C46  1  0.92223000  0.64197000  0.53056000  1.0 -0.0086784164
C  C47  1  0.35803000  0.07777000  0.03056000  1.0 -0.0086784164
C  C48  1  0.07777000  0.35803000  0.46944000  1.0 -0.0086784164
C  C49  1  0.59606000  0.83974000  0.46442000  1.0 -0.1301459198
C  C50  1  0.83974000  0.59606000  0.03558000  1.0 -0.1301459198
C  C51  1  0.40394000  0.16026000  0.53558000  1.0 -0.1301459198
C  C52  1  0.16026000  0.40394000  0.96442000  1.0 -0.1301459198
C  C53  1  0.58103000  0.84577000  0.94546000  1.0 -0.1397948091
C  C54  1  0.84577000  0.58103000  0.55454000  1.0 -0.1397948091
C  C55  1  0.41897000  0.15423000  0.05454000  1.0 -0.1397948091
C  C56  1  0.15423000  0.41897000  0.44546000  1.0 -0.1397948091
C  C57  1  0.60235000  0.83645000  0.90610000  1.0 0.058481559
C  C58  1  0.83645000  0.60235000  0.59390000  1.0 0.058481559
C  C59  1  0.39765000  0.16355000  0.09390000  1.0 0.058481559
C  C60  1  0.16355000  0.39765000  0.40610000  1.0 0.058481559
C  C61  1  0.68855000  0.91105000  0.89060000  1.0 0.0805991541
C  C62  1  0.91105000  0.68855000  0.60940000  1.0 0.0805991541
C  C63  1  0.31145000  0.08895000  0.10940000  1.0 0.0805991541
C  C64  1  0.08895000  0.31145000  0.39060000  1.0 0.0805991541
C  C65  1  0.74783000  0.98897000  0.91456000  1.0 -0.1760044706
C  C66  1  0.98897000  0.74783000  0.58544000  1.0 -0.1760044706
C  C67  1  0.25217000  0.01103000  0.08544000  1.0 -0.1760044706
C  C68  1  0.01103000  0.25217000  0.41456000  1.0 -0.1760044706
C  C69  1  0.66978000  0.82282000  0.77266000  1.0 0.6272744077
C  C70  1  0.82282000  0.66978000  0.72734000  1.0 0.6272744077
C  C71  1  0.33022000  0.17718000  0.22734000  1.0 0.6272744077
C  C72  1  0.17718000  0.33022000  0.27266000  1.0 0.6272744077
C  C73  1  0.65078000  0.83082000  0.82156000  1.0 -0.0265116164
C  C74  1  0.83082000  0.65078000  0.67844000  1.0 -0.0265116164
C  C75  1  0.34922000  0.16918000  0.17844000  1.0 -0.0265116164
C  C76  1  0.16918000  0.34922000  0.32156000  1.0 -0.0265116164
C  C77  1  0.71013000  0.90487000  0.84646000  1.0 -0.1503384072
C  C78  1  0.90487000  0.71013000  0.65354000  1.0 -0.1503384072
C  C79  1  0.28987000  0.09513000  0.15354000  1.0 -0.1503384072
C  C80  1  0.09513000  0.28987000  0.34646000  1.0 -0.1503384072
C  C81  1  0.56954000  0.76146000  0.83908000  1.0 -0.0911786146
C  C82  1  0.76146000  0.56954000  0.66092000  1.0 -0.0911786146
C  C83  1  0.43046000  0.23854000  0.16092000  1.0 -0.0911786146
C  C84  1  0.23854000  0.43046000  0.33908000  1.0 -0.0911786146
C  C85  1  0.95433000  0.99047000  0.55516000  1.0 -0.1397948091
C  C86  1  0.99047000  0.95433000  0.94484000  1.0 -0.1397948091
C  C87  1  0.04567000  0.00953000  0.44484000  1.0 -0.1397948091
C  C88  1  0.00953000  0.04567000  0.05516000  1.0 -0.1397948091
C  C89  1  0.99602000  0.02078000  0.50104000  1.0 0.058481559
C  C90  1  0.02078000  0.99602000  0.99896000  1.0 0.058481559
C  C91  1  0.00398000  0.97922000  0.49896000  1.0 0.058481559
C  C92  1  0.97922000  0.00398000  0.00104000  1.0 0.058481559
C  C93  1  0.93707000  0.88453000  0.60274000  1.0 -0.0807695724
C  C94  1  0.88453000  0.93707000  0.89726000  1.0 -0.0807695724
C  C95  1  0.06293000  0.11547000  0.39726000  1.0 -0.0807695724
C  C96  1  0.11547000  0.06293000  0.10274000  1.0 -0.0807695724
C  C97  1  0.97277000  0.91103000  0.54964000  1.0 -0.1599854889
C  C98  1  0.91103000  0.97277000  0.95036000  1.0 -0.1599854889
C  C99  1  0.02723000  0.08897000  0.45036000  1.0 -0.1599854889
C  C100  1  0.08897000  0.02723000  0.04964000  1.0 -0.1599854889
C  C101  1  0.51090000  0.79850000  0.35980000  1.0 -0.1503384072
C  C102  1  0.79850000  0.51090000  0.14020000  1.0 -0.1503384072
C  C103  1  0.48910000  0.20150000  0.64020000  1.0 -0.1503384072
C  C104  1  0.20150000  0.48910000  0.85980000  1.0 -0.1503384072
C  C105  1  0.73849000  0.99851000  0.40128000  1.0 -0.1760044706
C  C106  1  0.99851000  0.73849000  0.09872000  1.0 -0.1760044706
C  C107  1  0.26151000  0.00149000  0.59872000  1.0 -0.1760044706
C  C108  1  0.00149000  0.26151000  0.90128000  1.0 -0.1760044706
C  C109  1  0.74914000  0.97946000  0.47178000  1.0 -0.0911786146
C  C110  1  0.97946000  0.74914000  0.02822000  1.0 -0.0911786146
C  C111  1  0.25086000  0.02054000  0.52822000  1.0 -0.0911786146
C  C112  1  0.02054000  0.25086000  0.97178000  1.0 -0.0911786146
C  C113  1  0.72264000  0.99096000  0.95488000  1.0 -0.0807695724
C  C114  1  0.99096000  0.72264000  0.54512000  1.0 -0.0807695724
C  C115  1  0.27736000  0.00904000  0.04512000  1.0 -0.0807695724
C  C116  1  0.00904000  0.27736000  0.45488000  1.0 -0.0807695724
C  C117  1  0.54380000  0.76240000  0.87980000  1.0 -0.1503384072
C  C118  1  0.76240000  0.54380000  0.62020000  1.0 -0.1503384072
C  C119  1  0.45620000  0.23760000  0.12020000  1.0 -0.1503384072
C  C120  1  0.23760000  0.45620000  0.37980000  1.0 -0.1503384072
C  C121  1  0.63410000  0.61490000  0.84970000  1.0 0.6075951594
C  C122  1  0.61490000  0.63410000  0.65030000  1.0 0.6075951594
C  C123  1  0.36590000  0.38510000  0.15030000  1.0 0.6075951594
C  C124  1  0.38510000  0.36590000  0.34970000  1.0 0.6075951594
C  C125  1  0.57780000  0.57500000  0.90150000  1.0 0.0030289978
C  C126  1  0.57500000  0.57780000  0.59850000  1.0 0.0030289978
C  C127  1  0.42220000  0.42500000  0.09850000  1.0 0.0030289978
C  C128  1  0.42500000  0.42220000  0.40150000  1.0 0.0030289978
C  C129  1  0.45620000  0.49480000  0.05290000  1.0 -0.1503384072
C  C130  1  0.49480000  0.45620000  0.44710000  1.0 -0.1503384072
C  C131  1  0.54380000  0.50520000  0.94710000  1.0 -0.1503384072
C  C132  1  0.50520000  0.54380000  0.55290000  1.0 -0.1503384072
C  C133  1  0.49010000  0.51590000  0.99770000  1.0 0.058481559
C  C134  1  0.51590000  0.49010000  0.50230000  1.0 0.058481559
C  C135  1  0.50990000  0.48410000  0.00230000  1.0 0.058481559
C  C136  1  0.48410000  0.50990000  0.49770000  1.0 0.058481559
C  C137  1  0.57700000  0.62280000  0.90410000  1.0 -0.0911786146
C  C138  1  0.62280000  0.57700000  0.59590000  1.0 -0.0911786146
C  C139  1  0.42300000  0.37720000  0.09590000  1.0 -0.0911786146
C  C140  1  0.37720000  0.42300000  0.40410000  1.0 -0.0911786146
C  C141  1  0.53880000  0.60100000  0.95360000  1.0 -0.1599854889
C  C142  1  0.60100000  0.53880000  0.54640000  1.0 -0.1599854889
C  C143  1  0.46120000  0.39900000  0.04640000  1.0 -0.1599854889
C  C144  1  0.39900000  0.46120000  0.45360000  1.0 -0.1599854889
C  C145  1  0.10850000  0.63270000  0.58800000  1.0 0.5993271011
C  C146  1  0.63270000  0.10850000  0.91200000  1.0 0.5993271011
C  C147  1  0.89150000  0.36730000  0.41200000  1.0 0.5993271011
C  C148  1  0.36730000  0.89150000  0.08800000  1.0 0.5993271011
C  C149  1  0.26599000  0.83441000  0.74378000  1.0 -0.1599854889
C  C150  1  0.83441000  0.26599000  0.75622000  1.0 -0.1599854889
C  C151  1  0.73401000  0.16559000  0.25622000  1.0 -0.1599854889
C  C152  1  0.16559000  0.73401000  0.24378000  1.0 -0.1599854889
C  C153  1  0.18650000  0.73270000  0.66590000  1.0 -0.1503384072
C  C154  1  0.73270000  0.18650000  0.83410000  1.0 -0.1503384072
C  C155  1  0.81350000  0.26730000  0.33410000  1.0 -0.1503384072
C  C156  1  0.26730000  0.81350000  0.16590000  1.0 -0.1503384072
C  C157  1  0.30011000  0.85629000  0.80562000  1.0 -0.0707691473
C  C158  1  0.85629000  0.30011000  0.69438000  1.0 -0.0707691473
C  C159  1  0.69989000  0.14371000  0.19438000  1.0 -0.0707691473
C  C160  1  0.14371000  0.69989000  0.30562000  1.0 -0.0707691473
C  C161  1  0.14747000  0.61213000  0.71334000  1.0 -0.0807695724
C  C162  1  0.61213000  0.14747000  0.78666000  1.0 -0.0807695724
C  C163  1  0.85253000  0.38787000  0.28666000  1.0 -0.0807695724
C  C164  1  0.38787000  0.85253000  0.21334000  1.0 -0.0807695724
C  C165  1  0.35440000  0.84520000  0.92720000  1.0 0.6185974169
C  C166  1  0.84520000  0.35440000  0.57280000  1.0 0.6185974169
C  C167  1  0.64560000  0.15480000  0.07280000  1.0 0.6185974169
C  C168  1  0.15480000  0.64560000  0.42720000  1.0 0.6185974169
C  C169  1  0.26613000  0.73987000  0.85236000  1.0 -0.1301459198
C  C170  1  0.73987000  0.26613000  0.64764000  1.0 -0.1301459198
C  C171  1  0.73387000  0.26013000  0.14764000  1.0 -0.1301459198
C  C172  1  0.26013000  0.73387000  0.35236000  1.0 -0.1301459198
C  C173  1  0.22563000  0.75937000  0.73226000  1.0 0.058481559
C  C174  1  0.75937000  0.22563000  0.76774000  1.0 0.058481559
C  C175  1  0.77437000  0.24063000  0.26774000  1.0 0.058481559
C  C176  1  0.24063000  0.77437000  0.23226000  1.0 0.058481559
C  C177  1  0.22179000  0.70981000  0.78708000  1.0 0.058481559
C  C178  1  0.70981000  0.22179000  0.71292000  1.0 0.058481559
C  C179  1  0.77821000  0.29019000  0.21292000  1.0 0.058481559
C  C180  1  0.29019000  0.77821000  0.28708000  1.0 0.058481559
C  C181  1  0.14579000  0.65741000  0.65778000  1.0 0.0030289978
C  C182  1  0.65741000  0.14579000  0.84222000  1.0 0.0030289978
C  C183  1  0.85421000  0.34259000  0.34222000  1.0 0.0030289978
C  C184  1  0.34259000  0.85421000  0.15778000  1.0 0.0030289978
C  C185  1  0.30370000  0.81290000  0.86180000  1.0 -0.0417312386
C  C186  1  0.81290000  0.30370000  0.63820000  1.0 -0.0417312386
C  C187  1  0.69630000  0.18710000  0.13820000  1.0 -0.0417312386
C  C188  1  0.18710000  0.69630000  0.36180000  1.0 -0.0417312386
C  C189  1  0.18198000  0.63682000  0.77436000  1.0 -0.1503384072
C  C190  1  0.63682000  0.18198000  0.72564000  1.0 -0.1503384072
C  C191  1  0.81802000  0.36318000  0.22564000  1.0 -0.1503384072
C  C192  1  0.36318000  0.81802000  0.27436000  1.0 -0.1503384072
O  O1  1  0.66423000  0.67677000  0.81106000  1.0 -0.5335876209
O  O2  1  0.67677000  0.66423000  0.68894000  1.0 -0.5335876209
O  O3  1  0.33577000  0.32323000  0.18894000  1.0 -0.5335876209
O  O4  1  0.32323000  0.33577000  0.31106000  1.0 -0.5335876209
O  O5  1  0.76051000  0.92869000  0.61012000  1.0 -0.6485521607
O  O6  1  0.92869000  0.76051000  0.88988000  1.0 -0.6485521607
O  O7  1  0.23949000  0.07131000  0.38988000  1.0 -0.6485521607
O  O8  1  0.07131000  0.23949000  0.11012000  1.0 -0.6485521607
O  O9  1  0.63841000  0.57019000  0.85612000  1.0 -0.6485521607
O  O10  1  0.57019000  0.63841000  0.64388000  1.0 -0.6485521607
O  O11  1  0.36159000  0.42981000  0.14388000  1.0 -0.6485521607
O  O12  1  0.42981000  0.36159000  0.35612000  1.0 -0.6485521607
O  O13  1  0.74597000  0.88983000  0.75844000  1.0 -0.6196642009
O  O14  1  0.88983000  0.74597000  0.74156000  1.0 -0.6196642009
O  O15  1  0.25403000  0.11017000  0.24156000  1.0 -0.6196642009
O  O16  1  0.11017000  0.25403000  0.25844000  1.0 -0.6196642009
O  O17  1  0.61774000  0.79326000  0.60028000  1.0 -0.6196642009
O  O18  1  0.79326000  0.61774000  0.89972000  1.0 -0.6196642009
O  O19  1  0.38226000  0.20674000  0.39972000  1.0 -0.6196642009
O  O20  1  0.20674000  0.38226000  0.10028000  1.0 -0.6196642009
O  O21  1  0.60781000  0.75039000  0.75102000  1.0 -0.6370850665
O  O22  1  0.75039000  0.60781000  0.74898000  1.0 -0.6370850665
O  O23  1  0.39219000  0.24961000  0.24898000  1.0 -0.6370850665
O  O24  1  0.24961000  0.39219000  0.25102000  1.0 -0.6370850665
O  O25  1  0.86101000  0.83719000  0.70292000  1.0 -0.6300294063
O  O26  1  0.83719000  0.86101000  0.79708000  1.0 -0.6300294063
O  O27  1  0.13899000  0.16281000  0.29708000  1.0 -0.6300294063
O  O28  1  0.16281000  0.13899000  0.20292000  1.0 -0.6300294063
O  O29  1  0.88168000  0.93952000  0.65826000  1.0 -0.570079462
O  O30  1  0.93952000  0.88168000  0.84174000  1.0 -0.570079462
O  O31  1  0.11832000  0.06048000  0.34174000  1.0 -0.570079462
O  O32  1  0.06048000  0.11832000  0.15826000  1.0 -0.570079462
O  O33  1  0.71794000  0.79446000  0.69404000  1.0 -1.1864505631
O  O34  1  0.79446000  0.71794000  0.80596000  1.0 -1.1864505631
O  O35  1  0.28206000  0.20554000  0.30596000  1.0 -1.1864505631
O  O36  1  0.20554000  0.28206000  0.19404000  1.0 -1.1844420296
O  O37  1  0.66755000  0.99485000  0.03410000  1.0 -0.6015697496
O  O38  1  0.99485000  0.66755000  0.46590000  1.0 -0.6015697496
O  O39  1  0.33245000  0.00515000  0.96590000  1.0 -0.6015697496
O  O40  1  0.00515000  0.33245000  0.53410000  1.0 -0.6015697496
O  O41  1  0.53104000  0.85736000  0.01818000  1.0 -0.6485521607
O  O42  1  0.85736000  0.53104000  0.48182000  1.0 -0.6485521607
O  O43  1  0.46896000  0.14264000  0.98182000  1.0 -0.6485521607
O  O44  1  0.14264000  0.46896000  0.51818000  1.0 -0.6485521607
O  O45  1  0.62714000  0.98466000  0.15108000  1.0 -0.6196642009
O  O46  1  0.98466000  0.62714000  0.34892000  1.0 -0.6196642009
O  O47  1  0.37286000  0.01534000  0.84892000  1.0 -0.6196642009
O  O48  1  0.01534000  0.37286000  0.65108000  1.0 -0.6196642009
O  O49  1  0.48997000  0.84603000  0.14584000  1.0 -0.6196642009
O  O50  1  0.84603000  0.48997000  0.35416000  1.0 -0.6196642009
O  O51  1  0.51003000  0.15397000  0.85416000  1.0 -0.6196642009
O  O52  1  0.15397000  0.51003000  0.64584000  1.0 -0.6196642009
O  O53  1  0.53001000  0.95319000  0.02310000  1.0 -1.1844420296
O  O54  1  0.95319000  0.53001000  0.47690000  1.0 -1.1844420296
O  O55  1  0.46999000  0.04681000  0.97690000  1.0 -1.1864505631
O  O56  1  0.04681000  0.46999000  0.52310000  1.0 -1.1864505631
O  O57  1  0.36667000  0.81013000  0.97014000  1.0 -0.6058607561
O  O58  1  0.81013000  0.36667000  0.52986000  1.0 -0.6015697496
O  O59  1  0.63333000  0.18987000  0.02986000  1.0 -0.6015697496
O  O60  1  0.18987000  0.63333000  0.47014000  1.0 -0.6015697496
O  O61  1  0.07346000  0.56494000  0.58402000  1.0 -0.5498881203
O  O62  1  0.56494000  0.07346000  0.91598000  1.0 -0.5498881203
O  O63  1  0.92654000  0.43506000  0.41598000  1.0 -0.5498881203
O  O64  1  0.43506000  0.92654000  0.08402000  1.0 -0.5498881203
O  O65  1  0.11296000  0.68004000  0.53972000  1.0 -0.6300294063
O  O66  1  0.68004000  0.11296000  0.96028000  1.0 -0.6300294063
O  O67  1  0.88704000  0.31996000  0.46028000  1.0 -0.6300294063
O  O68  1  0.31996000  0.88704000  0.03972000  1.0 -0.6300294063
O  O69  1  0.38421000  0.90959000  0.93702000  1.0 -0.6300294063
O  O70  1  0.90959000  0.38421000  0.56298000  1.0 -0.6300294063
O  O71  1  0.61579000  0.09041000  0.06298000  1.0 -0.6300294063
O  O72  1  0.09041000  0.61579000  0.43702000  1.0 -0.6300294063
