# DDEC6 charges by PACMAN v1.1 (https://github.com/mtap-research/PACMAN-charge/)
data_TAHFUH_FSR_pacman
_symmetry_space_group_name_H-M   'P 1'
_cell_length_a   15.78000000
_cell_length_b   18.40000000
_cell_length_c   19.78000000
_cell_angle_alpha   90.00000000
_cell_angle_beta   95.24000000
_cell_angle_gamma   90.00000000
_symmetry_Int_Tables_number   1
_chemical_formula_structural   ZnH16C24S(NO)4
_chemical_formula_sum   'Zn8 H128 C192 S8 N32 O32'
_cell_volume   5719.16120857
_cell_formula_units_Z   8
loop_
 _symmetry_equiv_pos_site_id
 _symmetry_equiv_pos_as_xyz
  1  'x, y, z'
loop_
 _atom_site_type_symbol
 _atom_site_label
 _atom_site_symmetry_multiplicity
 _atom_site_fract_x
 _atom_site_fract_y
 _atom_site_fract_z
 _atom_site_occupancy
 _atom_site_charge
Zn  Zn1  1  0.35732000  0.05667000  0.82397000  1.0 0.7924373446
Zn  Zn2  1  0.13191000  0.94350000  0.82960000  1.0 0.795176625
Zn  Zn3  1  0.85732000  0.44333000  0.82397000  1.0 0.7924373446
Zn  Zn4  1  0.63191000  0.55650000  0.82960000  1.0 0.795176625
Zn  Zn5  1  0.14268000  0.55667000  0.17603000  1.0 0.7924373446
Zn  Zn6  1  0.36809000  0.44350000  0.17040000  1.0 0.795176625
Zn  Zn7  1  0.64268000  0.94333000  0.17603000  1.0 0.7924373446
Zn  Zn8  1  0.86809000  0.05650000  0.17040000  1.0 0.795176625
H  H1  1  0.15200000  0.34943000  0.82528000  1.0 0.129726191
H  H2  1  0.25318000  0.76181000  0.83272000  1.0 0.129726191
H  H3  1  0.21285000  0.85625000  0.95404000  1.0 0.1109067807
H  H4  1  0.23471000  0.23861000  0.82173000  1.0 0.129726191
H  H5  1  0.33690000  0.65063000  0.83165000  1.0 0.129726191
H  H6  1  0.07068000  0.03497000  0.70392000  1.0 0.1109067807
H  H7  1  0.28725000  0.14849000  0.94088000  1.0 0.1109067807
H  H8  1  0.11339000  0.99939000  0.26755000  1.0 0.129726191
H  H9  1  0.27823000  0.13601000  0.69677000  1.0 0.1189893948
H  H10  1  0.42939000  0.97017000  0.71066000  1.0 0.1109067807
H  H11  1  0.07576000  0.03970000  0.59026000  1.0 0.129726191
H  H12  1  0.11870000  0.99078000  0.48316000  1.0 0.0907893448
H  H13  1  0.28101000  0.13690000  0.58083000  1.0 0.1416696929
H  H14  1  0.38964000  0.00991000  0.48085000  1.0 0.0907893448
H  H15  1  0.42292000  0.96702000  0.06239000  1.0 0.1416696929
H  H16  1  0.43529000  0.96702000  0.59518000  1.0 0.129726191
H  H17  1  0.35181000  0.99167000  0.26291000  1.0 0.129726191
H  H18  1  0.08123000  0.03469000  0.06261000  1.0 0.1416696929
H  H19  1  0.10809000  0.99984000  0.38376000  1.0 0.1109067807
H  H20  1  0.35075000  0.98877000  0.38019000  1.0 0.1109067807
H  H21  1  0.23013000  0.80918000  0.28068000  1.0 0.129726191
H  H22  1  0.11163000  0.97942000  0.17282000  1.0 0.1109067807
H  H23  1  0.22780000  0.81046000  0.39556000  1.0 0.129726191
H  H24  1  0.33134000  0.20405000  0.26695000  1.0 0.129726191
H  H25  1  0.20096000  0.85387000  0.59844000  1.0 0.1416696929
H  H26  1  0.21495000  0.85224000  0.06989000  1.0 0.1416696929
H  H27  1  0.29384000  0.15201000  0.05653000  1.0 0.1416696929
H  H28  1  0.41592000  0.96926000  0.94669000  1.0 0.1109067807
H  H29  1  0.39887000  0.02194000  0.17014000  1.0 0.1109067807
H  H30  1  0.19197000  0.85326000  0.71353000  1.0 0.1109067807
H  H31  1  0.08343000  0.03407000  0.94748000  1.0 0.1109067807
H  H32  1  0.33743000  0.20143000  0.38305000  1.0 0.129726191
H  H33  1  0.65200000  0.15057000  0.82528000  1.0 0.129726191
H  H34  1  0.75318000  0.73819000  0.83272000  1.0 0.129726191
H  H35  1  0.71285000  0.64375000  0.95404000  1.0 0.1109067807
H  H36  1  0.73471000  0.26139000  0.82173000  1.0 0.129726191
H  H37  1  0.83690000  0.84937000  0.83165000  1.0 0.129726191
H  H38  1  0.57068000  0.46503000  0.70392000  1.0 0.1109067807
H  H39  1  0.78725000  0.35151000  0.94088000  1.0 0.1109067807
H  H40  1  0.61339000  0.50061000  0.26755000  1.0 0.129726191
H  H41  1  0.77823000  0.36399000  0.69677000  1.0 0.1189893948
H  H42  1  0.92939000  0.52983000  0.71066000  1.0 0.1109067807
H  H43  1  0.57576000  0.46030000  0.59026000  1.0 0.129726191
H  H44  1  0.61870000  0.50922000  0.48316000  1.0 0.0907893448
H  H45  1  0.78101000  0.36310000  0.58083000  1.0 0.1416696929
H  H46  1  0.88964000  0.49009000  0.48085000  1.0 0.0907893448
H  H47  1  0.92292000  0.53298000  0.06239000  1.0 0.1416696929
H  H48  1  0.93529000  0.53298000  0.59518000  1.0 0.129726191
H  H49  1  0.85181000  0.50833000  0.26291000  1.0 0.129726191
H  H50  1  0.58123000  0.46531000  0.06261000  1.0 0.1416696929
H  H51  1  0.60809000  0.50016000  0.38376000  1.0 0.1109067807
H  H52  1  0.85075000  0.51123000  0.38019000  1.0 0.1109067807
H  H53  1  0.73013000  0.69082000  0.28068000  1.0 0.129726191
H  H54  1  0.61163000  0.52058000  0.17282000  1.0 0.1109067807
H  H55  1  0.72780000  0.68954000  0.39556000  1.0 0.129726191
H  H56  1  0.83134000  0.29595000  0.26695000  1.0 0.129726191
H  H57  1  0.70096000  0.64613000  0.59844000  1.0 0.1416696929
H  H58  1  0.71495000  0.64776000  0.06989000  1.0 0.1416696929
H  H59  1  0.79384000  0.34799000  0.05653000  1.0 0.1416696929
H  H60  1  0.91592000  0.53074000  0.94669000  1.0 0.1109067807
H  H61  1  0.89887000  0.47806000  0.17014000  1.0 0.1109067807
H  H62  1  0.69197000  0.64674000  0.71353000  1.0 0.1109067807
H  H63  1  0.58343000  0.46593000  0.94748000  1.0 0.1109067807
H  H64  1  0.83743000  0.29857000  0.38305000  1.0 0.129726191
H  H65  1  0.34800000  0.84943000  0.17472000  1.0 0.129726191
H  H66  1  0.24682000  0.26181000  0.16728000  1.0 0.129726191
H  H67  1  0.28715000  0.35625000  0.04596000  1.0 0.1109067807
H  H68  1  0.26529000  0.73861000  0.17827000  1.0 0.129726191
H  H69  1  0.16310000  0.15063000  0.16835000  1.0 0.129726191
H  H70  1  0.42932000  0.53497000  0.29608000  1.0 0.1109067807
H  H71  1  0.21275000  0.64849000  0.05912000  1.0 0.1109067807
H  H72  1  0.38661000  0.49939000  0.73245000  1.0 0.129726191
H  H73  1  0.22177000  0.63601000  0.30323000  1.0 0.1189893948
H  H74  1  0.07061000  0.47017000  0.28934000  1.0 0.1109067807
H  H75  1  0.42424000  0.53970000  0.40974000  1.0 0.129726191
H  H76  1  0.38130000  0.49078000  0.51684000  1.0 0.0907893448
H  H77  1  0.21899000  0.63690000  0.41917000  1.0 0.1416696929
H  H78  1  0.11036000  0.50991000  0.51915000  1.0 0.0907893448
H  H79  1  0.07708000  0.46702000  0.93761000  1.0 0.1416696929
H  H80  1  0.06471000  0.46702000  0.40482000  1.0 0.129726191
H  H81  1  0.14819000  0.49167000  0.73709000  1.0 0.129726191
H  H82  1  0.41877000  0.53469000  0.93739000  1.0 0.1416696929
H  H83  1  0.39191000  0.49984000  0.61624000  1.0 0.1109067807
H  H84  1  0.14925000  0.48877000  0.61981000  1.0 0.1109067807
H  H85  1  0.26987000  0.30918000  0.71932000  1.0 0.129726191
H  H86  1  0.38837000  0.47942000  0.82718000  1.0 0.1109067807
H  H87  1  0.27220000  0.31046000  0.60444000  1.0 0.129726191
H  H88  1  0.16866000  0.70405000  0.73305000  1.0 0.129726191
H  H89  1  0.29904000  0.35387000  0.40156000  1.0 0.1416696929
H  H90  1  0.28505000  0.35224000  0.93011000  1.0 0.1416696929
H  H91  1  0.20616000  0.65201000  0.94347000  1.0 0.1416696929
H  H92  1  0.08408000  0.46926000  0.05331000  1.0 0.1109067807
H  H93  1  0.10113000  0.52194000  0.82986000  1.0 0.1109067807
H  H94  1  0.30803000  0.35326000  0.28647000  1.0 0.1109067807
H  H95  1  0.41657000  0.53407000  0.05252000  1.0 0.1109067807
H  H96  1  0.16257000  0.70143000  0.61695000  1.0 0.129726191
H  H97  1  0.84800000  0.65057000  0.17472000  1.0 0.129726191
H  H98  1  0.74682000  0.23819000  0.16728000  1.0 0.129726191
H  H99  1  0.78715000  0.14375000  0.04596000  1.0 0.1109067807
H  H100  1  0.76529000  0.76139000  0.17827000  1.0 0.129726191
H  H101  1  0.66310000  0.34937000  0.16835000  1.0 0.129726191
H  H102  1  0.92932000  0.96503000  0.29608000  1.0 0.1109067807
H  H103  1  0.71275000  0.85151000  0.05912000  1.0 0.1109067807
H  H104  1  0.88661000  0.00061000  0.73245000  1.0 0.129726191
H  H105  1  0.72177000  0.86399000  0.30323000  1.0 0.1189893948
H  H106  1  0.57061000  0.02983000  0.28934000  1.0 0.1109067807
H  H107  1  0.92424000  0.96030000  0.40974000  1.0 0.129726191
H  H108  1  0.88130000  0.00922000  0.51684000  1.0 0.0907893448
H  H109  1  0.71899000  0.86310000  0.41917000  1.0 0.1416696929
H  H110  1  0.61036000  0.99009000  0.51915000  1.0 0.0907893448
H  H111  1  0.57708000  0.03298000  0.93761000  1.0 0.1416696929
H  H112  1  0.56471000  0.03298000  0.40482000  1.0 0.129726191
H  H113  1  0.64819000  0.00833000  0.73709000  1.0 0.129726191
H  H114  1  0.91877000  0.96531000  0.93739000  1.0 0.1416696929
H  H115  1  0.89191000  0.00016000  0.61624000  1.0 0.1109067807
H  H116  1  0.64925000  0.01123000  0.61981000  1.0 0.1109067807
H  H117  1  0.76987000  0.19082000  0.71932000  1.0 0.129726191
H  H118  1  0.88837000  0.02058000  0.82718000  1.0 0.1109067807
H  H119  1  0.77220000  0.18954000  0.60444000  1.0 0.129726191
H  H120  1  0.66866000  0.79595000  0.73305000  1.0 0.129726191
H  H121  1  0.79904000  0.14613000  0.40156000  1.0 0.1416696929
H  H122  1  0.78505000  0.14776000  0.93011000  1.0 0.1416696929
H  H123  1  0.70616000  0.84799000  0.94347000  1.0 0.1416696929
H  H124  1  0.58408000  0.03074000  0.05331000  1.0 0.1109067807
H  H125  1  0.60113000  0.97806000  0.82986000  1.0 0.1109067807
H  H126  1  0.80803000  0.14674000  0.28647000  1.0 0.1109067807
H  H127  1  0.91657000  0.96593000  0.05252000  1.0 0.1109067807
H  H128  1  0.66257000  0.79857000  0.61695000  1.0 0.129726191
C  C1  1  0.36060000  0.82230000  0.82710000  1.0 -0.1310060798
C  C2  1  0.12780000  0.17680000  0.82140000  1.0 -0.1395584496
C  C3  1  0.12790000  0.30330000  0.82390000  1.0 -0.1395584496
C  C4  1  0.31180000  0.76110000  0.83040000  1.0 -0.1310060798
C  C5  1  0.04320000  0.29120000  0.82320000  1.0 -0.0864085743
C  C6  1  0.18520000  0.89270000  0.97610000  1.0 0.0796025579
C  C7  1  0.44390000  0.70890000  0.82590000  1.0 -0.0864085743
C  C8  1  0.17580000  0.23900000  0.82220000  1.0 -0.1310060798
C  C9  1  0.33240000  0.89930000  0.82790000  1.0 0.5690112186
C  C10  1  0.36030000  0.69690000  0.82970000  1.0 -0.1310060798
C  C11  1  0.09770000  0.99740000  0.68280000  1.0 0.0796025579
C  C12  1  0.51580000  0.65450000  0.82610000  1.0 0.546133518
C  C13  1  0.15660000  0.10050000  0.82110000  1.0 0.5690112186
C  C14  1  0.31590000  0.11170000  0.96570000  1.0 0.0703764642
C  C15  1  0.14880000  0.94480000  0.08030000  1.0 0.1109067807
C  C16  1  0.34390000  0.09460000  0.39280000  1.0 0.1643761479
C  C17  1  0.13590000  0.96060000  0.29340000  1.0 -0.1604054405
C  C18  1  0.31050000  0.10130000  0.67650000  1.0 0.0995197778
C  C19  1  0.39860000  0.00460000  0.68410000  1.0 0.0907893448
C  C20  1  0.10000000  0.00040000  0.61450000  1.0 -0.2096736508
C  C21  1  0.13940000  0.94950000  0.50630000  1.0 0.0565831031
C  C22  1  0.31170000  0.10190000  0.60660000  1.0 -0.1902824276
C  C23  1  0.36440000  0.04940000  0.50050000  1.0 0.0545847488
C  C24  1  0.39540000  0.00520000  0.03870000  1.0 -0.1902824276
C  C25  1  0.40250000  0.00200000  0.61450000  1.0 -0.200374868
C  C26  1  0.16740000  0.90460000  0.40180000  1.0 0.1643761479
C  C27  1  0.34760000  0.03490000  0.28680000  1.0 -0.1688397901
C  C28  1  0.10920000  0.99740000  0.04200000  1.0 -0.1902824276
C  C29  1  0.13320000  0.96100000  0.36300000  1.0 -0.1902824276
C  C30  1  0.34780000  0.03310000  0.35760000  1.0 -0.1803866925
C  C31  1  0.20530000  0.84820000  0.30120000  1.0 -0.1395584496
C  C32  1  0.14410000  0.94400000  0.15370000  1.0 0.0703764642
C  C33  1  0.17150000  0.90310000  0.26230000  1.0 0.1706408343
C  C34  1  0.20370000  0.84890000  0.37000000  1.0 -0.1604054405
C  C35  1  0.33650000  0.15960000  0.28930000  1.0 -0.1523817351
C  C36  1  0.13740000  0.94650000  0.58120000  1.0 0.0995197778
C  C37  1  0.35770000  0.05100000  0.57540000  1.0 0.0995197778
C  C38  1  0.17330000  0.89150000  0.61890000  1.0 -0.1803866925
C  C39  1  0.18750000  0.89030000  0.04600000  1.0 -0.1803866925
C  C40  1  0.35970000  0.05980000  0.07290000  1.0 0.1109067807
C  C41  1  0.97270000  0.34560000  0.82470000  1.0 0.5431586651
C  C42  1  0.31920000  0.11380000  0.03510000  1.0 -0.1688397901
C  C43  1  0.39060000  0.00690000  0.96900000  1.0 0.0796025579
C  C44  1  0.36740000  0.05870000  0.14750000  1.0 0.0703764642
C  C45  1  0.16820000  0.89210000  0.68840000  1.0 0.0907893448
C  C46  1  0.34130000  0.09860000  0.25270000  1.0 0.1706408343
C  C47  1  0.10990000  0.99610000  0.97220000  1.0 0.0796025579
C  C48  1  0.33910000  0.15810000  0.35900000  1.0 -0.1523817351
C  C49  1  0.86060000  0.67770000  0.82710000  1.0 -0.1310060798
C  C50  1  0.62780000  0.32320000  0.82140000  1.0 -0.1395584496
C  C51  1  0.62790000  0.19670000  0.82390000  1.0 -0.1310060798
C  C52  1  0.81180000  0.73890000  0.83040000  1.0 -0.1310060798
C  C53  1  0.54320000  0.20880000  0.82320000  1.0 -0.0864085743
C  C54  1  0.68520000  0.60730000  0.97610000  1.0 0.0796025579
C  C55  1  0.94390000  0.79110000  0.82590000  1.0 -0.0864085743
C  C56  1  0.67580000  0.26100000  0.82220000  1.0 -0.1310060798
C  C57  1  0.83240000  0.60070000  0.82790000  1.0 0.5690112186
C  C58  1  0.86030000  0.80310000  0.82970000  1.0 -0.1310060798
C  C59  1  0.59770000  0.50260000  0.68280000  1.0 0.0796025579
C  C60  1  0.01580000  0.84550000  0.82610000  1.0 0.546133518
C  C61  1  0.65660000  0.39950000  0.82110000  1.0 0.5690112186
C  C62  1  0.81590000  0.38830000  0.96570000  1.0 0.0703764642
C  C63  1  0.64880000  0.55520000  0.08030000  1.0 0.1109067807
C  C64  1  0.84390000  0.40540000  0.39280000  1.0 0.1643761479
C  C65  1  0.63590000  0.53940000  0.29340000  1.0 -0.1604054405
C  C66  1  0.81050000  0.39870000  0.67650000  1.0 0.0995197778
C  C67  1  0.89860000  0.49540000  0.68410000  1.0 0.0907893448
C  C68  1  0.60000000  0.49960000  0.61450000  1.0 -0.2096736508
C  C69  1  0.63940000  0.55050000  0.50630000  1.0 0.0565831031
C  C70  1  0.81170000  0.39810000  0.60660000  1.0 -0.1902824276
C  C71  1  0.86440000  0.45060000  0.50050000  1.0 0.0565831031
C  C72  1  0.89540000  0.49480000  0.03870000  1.0 -0.1902824276
C  C73  1  0.90250000  0.49800000  0.61450000  1.0 -0.200374868
C  C74  1  0.66740000  0.59540000  0.40180000  1.0 0.1643761479
C  C75  1  0.84760000  0.46510000  0.28680000  1.0 -0.1688397901
C  C76  1  0.60920000  0.50260000  0.04200000  1.0 -0.1902824276
C  C77  1  0.63320000  0.53900000  0.36300000  1.0 -0.1902824276
C  C78  1  0.84780000  0.46690000  0.35760000  1.0 -0.1803866925
C  C79  1  0.70530000  0.65180000  0.30120000  1.0 -0.1395584496
C  C80  1  0.64410000  0.55600000  0.15370000  1.0 0.0703764642
C  C81  1  0.67150000  0.59690000  0.26230000  1.0 0.1706408343
C  C82  1  0.70370000  0.65110000  0.37000000  1.0 -0.1604054405
C  C83  1  0.83650000  0.34040000  0.28930000  1.0 -0.1523817351
C  C84  1  0.63740000  0.55350000  0.58120000  1.0 0.0995197778
C  C85  1  0.85770000  0.44900000  0.57540000  1.0 0.0995197778
C  C86  1  0.67330000  0.60850000  0.61890000  1.0 -0.1803866925
C  C87  1  0.68750000  0.60970000  0.04600000  1.0 -0.1803866925
C  C88  1  0.85970000  0.44020000  0.07290000  1.0 0.1109067807
C  C89  1  0.47270000  0.15440000  0.82470000  1.0 0.5431586651
C  C90  1  0.81920000  0.38620000  0.03510000  1.0 -0.1688397901
C  C91  1  0.89060000  0.49310000  0.96900000  1.0 0.0796025579
C  C92  1  0.86740000  0.44130000  0.14750000  1.0 0.0703764642
C  C93  1  0.66820000  0.60790000  0.68840000  1.0 0.0907893448
C  C94  1  0.84130000  0.40140000  0.25270000  1.0 0.1706408343
C  C95  1  0.60990000  0.50390000  0.97220000  1.0 0.0796025579
C  C96  1  0.83910000  0.34190000  0.35900000  1.0 -0.1523817351
C  C97  1  0.13940000  0.32230000  0.17290000  1.0 -0.1310060798
C  C98  1  0.37220000  0.67680000  0.17860000  1.0 -0.1395584496
C  C99  1  0.37210000  0.80330000  0.17610000  1.0 -0.1395584496
C  C100  1  0.18820000  0.26110000  0.16960000  1.0 -0.1310060798
C  C101  1  0.45680000  0.79120000  0.17680000  1.0 -0.0864085743
C  C102  1  0.31480000  0.39270000  0.02390000  1.0 0.0796025579
C  C103  1  0.05610000  0.20890000  0.17410000  1.0 -0.0864085743
C  C104  1  0.32420000  0.73900000  0.17780000  1.0 -0.1310060798
C  C105  1  0.16760000  0.39930000  0.17210000  1.0 0.5690112186
C  C106  1  0.13970000  0.19690000  0.17030000  1.0 -0.1310060798
C  C107  1  0.40230000  0.49740000  0.31720000  1.0 0.0796025579
C  C108  1  0.98420000  0.15450000  0.17390000  1.0 0.546133518
C  C109  1  0.34340000  0.60050000  0.17890000  1.0 0.5690112186
C  C110  1  0.18410000  0.61170000  0.03430000  1.0 0.0703764642
C  C111  1  0.35120000  0.44480000  0.91970000  1.0 0.1109067807
C  C112  1  0.15610000  0.59460000  0.60720000  1.0 0.1643761479
C  C113  1  0.36410000  0.46060000  0.70660000  1.0 -0.1604054405
C  C114  1  0.18950000  0.60130000  0.32350000  1.0 0.0995197778
C  C115  1  0.10140000  0.50460000  0.31590000  1.0 0.0907893448
C  C116  1  0.40000000  0.50040000  0.38550000  1.0 -0.2096736508
C  C117  1  0.36060000  0.44950000  0.49370000  1.0 0.0565831031
C  C118  1  0.18830000  0.60190000  0.39340000  1.0 -0.1902824276
C  C119  1  0.13560000  0.54940000  0.49950000  1.0 0.0565831031
C  C120  1  0.10460000  0.50520000  0.96130000  1.0 -0.1902824276
C  C121  1  0.09750000  0.50200000  0.38550000  1.0 -0.200374868
C  C122  1  0.33260000  0.40460000  0.59820000  1.0 0.1643761479
C  C123  1  0.15240000  0.53490000  0.71320000  1.0 -0.1688397901
C  C124  1  0.39080000  0.49740000  0.95800000  1.0 -0.1902824276
C  C125  1  0.36680000  0.46100000  0.63700000  1.0 -0.1902824276
C  C126  1  0.15220000  0.53310000  0.64240000  1.0 -0.1803866925
C  C127  1  0.29470000  0.34820000  0.69880000  1.0 -0.1395584496
C  C128  1  0.35590000  0.44400000  0.84630000  1.0 0.0703764642
C  C129  1  0.32850000  0.40310000  0.73770000  1.0 0.1706408343
C  C130  1  0.29630000  0.34890000  0.63000000  1.0 -0.1604054405
C  C131  1  0.16350000  0.65960000  0.71070000  1.0 -0.1523817351
C  C132  1  0.36260000  0.44650000  0.41880000  1.0 0.0995197778
C  C133  1  0.14230000  0.55100000  0.42460000  1.0 0.0995197778
C  C134  1  0.32670000  0.39150000  0.38110000  1.0 -0.1803866925
C  C135  1  0.31250000  0.39030000  0.95400000  1.0 -0.1803866925
C  C136  1  0.14030000  0.55980000  0.92710000  1.0 0.1109067807
C  C137  1  0.52730000  0.84560000  0.17530000  1.0 0.5431586651
C  C138  1  0.18080000  0.61380000  0.96490000  1.0 -0.1688397901
C  C139  1  0.10940000  0.50690000  0.03100000  1.0 0.0796025579
C  C140  1  0.13260000  0.55870000  0.85250000  1.0 0.0703764642
C  C141  1  0.33180000  0.39210000  0.31160000  1.0 0.0907893448
C  C142  1  0.15870000  0.59860000  0.74730000  1.0 0.1706408343
C  C143  1  0.39010000  0.49610000  0.02780000  1.0 0.0796025579
C  C144  1  0.16090000  0.65810000  0.64100000  1.0 -0.1523817351
C  C145  1  0.63940000  0.17770000  0.17290000  1.0 -0.1310060798
C  C146  1  0.87220000  0.82320000  0.17860000  1.0 -0.1395584496
C  C147  1  0.87210000  0.69670000  0.17610000  1.0 -0.1395584496
C  C148  1  0.68820000  0.23890000  0.16960000  1.0 -0.1310060798
C  C149  1  0.95680000  0.70880000  0.17680000  1.0 -0.0864085743
C  C150  1  0.81480000  0.10730000  0.02390000  1.0 0.0796025579
C  C151  1  0.55610000  0.29110000  0.17410000  1.0 -0.0864085743
C  C152  1  0.82420000  0.76100000  0.17780000  1.0 -0.1310060798
C  C153  1  0.66760000  0.10070000  0.17210000  1.0 0.5690112186
C  C154  1  0.63970000  0.30310000  0.17030000  1.0 -0.1310060798
C  C155  1  0.90230000  0.00260000  0.31720000  1.0 0.0796025579
C  C156  1  0.48420000  0.34550000  0.17390000  1.0 0.546133518
C  C157  1  0.84340000  0.89950000  0.17890000  1.0 0.5690112186
C  C158  1  0.68410000  0.88830000  0.03430000  1.0 0.0703764642
C  C159  1  0.85120000  0.05520000  0.91970000  1.0 0.1109067807
C  C160  1  0.65610000  0.90540000  0.60720000  1.0 0.1643761479
C  C161  1  0.86410000  0.03940000  0.70660000  1.0 -0.1604054405
C  C162  1  0.68950000  0.89870000  0.32350000  1.0 0.0995197778
C  C163  1  0.60140000  0.99540000  0.31590000  1.0 0.0907893448
C  C164  1  0.90000000  0.99960000  0.38550000  1.0 -0.2096736508
C  C165  1  0.86060000  0.05050000  0.49370000  1.0 0.0565831031
C  C166  1  0.68830000  0.89810000  0.39340000  1.0 -0.1902824276
C  C167  1  0.63560000  0.95060000  0.49950000  1.0 0.0565831031
C  C168  1  0.60460000  0.99480000  0.96130000  1.0 -0.1902824276
C  C169  1  0.59750000  0.99800000  0.38550000  1.0 -0.200374868
C  C170  1  0.83260000  0.09540000  0.59820000  1.0 0.1706408343
C  C171  1  0.65240000  0.96510000  0.71320000  1.0 -0.1688397901
C  C172  1  0.89080000  0.00260000  0.95800000  1.0 -0.1902824276
C  C173  1  0.86680000  0.03900000  0.63700000  1.0 -0.1902824276
C  C174  1  0.65220000  0.96690000  0.64240000  1.0 -0.1803866925
C  C175  1  0.79470000  0.15180000  0.69880000  1.0 -0.1395584496
C  C176  1  0.85590000  0.05600000  0.84630000  1.0 0.0703764642
C  C177  1  0.82850000  0.09690000  0.73770000  1.0 0.1706408343
C  C178  1  0.79630000  0.15110000  0.63000000  1.0 -0.1604054405
C  C179  1  0.66350000  0.84040000  0.71070000  1.0 -0.1523817351
C  C180  1  0.86260000  0.05350000  0.41880000  1.0 0.0995197778
C  C181  1  0.64230000  0.94900000  0.42460000  1.0 0.0995197778
C  C182  1  0.82670000  0.10850000  0.38110000  1.0 -0.1803866925
C  C183  1  0.81250000  0.10970000  0.95400000  1.0 -0.1803866925
C  C184  1  0.64030000  0.94020000  0.92710000  1.0 0.1109067807
C  C185  1  0.02730000  0.65440000  0.17530000  1.0 0.5431586651
C  C186  1  0.68080000  0.88620000  0.96490000  1.0 -0.1688397901
C  C187  1  0.60940000  0.99310000  0.03100000  1.0 0.0796025579
C  C188  1  0.63260000  0.94130000  0.85250000  1.0 0.0703764642
C  C189  1  0.83180000  0.10790000  0.31160000  1.0 0.0907893448
C  C190  1  0.65870000  0.90140000  0.74730000  1.0 0.1706408343
C  C191  1  0.89010000  0.00390000  0.02780000  1.0 0.0796025579
C  C192  1  0.66090000  0.84190000  0.64100000  1.0 -0.1523817351
S  S1  1  0.46652000  0.80035000  0.82180000  1.0 0.1189893948
S  S2  1  0.02120000  0.19899000  0.82098000  1.0 0.129726191
S  S3  1  0.96652000  0.69965000  0.82180000  1.0 0.1189893948
S  S4  1  0.52120000  0.30101000  0.82098000  1.0 0.129726191
S  S5  1  0.03348000  0.30035000  0.17820000  1.0 0.1189893948
S  S6  1  0.47880000  0.69899000  0.17902000  1.0 0.129726191
S  S7  1  0.53348000  0.19965000  0.17820000  1.0 0.1189893948
S  S8  1  0.97880000  0.80101000  0.17902000  1.0 0.129726191
N  N1  1  0.35250000  0.05850000  0.93220000  1.0 -0.200374868
N  N2  1  0.13170000  0.94410000  0.72110000  1.0 -0.1902824276
N  N3  1  0.35360000  0.05330000  0.71530000  1.0 -0.1902824276
N  N4  1  0.14540000  0.94470000  0.93850000  1.0 -0.200374868
N  N5  1  0.18090000  0.89900000  0.19130000  1.0 -0.2628781016
N  N6  1  0.33340000  0.10530000  0.18090000  1.0 -0.2628781016
N  N7  1  0.33700000  0.09950000  0.46540000  1.0 -0.2473145576
N  N8  1  0.16700000  0.90040000  0.47430000  1.0 -0.2473145576
N  N9  1  0.85250000  0.44150000  0.93220000  1.0 -0.200374868
N  N10  1  0.63170000  0.55590000  0.72110000  1.0 -0.1902824276
N  N11  1  0.85360000  0.44670000  0.71530000  1.0 -0.1902824276
N  N12  1  0.64540000  0.55530000  0.93850000  1.0 -0.200374868
N  N13  1  0.68090000  0.60100000  0.19130000  1.0 -0.2628781016
N  N14  1  0.83340000  0.39470000  0.18090000  1.0 -0.2628781016
N  N15  1  0.83700000  0.40050000  0.46540000  1.0 -0.2473145576
N  N16  1  0.66700000  0.59960000  0.47430000  1.0 -0.2473145576
N  N17  1  0.14750000  0.55850000  0.06780000  1.0 -0.200374868
N  N18  1  0.36830000  0.44410000  0.27890000  1.0 -0.1902824276
N  N19  1  0.14640000  0.55330000  0.28470000  1.0 -0.1902824276
N  N20  1  0.35460000  0.44470000  0.06150000  1.0 -0.200374868
N  N21  1  0.31910000  0.39900000  0.80870000  1.0 -0.2628781016
N  N22  1  0.16660000  0.60530000  0.81910000  1.0 -0.2628781016
N  N23  1  0.16300000  0.59950000  0.53460000  1.0 -0.2473145576
N  N24  1  0.33300000  0.40040000  0.52570000  1.0 -0.2473145576
N  N25  1  0.64750000  0.94150000  0.06780000  1.0 -0.200374868
N  N26  1  0.86830000  0.05590000  0.27890000  1.0 -0.1902824276
N  N27  1  0.64640000  0.94670000  0.28470000  1.0 -0.1902824276
N  N28  1  0.85460000  0.05530000  0.06150000  1.0 -0.200374868
N  N29  1  0.81910000  0.10100000  0.80870000  1.0 -0.2628781016
N  N30  1  0.66666667  0.89470000  0.81910000  1.0 -0.2628781016
N  N31  1  0.66300000  0.90050000  0.53460000  1.0 -0.2473145576
N  N32  1  0.83300000  0.09960000  0.52570000  1.0 -0.2473145576
O  O1  1  0.10090000  0.05210000  0.82890000  1.0 -0.556158682
O  O2  1  0.38910000  0.94770000  0.82560000  1.0 -0.556158682
O  O3  1  0.23220000  0.08840000  0.81350000  1.0 -0.5474702569
O  O4  1  0.25650000  0.91110000  0.83400000  1.0 -0.5474702569
O  O5  1  0.89830000  0.32390000  0.82210000  1.0 -0.5433924126
O  O6  1  0.59010000  0.67500000  0.82430000  1.0 -0.5433924126
O  O7  1  0.99210000  0.41230000  0.82940000  1.0 -0.556158682
O  O8  1  0.49660000  0.58680000  0.82760000  1.0 -0.5658050033
O  O9  1  0.60090000  0.44790000  0.82890000  1.0 -0.556158682
O  O10  1  0.88910000  0.55230000  0.82560000  1.0 -0.556158682
O  O11  1  0.73220000  0.41160000  0.81350000  1.0 -0.5474702569
O  O12  1  0.75650000  0.58890000  0.83400000  1.0 -0.5474702569
O  O13  1  0.39830000  0.17610000  0.82210000  1.0 -0.5433924126
O  O14  1  0.09010000  0.82500000  0.82430000  1.0 -0.5433924126
O  O15  1  0.49210000  0.08770000  0.82940000  1.0 -0.556158682
O  O16  1  0.99660000  0.91320000  0.82760000  1.0 -0.5658050033
O  O17  1  0.39910000  0.55210000  0.17110000  1.0 -0.556158682
O  O18  1  0.11090000  0.44770000  0.17440000  1.0 -0.556158682
O  O19  1  0.26780000  0.58840000  0.18650000  1.0 -0.5474702569
O  O20  1  0.24350000  0.41110000  0.16600000  1.0 -0.5474702569
O  O21  1  0.60170000  0.82390000  0.17790000  1.0 -0.5433924126
O  O22  1  0.90990000  0.17500000  0.17570000  1.0 -0.5433924126
O  O23  1  0.50790000  0.91230000  0.17060000  1.0 -0.556158682
O  O24  1  0.00340000  0.08680000  0.17240000  1.0 -0.5658050033
O  O25  1  0.89910000  0.94790000  0.17110000  1.0 -0.556158682
O  O26  1  0.61090000  0.05230000  0.17440000  1.0 -0.556158682
O  O27  1  0.76780000  0.91160000  0.18650000  1.0 -0.5474702569
O  O28  1  0.74350000  0.08890000  0.16600000  1.0 -0.5474702569
O  O29  1  0.10170000  0.67610000  0.17790000  1.0 -0.5433924126
O  O30  1  0.40990000  0.32500000  0.17570000  1.0 -0.5433924126
O  O31  1  0.00790000  0.58770000  0.17060000  1.0 -0.556158682
O  O32  1  0.50340000  0.41320000  0.17240000  1.0 -0.5658050033
