# DDEC6 charges by PACMAN v1.1 (https://github.com/mtap-research/PACMAN-charge/)
data_TAHNEY_FSR_pacman
_symmetry_space_group_name_H-M   'P 1'
_cell_length_a   16.68200000
_cell_length_b   21.66200000
_cell_length_c   27.67400000
_cell_angle_alpha   90.00000000
_cell_angle_beta   96.49000000
_cell_angle_gamma   90.00000000
_symmetry_Int_Tables_number   1
_chemical_formula_structural   Cu18W5C14(S10N7)2
_chemical_formula_sum   'Cu36 W10 C28 S40 N28'
_cell_volume   9936.34164115
_cell_formula_units_Z   2
loop_
 _symmetry_equiv_pos_site_id
 _symmetry_equiv_pos_as_xyz
  1  'x, y, z'
loop_
 _atom_site_type_symbol
 _atom_site_label
 _atom_site_symmetry_multiplicity
 _atom_site_fract_x
 _atom_site_fract_y
 _atom_site_fract_z
 _atom_site_occupancy
 _atom_site_charge
Cu  Cu1  1  0.11740000  0.01536000  0.82968000  1.0 0.589052238
Cu  Cu2  1  0.88260000  0.51536000  0.17032000  1.0 0.589052238
Cu  Cu3  1  0.88260000  0.98464000  0.17032000  1.0 0.589052238
Cu  Cu4  1  0.11740000  0.48464000  0.82968000  1.0 0.589052238
Cu  Cu5  1  0.30754000  0.06814000  0.78681000  1.0 0.5087029864
Cu  Cu6  1  0.69246000  0.56814000  0.21319000  1.0 0.5087029864
Cu  Cu7  1  0.69246000  0.93186000  0.21319000  1.0 0.5087029864
Cu  Cu8  1  0.30754000  0.43186000  0.78681000  1.0 0.5087029864
Cu  Cu9  1  0.15899000  0.11834000  0.94072000  1.0 0.2841746439
Cu  Cu10  1  0.84101000  0.61834000  0.05928000  1.0 0.2841746439
Cu  Cu11  1  0.84101000  0.88166000  0.05928000  1.0 0.2841746439
Cu  Cu12  1  0.15899000  0.38166000  0.94072000  1.0 0.2841746439
Cu  Cu13  1  0.74751000  0.97955000  0.50792000  1.0 0.3639969905
Cu  Cu14  1  0.25249000  0.47955000  0.49208000  1.0 0.343077295
Cu  Cu15  1  0.25249000  0.02045000  0.49208000  1.0 0.343077295
Cu  Cu16  1  0.74751000  0.52045000  0.50792000  1.0 0.3653895338
Cu  Cu17  1  0.95422000  0.01321000  0.66623000  1.0 0.3276974042
Cu  Cu18  1  0.04578000  0.51321000  0.33377000  1.0 0.3276974042
Cu  Cu19  1  0.04578000  0.98679000  0.33377000  1.0 0.3276974042
Cu  Cu20  1  0.95422000  0.48679000  0.66623000  1.0 0.3276974042
Cu  Cu21  1  0.74027000  0.97406000  0.64488000  1.0 0.6505391081
Cu  Cu22  1  0.25973000  0.47406000  0.35512000  1.0 0.6213581641
Cu  Cu23  1  0.25973000  0.02594000  0.35512000  1.0 0.6213581641
Cu  Cu24  1  0.74027000  0.52594000  0.64488000  1.0 0.6505391081
Cu  Cu25  1  0.86051000  0.83366000  0.77834000  1.0 0.1681110156
Cu  Cu26  1  0.13949000  0.33366000  0.22166000  1.0 0.1681110156
Cu  Cu27  1  0.13949000  0.16634000  0.22166000  1.0 0.1681110156
Cu  Cu28  1  0.86051000  0.66634000  0.77834000  1.0 0.1681110156
Cu  Cu29  1  0.96315000  0.84726000  0.90600000  1.0 0.4096931298
Cu  Cu30  1  0.03685000  0.34726000  0.09400000  1.0 0.4283683007
Cu  Cu31  1  0.03685000  0.15274000  0.09400000  1.0 0.4283683007
Cu  Cu32  1  0.96315000  0.65274000  0.90600000  1.0 0.4096931298
Cu  Cu33  1  0.44908000  0.02852000  0.64111000  1.0 0.4283683007
Cu  Cu34  1  0.55092000  0.52852000  0.35889000  1.0 0.4626545091
Cu  Cu35  1  0.55092000  0.97148000  0.35889000  1.0 0.4626545091
Cu  Cu36  1  0.44908000  0.47148000  0.64111000  1.0 0.4283683007
W  W1  1  0.23700000  0.09600000  0.86470000  1.0 0.7037149548
W  W2  1  0.76300000  0.59600000  0.13530000  1.0 0.7037149548
W  W3  1  0.76300000  0.90400000  0.13530000  1.0 0.7037149548
W  W4  1  0.23700000  0.40400000  0.86470000  1.0 0.7037149548
W  W5  1  0.85662000  0.99781000  0.58440000  1.0 0.7037149548
W  W6  1  0.14338000  0.49781000  0.41560000  1.0 0.7418898125
W  W7  1  0.14338000  0.00219000  0.41560000  1.0 0.7418898125
W  W8  1  0.85662000  0.50219000  0.58440000  1.0 0.7037149548
W  W9  1  0.90949000  0.75000000  0.84479000  1.0 0.6344294925
W  W10  1  0.09051000  0.25000000  0.15521000  1.0 0.6359732528
C  C1  1  0.02800000  0.91020000  0.88020000  1.0 0.2179404676
C  C2  1  0.97200000  0.41020000  0.11980000  1.0 0.2070819442
C  C3  1  0.97200000  0.08980000  0.11980000  1.0 0.2070819442
C  C4  1  0.02800000  0.58980000  0.88020000  1.0 0.2179404676
C  C5  1  0.39440000  0.04140000  0.69770000  1.0 0.1918670644
C  C6  1  0.60560000  0.54140000  0.30230000  1.0 0.1681110156
C  C7  1  0.60560000  0.95860000  0.30230000  1.0 0.1681110156
C  C8  1  0.39440000  0.45860000  0.69770000  1.0 0.1918670644
C  C9  1  0.10590000  0.13290000  0.99540000  1.0 0.1589332712
C  C10  1  0.89410000  0.63290000  0.00460000  1.0 0.1589332712
C  C11  1  0.89410000  0.86710000  0.00460000  1.0 0.1589332712
C  C12  1  0.10590000  0.36710000  0.99540000  1.0 0.1589332712
C  C13  1  0.67150000  0.97070000  0.45220000  1.0 0.3186626812
C  C14  1  0.32850000  0.47070000  0.54780000  1.0 0.3186626812
C  C15  1  0.32850000  0.02930000  0.54780000  1.0 0.3149921377
C  C16  1  0.67150000  0.52930000  0.45220000  1.0 0.3186626812
C  C17  1  0.02440000  0.02170000  0.72450000  1.0 0.1918670644
C  C18  1  0.97560000  0.52170000  0.27550000  1.0 0.1918670644
C  C19  1  0.97560000  0.97830000  0.27550000  1.0 0.1964492728
C  C20  1  0.02440000  0.47830000  0.72450000  1.0 0.1918670644
C  C21  1  0.55990000  0.01030000  0.64400000  1.0 0.1681110156
C  C22  1  0.44010000  0.51030000  0.35600000  1.0 0.1502933917
C  C23  1  0.44010000  0.98970000  0.35600000  1.0 0.1502933917
C  C24  1  0.55990000  0.48970000  0.64400000  1.0 0.1681110156
C  C25  1  0.81820000  0.88850000  0.72890000  1.0 0.2179404676
C  C26  1  0.18180000  0.38850000  0.27110000  1.0 0.2179404676
C  C27  1  0.18180000  0.11150000  0.27110000  1.0 0.2179404676
C  C28  1  0.81820000  0.61150000  0.72890000  1.0 0.2179404676
S  S1  1  0.25592000  0.00096000  0.83637000  1.0 -0.5372144352
S  S2  1  0.74408000  0.50096000  0.16363000  1.0 -0.5372144352
S  S3  1  0.74408000  0.99904000  0.16363000  1.0 -0.5372144352
S  S4  1  0.25592000  0.49904000  0.83637000  1.0 -0.5372144352
S  S5  1  0.29190000  0.16190000  0.81765000  1.0 -0.4725237608
S  S6  1  0.70810000  0.66190000  0.18235000  1.0 -0.4725237608
S  S7  1  0.70810000  0.83810000  0.18235000  1.0 -0.4725237608
S  S8  1  0.29190000  0.33810000  0.81765000  1.0 -0.4725237608
S  S9  1  0.29166000  0.10330000  0.94109000  1.0 -0.32787843
S  S10  1  0.70834000  0.60330000  0.05891000  1.0 -0.32787843
S  S11  1  0.70834000  0.89670000  0.05891000  1.0 -0.32787843
S  S12  1  0.29166000  0.39670000  0.94109000  1.0 -0.32787843
S  S13  1  0.10445000  0.11299000  0.86342000  1.0 -0.4282757263
S  S14  1  0.89555000  0.61299000  0.13658000  1.0 -0.4282757263
S  S15  1  0.89555000  0.88701000  0.13658000  1.0 -0.4282757263
S  S16  1  0.10445000  0.38701000  0.86342000  1.0 -0.4282757263
S  S17  1  0.84240000  0.05312000  0.51705000  1.0 -0.4183249804
S  S18  1  0.15760000  0.55312000  0.48295000  1.0 -0.4183249804
S  S19  1  0.15760000  0.94688000  0.48295000  1.0 -0.4183249804
S  S20  1  0.84240000  0.44688000  0.51705000  1.0 -0.4183249804
S  S21  1  0.76619000  0.92070000  0.57467000  1.0 -0.4838047246
S  S22  1  0.23381000  0.42070000  0.42533000  1.0 -0.4872186005
S  S23  1  0.23381000  0.07930000  0.42533000  1.0 -0.4872186005
S  S24  1  0.76619000  0.57930000  0.57467000  1.0 -0.4872186005
S  S25  1  0.83146000  0.05595000  0.64790000  1.0 -0.4183249804
S  S26  1  0.16854000  0.55595000  0.35210000  1.0 -0.4601784791
S  S27  1  0.16854000  0.94405000  0.35210000  1.0 -0.4601784791
S  S28  1  0.83146000  0.44405000  0.64790000  1.0 -0.4183249804
S  S29  1  0.97939000  0.96025000  0.60035000  1.0 -0.3841178437
S  S30  1  0.02061000  0.46025000  0.39965000  1.0 -0.4095976944
S  S31  1  0.02061000  0.03975000  0.39965000  1.0 -0.4095976944
S  S32  1  0.97939000  0.53975000  0.60035000  1.0 -0.3841178437
S  S33  1  0.83825000  0.83440000  0.85646000  1.0 -0.3623413476
S  S34  1  0.16175000  0.33440000  0.14354000  1.0 -0.369284905
S  S35  1  0.16175000  0.16560000  0.14354000  1.0 -0.369284905
S  S36  1  0.83825000  0.66560000  0.85646000  1.0 -0.3623413476
S  S37  1  0.93580000  0.75000000  0.76662000  1.0 -0.2941601793
S  S38  1  0.06420000  0.25000000  0.23338000  1.0 -0.2978250007
S  S39  1  0.02240000  0.75000000  0.89456000  1.0 -0.3964983891
S  S40  1  0.97760000  0.25000000  0.10544000  1.0 -0.3964983891
N  N1  1  0.06480000  0.94730000  0.86160000  1.0 -0.4183249804
N  N2  1  0.93520000  0.44730000  0.13840000  1.0 -0.4095976944
N  N3  1  0.93520000  0.05270000  0.13840000  1.0 -0.4095976944
N  N4  1  0.06480000  0.55270000  0.86160000  1.0 -0.4183249804
N  N5  1  0.36170000  0.05090000  0.73160000  1.0 -0.3888333957
N  N6  1  0.63830000  0.55090000  0.26840000  1.0 -0.369284905
N  N7  1  0.63830000  0.94910000  0.26840000  1.0 -0.369284905
N  N8  1  0.36170000  0.44910000  0.73160000  1.0 -0.3888333957
N  N9  1  0.07280000  0.14200000  0.02990000  1.0 -0.3216350298
N  N10  1  0.92720000  0.64200000  0.97010000  1.0 -0.3216350298
N  N11  1  0.92720000  0.85800000  0.97010000  1.0 -0.3216350298
N  N12  1  0.07280000  0.35800000  0.02990000  1.0 -0.3216350298
N  N13  1  0.62650000  0.96870000  0.41850000  1.0 -0.4725237608
N  N14  1  0.37350000  0.46870000  0.58150000  1.0 -0.4601784791
N  N15  1  0.37350000  0.03130000  0.58150000  1.0 -0.4601784791
N  N16  1  0.62650000  0.53130000  0.41850000  1.0 -0.4725237608
N  N17  1  0.06470000  0.02420000  0.76060000  1.0 -0.3623413476
N  N18  1  0.93530000  0.52420000  0.23940000  1.0 -0.3623413476
N  N19  1  0.93530000  0.97580000  0.23940000  1.0 -0.3623413476
N  N20  1  0.06470000  0.47580000  0.76060000  1.0 -0.3623413476
N  N21  1  0.62760000  0.99790000  0.64610000  1.0 -0.3888333957
N  N22  1  0.37240000  0.49790000  0.35390000  1.0 -0.3623413476
N  N23  1  0.37240000  0.00210000  0.35390000  1.0 -0.3623413476
N  N24  1  0.62760000  0.50210000  0.64610000  1.0 -0.3841178437
N  N25  1  0.78670000  0.91830000  0.69880000  1.0 -0.3888333957
N  N26  1  0.21330000  0.41830000  0.30120000  1.0 -0.369284905
N  N27  1  0.21330000  0.08170000  0.30120000  1.0 -0.369284905
N  N28  1  0.78670000  0.58170000  0.69880000  1.0 -0.3888333957
