# DDEC6 charges by PACMAN v1.1 (https://github.com/mtap-research/PACMAN-charge/)
data_TAJKOI_ASR_pacman
_symmetry_space_group_name_H-M   'P 1'
_cell_length_a   17.76730000
_cell_length_b   17.76730000
_cell_length_c   19.40410000
_cell_angle_alpha   90.00000000
_cell_angle_beta   90.00000000
_cell_angle_gamma   114.41000000
_symmetry_Int_Tables_number   1
_chemical_formula_structural   Zr6C61O30
_chemical_formula_sum   'Zr12 C122 O60'
_cell_volume   5577.88463765
_cell_formula_units_Z   2
loop_
 _symmetry_equiv_pos_site_id
 _symmetry_equiv_pos_as_xyz
  1  'x, y, z'
loop_
 _atom_site_type_symbol
 _atom_site_label
 _atom_site_symmetry_multiplicity
 _atom_site_fract_x
 _atom_site_fract_y
 _atom_site_fract_z
 _atom_site_occupancy
 _atom_site_charge
Zr  Zr1  1  0.80340000  0.96820000  0.25000000  1.0 2.3539657017
Zr  Zr2  1  0.96820000  0.80340000  0.25000000  1.0 2.3539657017
Zr  Zr3  1  0.97730000  0.97730000  0.34040000  1.0 2.4487783333
Zr  Zr4  1  0.79310000  0.79310000  0.33960000  1.0 2.3744100353
Zr  Zr5  1  0.97730000  0.97730000  0.15960000  1.0 2.4487783333
Zr  Zr6  1  0.79310000  0.79310000  0.16040000  1.0 2.3744100353
Zr  Zr7  1  0.19660000  0.03180000  0.75000000  1.0 2.3539657017
Zr  Zr8  1  0.03180000  0.19660000  0.75000000  1.0 2.3539657017
Zr  Zr9  1  0.02270000  0.02270000  0.84040000  1.0 2.4487783333
Zr  Zr10  1  0.20690000  0.20690000  0.83960000  1.0 2.3744100353
Zr  Zr11  1  0.02270000  0.02270000  0.65960000  1.0 2.4487783333
Zr  Zr12  1  0.20690000  0.20690000  0.66040000  1.0 2.3744100353
C  C1  1  0.89430000  0.11010000  0.13970000  1.0 0.6988994201
C  C2  1  0.89120000  0.18120000  0.09810000  1.0 -0.0679333954
C  C3  1  0.93860000  0.20820000  0.03960000  1.0 0.0046680878
C  C4  1  0.92870000  0.27410000  0.00800000  1.0 -0.0498175436
C  C5  1  0.87890000  0.31390000  0.02980000  1.0 -0.0498175436
C  C6  1  0.84060000  0.28700000  0.09230000  1.0 -0.0447865108
C  C7  1  0.84020000  0.22020000  0.12360000  1.0 0.0459573969
C  C8  1  0.87870000  0.37910000  0.99060000  1.0 0.3344857117
C  C9  1  0.87290000  0.45390000  0.03040000  1.0 0.0459573969
C  C10  1  0.92140000  0.48200000  0.08640000  1.0 -0.0971557329
C  C11  1  0.92290000  0.54770000  0.12100000  1.0 0.0902456736
C  C12  1  0.87390000  0.59470000  0.09670000  1.0 -0.0498175436
C  C13  1  0.82990000  0.56270000  0.04010000  1.0 -0.0109021741
C  C14  1  0.82680000  0.49680000  0.00830000  1.0 -0.0498175436
C  C15  1  0.88300000  0.66960000  0.13860000  1.0 0.6644920727
C  C16  1  0.11010000  0.89430000  0.36030000  1.0 0.6988994201
C  C17  1  0.18120000  0.89120000  0.40190000  1.0 -0.0679333954
C  C18  1  0.20820000  0.93860000  0.46040000  1.0 0.0046680878
C  C19  1  0.27410000  0.92870000  0.49200000  1.0 -0.0498175436
C  C20  1  0.31390000  0.87890000  0.47020000  1.0 -0.0498175436
C  C21  1  0.28700000  0.84060000  0.40770000  1.0 -0.0447865108
C  C22  1  0.22020000  0.84020000  0.37640000  1.0 0.0459573969
C  C23  1  0.37910000  0.87870000  0.50940000  1.0 0.3350058218
C  C24  1  0.45390000  0.87290000  0.46960000  1.0 0.0459573969
C  C25  1  0.48200000  0.92140000  0.41360000  1.0 -0.0971557329
C  C26  1  0.54770000  0.92290000  0.37900000  1.0 0.0902456736
C  C27  1  0.59470000  0.87390000  0.40330000  1.0 -0.0498175436
C  C28  1  0.56270000  0.82990000  0.45990000  1.0 -0.0109021741
C  C29  1  0.49680000  0.82680000  0.49170000  1.0 -0.0498175436
C  C30  1  0.66960000  0.88300000  0.36140000  1.0 0.6644920727
C  C31  1  0.89430000  0.11010000  0.36030000  1.0 0.6988994201
C  C32  1  0.89120000  0.18120000  0.40190000  1.0 -0.0679333954
C  C33  1  0.93860000  0.20820000  0.46040000  1.0 0.0046680878
C  C34  1  0.92870000  0.27410000  0.49200000  1.0 -0.0498175436
C  C35  1  0.87890000  0.31390000  0.47020000  1.0 -0.0498175436
C  C36  1  0.84060000  0.28700000  0.40770000  1.0 -0.0447865108
C  C37  1  0.84020000  0.22020000  0.37640000  1.0 0.0459573969
C  C38  1  0.87870000  0.37910000  0.50940000  1.0 0.3344857117
C  C39  1  0.87290000  0.45390000  0.46960000  1.0 0.0459573969
C  C40  1  0.92140000  0.48200000  0.41360000  1.0 -0.0971557329
C  C41  1  0.92290000  0.54770000  0.37900000  1.0 0.0902456736
C  C42  1  0.87390000  0.59470000  0.40330000  1.0 -0.0498175436
C  C43  1  0.82990000  0.56270000  0.45990000  1.0 -0.0109021741
C  C44  1  0.82680000  0.49680000  0.49170000  1.0 -0.0498175436
C  C45  1  0.88300000  0.66960000  0.36140000  1.0 0.6644920727
C  C46  1  0.11010000  0.89430000  0.13970000  1.0 0.6988994201
C  C47  1  0.18120000  0.89120000  0.09810000  1.0 -0.0679333954
C  C48  1  0.20820000  0.93860000  0.03960000  1.0 0.0046680878
C  C49  1  0.27410000  0.92870000  0.00800000  1.0 -0.0498175436
C  C50  1  0.31390000  0.87890000  0.02980000  1.0 -0.0498175436
C  C51  1  0.28700000  0.84060000  0.09230000  1.0 -0.0447865108
C  C52  1  0.22020000  0.84020000  0.12360000  1.0 0.0459573969
C  C53  1  0.37910000  0.87870000  0.99060000  1.0 0.3350058218
C  C54  1  0.45390000  0.87290000  0.03040000  1.0 0.0459573969
C  C55  1  0.48200000  0.92140000  0.08640000  1.0 -0.0971557329
C  C56  1  0.54770000  0.92290000  0.12100000  1.0 0.0902456736
C  C57  1  0.59470000  0.87390000  0.09670000  1.0 -0.0498175436
C  C58  1  0.56270000  0.82990000  0.04010000  1.0 -0.0109021741
C  C59  1  0.49680000  0.82680000  0.00830000  1.0 -0.0498175436
C  C60  1  0.66960000  0.88300000  0.13860000  1.0 0.6644920727
C  C61  1  0.66000000  0.66000000  0.25000000  1.0 0.6988994201
C  C62  1  0.10570000  0.88990000  0.63970000  1.0 0.6988994201
C  C63  1  0.10880000  0.81880000  0.59810000  1.0 -0.0679333954
C  C64  1  0.06140000  0.79180000  0.53960000  1.0 0.0046680878
C  C65  1  0.07130000  0.72590000  0.50800000  1.0 -0.0498175436
C  C66  1  0.12110000  0.68610000  0.52980000  1.0 -0.0498175436
C  C67  1  0.15940000  0.71300000  0.59230000  1.0 -0.0447865108
C  C68  1  0.15980000  0.77980000  0.62360000  1.0 0.0459573969
C  C69  1  0.12130000  0.62090000  0.49060000  1.0 0.3344857117
C  C70  1  0.12710000  0.54610000  0.53040000  1.0 0.0459573969
C  C71  1  0.07860000  0.51800000  0.58640000  1.0 -0.0971557329
C  C72  1  0.07710000  0.45230000  0.62100000  1.0 0.0902456736
C  C73  1  0.12610000  0.40530000  0.59670000  1.0 -0.0498175436
C  C74  1  0.17010000  0.43730000  0.54010000  1.0 -0.0109021741
C  C75  1  0.17320000  0.50320000  0.50830000  1.0 -0.0498175436
C  C76  1  0.11700000  0.33040000  0.63860000  1.0 0.6644920727
C  C77  1  0.88990000  0.10570000  0.86030000  1.0 0.6988994201
C  C78  1  0.81880000  0.10880000  0.90190000  1.0 -0.0679333954
C  C79  1  0.79180000  0.06140000  0.96040000  1.0 0.0046680878
C  C80  1  0.72590000  0.07130000  0.99200000  1.0 -0.0498175436
C  C81  1  0.68610000  0.12110000  0.97020000  1.0 -0.0498175436
C  C82  1  0.71300000  0.15940000  0.90770000  1.0 -0.0447865108
C  C83  1  0.77980000  0.15980000  0.87640000  1.0 0.0459573969
C  C84  1  0.62090000  0.12130000  0.00940000  1.0 0.3344857117
C  C85  1  0.54610000  0.12710000  0.96960000  1.0 0.0459573969
C  C86  1  0.51800000  0.07860000  0.91360000  1.0 -0.0971557329
C  C87  1  0.45230000  0.07710000  0.87900000  1.0 0.0902456736
C  C88  1  0.40530000  0.12610000  0.90330000  1.0 -0.0498175436
C  C89  1  0.43730000  0.17010000  0.95990000  1.0 -0.0109021741
C  C90  1  0.50320000  0.17320000  0.99170000  1.0 -0.0498175436
C  C91  1  0.33040000  0.11700000  0.86140000  1.0 0.6644920727
C  C92  1  0.10570000  0.88990000  0.86030000  1.0 0.6988994201
C  C93  1  0.10880000  0.81880000  0.90190000  1.0 -0.0679333954
C  C94  1  0.06140000  0.79180000  0.96040000  1.0 0.0046680878
C  C95  1  0.07130000  0.72590000  0.99200000  1.0 -0.0498175436
C  C96  1  0.12110000  0.68610000  0.97020000  1.0 -0.0498175436
C  C97  1  0.15940000  0.71300000  0.90770000  1.0 -0.0447865108
C  C98  1  0.15980000  0.77980000  0.87640000  1.0 0.0459573969
C  C99  1  0.12130000  0.62090000  0.00940000  1.0 0.3344857117
C  C100  1  0.12710000  0.54610000  0.96960000  1.0 0.0459573969
C  C101  1  0.07860000  0.51800000  0.91360000  1.0 -0.0971557329
C  C102  1  0.07710000  0.45230000  0.87900000  1.0 0.0902456736
C  C103  1  0.12610000  0.40530000  0.90330000  1.0 -0.0498175436
C  C104  1  0.17010000  0.43730000  0.95990000  1.0 -0.0109021741
C  C105  1  0.17320000  0.50320000  0.99170000  1.0 -0.0498175436
C  C106  1  0.11700000  0.33040000  0.86140000  1.0 0.6644920727
C  C107  1  0.88990000  0.10570000  0.63970000  1.0 0.6988994201
C  C108  1  0.81880000  0.10880000  0.59810000  1.0 -0.0679333954
C  C109  1  0.79180000  0.06140000  0.53960000  1.0 0.0046680878
C  C110  1  0.72590000  0.07130000  0.50800000  1.0 -0.0498175436
C  C111  1  0.68610000  0.12110000  0.52980000  1.0 -0.0498175436
C  C112  1  0.71300000  0.15940000  0.59230000  1.0 -0.0447865108
C  C113  1  0.77980000  0.15980000  0.62360000  1.0 0.0459573969
C  C114  1  0.62090000  0.12130000  0.49060000  1.0 0.3344857117
C  C115  1  0.54610000  0.12710000  0.53040000  1.0 0.0459573969
C  C116  1  0.51800000  0.07860000  0.58640000  1.0 -0.0971557329
C  C117  1  0.45230000  0.07710000  0.62100000  1.0 0.0902456736
C  C118  1  0.40530000  0.12610000  0.59670000  1.0 -0.0498175436
C  C119  1  0.43730000  0.17010000  0.54010000  1.0 -0.0109021741
C  C120  1  0.50320000  0.17320000  0.50830000  1.0 -0.0498175436
C  C121  1  0.33040000  0.11700000  0.63860000  1.0 0.6644920727
C  C122  1  0.34000000  0.34000000  0.75000000  1.0 0.6988994201
O  O1  1  0.84420000  0.92700000  0.34160000  1.0 -1.1495027224
O  O2  1  0.83360000  0.07080000  0.18250000  1.0 -0.5812593381
O  O3  1  0.94030000  0.69610000  0.17940000  1.0 -0.5279704909
O  O4  1  0.81890000  0.68330000  0.12360000  1.0 -0.5949434618
O  O5  1  0.94740000  0.08300000  0.12230000  1.0 -0.5963309486
O  O6  1  0.87750000  0.38190000  0.92880000  1.0 -0.3072909693
O  O7  1  0.92700000  0.84420000  0.15840000  1.0 -1.1495027224
O  O8  1  0.07080000  0.83360000  0.31750000  1.0 -0.5812593381
O  O9  1  0.69610000  0.94030000  0.32060000  1.0 -0.5279704909
O  O10  1  0.68330000  0.81890000  0.37640000  1.0 -0.5949434618
O  O11  1  0.08300000  0.94740000  0.37770000  1.0 -0.5963309486
O  O12  1  0.38190000  0.87750000  0.57120000  1.0 -0.3072909693
O  O13  1  0.84420000  0.92700000  0.15840000  1.0 -1.1495027224
O  O14  1  0.83360000  0.07080000  0.31750000  1.0 -0.5812593381
O  O15  1  0.94030000  0.69610000  0.32060000  1.0 -0.5279704909
O  O16  1  0.81890000  0.68330000  0.37640000  1.0 -0.5949434618
O  O17  1  0.94740000  0.08300000  0.37770000  1.0 -0.5963309486
O  O18  1  0.87750000  0.38190000  0.57120000  1.0 -0.3072909693
O  O19  1  0.92700000  0.84420000  0.34160000  1.0 -1.1495027224
O  O20  1  0.07080000  0.83360000  0.18250000  1.0 -0.5812593381
O  O21  1  0.69610000  0.94030000  0.17940000  1.0 -0.5279704909
O  O22  1  0.68330000  0.81890000  0.12360000  1.0 -0.5949434618
O  O23  1  0.08300000  0.94740000  0.12230000  1.0 -0.5963309486
O  O24  1  0.38190000  0.87750000  0.92880000  1.0 -0.3072909693
O  O25  1  0.75390000  0.83710000  0.25000000  1.0 -1.1723603884
O  O26  1  0.93380000  0.02120000  0.25000000  1.0 -1.2172236125
O  O27  1  0.83710000  0.75390000  0.25000000  1.0 -1.1723603884
O  O28  1  0.02120000  0.93380000  0.25000000  1.0 -1.2172236125
O  O29  1  0.68020000  0.68020000  0.30580000  1.0 -0.5506120304
O  O30  1  0.68020000  0.68020000  0.19420000  1.0 -0.5506120304
O  O31  1  0.15580000  0.07300000  0.84160000  1.0 -1.1495027224
O  O32  1  0.16640000  0.92920000  0.68250000  1.0 -0.5812593381
O  O33  1  0.05970000  0.30390000  0.67940000  1.0 -0.5279704909
O  O34  1  0.18110000  0.31670000  0.62360000  1.0 -0.5963309486
O  O35  1  0.05260000  0.91700000  0.62230000  1.0 -0.5963309486
O  O36  1  0.12250000  0.61810000  0.42880000  1.0 -0.3072909693
O  O37  1  0.07300000  0.15580000  0.65840000  1.0 -1.1495027224
O  O38  1  0.92920000  0.16640000  0.81750000  1.0 -0.5812593381
O  O39  1  0.30390000  0.05970000  0.82060000  1.0 -0.5279704909
O  O40  1  0.31670000  0.18110000  0.87640000  1.0 -0.5963309486
O  O41  1  0.91700000  0.05260000  0.87770000  1.0 -0.5963309486
O  O42  1  0.61810000  0.12250000  0.07120000  1.0 -0.3072909693
O  O43  1  0.15580000  0.07300000  0.65840000  1.0 -1.1495027224
O  O44  1  0.16640000  0.92920000  0.81750000  1.0 -0.5812593381
O  O45  1  0.05970000  0.30390000  0.82060000  1.0 -0.5279704909
O  O46  1  0.18110000  0.31670000  0.87640000  1.0 -0.5963309486
O  O47  1  0.05260000  0.91700000  0.87770000  1.0 -0.5963309486
O  O48  1  0.12250000  0.61810000  0.07120000  1.0 -0.3072909693
O  O49  1  0.07300000  0.15580000  0.84160000  1.0 -1.1495027224
O  O50  1  0.92920000  0.16640000  0.68250000  1.0 -0.5812593381
O  O51  1  0.30390000  0.05970000  0.67940000  1.0 -0.5279704909
O  O52  1  0.31670000  0.18110000  0.62360000  1.0 -0.5963309486
O  O53  1  0.91700000  0.05260000  0.62230000  1.0 -0.5963309486
O  O54  1  0.61810000  0.12250000  0.42880000  1.0 -0.3072909693
O  O55  1  0.24610000  0.16290000  0.75000000  1.0 -1.1723603884
O  O56  1  0.06620000  0.97880000  0.75000000  1.0 -1.2172236125
O  O57  1  0.16290000  0.24610000  0.75000000  1.0 -1.1723603884
O  O58  1  0.97880000  0.06620000  0.75000000  1.0 -1.2172236125
O  O59  1  0.31980000  0.31980000  0.80580000  1.0 -0.5506120304
O  O60  1  0.31980000  0.31980000  0.69420000  1.0 -0.5506120304
