# DDEC6 charges by PACMAN v1.1 (https://github.com/mtap-research/PACMAN-charge/)
data_TAJTOQ_FSR_pacman
_symmetry_space_group_name_H-M   'P 1'
_cell_length_a   20.04330000
_cell_length_b   17.69850000
_cell_length_c   11.26180000
_cell_angle_alpha   84.48160000
_cell_angle_beta   61.51290000
_cell_angle_gamma   34.00540000
_symmetry_Int_Tables_number   1
_chemical_formula_structural   ScH8(C7O3)2
_chemical_formula_sum   'Sc4 H32 C56 O24'
_cell_volume   1557.99184799
_cell_formula_units_Z   4
loop_
 _symmetry_equiv_pos_site_id
 _symmetry_equiv_pos_as_xyz
  1  'x, y, z'
loop_
 _atom_site_type_symbol
 _atom_site_label
 _atom_site_symmetry_multiplicity
 _atom_site_fract_x
 _atom_site_fract_y
 _atom_site_fract_z
 _atom_site_occupancy
 _atom_site_charge
Sc  Sc1  1  0.26068000  0.26068000  0.73932000  1.0 1.8178466746
Sc  Sc2  1  0.73932000  0.73932000  0.26068000  1.0 1.8178466746
Sc  Sc3  1  0.98932000  0.98932000  0.51068000  1.0 1.8178466746
Sc  Sc4  1  0.51068000  0.51068000  0.98932000  1.0 1.8178466746
H  H1  1  0.41590000  0.85070000  0.37930000  1.0 0.1206364745
H  H2  1  0.35410000  0.37930000  0.85070000  1.0 0.1206364745
H  H3  1  0.37930000  0.35410000  0.41590000  1.0 0.1206364745
H  H4  1  0.85070000  0.41590000  0.35410000  1.0 0.1206364745
H  H5  1  0.83410000  0.39930000  0.87070000  1.0 0.1206364745
H  H6  1  0.89590000  0.87070000  0.39930000  1.0 0.1206364745
H  H7  1  0.87070000  0.89590000  0.83410000  1.0 0.1206364745
H  H8  1  0.39930000  0.83410000  0.89590000  1.0 0.1206364745
H  H9  1  0.22080000  0.93540000  0.46080000  1.0 0.1206364745
H  H10  1  0.38300000  0.46080000  0.93540000  1.0 0.1206364745
H  H11  1  0.46080000  0.38300000  0.22080000  1.0 0.1206364745
H  H12  1  0.93540000  0.22080000  0.38300000  1.0 0.1206364745
H  H13  1  0.02920000  0.31460000  0.78920000  1.0 0.1206364745
H  H14  1  0.86700000  0.78920000  0.31460000  1.0 0.1206364745
H  H15  1  0.78920000  0.86700000  0.02920000  1.0 0.1206364745
H  H16  1  0.31460000  0.02920000  0.86700000  1.0 0.1206364745
H  H17  1  0.47430000  0.04770000  0.91210000  1.0 0.1022888163
H  H18  1  0.56590000  0.91210000  0.04770000  1.0 0.1022888163
H  H19  1  0.91210000  0.56590000  0.47430000  1.0 0.1022888163
H  H20  1  0.04770000  0.47430000  0.56590000  1.0 0.1022888163
H  H21  1  0.77570000  0.20230000  0.33790000  1.0 0.1022888163
H  H22  1  0.68410000  0.33790000  0.20230000  1.0 0.1022888163
H  H23  1  0.33790000  0.68410000  0.77570000  1.0 0.1022888163
H  H24  1  0.20230000  0.77570000  0.68410000  1.0 0.1022888163
H  H25  1  0.58680000  0.93320000  0.02760000  1.0 0.1022888163
H  H26  1  0.45240000  0.02760000  0.93320000  1.0 0.1022888163
H  H27  1  0.02760000  0.45240000  0.58680000  1.0 0.1022888163
H  H28  1  0.93320000  0.58680000  0.45240000  1.0 0.1022888163
H  H29  1  0.66320000  0.31680000  0.22240000  1.0 0.1022888163
H  H30  1  0.79760000  0.22240000  0.31680000  1.0 0.1022888163
H  H31  1  0.22240000  0.79760000  0.66320000  1.0 0.1022888163
H  H32  1  0.31680000  0.66320000  0.79760000  1.0 0.1022888163
C  C1  1  0.36500000  0.02040000  0.52480000  1.0 0.6403879711
C  C2  1  0.08980000  0.52480000  0.02040000  1.0 0.6403879711
C  C3  1  0.52480000  0.08980000  0.36500000  1.0 0.6403879711
C  C4  1  0.02040000  0.36500000  0.08980000  1.0 0.6403879711
C  C5  1  0.88500000  0.22960000  0.72520000  1.0 0.6403879711
C  C6  1  0.16020000  0.72520000  0.22960000  1.0 0.6403879711
C  C7  1  0.72520000  0.16020000  0.88500000  1.0 0.6403879711
C  C8  1  0.22960000  0.88500000  0.16020000  1.0 0.6403879711
C  C9  1  0.24141000  0.07421000  0.57679000  1.0 -0.0425101675
C  C10  1  0.10759000  0.57679000  0.07421000  1.0 -0.0425101675
C  C11  1  0.57679000  0.10759000  0.24141000  1.0 -0.0425101675
C  C12  1  0.07421000  0.24141000  0.10759000  1.0 -0.0425101675
C  C13  1  0.00859000  0.17579000  0.67321000  1.0 -0.0425101675
C  C14  1  0.14241000  0.67321000  0.17579000  1.0 -0.0425101675
C  C15  1  0.67321000  0.14241000  0.00859000  1.0 -0.0425101675
C  C16  1  0.17579000  0.00859000  0.14241000  1.0 -0.0425101675
C  C17  1  0.29720000  0.96240000  0.48080000  1.0 -0.1080233025
C  C18  1  0.25960000  0.48080000  0.96240000  1.0 -0.1080233025
C  C19  1  0.48080000  0.25960000  0.29720000  1.0 -0.1080233025
C  C20  1  0.96240000  0.29720000  0.25960000  1.0 -0.1080233025
C  C21  1  0.95280000  0.28760000  0.76920000  1.0 -0.1080233025
C  C22  1  0.99040000  0.76920000  0.28760000  1.0 -0.1080233025
C  C23  1  0.76920000  0.99040000  0.95280000  1.0 -0.1080233025
C  C24  1  0.28760000  0.95280000  0.99040000  1.0 -0.1080233025
C  C25  1  0.18040000  0.01420000  0.53060000  1.0 -0.1080233025
C  C26  1  0.27480000  0.53060000  0.01420000  1.0 -0.1080233025
C  C27  1  0.53060000  0.27480000  0.18040000  1.0 -0.1080233025
C  C28  1  0.01420000  0.18040000  0.27480000  1.0 -0.1080233025
C  C29  1  0.06960000  0.23580000  0.71940000  1.0 -0.1080233025
C  C30  1  0.97520000  0.71940000  0.23580000  1.0 -0.1080233025
C  C31  1  0.71940000  0.97520000  0.06960000  1.0 -0.1080233025
C  C32  1  0.23580000  0.06960000  0.97520000  1.0 -0.1080233025
C  C33  1  0.61090000  0.88910000  0.61090000  1.0 0.5847543666
C  C34  1  0.88910000  0.61090000  0.88910000  1.0 0.5847543666
C  C35  1  0.63910000  0.36090000  0.63910000  1.0 0.5847543666
C  C36  1  0.36090000  0.63910000  0.36090000  1.0 0.5847543666
C  C37  1  0.68320000  0.81680000  0.68320000  1.0 0.0070223
C  C38  1  0.81680000  0.68320000  0.81680000  1.0 0.0070223
C  C39  1  0.56680000  0.43320000  0.56680000  1.0 0.0070223
C  C40  1  0.43320000  0.56680000  0.43320000  1.0 0.0070223
C  C41  1  0.58760000  0.92580000  0.84540000  1.0 -0.0725174274
C  C42  1  0.64120000  0.84540000  0.92580000  1.0 -0.0725174274
C  C43  1  0.84540000  0.64120000  0.58760000  1.0 -0.0725174274
C  C44  1  0.92580000  0.58760000  0.64120000  1.0 -0.0725174274
C  C45  1  0.66240000  0.32420000  0.40460000  1.0 -0.0725174274
C  C46  1  0.60880000  0.40460000  0.32420000  1.0 -0.0725174274
C  C47  1  0.40460000  0.60880000  0.66240000  1.0 -0.0725174274
C  C48  1  0.32420000  0.66240000  0.60880000  1.0 -0.0725174274
C  C49  1  0.65460000  0.85840000  0.91280000  1.0 -0.0725174274
C  C50  1  0.57420000  0.91280000  0.85840000  1.0 -0.0725174274
C  C51  1  0.91280000  0.57420000  0.65460000  1.0 -0.0725174274
C  C52  1  0.85840000  0.65460000  0.57420000  1.0 -0.0725174274
C  C53  1  0.59540000  0.39160000  0.33720000  1.0 -0.0725174274
C  C54  1  0.67580000  0.33720000  0.39160000  1.0 -0.0725174274
C  C55  1  0.33720000  0.67580000  0.59540000  1.0 -0.0725174274
C  C56  1  0.39160000  0.59540000  0.67580000  1.0 -0.0725174274
O  O1  1  0.30730000  0.12850000  0.61130000  1.0 -0.6632395497
O  O2  1  0.95290000  0.61130000  0.12850000  1.0 -0.6632395497
O  O3  1  0.61130000  0.95290000  0.30730000  1.0 -0.6632395497
O  O4  1  0.12850000  0.30730000  0.95290000  1.0 -0.6632395497
O  O5  1  0.94270000  0.12150000  0.63870000  1.0 -0.6632395497
O  O6  1  0.29710000  0.63870000  0.12150000  1.0 -0.6632395497
O  O7  1  0.63870000  0.29710000  0.94270000  1.0 -0.6632395497
O  O8  1  0.12150000  0.94270000  0.29710000  1.0 -0.6632395497
O  O9  1  0.51962000  0.87142000  0.39618000  1.0 -0.6183326653
O  O10  1  0.21278000  0.39618000  0.87142000  1.0 -0.6183326653
O  O11  1  0.39618000  0.21278000  0.51962000  1.0 -0.6183326653
O  O12  1  0.87142000  0.51962000  0.21278000  1.0 -0.6183326653
O  O13  1  0.73038000  0.37858000  0.85382000  1.0 -0.6183326653
O  O14  1  0.03722000  0.85382000  0.37858000  1.0 -0.6183326653
O  O15  1  0.85382000  0.03722000  0.73038000  1.0 -0.6183326653
O  O16  1  0.37858000  0.73038000  0.03722000  1.0 -0.6183326653
O  O17  1  0.47380000  0.04680000  0.69280000  1.0 -0.605886381
O  O18  1  0.78660000  0.69280000  0.04680000  1.0 -0.605886381
O  O19  1  0.69280000  0.78660000  0.47380000  1.0 -0.605886381
O  O20  1  0.04680000  0.47380000  0.78660000  1.0 -0.605886381
O  O21  1  0.77620000  0.20320000  0.55720000  1.0 -0.605886381
O  O22  1  0.46340000  0.55720000  0.20320000  1.0 -0.605886381
O  O23  1  0.55720000  0.46340000  0.77620000  1.0 -0.605886381
O  O24  1  0.20320000  0.77620000  0.46340000  1.0 -0.605886381
