# DDEC6 charges by PACMAN v1.1 (https://github.com/mtap-research/PACMAN-charge/)
data_TAJVAE_FSR_pacman
_symmetry_space_group_name_H-M   'P 1'
_cell_length_a   20.01980000
_cell_length_b   17.67840000
_cell_length_c   11.23710000
_cell_angle_alpha   84.51070000
_cell_angle_beta   61.52150000
_cell_angle_gamma   33.96770000
_symmetry_Int_Tables_number   1
_chemical_formula_structural   ScH8(C7O3)2
_chemical_formula_sum   'Sc4 H32 C56 O24'
_cell_volume   1547.03553891
_cell_formula_units_Z   4
loop_
 _symmetry_equiv_pos_site_id
 _symmetry_equiv_pos_as_xyz
  1  'x, y, z'
loop_
 _atom_site_type_symbol
 _atom_site_label
 _atom_site_symmetry_multiplicity
 _atom_site_fract_x
 _atom_site_fract_y
 _atom_site_fract_z
 _atom_site_occupancy
 _atom_site_charge
Sc  Sc1  1  0.26096000  0.26096000  0.73904000  1.0 1.8060394843
Sc  Sc2  1  0.73904000  0.73904000  0.26096000  1.0 1.8060394843
Sc  Sc3  1  0.98904000  0.98904000  0.51096000  1.0 1.8060394843
Sc  Sc4  1  0.51096000  0.51096000  0.98904000  1.0 1.8060394843
H  H1  1  0.41610000  0.85110000  0.37890000  1.0 0.1271473635
H  H2  1  0.35390000  0.37890000  0.85110000  1.0 0.1271473635
H  H3  1  0.37890000  0.35390000  0.41610000  1.0 0.1271473635
H  H4  1  0.85110000  0.41610000  0.35390000  1.0 0.1271473635
H  H5  1  0.83390000  0.39890000  0.87110000  1.0 0.1271473635
H  H6  1  0.89610000  0.87110000  0.39890000  1.0 0.1271473635
H  H7  1  0.87110000  0.89610000  0.83390000  1.0 0.1271473635
H  H8  1  0.39890000  0.83390000  0.89610000  1.0 0.1271473635
H  H9  1  0.22240000  0.93500000  0.45680000  1.0 0.1156935041
H  H10  1  0.38580000  0.45680000  0.93500000  1.0 0.1156935041
H  H11  1  0.45680000  0.38580000  0.22240000  1.0 0.1156935041
H  H12  1  0.93500000  0.22240000  0.38580000  1.0 0.1156935041
H  H13  1  0.02760000  0.31500000  0.79320000  1.0 0.1156935041
H  H14  1  0.86420000  0.79320000  0.31500000  1.0 0.1156935041
H  H15  1  0.79320000  0.86420000  0.02760000  1.0 0.1156935041
H  H16  1  0.31500000  0.02760000  0.86420000  1.0 0.1156935041
H  H17  1  0.60370000  0.99050000  0.78290000  1.0 0.1052735541
H  H18  1  0.62290000  0.78290000  0.99050000  1.0 0.1052735541
H  H19  1  0.78290000  0.62290000  0.60370000  1.0 0.1052735541
H  H20  1  0.99050000  0.60370000  0.62290000  1.0 0.1052735541
H  H21  1  0.64630000  0.25950000  0.46710000  1.0 0.1052735541
H  H22  1  0.62710000  0.46710000  0.25950000  1.0 0.1052735541
H  H23  1  0.46710000  0.62710000  0.64630000  1.0 0.1052735541
H  H24  1  0.25950000  0.64630000  0.62710000  1.0 0.1052735541
H  H25  1  0.71630000  0.87810000  0.89450000  1.0 0.0895384271
H  H26  1  0.51110000  0.89450000  0.87810000  1.0 0.0895384271
H  H27  1  0.89450000  0.51110000  0.71630000  1.0 0.0895384271
H  H28  1  0.87810000  0.71630000  0.51110000  1.0 0.0895384271
H  H29  1  0.53370000  0.37190000  0.35550000  1.0 0.0895384271
H  H30  1  0.73890000  0.35550000  0.37190000  1.0 0.0895384271
H  H31  1  0.35550000  0.73890000  0.53370000  1.0 0.0895384271
H  H32  1  0.37190000  0.53370000  0.73890000  1.0 0.0895384271
C  C1  1  0.36625000  0.01885000  0.52495000  1.0 0.640472265
C  C2  1  0.08995000  0.52495000  0.01885000  1.0 0.640472265
C  C3  1  0.52495000  0.08995000  0.36625000  1.0 0.640472265
C  C4  1  0.01885000  0.36625000  0.08995000  1.0 0.640472265
C  C5  1  0.88375000  0.23115000  0.72505000  1.0 0.640472265
C  C6  1  0.16005000  0.72505000  0.23115000  1.0 0.640472265
C  C7  1  0.72505000  0.16005000  0.88375000  1.0 0.640472265
C  C8  1  0.23115000  0.88375000  0.16005000  1.0 0.640472265
C  C9  1  0.23990000  0.07470000  0.57850000  1.0 -0.032284203
C  C10  1  0.10690000  0.57850000  0.07470000  1.0 -0.032284203
C  C11  1  0.57850000  0.10690000  0.23990000  1.0 -0.032284203
C  C12  1  0.07470000  0.23990000  0.10690000  1.0 -0.032284203
C  C13  1  0.01010000  0.17530000  0.67150000  1.0 -0.032284203
C  C14  1  0.14310000  0.67150000  0.17530000  1.0 -0.032284203
C  C15  1  0.67150000  0.14310000  0.01010000  1.0 -0.032284203
C  C16  1  0.17530000  0.01010000  0.14310000  1.0 -0.032284203
C  C17  1  0.29752000  0.96252000  0.47908000  1.0 -0.1121510285
C  C18  1  0.26088000  0.47908000  0.96252000  1.0 -0.1121510285
C  C19  1  0.47908000  0.26088000  0.29752000  1.0 -0.1121510285
C  C20  1  0.96252000  0.29752000  0.26088000  1.0 -0.1121510285
C  C21  1  0.95248000  0.28748000  0.77092000  1.0 -0.1121510285
C  C22  1  0.98912000  0.77092000  0.28748000  1.0 -0.1121510285
C  C23  1  0.77092000  0.98912000  0.95248000  1.0 -0.1121510285
C  C24  1  0.28748000  0.95248000  0.98912000  1.0 -0.1121510285
C  C25  1  0.18301000  0.01201000  0.52479000  1.0 -0.1165174916
C  C26  1  0.28019000  0.52479000  0.01201000  1.0 -0.1165174916
C  C27  1  0.52479000  0.28019000  0.18301000  1.0 -0.1165174916
C  C28  1  0.01201000  0.18301000  0.28019000  1.0 -0.1165174916
C  C29  1  0.06699000  0.23799000  0.72521000  1.0 -0.1165174916
C  C30  1  0.96981000  0.72521000  0.23799000  1.0 -0.1165174916
C  C31  1  0.72521000  0.96981000  0.06699000  1.0 -0.1165174916
C  C32  1  0.23799000  0.06699000  0.96981000  1.0 -0.1165174916
C  C33  1  0.61160000  0.88840000  0.61160000  1.0 0.6140259225
C  C34  1  0.88840000  0.61160000  0.88840000  1.0 0.6140259225
C  C35  1  0.63840000  0.36160000  0.63840000  1.0 0.6140259225
C  C36  1  0.36160000  0.63840000  0.36160000  1.0 0.6140259225
C  C37  1  0.68280000  0.81720000  0.68280000  1.0 -0.0097317649
C  C38  1  0.81720000  0.68280000  0.81720000  1.0 -0.0097317649
C  C39  1  0.56720000  0.43280000  0.56720000  1.0 -0.0097317649
C  C40  1  0.43280000  0.56720000  0.43280000  1.0 -0.0097317649
C  C41  1  0.66010000  0.89430000  0.77210000  1.0 -0.0675928295
C  C42  1  0.67350000  0.77210000  0.89430000  1.0 -0.0675928295
C  C43  1  0.77210000  0.67350000  0.66010000  1.0 -0.0675928295
C  C44  1  0.89430000  0.66010000  0.67350000  1.0 -0.0675928295
C  C45  1  0.58990000  0.35570000  0.47790000  1.0 -0.0675928295
C  C46  1  0.57650000  0.47790000  0.35570000  1.0 -0.0675928295
C  C47  1  0.47790000  0.57650000  0.58990000  1.0 -0.0675928295
C  C48  1  0.35570000  0.58990000  0.57650000  1.0 -0.0675928295
C  C49  1  0.72790000  0.82670000  0.83790000  1.0 -0.0675928295
C  C50  1  0.60750000  0.83790000  0.82670000  1.0 -0.0675928295
C  C51  1  0.83790000  0.60750000  0.72790000  1.0 -0.0675928295
C  C52  1  0.82670000  0.72790000  0.60750000  1.0 -0.0675928295
C  C53  1  0.52210000  0.42330000  0.41210000  1.0 -0.0675928295
C  C54  1  0.64250000  0.41210000  0.42330000  1.0 -0.0675928295
C  C55  1  0.41210000  0.64250000  0.52210000  1.0 -0.0675928295
C  C56  1  0.42330000  0.52210000  0.64250000  1.0 -0.0675928295
O  O1  1  0.30757000  0.12717000  0.61243000  1.0 -0.6506848614
O  O2  1  0.95283000  0.61243000  0.12717000  1.0 -0.6506848614
O  O3  1  0.61243000  0.95283000  0.30757000  1.0 -0.6506848614
O  O4  1  0.12717000  0.30757000  0.95283000  1.0 -0.6506848614
O  O5  1  0.94243000  0.12283000  0.63757000  1.0 -0.6506848614
O  O6  1  0.29717000  0.63757000  0.12283000  1.0 -0.6506848614
O  O7  1  0.63757000  0.29717000  0.94243000  1.0 -0.6506848614
O  O8  1  0.12283000  0.94243000  0.29717000  1.0 -0.6506848614
O  O9  1  0.52177000  0.86857000  0.39603000  1.0 -0.6255564969
O  O10  1  0.21363000  0.39603000  0.86857000  1.0 -0.6255564969
O  O11  1  0.39603000  0.21363000  0.52177000  1.0 -0.6255564969
O  O12  1  0.86857000  0.52177000  0.21363000  1.0 -0.6255564969
O  O13  1  0.72823000  0.38143000  0.85397000  1.0 -0.6255564969
O  O14  1  0.03637000  0.85397000  0.38143000  1.0 -0.6255564969
O  O15  1  0.85397000  0.03637000  0.72823000  1.0 -0.6255564969
O  O16  1  0.38143000  0.72823000  0.03637000  1.0 -0.6255564969
O  O17  1  0.47932000  0.04472000  0.68708000  1.0 -0.6109121944
O  O18  1  0.78888000  0.68708000  0.04472000  1.0 -0.6109121944
O  O19  1  0.68708000  0.78888000  0.47932000  1.0 -0.6109121944
O  O20  1  0.04472000  0.47932000  0.78888000  1.0 -0.6109121944
O  O21  1  0.77068000  0.20528000  0.56292000  1.0 -0.6109121944
O  O22  1  0.46112000  0.56292000  0.20528000  1.0 -0.6109121944
O  O23  1  0.56292000  0.46112000  0.77068000  1.0 -0.6109121944
O  O24  1  0.20528000  0.77068000  0.46112000  1.0 -0.6109121944
