# DDEC6 charges by PACMAN v1.1 (https://github.com/mtap-research/PACMAN-charge/)
data_TAJVIM_FSR_pacman
_symmetry_space_group_name_H-M   'P 1'
_cell_length_a   19.98130000
_cell_length_b   17.65530000
_cell_length_c   11.22670000
_cell_angle_alpha   84.42730000
_cell_angle_beta   61.57180000
_cell_angle_gamma   34.00090000
_symmetry_Int_Tables_number   1
_chemical_formula_structural   ScH8(C7O3)2
_chemical_formula_sum   'Sc4 H32 C56 O24'
_cell_volume   1550.68764658
_cell_formula_units_Z   4
loop_
 _symmetry_equiv_pos_site_id
 _symmetry_equiv_pos_as_xyz
  1  'x, y, z'
loop_
 _atom_site_type_symbol
 _atom_site_label
 _atom_site_symmetry_multiplicity
 _atom_site_fract_x
 _atom_site_fract_y
 _atom_site_fract_z
 _atom_site_occupancy
 _atom_site_charge
Sc  Sc1  1  0.26096000  0.26096000  0.73904000  1.0 1.8009409135
Sc  Sc2  1  0.73904000  0.73904000  0.26096000  1.0 1.8009409135
Sc  Sc3  1  0.98904000  0.98904000  0.51096000  1.0 1.8009409135
Sc  Sc4  1  0.51096000  0.51096000  0.98904000  1.0 1.8009409135
H  H1  1  0.41610000  0.85010000  0.38150000  1.0 0.1251979893
H  H2  1  0.35230000  0.38150000  0.85010000  1.0 0.1251979893
H  H3  1  0.38150000  0.35230000  0.41610000  1.0 0.1251979893
H  H4  1  0.85010000  0.41610000  0.35230000  1.0 0.1251979893
H  H5  1  0.83390000  0.39990000  0.86850000  1.0 0.1251979893
H  H6  1  0.89770000  0.86850000  0.39990000  1.0 0.1251979893
H  H7  1  0.86850000  0.89770000  0.83390000  1.0 0.1251979893
H  H8  1  0.39990000  0.83390000  0.89770000  1.0 0.1251979893
H  H9  1  0.21940000  0.93760000  0.46160000  1.0 0.1165651729
H  H10  1  0.38140000  0.46160000  0.93760000  1.0 0.1165651729
H  H11  1  0.46160000  0.38140000  0.21940000  1.0 0.1165651729
H  H12  1  0.93760000  0.21940000  0.38140000  1.0 0.1165651729
H  H13  1  0.03060000  0.31240000  0.78840000  1.0 0.1165651729
H  H14  1  0.86860000  0.78840000  0.31240000  1.0 0.1165651729
H  H15  1  0.78840000  0.86860000  0.03060000  1.0 0.1165651729
H  H16  1  0.31240000  0.03060000  0.86860000  1.0 0.1165651729
H  H17  1  0.52610000  0.03470000  0.86010000  1.0 0.1165651729
H  H18  1  0.57910000  0.86010000  0.03470000  1.0 0.1165651729
H  H19  1  0.86010000  0.57910000  0.52610000  1.0 0.1165651729
H  H20  1  0.03470000  0.52610000  0.57910000  1.0 0.1165651729
H  H21  1  0.72390000  0.21530000  0.38990000  1.0 0.1165651729
H  H22  1  0.67090000  0.38990000  0.21530000  1.0 0.1165651729
H  H23  1  0.38990000  0.67090000  0.72390000  1.0 0.1165651729
H  H24  1  0.21530000  0.72390000  0.67090000  1.0 0.1165651729
H  H25  1  0.63920000  0.92160000  0.97300000  1.0 0.1080971597
H  H26  1  0.46620000  0.97300000  0.92160000  1.0 0.1080971597
H  H27  1  0.97300000  0.46620000  0.63920000  1.0 0.1080971597
H  H28  1  0.92160000  0.63920000  0.46620000  1.0 0.1080971597
H  H29  1  0.61080000  0.32840000  0.27700000  1.0 0.1080971597
H  H30  1  0.78380000  0.27700000  0.32840000  1.0 0.1080971597
H  H31  1  0.27700000  0.78380000  0.61080000  1.0 0.1080971597
H  H32  1  0.32840000  0.61080000  0.78380000  1.0 0.1080971597
C  C1  1  0.36440000  0.02200000  0.52660000  1.0 0.6351109867
C  C2  1  0.08700000  0.52660000  0.02200000  1.0 0.6351109867
C  C3  1  0.52660000  0.08700000  0.36440000  1.0 0.6351109867
C  C4  1  0.02200000  0.36440000  0.08700000  1.0 0.6351109867
C  C5  1  0.88560000  0.22800000  0.72340000  1.0 0.6351109867
C  C6  1  0.16300000  0.72340000  0.22800000  1.0 0.6351109867
C  C7  1  0.72340000  0.16300000  0.88560000  1.0 0.6351109867
C  C8  1  0.22800000  0.88560000  0.16300000  1.0 0.6347205167
C  C9  1  0.24070000  0.07430000  0.57810000  1.0 -0.0343102276
C  C10  1  0.10690000  0.57810000  0.07430000  1.0 -0.0343102276
C  C11  1  0.57810000  0.10690000  0.24070000  1.0 -0.0343102276
C  C12  1  0.07430000  0.24070000  0.10690000  1.0 -0.0343102276
C  C13  1  0.00930000  0.17570000  0.67190000  1.0 -0.0343102276
C  C14  1  0.14310000  0.67190000  0.17570000  1.0 -0.0343102276
C  C15  1  0.67190000  0.14310000  0.00930000  1.0 -0.0343102276
C  C16  1  0.17570000  0.00930000  0.14310000  1.0 -0.0343102276
C  C17  1  0.29800000  0.96180000  0.48020000  1.0 -0.1098978125
C  C18  1  0.26000000  0.48020000  0.96180000  1.0 -0.1098978125
C  C19  1  0.48020000  0.26000000  0.29800000  1.0 -0.1098978125
C  C20  1  0.96180000  0.29800000  0.26000000  1.0 -0.1098978125
C  C21  1  0.95200000  0.28820000  0.76980000  1.0 -0.1098978125
C  C22  1  0.99000000  0.76980000  0.28820000  1.0 -0.1098978125
C  C23  1  0.76980000  0.99000000  0.95200000  1.0 -0.1098978125
C  C24  1  0.28820000  0.95200000  0.99000000  1.0 -0.1098978125
C  C25  1  0.18090000  0.01410000  0.52830000  1.0 -0.1213949478
C  C26  1  0.27670000  0.52830000  0.01410000  1.0 -0.1213949478
C  C27  1  0.52830000  0.27670000  0.18090000  1.0 -0.1213949478
C  C28  1  0.01410000  0.18090000  0.27670000  1.0 -0.1213949478
C  C29  1  0.06910000  0.23590000  0.72170000  1.0 -0.1213949478
C  C30  1  0.97330000  0.72170000  0.23590000  1.0 -0.1213949478
C  C31  1  0.72170000  0.97330000  0.06910000  1.0 -0.1213949478
C  C32  1  0.23590000  0.06910000  0.97330000  1.0 -0.1213949478
C  C33  1  0.61000000  0.89000000  0.61000000  1.0 0.6143270855
C  C34  1  0.89000000  0.61000000  0.89000000  1.0 0.6143270855
C  C35  1  0.64000000  0.36000000  0.64000000  1.0 0.6143270855
C  C36  1  0.36000000  0.64000000  0.36000000  1.0 0.6143270855
C  C37  1  0.68250000  0.81750000  0.68250000  1.0 -0.0180082769
C  C38  1  0.81750000  0.68250000  0.81750000  1.0 -0.0180082769
C  C39  1  0.56750000  0.43250000  0.56750000  1.0 -0.0180082769
C  C40  1  0.43250000  0.56750000  0.43250000  1.0 -0.0180082769
C  C41  1  0.61260000  0.92080000  0.81940000  1.0 -0.0693251972
C  C42  1  0.64720000  0.81940000  0.92080000  1.0 -0.0693251972
C  C43  1  0.81940000  0.64720000  0.61260000  1.0 -0.0693251972
C  C44  1  0.92080000  0.61260000  0.64720000  1.0 -0.0693251972
C  C45  1  0.63740000  0.32920000  0.43060000  1.0 -0.0693251972
C  C46  1  0.60280000  0.43060000  0.32920000  1.0 -0.0693251972
C  C47  1  0.43060000  0.60280000  0.63740000  1.0 -0.0693251972
C  C48  1  0.32920000  0.63740000  0.60280000  1.0 -0.0693251972
C  C49  1  0.67980000  0.85340000  0.88700000  1.0 -0.0693251972
C  C50  1  0.57980000  0.88700000  0.85340000  1.0 -0.0693251972
C  C51  1  0.88700000  0.57980000  0.67980000  1.0 -0.0693251972
C  C52  1  0.85340000  0.67980000  0.57980000  1.0 -0.0693251972
C  C53  1  0.57020000  0.39660000  0.36300000  1.0 -0.0693251972
C  C54  1  0.67020000  0.36300000  0.39660000  1.0 -0.0693251972
C  C55  1  0.36300000  0.67020000  0.57020000  1.0 -0.0693251972
C  C56  1  0.39660000  0.57020000  0.67020000  1.0 -0.0693251972
O  O1  1  0.30660000  0.12920000  0.61360000  1.0 -0.647438171
O  O2  1  0.95060000  0.61360000  0.12920000  1.0 -0.647438171
O  O3  1  0.61360000  0.95060000  0.30660000  1.0 -0.647438171
O  O4  1  0.12920000  0.30660000  0.95060000  1.0 -0.647438171
O  O5  1  0.94340000  0.12080000  0.63640000  1.0 -0.647438171
O  O6  1  0.29940000  0.63640000  0.12080000  1.0 -0.647438171
O  O7  1  0.63640000  0.29940000  0.94340000  1.0 -0.647438171
O  O8  1  0.12080000  0.94340000  0.29940000  1.0 -0.647438171
O  O9  1  0.51880000  0.87160000  0.39940000  1.0 -0.6226914401
O  O10  1  0.21020000  0.39940000  0.87160000  1.0 -0.6226914401
O  O11  1  0.39940000  0.21020000  0.51880000  1.0 -0.6226914401
O  O12  1  0.87160000  0.51880000  0.21020000  1.0 -0.6226914401
O  O13  1  0.73120000  0.37840000  0.85060000  1.0 -0.6226914401
O  O14  1  0.03980000  0.85060000  0.37840000  1.0 -0.6226914401
O  O15  1  0.85060000  0.03980000  0.73120000  1.0 -0.6226914401
O  O16  1  0.37840000  0.73120000  0.03980000  1.0 -0.6226914401
O  O17  1  0.47530000  0.04790000  0.69090000  1.0 -0.6257345403
O  O18  1  0.78590000  0.69090000  0.04790000  1.0 -0.6257345403
O  O19  1  0.69090000  0.78590000  0.47530000  1.0 -0.6257345403
O  O20  1  0.04790000  0.47530000  0.78590000  1.0 -0.6257345403
O  O21  1  0.77470000  0.20210000  0.55910000  1.0 -0.6257345403
O  O22  1  0.46410000  0.55910000  0.20210000  1.0 -0.6257345403
O  O23  1  0.55910000  0.46410000  0.77470000  1.0 -0.6257345403
O  O24  1  0.20210000  0.77470000  0.46410000  1.0 -0.6257345403
