# DDEC6 charges by PACMAN v1.1 (https://github.com/mtap-research/PACMAN-charge/)
data_TAJVOS_ASR_pacman
_symmetry_space_group_name_H-M   'P 1'
_cell_length_a   19.96470000
_cell_length_b   17.58530000
_cell_length_c   11.27570000
_cell_angle_alpha   84.53090000
_cell_angle_beta   61.26020000
_cell_angle_gamma   34.20900000
_symmetry_Int_Tables_number   1
_chemical_formula_structural   ScH8(C7O3)2
_chemical_formula_sum   'Sc4 H32 C56 O24'
_cell_volume   1541.35618651
_cell_formula_units_Z   4
loop_
 _symmetry_equiv_pos_site_id
 _symmetry_equiv_pos_as_xyz
  1  'x, y, z'
loop_
 _atom_site_type_symbol
 _atom_site_label
 _atom_site_symmetry_multiplicity
 _atom_site_fract_x
 _atom_site_fract_y
 _atom_site_fract_z
 _atom_site_occupancy
 _atom_site_charge
Sc  Sc1  1  0.26095000  0.26095000  0.73905000  1.0 1.7837977981
Sc  Sc2  1  0.73905000  0.73905000  0.26095000  1.0 1.7837977981
Sc  Sc3  1  0.98905000  0.98905000  0.51095000  1.0 1.7837977981
Sc  Sc4  1  0.51095000  0.51095000  0.98905000  1.0 1.7837977981
H  H1  1  0.41340000  0.85200000  0.38700000  1.0 0.1268701231
H  H2  1  0.34760000  0.38700000  0.85200000  1.0 0.1268701231
H  H3  1  0.38700000  0.34760000  0.41340000  1.0 0.1268701231
H  H4  1  0.85200000  0.41340000  0.34760000  1.0 0.1268701231
H  H5  1  0.83660000  0.39800000  0.86300000  1.0 0.1268701231
H  H6  1  0.90240000  0.86300000  0.39800000  1.0 0.1268701231
H  H7  1  0.86300000  0.90240000  0.83660000  1.0 0.1268701231
H  H8  1  0.39800000  0.83660000  0.90240000  1.0 0.1268701231
H  H9  1  0.21750000  0.93590000  0.47130000  1.0 0.1118802074
H  H10  1  0.37530000  0.47130000  0.93590000  1.0 0.1118802074
H  H11  1  0.47130000  0.37530000  0.21750000  1.0 0.1118802074
H  H12  1  0.93590000  0.21750000  0.37530000  1.0 0.1118802074
H  H13  1  0.03250000  0.31410000  0.77870000  1.0 0.1118802074
H  H14  1  0.87470000  0.77870000  0.31410000  1.0 0.1118802074
H  H15  1  0.77870000  0.87470000  0.03250000  1.0 0.1118802074
H  H16  1  0.31410000  0.03250000  0.87470000  1.0 0.1118802074
H  H17  1  0.56630000  0.01630000  0.81930000  1.0 0.1118802074
H  H18  1  0.59810000  0.81930000  0.01630000  1.0 0.1118802074
H  H19  1  0.81930000  0.59810000  0.56630000  1.0 0.1118802074
H  H20  1  0.01630000  0.56630000  0.59810000  1.0 0.1118802074
H  H21  1  0.68370000  0.23370000  0.43070000  1.0 0.1118802074
H  H22  1  0.65190000  0.43070000  0.23370000  1.0 0.1118802074
H  H23  1  0.43070000  0.65190000  0.68370000  1.0 0.1118802074
H  H24  1  0.23370000  0.68370000  0.65190000  1.0 0.1118802074
H  H25  1  0.67960000  0.90180000  0.92920000  1.0 0.0937139219
H  H26  1  0.48940000  0.92920000  0.90180000  1.0 0.0937139219
H  H27  1  0.92920000  0.48940000  0.67960000  1.0 0.0937139219
H  H28  1  0.90180000  0.67960000  0.48940000  1.0 0.0937139219
H  H29  1  0.57040000  0.34820000  0.32080000  1.0 0.0937139219
H  H30  1  0.76060000  0.32080000  0.34820000  1.0 0.0937139219
H  H31  1  0.32080000  0.76060000  0.57040000  1.0 0.0937139219
H  H32  1  0.34820000  0.57040000  0.76060000  1.0 0.0937139219
C  C1  1  0.36330000  0.02210000  0.52690000  1.0 0.6365170007
C  C2  1  0.08770000  0.52690000  0.02210000  1.0 0.6365170007
C  C3  1  0.52690000  0.08770000  0.36330000  1.0 0.6365170007
C  C4  1  0.02210000  0.36330000  0.08770000  1.0 0.6365170007
C  C5  1  0.88670000  0.22790000  0.72310000  1.0 0.6365170007
C  C6  1  0.16230000  0.72310000  0.22790000  1.0 0.6365170007
C  C7  1  0.72310000  0.16230000  0.88670000  1.0 0.6365170007
C  C8  1  0.22790000  0.88670000  0.16230000  1.0 0.6365170007
C  C9  1  0.24010000  0.07410000  0.57810000  1.0 -0.0282067492
C  C10  1  0.10770000  0.57810000  0.07410000  1.0 -0.0282067492
C  C11  1  0.57810000  0.10770000  0.24010000  1.0 -0.0282067492
C  C12  1  0.07410000  0.24010000  0.10770000  1.0 -0.0282067492
C  C13  1  0.00990000  0.17590000  0.67190000  1.0 -0.0282067492
C  C14  1  0.14230000  0.67190000  0.17590000  1.0 -0.0282067492
C  C15  1  0.67190000  0.14230000  0.00990000  1.0 -0.0282067492
C  C16  1  0.17590000  0.00990000  0.14230000  1.0 -0.0282067492
C  C17  1  0.29540000  0.96340000  0.48520000  1.0 -0.1187021359
C  C18  1  0.25600000  0.48520000  0.96340000  1.0 -0.1187021359
C  C19  1  0.48520000  0.25600000  0.29540000  1.0 -0.1187021359
C  C20  1  0.96340000  0.29540000  0.25600000  1.0 -0.1187021359
C  C21  1  0.95460000  0.28660000  0.76480000  1.0 -0.1187021359
C  C22  1  0.99400000  0.76480000  0.28660000  1.0 -0.1187021359
C  C23  1  0.76480000  0.99400000  0.95460000  1.0 -0.1187021359
C  C24  1  0.28660000  0.95460000  0.99400000  1.0 -0.1187021359
C  C25  1  0.17710000  0.01590000  0.53610000  1.0 -0.1250350797
C  C26  1  0.27090000  0.53610000  0.01590000  1.0 -0.1187021359
C  C27  1  0.53610000  0.27090000  0.17710000  1.0 -0.1250350797
C  C28  1  0.01590000  0.17710000  0.27090000  1.0 -0.1250350797
C  C29  1  0.07290000  0.23410000  0.71390000  1.0 -0.1250350797
C  C30  1  0.97910000  0.71390000  0.23410000  1.0 -0.1250350797
C  C31  1  0.71390000  0.97910000  0.07290000  1.0 -0.1250350797
C  C32  1  0.23410000  0.07290000  0.97910000  1.0 -0.1250350797
C  C33  1  0.61050000  0.88950000  0.61050000  1.0 0.603492794
C  C34  1  0.88950000  0.61050000  0.88950000  1.0 0.603492794
C  C35  1  0.63950000  0.36050000  0.63950000  1.0 0.603492794
C  C36  1  0.36050000  0.63950000  0.36050000  1.0 0.603492794
C  C37  1  0.68240000  0.81760000  0.68240000  1.0 -0.0208706116
C  C38  1  0.81760000  0.68240000  0.81760000  1.0 -0.0208706116
C  C39  1  0.56760000  0.43240000  0.56760000  1.0 -0.0208706116
C  C40  1  0.43240000  0.56760000  0.43240000  1.0 -0.0208706116
C  C41  1  0.64270000  0.90690000  0.78770000  1.0 -0.0715359422
C  C42  1  0.66270000  0.78770000  0.90690000  1.0 -0.0715359422
C  C43  1  0.78770000  0.66270000  0.64270000  1.0 -0.0715359422
C  C44  1  0.90690000  0.64270000  0.66270000  1.0 -0.0715359422
C  C45  1  0.60730000  0.34310000  0.46230000  1.0 -0.0715359422
C  C46  1  0.58730000  0.46230000  0.34310000  1.0 -0.0715359422
C  C47  1  0.46230000  0.58730000  0.60730000  1.0 -0.0715359422
C  C48  1  0.34310000  0.60730000  0.58730000  1.0 -0.0715359422
C  C49  1  0.71160000  0.83680000  0.85240000  1.0 -0.0715359422
C  C50  1  0.59920000  0.85240000  0.83680000  1.0 -0.0715359422
C  C51  1  0.85240000  0.59920000  0.71160000  1.0 -0.0715359422
C  C52  1  0.83680000  0.71160000  0.59920000  1.0 -0.0715359422
C  C53  1  0.53840000  0.41320000  0.39760000  1.0 -0.0715359422
C  C54  1  0.65080000  0.39760000  0.41320000  1.0 -0.0715359422
C  C55  1  0.39760000  0.65080000  0.53840000  1.0 -0.0715359422
C  C56  1  0.41320000  0.53840000  0.65080000  1.0 -0.0715359422
O  O1  1  0.30425000  0.13125000  0.61295000  1.0 -0.6432721043
O  O2  1  0.95155000  0.61295000  0.13125000  1.0 -0.6432721043
O  O3  1  0.61295000  0.95155000  0.30425000  1.0 -0.6432721043
O  O4  1  0.13125000  0.30425000  0.95155000  1.0 -0.6432721043
O  O5  1  0.94575000  0.11875000  0.63705000  1.0 -0.6432721043
O  O6  1  0.29845000  0.63705000  0.11875000  1.0 -0.6432721043
O  O7  1  0.63705000  0.29845000  0.94575000  1.0 -0.6432721043
O  O8  1  0.11875000  0.94575000  0.29845000  1.0 -0.6432721043
O  O9  1  0.51892000  0.87232000  0.39728000  1.0 -0.6237846935
O  O10  1  0.21148000  0.39728000  0.87232000  1.0 -0.6237846935
O  O11  1  0.39728000  0.21148000  0.51892000  1.0 -0.6237846935
O  O12  1  0.87232000  0.51892000  0.21148000  1.0 -0.6237846935
O  O13  1  0.73108000  0.37768000  0.85272000  1.0 -0.6237846935
O  O14  1  0.03852000  0.85272000  0.37768000  1.0 -0.6237846935
O  O15  1  0.85272000  0.03852000  0.73108000  1.0 -0.6237846935
O  O16  1  0.37768000  0.73108000  0.03852000  1.0 -0.6237846935
O  O17  1  0.47810000  0.04390000  0.68810000  1.0 -0.5827904219
O  O18  1  0.78990000  0.68810000  0.04390000  1.0 -0.5827904219
O  O19  1  0.68810000  0.78990000  0.47810000  1.0 -0.5827904219
O  O20  1  0.04390000  0.47810000  0.78990000  1.0 -0.5827904219
O  O21  1  0.77190000  0.20610000  0.56190000  1.0 -0.5827904219
O  O22  1  0.46010000  0.56190000  0.20610000  1.0 -0.5827904219
O  O23  1  0.56190000  0.46010000  0.77190000  1.0 -0.5827904219
O  O24  1  0.20610000  0.77190000  0.46010000  1.0 -0.5827904219
