# DDEC6 charges by PACMAN v1.1 (https://github.com/mtap-research/PACMAN-charge/)
data_TAJWAF_FSR_pacman
_symmetry_space_group_name_H-M   'P 1'
_cell_length_a   20.03640000
_cell_length_b   17.69650000
_cell_length_c   11.26170000
_cell_angle_alpha   84.45190000
_cell_angle_beta   61.53180000
_cell_angle_gamma   34.01620000
_symmetry_Int_Tables_number   1
_chemical_formula_structural   ScH8(C7O3)2
_chemical_formula_sum   'Sc4 H32 C56 O24'
_cell_volume   1560.86369475
_cell_formula_units_Z   4
loop_
 _symmetry_equiv_pos_site_id
 _symmetry_equiv_pos_as_xyz
  1  'x, y, z'
loop_
 _atom_site_type_symbol
 _atom_site_label
 _atom_site_symmetry_multiplicity
 _atom_site_fract_x
 _atom_site_fract_y
 _atom_site_fract_z
 _atom_site_occupancy
 _atom_site_charge
Sc  Sc1  1  0.26077000  0.26077000  0.73923000  1.0 1.8057894531
Sc  Sc2  1  0.73923000  0.73923000  0.26077000  1.0 1.8057894531
Sc  Sc3  1  0.98923000  0.98923000  0.51077000  1.0 1.8057894531
Sc  Sc4  1  0.51077000  0.51077000  0.98923000  1.0 1.8057894531
H  H1  1  0.41530000  0.85010000  0.38190000  1.0 0.1206151546
H  H2  1  0.35270000  0.38190000  0.85010000  1.0 0.1206151546
H  H3  1  0.38190000  0.35270000  0.41530000  1.0 0.1206151546
H  H4  1  0.85010000  0.41530000  0.35270000  1.0 0.1206151546
H  H5  1  0.83470000  0.39990000  0.86810000  1.0 0.1206151546
H  H6  1  0.89730000  0.86810000  0.39990000  1.0 0.1206151546
H  H7  1  0.86810000  0.89730000  0.83470000  1.0 0.1206151546
H  H8  1  0.39990000  0.83470000  0.89730000  1.0 0.1206151546
H  H9  1  0.21820000  0.93760000  0.46640000  1.0 0.1206151546
H  H10  1  0.37780000  0.46640000  0.93760000  1.0 0.1206151546
H  H11  1  0.46640000  0.37780000  0.21820000  1.0 0.1206151546
H  H12  1  0.93760000  0.21820000  0.37780000  1.0 0.1206151546
H  H13  1  0.03180000  0.31240000  0.78360000  1.0 0.1206151546
H  H14  1  0.87220000  0.78360000  0.31240000  1.0 0.1206151546
H  H15  1  0.78360000  0.87220000  0.03180000  1.0 0.1206151546
H  H16  1  0.31240000  0.03180000  0.87220000  1.0 0.1206151546
H  H17  1  0.49420000  0.04740000  0.88880000  1.0 0.101185606
H  H18  1  0.56960000  0.88880000  0.04740000  1.0 0.101185606
H  H19  1  0.88880000  0.56960000  0.49420000  1.0 0.101185606
H  H20  1  0.04740000  0.49420000  0.56960000  1.0 0.101185606
H  H21  1  0.75580000  0.20260000  0.36120000  1.0 0.101185606
H  H22  1  0.68040000  0.36120000  0.20260000  1.0 0.101185606
H  H23  1  0.36120000  0.68040000  0.75580000  1.0 0.101185606
H  H24  1  0.20260000  0.75580000  0.68040000  1.0 0.101185606
H  H25  1  0.61050000  0.93030000  0.99830000  1.0 0.101185606
H  H26  1  0.46090000  0.99830000  0.93030000  1.0 0.101185606
H  H27  1  0.99830000  0.46090000  0.61050000  1.0 0.101185606
H  H28  1  0.93030000  0.61050000  0.46090000  1.0 0.101185606
H  H29  1  0.63950000  0.31970000  0.25170000  1.0 0.101185606
H  H30  1  0.78910000  0.25170000  0.31970000  1.0 0.101185606
H  H31  1  0.25170000  0.78910000  0.63950000  1.0 0.101185606
H  H32  1  0.31970000  0.63950000  0.78910000  1.0 0.101185606
C  C1  1  0.36460000  0.02080000  0.52600000  1.0 0.6388200122
C  C2  1  0.08860000  0.52600000  0.02080000  1.0 0.6388200122
C  C3  1  0.52600000  0.08860000  0.36460000  1.0 0.6388200122
C  C4  1  0.02080000  0.36460000  0.08860000  1.0 0.6388200122
C  C5  1  0.88540000  0.22920000  0.72400000  1.0 0.6388200122
C  C6  1  0.16140000  0.72400000  0.22920000  1.0 0.6388200122
C  C7  1  0.72400000  0.16140000  0.88540000  1.0 0.6388200122
C  C8  1  0.22920000  0.88540000  0.16140000  1.0 0.6388200122
C  C9  1  0.23900000  0.07580000  0.57840000  1.0 -0.0313420455
C  C10  1  0.10680000  0.57840000  0.07580000  1.0 -0.0313420455
C  C11  1  0.57840000  0.10680000  0.23900000  1.0 -0.0313420455
C  C12  1  0.07580000  0.23900000  0.10680000  1.0 -0.0313420455
C  C13  1  0.01100000  0.17420000  0.67160000  1.0 -0.0313420455
C  C14  1  0.14320000  0.67160000  0.17420000  1.0 -0.0313420455
C  C15  1  0.67160000  0.14320000  0.01100000  1.0 -0.0313420455
C  C16  1  0.17420000  0.01100000  0.14320000  1.0 -0.0313420455
C  C17  1  0.29740000  0.96160000  0.48100000  1.0 -0.1183380446
C  C18  1  0.26000000  0.48100000  0.96160000  1.0 -0.1183380446
C  C19  1  0.48100000  0.26000000  0.29740000  1.0 -0.1183380446
C  C20  1  0.96160000  0.29740000  0.26000000  1.0 -0.1183380446
C  C21  1  0.95260000  0.28840000  0.76900000  1.0 -0.1183380446
C  C22  1  0.99000000  0.76900000  0.28840000  1.0 -0.1183380446
C  C23  1  0.76900000  0.99000000  0.95260000  1.0 -0.1183380446
C  C24  1  0.28840000  0.95260000  0.99000000  1.0 -0.1183380446
C  C25  1  0.18000000  0.01440000  0.53120000  1.0 -0.1124518596
C  C26  1  0.27440000  0.53120000  0.01440000  1.0 -0.1124518596
C  C27  1  0.53120000  0.27440000  0.18000000  1.0 -0.1124518596
C  C28  1  0.01440000  0.18000000  0.27440000  1.0 -0.1124518596
C  C29  1  0.07000000  0.23560000  0.71880000  1.0 -0.1124518596
C  C30  1  0.97560000  0.71880000  0.23560000  1.0 -0.1124518596
C  C31  1  0.71880000  0.97560000  0.07000000  1.0 -0.1124518596
C  C32  1  0.23560000  0.07000000  0.97560000  1.0 -0.1124518596
C  C33  1  0.61120000  0.88880000  0.61120000  1.0 0.5942464295
C  C34  1  0.88880000  0.61120000  0.88880000  1.0 0.5942464295
C  C35  1  0.63880000  0.36120000  0.63880000  1.0 0.5942464295
C  C36  1  0.36120000  0.63880000  0.36120000  1.0 0.5942464295
C  C37  1  0.68310000  0.81690000  0.68310000  1.0 -0.0313420455
C  C38  1  0.81690000  0.68310000  0.81690000  1.0 -0.0313420455
C  C39  1  0.56690000  0.43310000  0.56690000  1.0 -0.0313420455
C  C40  1  0.43310000  0.56690000  0.43310000  1.0 -0.0313420455
C  C41  1  0.59640000  0.92840000  0.83260000  1.0 -0.0724436295
C  C42  1  0.64260000  0.83260000  0.92840000  1.0 -0.0724436295
C  C43  1  0.83260000  0.64260000  0.59640000  1.0 -0.0724436295
C  C44  1  0.92840000  0.59640000  0.64260000  1.0 -0.0724436295
C  C45  1  0.65360000  0.32160000  0.41740000  1.0 -0.0724436295
C  C46  1  0.60740000  0.41740000  0.32160000  1.0 -0.0724436295
C  C47  1  0.41740000  0.60740000  0.65360000  1.0 -0.0724436295
C  C48  1  0.32160000  0.65360000  0.60740000  1.0 -0.0724436295
C  C49  1  0.66710000  0.85690000  0.89590000  1.0 -0.0603961599
C  C50  1  0.58010000  0.89590000  0.85690000  1.0 -0.0603961599
C  C51  1  0.89590000  0.58010000  0.66710000  1.0 -0.0603961599
C  C52  1  0.85690000  0.66710000  0.58010000  1.0 -0.0603961599
C  C53  1  0.58290000  0.39310000  0.35410000  1.0 -0.0603961599
C  C54  1  0.66990000  0.35410000  0.39310000  1.0 -0.0603961599
C  C55  1  0.35410000  0.66990000  0.58290000  1.0 -0.0603961599
C  C56  1  0.39310000  0.58290000  0.66990000  1.0 -0.0603961599
O  O1  1  0.30612000  0.12912000  0.61268000  1.0 -0.654547694
O  O2  1  0.95208000  0.61268000  0.12912000  1.0 -0.654547694
O  O3  1  0.61268000  0.95208000  0.30612000  1.0 -0.654547694
O  O4  1  0.12912000  0.30612000  0.95208000  1.0 -0.654547694
O  O5  1  0.94388000  0.12088000  0.63732000  1.0 -0.654547694
O  O6  1  0.29792000  0.63732000  0.12088000  1.0 -0.654547694
O  O7  1  0.63732000  0.29792000  0.94388000  1.0 -0.654547694
O  O8  1  0.12088000  0.94388000  0.29792000  1.0 -0.654547694
O  O9  1  0.51938000  0.87118000  0.39702000  1.0 -0.6247648177
O  O10  1  0.21242000  0.39702000  0.87118000  1.0 -0.6247648177
O  O11  1  0.39702000  0.21242000  0.51938000  1.0 -0.6247648177
O  O12  1  0.87118000  0.51938000  0.21242000  1.0 -0.6247648177
O  O13  1  0.73062000  0.37882000  0.85298000  1.0 -0.6247648177
O  O14  1  0.03758000  0.85298000  0.37882000  1.0 -0.6247648177
O  O15  1  0.85298000  0.03758000  0.73062000  1.0 -0.6247648177
O  O16  1  0.37882000  0.73062000  0.03758000  1.0 -0.6247648177
O  O17  1  0.47542000  0.04502000  0.69098000  1.0 -0.5924842012
O  O18  1  0.78858000  0.69098000  0.04502000  1.0 -0.5924842012
O  O19  1  0.69098000  0.78858000  0.47542000  1.0 -0.5924842012
O  O20  1  0.04502000  0.47542000  0.78858000  1.0 -0.5924842012
O  O21  1  0.77458000  0.20498000  0.55902000  1.0 -0.5924842012
O  O22  1  0.46142000  0.55902000  0.20498000  1.0 -0.5924842012
O  O23  1  0.55902000  0.46142000  0.77458000  1.0 -0.5924842012
O  O24  1  0.20498000  0.77458000  0.46142000  1.0 -0.5924842012
