# DDEC6 charges by PACMAN v1.1 (https://github.com/mtap-research/PACMAN-charge/)
data_TAKMOK_FSR_pacman
_symmetry_space_group_name_H-M   'P 1'
_cell_length_a   15.12370000
_cell_length_b   15.12370000
_cell_length_c   15.12370000
_cell_angle_alpha   128.37400000
_cell_angle_beta   127.63900000
_cell_angle_gamma   76.61590000
_symmetry_Int_Tables_number   1
_chemical_formula_structural   Dy2NiH12C48(N3O13)2
_chemical_formula_sum   'Dy4 Ni2 H24 C96 N12 O52'
_cell_volume   2085.89346315
_cell_formula_units_Z   2
loop_
 _symmetry_equiv_pos_site_id
 _symmetry_equiv_pos_as_xyz
  1  'x, y, z'
loop_
 _atom_site_type_symbol
 _atom_site_label
 _atom_site_symmetry_multiplicity
 _atom_site_fract_x
 _atom_site_fract_y
 _atom_site_fract_z
 _atom_site_occupancy
 _atom_site_charge
Dy  Dy1  1  0.20929000  0.15525000  0.05404000  1.0 1.756983708
Dy  Dy2  1  0.79071000  0.84475000  0.94596000  1.0 1.756983708
Dy  Dy3  1  0.89879000  0.34475000  0.55404000  1.0 1.756983708
Dy  Dy4  1  0.10121000  0.65525000  0.44596000  1.0 1.756983708
Ni  Ni1  1  0.00000000  0.00000000  0.00000000  1.0 0.6618598209
Ni  Ni2  1  0.00000000  0.50000000  0.50000000  1.0 0.6618598209
H  H1  1  0.69800000  0.01400000  0.68400000  1.0 0.1010101488
H  H2  1  0.30200000  0.98600000  0.31600000  1.0 0.1010101488
H  H3  1  0.67000000  0.48600000  0.18400000  1.0 0.1010101488
H  H4  1  0.33000000  0.51400000  0.81600000  1.0 0.1010101488
H  H5  1  0.92770000  0.18100000  0.74670000  1.0 0.1526956962
H  H6  1  0.07230000  0.81900000  0.25330000  1.0 0.1526956962
H  H7  1  0.56570000  0.31900000  0.24670000  1.0 0.1526956962
H  H8  1  0.43430000  0.68100000  0.75330000  1.0 0.1526956962
H  H9  1  0.58380000  0.12970000  0.45410000  1.0 0.1326326635
H  H10  1  0.41620000  0.87030000  0.54590000  1.0 0.1326326635
H  H11  1  0.32440000  0.37030000  0.95410000  1.0 0.1326326635
H  H12  1  0.67560000  0.62970000  0.04590000  1.0 0.1326326635
H  H13  1  0.07490000  0.90070000  0.70940000  1.0 0.0928382235
H  H14  1  0.92510000  0.63450000  0.82580000  1.0 0.0928382235
H  H15  1  0.80870000  0.59930000  0.67420000  1.0 0.0928382235
H  H16  1  0.19130000  0.86550000  0.79060000  1.0 0.0928382235
H  H17  1  0.92510000  0.09930000  0.29060000  1.0 0.0928382235
H  H18  1  0.07490000  0.36550000  0.17420000  1.0 0.0928382235
H  H19  1  0.19130000  0.40070000  0.32580000  1.0 0.0928382235
H  H20  1  0.80870000  0.13450000  0.20940000  1.0 0.0928382235
H  H21  1  0.09160000  0.75000000  0.84160000  1.0 0.1326326635
H  H22  1  0.90840000  0.75000000  0.65840000  1.0 0.1326326635
H  H23  1  0.90840000  0.25000000  0.15840000  1.0 0.1350807206
H  H24  1  0.09160000  0.25000000  0.34160000  1.0 0.1326326635
C  C1  1  0.92290000  0.08390000  0.83900000  1.0 0.5244958507
C  C2  1  0.07710000  0.91610000  0.16100000  1.0 0.5244958507
C  C3  1  0.75510000  0.41610000  0.33900000  1.0 0.5244958507
C  C4  1  0.24490000  0.58390000  0.66100000  1.0 0.5244958507
C  C5  1  0.82620000  0.09630000  0.72990000  1.0 -0.0521271384
C  C6  1  0.17380000  0.90370000  0.27010000  1.0 -0.0521271384
C  C7  1  0.63360000  0.40370000  0.22990000  1.0 -0.0521271384
C  C8  1  0.36640000  0.59630000  0.77010000  1.0 -0.0521271384
C  C9  1  0.71460000  0.05330000  0.66130000  1.0 -0.1643142855
C  C10  1  0.28540000  0.94670000  0.33870000  1.0 -0.1643142855
C  C11  1  0.60800000  0.44670000  0.16130000  1.0 -0.1643142855
C  C12  1  0.39200000  0.55330000  0.83870000  1.0 -0.1643142855
C  C13  1  0.85140000  0.15250000  0.69890000  1.0 -0.0985997772
C  C14  1  0.14860000  0.84750000  0.30110000  1.0 -0.0985997772
C  C15  1  0.54640000  0.34750000  0.19890000  1.0 -0.0985997772
C  C16  1  0.45360000  0.65250000  0.80110000  1.0 -0.0985997772
C  C17  1  0.79880000  0.22610000  0.57270000  1.0 0.5854164468
C  C18  1  0.20120000  0.77390000  0.42730000  1.0 0.5854164468
C  C19  1  0.34660000  0.27390000  0.07270000  1.0 0.5854164468
C  C20  1  0.65340000  0.72610000  0.92730000  1.0 0.5854164468
C  C21  1  0.76460000  0.16650000  0.59810000  1.0 -0.0170986305
C  C22  1  0.23540000  0.83350000  0.40190000  1.0 -0.0170986305
C  C23  1  0.43160000  0.33350000  0.09810000  1.0 -0.0170986305
C  C24  1  0.56840000  0.66650000  0.90190000  1.0 -0.0170986305
C  C25  1  0.64715000  0.12115000  0.52600000  1.0 -0.1111067205
C  C26  1  0.35285000  0.87885000  0.47400000  1.0 -0.1111067205
C  C27  1  0.40485000  0.37885000  0.02600000  1.0 -0.1111067205
C  C28  1  0.59515000  0.62115000  0.97400000  1.0 -0.1111067205
C  C29  1  0.23022000  0.94972000  0.02430000  1.0 0.4177833045
C  C30  1  0.76978000  0.79408000  0.71950000  1.0 0.4177833045
C  C31  1  0.07458000  0.55028000  0.78050000  1.0 0.4177833045
C  C32  1  0.92542000  0.70592000  0.47570000  1.0 0.4177833045
C  C33  1  0.76978000  0.05028000  0.97570000  1.0 0.4177833045
C  C34  1  0.23022000  0.20592000  0.28050000  1.0 0.4177833045
C  C35  1  0.92542000  0.44972000  0.21950000  1.0 0.4177833045
C  C36  1  0.07458000  0.29408000  0.52430000  1.0 0.4177833045
C  C37  1  0.14530000  0.92500000  0.73890000  1.0 0.26723618
C  C38  1  0.85470000  0.59360000  0.77970000  1.0 0.26723618
C  C39  1  0.81390000  0.57500000  0.72030000  1.0 0.26723618
C  C40  1  0.18610000  0.90640000  0.76110000  1.0 0.26723618
C  C41  1  0.85470000  0.07500000  0.26110000  1.0 0.26723618
C  C42  1  0.14530000  0.40640000  0.22030000  1.0 0.26723618
C  C43  1  0.18610000  0.42500000  0.27970000  1.0 0.26723618
C  C44  1  0.81390000  0.09360000  0.23890000  1.0 0.26723618
C  C45  1  0.25520000  0.83510000  0.99190000  1.0 0.0433462382
C  C46  1  0.74480000  0.73670000  0.57990000  1.0 0.0433462382
C  C47  1  0.15680000  0.66490000  0.92010000  1.0 0.0433462382
C  C48  1  0.84320000  0.76330000  0.50810000  1.0 0.0433462382
C  C49  1  0.74480000  0.16490000  0.00810000  1.0 0.0433462382
C  C50  1  0.25520000  0.26330000  0.42010000  1.0 0.0433462382
C  C51  1  0.84320000  0.33510000  0.07990000  1.0 0.0433462382
C  C52  1  0.15680000  0.23670000  0.49190000  1.0 0.0433462382
C  C53  1  0.16130000  0.75000000  0.91130000  1.0 -0.0985997772
C  C54  1  0.83870000  0.75000000  0.58870000  1.0 -0.0985997772
C  C55  1  0.83870000  0.25000000  0.08870000  1.0 -0.0985997772
C  C56  1  0.16130000  0.25000000  0.41130000  1.0 -0.0985997772
C  C57  1  0.36660000  0.83540000  0.09800000  1.0 -0.0302835838
C  C58  1  0.63340000  0.73140000  0.46880000  1.0 -0.0302835838
C  C59  1  0.26260000  0.66460000  0.03120000  1.0 -0.0302835838
C  C60  1  0.73740000  0.76860000  0.40200000  1.0 -0.0302835838
C  C61  1  0.63340000  0.16460000  0.90200000  1.0 -0.0302835838
C  C62  1  0.36660000  0.26860000  0.53120000  1.0 -0.0302835838
C  C63  1  0.73740000  0.33540000  0.96880000  1.0 -0.0302835838
C  C64  1  0.26260000  0.23140000  0.59800000  1.0 -0.0302835838
C  C65  1  0.38160000  0.74640000  0.10080000  1.0 0.0749195175
C  C66  1  0.61840000  0.71920000  0.36480000  1.0 0.0749195175
C  C67  1  0.35440000  0.75360000  0.13520000  1.0 0.0751083674
C  C68  1  0.64560000  0.78080000  0.39920000  1.0 0.0749195175
C  C69  1  0.61840000  0.25360000  0.89920000  1.0 0.0749195175
C  C70  1  0.38160000  0.28080000  0.63520000  1.0 0.0749195175
C  C71  1  0.64560000  0.24640000  0.86480000  1.0 0.0749195175
C  C72  1  0.35440000  0.21920000  0.60080000  1.0 0.0749195175
C  C73  1  0.62530000  0.04470000  0.53740000  1.0 0.1326326635
C  C74  1  0.37470000  0.91210000  0.41940000  1.0 0.1326326635
C  C75  1  0.49270000  0.45530000  0.08060000  1.0 0.1326326635
C  C76  1  0.50730000  0.58790000  0.96260000  1.0 0.1326326635
C  C77  1  0.37470000  0.95530000  0.46260000  1.0 0.1326326635
C  C78  1  0.62530000  0.08790000  0.58060000  1.0 0.1326326635
C  C79  1  0.50730000  0.54470000  0.91940000  1.0 0.1326326635
C  C80  1  0.49270000  0.41210000  0.03740000  1.0 0.1326326635
C  C81  1  0.35230000  0.85550000  0.14320000  1.0 0.0073399424
C  C82  1  0.64770000  0.79090000  0.50320000  1.0 0.0073399424
C  C83  1  0.28770000  0.64450000  0.99680000  1.0 0.0073399424
C  C84  1  0.71230000  0.70910000  0.35680000  1.0 0.0073399424
C  C85  1  0.64770000  0.14450000  0.85680000  1.0 0.0073399424
C  C86  1  0.35230000  0.20910000  0.49680000  1.0 0.0073399424
C  C87  1  0.71230000  0.35550000  0.00320000  1.0 0.0073399424
C  C88  1  0.28770000  0.29090000  0.64320000  1.0 0.0073399424
C  C89  1  0.24750000  0.84960000  0.02770000  1.0 0.0433462382
C  C90  1  0.75250000  0.78020000  0.60210000  1.0 0.0433462382
C  C91  1  0.17810000  0.65040000  0.89790000  1.0 0.0433462382
C  C92  1  0.82190000  0.71980000  0.47230000  1.0 0.0433462382
C  C93  1  0.75250000  0.15040000  0.97230000  1.0 0.0433462382
C  C94  1  0.24750000  0.21980000  0.39790000  1.0 0.0433462382
C  C95  1  0.82190000  0.34960000  0.10210000  1.0 0.0433462382
C  C96  1  0.17810000  0.28020000  0.52770000  1.0 0.0433462382
N  N1  1  0.49710000  0.75000000  0.20250000  1.0 -0.0302835838
N  N2  1  0.50290000  0.70540000  0.25290000  1.0 -0.0302835838
N  N3  1  0.45250000  0.75000000  0.24710000  1.0 -0.0302835838
N  N4  1  0.54750000  0.79460000  0.29750000  1.0 -0.0302835838
N  N5  1  0.50290000  0.25000000  0.79750000  1.0 -0.0302835838
N  N6  1  0.49710000  0.29460000  0.74710000  1.0 -0.0302835838
N  N7  1  0.54750000  0.25000000  0.75290000  1.0 -0.0302835838
N  N8  1  0.45250000  0.20540000  0.70250000  1.0 -0.0302835838
N  N9  1  0.50939000  0.02459000  0.48480000  1.0 -0.2689941494
N  N10  1  0.49061000  0.97541000  0.51520000  1.0 -0.2689941494
N  N11  1  0.46021000  0.47541000  0.98480000  1.0 -0.2689941494
N  N12  1  0.53979000  0.52459000  0.01520000  1.0 -0.2689941494
O  O1  1  0.12936000  0.96406000  0.96230000  1.0 -0.6095797165
O  O2  1  0.87064000  0.83294000  0.83470000  1.0 -0.6095797165
O  O3  1  0.99824000  0.53594000  0.66530000  1.0 -0.6095797165
O  O4  1  0.00176000  0.66706000  0.53770000  1.0 -0.6095797165
O  O5  1  0.87064000  0.03594000  0.03770000  1.0 -0.6095797165
O  O6  1  0.12936000  0.16706000  0.16530000  1.0 -0.6095797165
O  O7  1  0.00176000  0.46406000  0.33470000  1.0 -0.6095797165
O  O8  1  0.99824000  0.33294000  0.46230000  1.0 -0.6095797165
O  O9  1  0.31457000  0.02767000  0.10470000  1.0 -0.1782063885
O  O10  1  0.68543000  0.79013000  0.71310000  1.0 -0.1782063885
O  O11  1  0.07703000  0.47233000  0.78690000  1.0 -0.1782063885
O  O12  1  0.92297000  0.70987000  0.39530000  1.0 -0.1782063885
O  O13  1  0.68543000  0.97233000  0.89530000  1.0 -0.1782063885
O  O14  1  0.31457000  0.20987000  0.28690000  1.0 -0.1782063885
O  O15  1  0.92297000  0.52767000  0.21310000  1.0 -0.1782063885
O  O16  1  0.07703000  0.29013000  0.60470000  1.0 -0.1782063885
O  O17  1  0.02264000  0.12594000  0.89670000  1.0 -0.6470192267
O  O18  1  0.97736000  0.87406000  0.10330000  1.0 -0.6470192267
O  O19  1  0.77076000  0.37406000  0.39670000  1.0 -0.6470192267
O  O20  1  0.22924000  0.62594000  0.60330000  1.0 -0.6470192267
O  O21  1  0.90444000  0.26174000  0.64270000  1.0 -0.6178488924
O  O22  1  0.09556000  0.73826000  0.35730000  1.0 -0.6178488924
O  O23  1  0.38096000  0.23826000  0.14270000  1.0 -0.6178488924
O  O24  1  0.61904000  0.76174000  0.85730000  1.0 -0.6178488924
O  O25  1  0.72381000  0.24231000  0.48150000  1.0 -0.5989864809
O  O26  1  0.27619000  0.75769000  0.51850000  1.0 -0.5989864809
O  O27  1  0.23919000  0.25769000  0.98150000  1.0 -0.5989864809
O  O28  1  0.76081000  0.74231000  0.01850000  1.0 -0.5989864809
O  O29  1  0.19755000  0.01635000  0.84600000  1.0 -0.3257764248
O  O30  1  0.80245000  0.64845000  0.81880000  1.0 -0.3257764248
O  O31  1  0.82965000  0.48365000  0.68120000  1.0 -0.3257764248
O  O32  1  0.17035000  0.85155000  0.65400000  1.0 -0.3257764248
O  O33  1  0.80245000  0.98365000  0.15400000  1.0 -0.3257764248
O  O34  1  0.19755000  0.35155000  0.18120000  1.0 -0.3257764248
O  O35  1  0.17035000  0.51635000  0.31880000  1.0 -0.3257764248
O  O36  1  0.82965000  0.14845000  0.34600000  1.0 -0.3257764248
O  O37  1  0.90000000  0.01580000  0.84780000  1.0 -0.2230666435
O  O38  1  0.10000000  0.94780000  0.11580000  1.0 -0.2230666435
O  O39  1  0.83200000  0.48420000  0.38420000  1.0 -0.2230666435
O  O40  1  0.16800000  0.55220000  0.65220000  1.0 -0.2230666435
O  O41  1  0.10000000  0.98420000  0.15220000  1.0 -0.2230666435
O  O42  1  0.90000000  0.05220000  0.88420000  1.0 -0.2230666435
O  O43  1  0.16800000  0.51580000  0.61580000  1.0 -0.2230666435
O  O44  1  0.83200000  0.44780000  0.34780000  1.0 -0.2230666435
O  O45  1  0.31660000  0.01080000  0.06540000  1.0 -0.2051333232
O  O46  1  0.68340000  0.74880000  0.69420000  1.0 -0.2034113365
O  O47  1  0.05460000  0.48920000  0.80580000  1.0 -0.2034113365
O  O48  1  0.94540000  0.75120000  0.43460000  1.0 -0.2034113365
O  O49  1  0.68340000  0.98920000  0.93460000  1.0 -0.2034113365
O  O50  1  0.31660000  0.25120000  0.30580000  1.0 -0.2034113365
O  O51  1  0.94540000  0.51080000  0.19420000  1.0 -0.2034113365
O  O52  1  0.05460000  0.24880000  0.56540000  1.0 -0.2034113365
