# DDEC6 charges by PACMAN v1.1 (https://github.com/mtap-research/PACMAN-charge/)
data_TAKYOV_ASR_pacman
_symmetry_space_group_name_H-M   'P 1'
_cell_length_a   15.14730000
_cell_length_b   15.14730000
_cell_length_c   15.47660000
_cell_angle_alpha   90.00000000
_cell_angle_beta   90.00000000
_cell_angle_gamma   120.00000000
_symmetry_Int_Tables_number   1
_chemical_formula_structural   Dy2Co3H18C42(NO4)6
_chemical_formula_sum   'Dy4 Co6 H36 C84 N12 O48'
_cell_volume   3075.22320953
_cell_formula_units_Z   2
loop_
 _symmetry_equiv_pos_site_id
 _symmetry_equiv_pos_as_xyz
  1  'x, y, z'
loop_
 _atom_site_type_symbol
 _atom_site_label
 _atom_site_symmetry_multiplicity
 _atom_site_fract_x
 _atom_site_fract_y
 _atom_site_fract_z
 _atom_site_occupancy
 _atom_site_charge
Dy  Dy1  1  0.33333333  0.66666667  0.25000000  1.0 1.8160573629
Dy  Dy2  1  0.66666667  0.33333333  0.25000000  1.0 1.8160573629
Dy  Dy3  1  0.66666667  0.33333333  0.75000000  1.0 1.8160573629
Dy  Dy4  1  0.33333333  0.66666667  0.75000000  1.0 1.8160573629
Co  Co1  1  0.50000000  0.00000000  0.50000000  1.0 1.068894981
Co  Co2  1  0.00000000  0.50000000  0.50000000  1.0 1.068894981
Co  Co3  1  0.50000000  0.50000000  0.50000000  1.0 1.068894981
Co  Co4  1  0.00000000  0.50000000  0.00000000  1.0 1.068894981
Co  Co5  1  0.50000000  0.00000000  0.00000000  1.0 1.068894981
Co  Co6  1  0.50000000  0.50000000  0.00000000  1.0 1.068894981
H  H1  1  0.71330000  0.94640000  0.34500000  1.0 0.1352718323
H  H2  1  0.05360000  0.76690000  0.34500000  1.0 0.1352718323
H  H3  1  0.23310000  0.28670000  0.34500000  1.0 0.1352718323
H  H4  1  0.28670000  0.05360000  0.34500000  1.0 0.1352718323
H  H5  1  0.94640000  0.23310000  0.34500000  1.0 0.1352718323
H  H6  1  0.76690000  0.71330000  0.34500000  1.0 0.1352718323
H  H7  1  0.94640000  0.71330000  0.15500000  1.0 0.1352718323
H  H8  1  0.76690000  0.05360000  0.15500000  1.0 0.1352718323
H  H9  1  0.28670000  0.23310000  0.15500000  1.0 0.1352718323
H  H10  1  0.05360000  0.28670000  0.15500000  1.0 0.1352718323
H  H11  1  0.23310000  0.94640000  0.15500000  1.0 0.1352718323
H  H12  1  0.71330000  0.76690000  0.15500000  1.0 0.1352718323
H  H13  1  0.28670000  0.05360000  0.65500000  1.0 0.1352718323
H  H14  1  0.94640000  0.23310000  0.65500000  1.0 0.1352718323
H  H15  1  0.76690000  0.71330000  0.65500000  1.0 0.1352718323
H  H16  1  0.71330000  0.94640000  0.65500000  1.0 0.1352718323
H  H17  1  0.05360000  0.76690000  0.65500000  1.0 0.1352718323
H  H18  1  0.23310000  0.28670000  0.65500000  1.0 0.1352718323
H  H19  1  0.05360000  0.28670000  0.84500000  1.0 0.1352718323
H  H20  1  0.23310000  0.94640000  0.84500000  1.0 0.1352718323
H  H21  1  0.71330000  0.76690000  0.84500000  1.0 0.1352718323
H  H22  1  0.94640000  0.71330000  0.84500000  1.0 0.1352718323
H  H23  1  0.76690000  0.05360000  0.84500000  1.0 0.1352718323
H  H24  1  0.28670000  0.23310000  0.84500000  1.0 0.1352718323
H  H25  1  0.80070000  0.90035000  0.25000000  1.0 0.1064708419
H  H26  1  0.09965000  0.90035000  0.25000000  1.0 0.1064708419
H  H27  1  0.09965000  0.19930000  0.25000000  1.0 0.1064708419
H  H28  1  0.19930000  0.09965000  0.25000000  1.0 0.1064708419
H  H29  1  0.90035000  0.09965000  0.25000000  1.0 0.1064708419
H  H30  1  0.90035000  0.80070000  0.25000000  1.0 0.1064708419
H  H31  1  0.19930000  0.09965000  0.75000000  1.0 0.1064708419
H  H32  1  0.90035000  0.09965000  0.75000000  1.0 0.1064708419
H  H33  1  0.90035000  0.80070000  0.75000000  1.0 0.1064708419
H  H34  1  0.80070000  0.90035000  0.75000000  1.0 0.1064708419
H  H35  1  0.09965000  0.90035000  0.75000000  1.0 0.1064708419
H  H36  1  0.09965000  0.19930000  0.75000000  1.0 0.1064708419
C  C1  1  0.50760000  0.86200000  0.36080000  1.0 0.5769260736
C  C2  1  0.13800000  0.64560000  0.36080000  1.0 0.5769260736
C  C3  1  0.35440000  0.49240000  0.36080000  1.0 0.5769260736
C  C4  1  0.49240000  0.13800000  0.36080000  1.0 0.5769260736
C  C5  1  0.86200000  0.35440000  0.36080000  1.0 0.5769260736
C  C6  1  0.64560000  0.50760000  0.36080000  1.0 0.5769260736
C  C7  1  0.86200000  0.50760000  0.13920000  1.0 0.5769260736
C  C8  1  0.64560000  0.13800000  0.13920000  1.0 0.5769260736
C  C9  1  0.49240000  0.35440000  0.13920000  1.0 0.5769260736
C  C10  1  0.13800000  0.49240000  0.13920000  1.0 0.5769260736
C  C11  1  0.35440000  0.86200000  0.13920000  1.0 0.5769260736
C  C12  1  0.50760000  0.64560000  0.13920000  1.0 0.5769260736
C  C13  1  0.49240000  0.13800000  0.63920000  1.0 0.5769260736
C  C14  1  0.86200000  0.35440000  0.63920000  1.0 0.5769260736
C  C15  1  0.64560000  0.50760000  0.63920000  1.0 0.5769260736
C  C16  1  0.50760000  0.86200000  0.63920000  1.0 0.5769260736
C  C17  1  0.13800000  0.64560000  0.63920000  1.0 0.5769260736
C  C18  1  0.35440000  0.49240000  0.63920000  1.0 0.5769260736
C  C19  1  0.13800000  0.49240000  0.86080000  1.0 0.5769260736
C  C20  1  0.35440000  0.86200000  0.86080000  1.0 0.5769260736
C  C21  1  0.50760000  0.64560000  0.86080000  1.0 0.5769260736
C  C22  1  0.86200000  0.50760000  0.86080000  1.0 0.5769260736
C  C23  1  0.64560000  0.13800000  0.86080000  1.0 0.5769260736
C  C24  1  0.49240000  0.35440000  0.86080000  1.0 0.5769260736
C  C25  1  0.57340000  0.83850000  0.30390000  1.0 0.1327072139
C  C26  1  0.16150000  0.73490000  0.30390000  1.0 0.1327072139
C  C27  1  0.26510000  0.42660000  0.30390000  1.0 0.1327072139
C  C28  1  0.42660000  0.16150000  0.30390000  1.0 0.1327072139
C  C29  1  0.83850000  0.26510000  0.30390000  1.0 0.1327072139
C  C30  1  0.73490000  0.57340000  0.30390000  1.0 0.1327072139
C  C31  1  0.83850000  0.57340000  0.19610000  1.0 0.1327072139
C  C32  1  0.73490000  0.16150000  0.19610000  1.0 0.1327072139
C  C33  1  0.42660000  0.26510000  0.19610000  1.0 0.1327072139
C  C34  1  0.16150000  0.42660000  0.19610000  1.0 0.1327072139
C  C35  1  0.26510000  0.83850000  0.19610000  1.0 0.1327072139
C  C36  1  0.57340000  0.73490000  0.19610000  1.0 0.1327072139
C  C37  1  0.42660000  0.16150000  0.69610000  1.0 0.1327072139
C  C38  1  0.83850000  0.26510000  0.69610000  1.0 0.1327072139
C  C39  1  0.73490000  0.57340000  0.69610000  1.0 0.1327072139
C  C40  1  0.57340000  0.83850000  0.69610000  1.0 0.1327072139
C  C41  1  0.16150000  0.73490000  0.69610000  1.0 0.1327072139
C  C42  1  0.26510000  0.42660000  0.69610000  1.0 0.1327072139
C  C43  1  0.16150000  0.42660000  0.80390000  1.0 0.1327072139
C  C44  1  0.26510000  0.83850000  0.80390000  1.0 0.1327072139
C  C45  1  0.57340000  0.73490000  0.80390000  1.0 0.1327072139
C  C46  1  0.83850000  0.57340000  0.80390000  1.0 0.1327072139
C  C47  1  0.73490000  0.16150000  0.80390000  1.0 0.1327072139
C  C48  1  0.42660000  0.26510000  0.80390000  1.0 0.1327072139
C  C49  1  0.67860000  0.89280000  0.30640000  1.0 -0.1348200503
C  C50  1  0.10720000  0.78580000  0.30640000  1.0 -0.1348200503
C  C51  1  0.21420000  0.32140000  0.30640000  1.0 -0.1348200503
C  C52  1  0.32140000  0.10720000  0.30640000  1.0 -0.1348200503
C  C53  1  0.89280000  0.21420000  0.30640000  1.0 -0.1348200503
C  C54  1  0.78580000  0.67860000  0.30640000  1.0 -0.1348200503
C  C55  1  0.89280000  0.67860000  0.19360000  1.0 -0.1348200503
C  C56  1  0.78580000  0.10720000  0.19360000  1.0 -0.1348200503
C  C57  1  0.32140000  0.21420000  0.19360000  1.0 -0.1348200503
C  C58  1  0.10720000  0.32140000  0.19360000  1.0 -0.1348200503
C  C59  1  0.21420000  0.89280000  0.19360000  1.0 -0.1354220721
C  C60  1  0.67860000  0.78580000  0.19360000  1.0 -0.1348200503
C  C61  1  0.32140000  0.10720000  0.69360000  1.0 -0.1348200503
C  C62  1  0.89280000  0.21420000  0.69360000  1.0 -0.1348200503
C  C63  1  0.78580000  0.67860000  0.69360000  1.0 -0.1348200503
C  C64  1  0.67860000  0.89280000  0.69360000  1.0 -0.1348200503
C  C65  1  0.10720000  0.78580000  0.69360000  1.0 -0.1348200503
C  C66  1  0.21420000  0.32140000  0.69360000  1.0 -0.1348200503
C  C67  1  0.10720000  0.32140000  0.80640000  1.0 -0.1348200503
C  C68  1  0.21420000  0.89280000  0.80640000  1.0 -0.1348200503
C  C69  1  0.67860000  0.78580000  0.80640000  1.0 -0.1348200503
C  C70  1  0.89280000  0.67860000  0.80640000  1.0 -0.1348200503
C  C71  1  0.78580000  0.10720000  0.80640000  1.0 -0.1348200503
C  C72  1  0.32140000  0.21420000  0.80640000  1.0 -0.1348200503
C  C73  1  0.72980000  0.86490000  0.25000000  1.0 -0.0626732323
C  C74  1  0.13510000  0.86490000  0.25000000  1.0 -0.0626732323
C  C75  1  0.13510000  0.27020000  0.25000000  1.0 -0.0626732323
C  C76  1  0.27020000  0.13510000  0.25000000  1.0 -0.0626732323
C  C77  1  0.86490000  0.13510000  0.25000000  1.0 -0.0626732323
C  C78  1  0.86490000  0.72980000  0.25000000  1.0 -0.0626732323
C  C79  1  0.27020000  0.13510000  0.75000000  1.0 -0.0626732323
C  C80  1  0.86490000  0.13510000  0.75000000  1.0 -0.0626732323
C  C81  1  0.86490000  0.72980000  0.75000000  1.0 -0.0626732323
C  C82  1  0.72980000  0.86490000  0.75000000  1.0 -0.0626732323
C  C83  1  0.13510000  0.86490000  0.75000000  1.0 -0.0626732323
C  C84  1  0.13510000  0.27020000  0.75000000  1.0 -0.0626732323
N  N1  1  0.52190000  0.76095000  0.25000000  1.0 -0.3166212925
N  N2  1  0.23905000  0.76095000  0.25000000  1.0 -0.3166212925
N  N3  1  0.23905000  0.47810000  0.25000000  1.0 -0.3166212925
N  N4  1  0.47810000  0.23905000  0.25000000  1.0 -0.3166212925
N  N5  1  0.76095000  0.23905000  0.25000000  1.0 -0.3166212925
N  N6  1  0.76095000  0.52190000  0.25000000  1.0 -0.3166212925
N  N7  1  0.47810000  0.23905000  0.75000000  1.0 -0.3166212925
N  N8  1  0.76095000  0.23905000  0.75000000  1.0 -0.3166212925
N  N9  1  0.76095000  0.52190000  0.75000000  1.0 -0.3166212925
N  N10  1  0.52190000  0.76095000  0.75000000  1.0 -0.3166212925
N  N11  1  0.23905000  0.76095000  0.75000000  1.0 -0.3166212925
N  N12  1  0.23905000  0.47810000  0.75000000  1.0 -0.3166212925
O  O1  1  0.41230000  0.80120000  0.35640000  1.0 -0.5859080889
O  O2  1  0.19880000  0.61110000  0.35640000  1.0 -0.5859080889
O  O3  1  0.38890000  0.58770000  0.35640000  1.0 -0.5859080889
O  O4  1  0.58770000  0.19880000  0.35640000  1.0 -0.5859080889
O  O5  1  0.80120000  0.38890000  0.35640000  1.0 -0.5859080889
O  O6  1  0.61110000  0.41230000  0.35640000  1.0 -0.5859080889
O  O7  1  0.80120000  0.41230000  0.14360000  1.0 -0.5859080889
O  O8  1  0.61110000  0.19880000  0.14360000  1.0 -0.5859080889
O  O9  1  0.58770000  0.38890000  0.14360000  1.0 -0.5859080889
O  O10  1  0.19880000  0.58770000  0.14360000  1.0 -0.5859080889
O  O11  1  0.38890000  0.80120000  0.14360000  1.0 -0.5859080889
O  O12  1  0.41230000  0.61110000  0.14360000  1.0 -0.5859080889
O  O13  1  0.58770000  0.19880000  0.64360000  1.0 -0.5859080889
O  O14  1  0.80120000  0.38890000  0.64360000  1.0 -0.5859080889
O  O15  1  0.61110000  0.41230000  0.64360000  1.0 -0.5859080889
O  O16  1  0.41230000  0.80120000  0.64360000  1.0 -0.5859080889
O  O17  1  0.19880000  0.61110000  0.64360000  1.0 -0.5859080889
O  O18  1  0.38890000  0.58770000  0.64360000  1.0 -0.5859080889
O  O19  1  0.19880000  0.58770000  0.85640000  1.0 -0.5859080889
O  O20  1  0.38890000  0.80120000  0.85640000  1.0 -0.5859080889
O  O21  1  0.41230000  0.61110000  0.85640000  1.0 -0.5859080889
O  O22  1  0.80120000  0.41230000  0.85640000  1.0 -0.5859080889
O  O23  1  0.61110000  0.19880000  0.85640000  1.0 -0.5859080889
O  O24  1  0.58770000  0.38890000  0.85640000  1.0 -0.5859080889
O  O25  1  0.55160000  0.93850000  0.40800000  1.0 -0.5576400273
O  O26  1  0.06150000  0.61310000  0.40800000  1.0 -0.5576400273
O  O27  1  0.38690000  0.44840000  0.40800000  1.0 -0.5576400273
O  O28  1  0.44840000  0.06150000  0.40800000  1.0 -0.5576400273
O  O29  1  0.93850000  0.38690000  0.40800000  1.0 -0.5576400273
O  O30  1  0.61310000  0.55160000  0.40800000  1.0 -0.5576400273
O  O31  1  0.93850000  0.55160000  0.09200000  1.0 -0.5576400273
O  O32  1  0.61310000  0.06150000  0.09200000  1.0 -0.5576400273
O  O33  1  0.44840000  0.38690000  0.09200000  1.0 -0.5576400273
O  O34  1  0.06150000  0.44840000  0.09200000  1.0 -0.5576400273
O  O35  1  0.38690000  0.93850000  0.09200000  1.0 -0.5576400273
O  O36  1  0.55160000  0.61310000  0.09200000  1.0 -0.5576400273
O  O37  1  0.44840000  0.06150000  0.59200000  1.0 -0.5576400273
O  O38  1  0.93850000  0.38690000  0.59200000  1.0 -0.5576400273
O  O39  1  0.61310000  0.55160000  0.59200000  1.0 -0.5576400273
O  O40  1  0.55160000  0.93850000  0.59200000  1.0 -0.5576400273
O  O41  1  0.06150000  0.61310000  0.59200000  1.0 -0.5576400273
O  O42  1  0.38690000  0.44840000  0.59200000  1.0 -0.5576400273
O  O43  1  0.06150000  0.44840000  0.90800000  1.0 -0.5576400273
O  O44  1  0.38690000  0.93850000  0.90800000  1.0 -0.5576400273
O  O45  1  0.55160000  0.61310000  0.90800000  1.0 -0.5576400273
O  O46  1  0.93850000  0.55160000  0.90800000  1.0 -0.5576400273
O  O47  1  0.61310000  0.06150000  0.90800000  1.0 -0.5576400273
O  O48  1  0.44840000  0.38690000  0.90800000  1.0 -0.5576400273
