# DDEC6 charges by PACMAN v1.1 (https://github.com/mtap-research/PACMAN-charge/)
data_TANFEV_FSR_pacman
_symmetry_space_group_name_H-M   'P 1'
_cell_length_a   13.23680000
_cell_length_b   13.23680000
_cell_length_c   13.23680000
_cell_angle_alpha   99.47300000
_cell_angle_beta   99.47300000
_cell_angle_gamma   132.13200000
_symmetry_Int_Tables_number   1
_chemical_formula_structural   Co3Mo4(PO7)4
_chemical_formula_sum   'Co6 Mo8 P8 O56'
_cell_volume   1572.06446354
_cell_formula_units_Z   2
loop_
 _symmetry_equiv_pos_site_id
 _symmetry_equiv_pos_as_xyz
  1  'x, y, z'
loop_
 _atom_site_type_symbol
 _atom_site_label
 _atom_site_symmetry_multiplicity
 _atom_site_fract_x
 _atom_site_fract_y
 _atom_site_fract_z
 _atom_site_occupancy
 _atom_site_charge
Co  Co1  1  0.62500000  0.87500000  0.75000000  1.0 1.3827692714
Co  Co2  1  0.12500000  0.87500000  0.25000000  1.0 1.3827692714
Co  Co3  1  0.12500000  0.37500000  0.25000000  1.0 1.3859747495
Co  Co4  1  0.12500000  0.87500000  0.75000000  1.0 1.3859747495
Co  Co5  1  0.75000000  0.25000000  0.50000000  1.0 1.2632181492
Co  Co6  1  0.50000000  0.50000000  0.00000000  1.0 1.2526399936
Mo  Mo1  1  0.47808000  0.00810000  0.85146000  1.0 2.1722396459
Mo  Mo2  1  0.15664000  0.62662000  0.14854000  1.0 2.1722396459
Mo  Mo3  1  0.87662000  0.22808000  0.96998000  1.0 2.1722396459
Mo  Mo4  1  0.25810000  0.90664000  0.03002000  1.0 2.1637441959
Mo  Mo5  1  0.77192000  0.74190000  0.64854000  1.0 2.1722396459
Mo  Mo6  1  0.09336000  0.12338000  0.35146000  1.0 2.1722396459
Mo  Mo7  1  0.37338000  0.52192000  0.53002000  1.0 2.1722396459
Mo  Mo8  1  0.99190000  0.84336000  0.46998000  1.0 2.1637441959
P  P1  1  0.70769000  0.15411000  0.71806000  1.0 1.4634312636
P  P2  1  0.43605000  0.98963000  0.28194000  1.0 1.4655926552
P  P3  1  0.23963000  0.45769000  0.05358000  1.0 1.4655926552
P  P4  1  0.40411000  0.18605000  0.94642000  1.0 1.4655926552
P  P5  1  0.54231000  0.59589000  0.78194000  1.0 1.4655926552
P  P6  1  0.81395000  0.76037000  0.21806000  1.0 1.4634312636
P  P7  1  0.01037000  0.29231000  0.44642000  1.0 1.4655926552
P  P8  1  0.84589000  0.56395000  0.55358000  1.0 1.4634312636
O  O1  1  0.30750000  0.91420000  0.75310000  1.0 -0.6223859195
O  O2  1  0.16110000  0.55440000  0.24690000  1.0 -0.6223859195
O  O3  1  0.80440000  0.05750000  0.89330000  1.0 -0.6223859195
O  O4  1  0.16420000  0.91110000  0.10670000  1.0 -0.6223859195
O  O5  1  0.94250000  0.83580000  0.74690000  1.0 -0.6223859195
O  O6  1  0.08890000  0.19560000  0.25310000  1.0 -0.6223859195
O  O7  1  0.44560000  0.69250000  0.60670000  1.0 -0.6223859195
O  O8  1  0.08580000  0.83890000  0.39330000  1.0 -0.6223859195
O  O9  1  0.70980000  0.17440000  0.96500000  1.0 -0.6664977823
O  O10  1  0.20940000  0.74480000  0.03500000  1.0 -0.6621352076
O  O11  1  0.99480000  0.45980000  0.03540000  1.0 -0.6664977823
O  O12  1  0.42440000  0.95940000  0.96460000  1.0 -0.6664977823
O  O13  1  0.54020000  0.57560000  0.53500000  1.0 -0.6664977823
O  O14  1  0.04060000  0.00520000  0.46500000  1.0 -0.6621352076
O  O15  1  0.25520000  0.29020000  0.46460000  1.0 -0.6664977823
O  O16  1  0.82560000  0.79060000  0.53540000  1.0 -0.6621352076
O  O17  1  0.49980000  0.89360000  0.80700000  1.0 -0.6453277622
O  O18  1  0.08660000  0.69280000  0.19300000  1.0 -0.6436866504
O  O19  1  0.94280000  0.24980000  0.10620000  1.0 -0.6436866504
O  O20  1  0.14360000  0.83660000  0.89380000  1.0 -0.6436866504
O  O21  1  0.75020000  0.85640000  0.69300000  1.0 -0.6436866504
O  O22  1  0.16340000  0.05720000  0.30700000  1.0 -0.6436866504
O  O23  1  0.30720000  0.50020000  0.39380000  1.0 -0.6436866504
O  O24  1  0.10640000  0.91340000  0.60620000  1.0 -0.6436866504
O  O25  1  0.58500000  0.12120000  0.75220000  1.0 -0.6802969057
O  O26  1  0.36900000  0.83280000  0.24780000  1.0 -0.6802969057
O  O27  1  0.08280000  0.33500000  0.96380000  1.0 -0.6802969057
O  O28  1  0.37120000  0.11900000  0.03620000  1.0 -0.6802969057
O  O29  1  0.66500000  0.62880000  0.74780000  1.0 -0.6802969057
O  O30  1  0.88100000  0.91720000  0.25220000  1.0 -0.6802969057
O  O31  1  0.16720000  0.41500000  0.53620000  1.0 -0.6802969057
O  O32  1  0.87880000  0.63100000  0.46380000  1.0 -0.6802969057
O  O33  1  0.72730000  0.22860000  0.63710000  1.0 -0.6621352076
O  O34  1  0.59150000  0.09020000  0.36290000  1.0 -0.6621352076
O  O35  1  0.34020000  0.47730000  0.99870000  1.0 -0.6621352076
O  O36  1  0.47860000  0.34150000  0.00130000  1.0 -0.6621352076
O  O37  1  0.52270000  0.52140000  0.86290000  1.0 -0.6621352076
O  O38  1  0.65850000  0.65980000  0.13710000  1.0 -0.6621352076
O  O39  1  0.90980000  0.27270000  0.50130000  1.0 -0.6621352076
O  O40  1  0.77140000  0.40850000  0.49870000  1.0 -0.6621352076
O  O41  1  0.66760000  0.01360000  0.66820000  1.0 -0.7031327341
O  O42  1  0.34540000  0.99940000  0.33180000  1.0 -0.7031327341
O  O43  1  0.24940000  0.41760000  0.15400000  1.0 -0.7031327341
O  O44  1  0.26360000  0.09540000  0.84600000  1.0 -0.7031327341
O  O45  1  0.58240000  0.73640000  0.83180000  1.0 -0.7031327341
O  O46  1  0.90460000  0.75060000  0.16820000  1.0 -0.7031327341
O  O47  1  0.00060000  0.33240000  0.34600000  1.0 -0.7031327341
O  O48  1  0.98640000  0.65460000  0.65400000  1.0 -0.7031327341
O  O49  1  0.85250000  0.26460000  0.82130000  1.0 -0.6664977823
O  O50  1  0.44330000  0.03120000  0.17870000  1.0 -0.6621352076
O  O51  1  0.28120000  0.60250000  0.08790000  1.0 -0.6621352076
O  O52  1  0.51460000  0.19330000  0.91210000  1.0 -0.6664977823
O  O53  1  0.39750000  0.48540000  0.67870000  1.0 -0.6621352076
O  O54  1  0.80670000  0.71880000  0.32130000  1.0 -0.6664977823
O  O55  1  0.96880000  0.14750000  0.41210000  1.0 -0.6664977823
O  O56  1  0.73540000  0.55670000  0.58790000  1.0 -0.6664977823
