# DDEC6 charges by PACMAN v1.1 (https://github.com/mtap-research/PACMAN-charge/)
data_TANLAX_ion_pacman
_symmetry_space_group_name_H-M   'P 1'
_cell_length_a   21.10200000
_cell_length_b   21.10200000
_cell_length_c   10.15140000
_cell_angle_alpha   78.30590000
_cell_angle_beta   101.69400000
_cell_angle_gamma   58.72090000
_symmetry_Int_Tables_number   1
_chemical_formula_structural   Tb5H64C16S12(NO7)8
_chemical_formula_sum   'Tb10 H128 C32 S24 N16 O112'
_cell_volume   3517.76267185
_cell_formula_units_Z   2
loop_
 _symmetry_equiv_pos_site_id
 _symmetry_equiv_pos_as_xyz
  1  'x, y, z'
loop_
 _atom_site_type_symbol
 _atom_site_label
 _atom_site_symmetry_multiplicity
 _atom_site_fract_x
 _atom_site_fract_y
 _atom_site_fract_z
 _atom_site_occupancy
 _atom_site_charge
Tb  Tb1  1  0.71901000  0.71901000  0.75000000  1.0 2.2080576694
Tb  Tb2  1  0.28099000  0.28099000  0.25000000  1.0 2.2043841159
Tb  Tb3  1  0.93677000  0.44887000  0.99353000  1.0 2.1133402859
Tb  Tb4  1  0.44887000  0.93677000  0.50647000  1.0 2.118999747
Tb  Tb5  1  0.06323000  0.55113000  0.00647000  1.0 2.118999747
Tb  Tb6  1  0.55113000  0.06323000  0.49353000  1.0 2.1133402859
Tb  Tb7  1  0.89051000  0.17075000  0.01696000  1.0 1.8317898189
Tb  Tb8  1  0.17075000  0.89051000  0.48304000  1.0 1.8317898189
Tb  Tb9  1  0.10949000  0.82925000  0.98304000  1.0 1.8317898189
Tb  Tb10  1  0.82925000  0.10949000  0.51696000  1.0 1.8317898189
H  H1  1  0.58590000  0.25350000  0.19840000  1.0 0.2340399748
H  H2  1  0.53920000  0.25720000  0.28650000  1.0 0.2614317587
H  H3  1  0.48790000  0.25690000  0.08010000  1.0 0.1408876027
H  H4  1  0.47760000  0.33580000  0.00380000  1.0 0.1085930367
H  H5  1  0.42880000  0.33560000  0.10110000  1.0 0.1495682791
H  H6  1  0.59030000  0.32410000  0.33020000  1.0 0.1043811491
H  H7  1  0.49690000  0.38230000  0.26600000  1.0 0.1299153175
H  H8  1  0.54530000  0.38010000  0.16650000  1.0 0.0905567272
H  H9  1  0.25350000  0.58590000  0.30160000  1.0 0.2340399748
H  H10  1  0.25720000  0.53920000  0.21350000  1.0 0.2614317587
H  H11  1  0.25690000  0.48790000  0.41990000  1.0 0.1408876027
H  H12  1  0.33580000  0.47760000  0.49620000  1.0 0.1085930367
H  H13  1  0.33560000  0.42880000  0.39890000  1.0 0.1495682791
H  H14  1  0.32410000  0.59030000  0.16980000  1.0 0.1043811491
H  H15  1  0.38230000  0.49690000  0.23400000  1.0 0.1299153175
H  H16  1  0.38010000  0.54530000  0.33350000  1.0 0.0905567272
H  H17  1  0.41410000  0.74650000  0.80160000  1.0 0.2340399748
H  H18  1  0.46080000  0.74280000  0.71350000  1.0 0.2614317587
H  H19  1  0.51210000  0.74310000  0.91990000  1.0 0.1408876027
H  H20  1  0.52240000  0.66420000  0.99620000  1.0 0.1085930367
H  H21  1  0.57120000  0.66440000  0.89890000  1.0 0.1495682791
H  H22  1  0.40970000  0.67590000  0.66980000  1.0 0.1043811491
H  H23  1  0.50310000  0.61770000  0.73400000  1.0 0.1299153175
H  H24  1  0.45470000  0.61990000  0.83350000  1.0 0.0905567272
H  H25  1  0.74650000  0.41410000  0.69840000  1.0 0.2340399748
H  H26  1  0.74280000  0.46080000  0.78650000  1.0 0.2614317587
H  H27  1  0.74310000  0.51210000  0.58010000  1.0 0.1408876027
H  H28  1  0.66420000  0.52240000  0.50380000  1.0 0.1085930367
H  H29  1  0.66440000  0.57120000  0.60110000  1.0 0.1495682791
H  H30  1  0.67590000  0.40970000  0.83020000  1.0 0.1043811491
H  H31  1  0.61770000  0.50310000  0.76600000  1.0 0.1299153175
H  H32  1  0.61990000  0.45470000  0.66650000  1.0 0.0905567272
H  H33  1  0.07480000  0.15000000  0.20140000  1.0 0.2503274357
H  H34  1  0.15000000  0.07480000  0.29860000  1.0 0.2503274357
H  H35  1  0.10720000  0.15700000  0.41440000  1.0 0.1299153175
H  H36  1  0.15700000  0.10720000  0.08560000  1.0 0.1299153175
H  H37  1  0.10660000  0.21880000  0.29780000  1.0 0.1495682791
H  H38  1  0.21880000  0.10660000  0.20220000  1.0 0.1495682791
H  H39  1  0.18770000  0.13830000  0.40300000  1.0 0.1408876027
H  H40  1  0.13830000  0.18770000  0.09700000  1.0 0.1408876027
H  H41  1  0.92520000  0.85000000  0.79860000  1.0 0.2503274357
H  H42  1  0.85000000  0.92520000  0.70140000  1.0 0.2503274357
H  H43  1  0.89280000  0.84300000  0.58560000  1.0 0.1299153175
H  H44  1  0.84300000  0.89280000  0.91440000  1.0 0.1299153175
H  H45  1  0.89340000  0.78120000  0.70220000  1.0 0.1408876027
H  H46  1  0.78120000  0.89340000  0.79780000  1.0 0.1495682791
H  H47  1  0.81230000  0.86170000  0.59700000  1.0 0.1408876027
H  H48  1  0.86170000  0.81230000  0.90300000  1.0 0.1408876027
H  H49  1  0.94300000  0.95740000  0.17360000  1.0 0.270156463
H  H50  1  0.95740000  0.94300000  0.32640000  1.0 0.270156463
H  H51  1  0.03430000  0.82570000  0.29990000  1.0 0.1299153175
H  H52  1  0.82570000  0.03430000  0.20010000  1.0 0.1299153175
H  H53  1  0.95710000  0.84130000  0.19810000  1.0 0.1299153175
H  H54  1  0.84130000  0.95710000  0.30190000  1.0 0.1299153175
H  H55  1  0.97270000  0.82490000  0.36310000  1.0 0.1210143405
H  H56  1  0.82490000  0.97270000  0.13690000  1.0 0.1210143405
H  H57  1  0.05700000  0.04260000  0.82640000  1.0 0.270156463
H  H58  1  0.04260000  0.05700000  0.67360000  1.0 0.270156463
H  H59  1  0.96570000  0.17430000  0.70010000  1.0 0.1299153175
H  H60  1  0.17430000  0.96570000  0.79990000  1.0 0.1299153175
H  H61  1  0.04290000  0.15870000  0.80190000  1.0 0.1299153175
H  H62  1  0.15870000  0.04290000  0.69810000  1.0 0.1299153175
H  H63  1  0.02730000  0.17510000  0.63690000  1.0 0.1210143405
H  H64  1  0.17510000  0.02730000  0.86310000  1.0 0.1210143405
H  H65  1  0.95970000  0.44390000  0.63230000  1.0 0.270156463
H  H66  1  0.00940000  0.41580000  0.54790000  1.0 0.270156463
H  H67  1  0.03260000  0.30920000  0.71390000  1.0 0.1408876027
H  H68  1  0.99540000  0.31520000  0.55790000  1.0 0.1210143405
H  H69  1  0.94170000  0.34550000  0.64890000  1.0 0.1210143405
H  H70  1  0.88820000  0.52400000  0.39830000  1.0 0.1495682791
H  H71  1  0.85100000  0.48080000  0.45190000  1.0 0.1210143405
H  H72  1  0.90450000  0.44970000  0.36090000  1.0 0.1299153175
H  H73  1  0.44390000  0.95970000  0.86770000  1.0 0.270156463
H  H74  1  0.41580000  0.00940000  0.95210000  1.0 0.270156463
H  H75  1  0.30920000  0.03260000  0.78610000  1.0 0.1408876027
H  H76  1  0.31520000  0.99540000  0.94210000  1.0 0.1210143405
H  H77  1  0.34550000  0.94170000  0.85110000  1.0 0.1210143405
H  H78  1  0.52400000  0.88820000  0.10170000  1.0 0.1495682791
H  H79  1  0.48080000  0.85100000  0.04810000  1.0 0.1210143405
H  H80  1  0.44970000  0.90450000  0.13910000  1.0 0.1299153175
H  H81  1  0.04030000  0.55610000  0.36770000  1.0 0.270156463
H  H82  1  0.99060000  0.58420000  0.45210000  1.0 0.270156463
H  H83  1  0.96740000  0.69080000  0.28610000  1.0 0.1408876027
H  H84  1  0.00460000  0.68480000  0.44210000  1.0 0.1210143405
H  H85  1  0.05830000  0.65450000  0.35110000  1.0 0.1210143405
H  H86  1  0.11180000  0.47600000  0.60170000  1.0 0.1495682791
H  H87  1  0.14900000  0.51920000  0.54810000  1.0 0.1210143405
H  H88  1  0.09550000  0.55030000  0.63910000  1.0 0.1299153175
H  H89  1  0.55610000  0.04030000  0.13230000  1.0 0.270156463
H  H90  1  0.58420000  0.99060000  0.04790000  1.0 0.270156463
H  H91  1  0.69080000  0.96740000  0.21390000  1.0 0.1408876027
H  H92  1  0.68480000  0.00460000  0.05790000  1.0 0.1210143405
H  H93  1  0.65450000  0.05830000  0.14890000  1.0 0.1210143405
H  H94  1  0.47600000  0.11180000  0.89830000  1.0 0.1495682791
H  H95  1  0.51920000  0.14900000  0.95190000  1.0 0.1210143405
H  H96  1  0.55030000  0.09550000  0.86090000  1.0 0.1299153175
H  H97  1  0.78230000  0.39490000  0.13300000  1.0 0.2503274357
H  H98  1  0.77870000  0.32930000  0.19450000  1.0 0.2375924153
H  H99  1  0.66450000  0.44110000  0.12270000  1.0 0.1210143405
H  H100  1  0.70270000  0.46650000  0.23030000  1.0 0.1299153175
H  H101  1  0.69690000  0.39590000  0.29000000  1.0 0.0905567272
H  H102  1  0.89390000  0.30270000  0.30720000  1.0 0.1408876027
H  H103  1  0.84850000  0.30450000  0.41250000  1.0 0.1085930367
H  H104  1  0.85010000  0.37770000  0.34950000  1.0 0.1210143405
H  H105  1  0.39490000  0.78230000  0.36700000  1.0 0.2503274357
H  H106  1  0.32930000  0.77870000  0.30550000  1.0 0.2375924153
H  H107  1  0.44110000  0.66450000  0.37730000  1.0 0.1210143405
H  H108  1  0.46650000  0.70270000  0.26970000  1.0 0.1299153175
H  H109  1  0.39590000  0.69690000  0.21000000  1.0 0.0905567272
H  H110  1  0.30270000  0.89390000  0.19280000  1.0 0.1495682791
H  H111  1  0.30450000  0.84850000  0.08750000  1.0 0.1085930367
H  H112  1  0.37770000  0.85010000  0.15050000  1.0 0.1210143405
H  H113  1  0.21770000  0.60510000  0.86700000  1.0 0.2503274357
H  H114  1  0.22130000  0.67070000  0.80550000  1.0 0.2375924153
H  H115  1  0.33550000  0.55890000  0.87730000  1.0 0.1210143405
H  H116  1  0.29730000  0.53350000  0.76970000  1.0 0.1299153175
H  H117  1  0.30310000  0.60410000  0.71000000  1.0 0.0905567272
H  H118  1  0.10610000  0.69730000  0.69280000  1.0 0.1495682791
H  H119  1  0.15150000  0.69550000  0.58750000  1.0 0.1085930367
H  H120  1  0.14990000  0.62230000  0.65050000  1.0 0.1210143405
H  H121  1  0.60510000  0.21770000  0.63300000  1.0 0.2503274357
H  H122  1  0.67070000  0.22130000  0.69450000  1.0 0.2375924153
H  H123  1  0.55890000  0.33550000  0.62270000  1.0 0.1210143405
H  H124  1  0.53350000  0.29730000  0.73030000  1.0 0.1299153175
H  H125  1  0.60410000  0.30310000  0.79000000  1.0 0.0905567272
H  H126  1  0.69730000  0.10610000  0.80720000  1.0 0.1408876027
H  H127  1  0.69550000  0.15150000  0.91250000  1.0 0.1085930367
H  H128  1  0.62230000  0.14990000  0.84950000  1.0 0.1210143405
C  C1  1  0.47880000  0.30500000  0.08920000  1.0 -0.25879019
C  C2  1  0.54340000  0.34860000  0.24620000  1.0 -0.3302087063
C  C3  1  0.30500000  0.47880000  0.41080000  1.0 -0.25879019
C  C4  1  0.34860000  0.54340000  0.25380000  1.0 -0.3302087063
C  C5  1  0.52120000  0.69500000  0.91080000  1.0 -0.25879019
C  C6  1  0.45660000  0.65140000  0.75380000  1.0 -0.3302087063
C  C7  1  0.69500000  0.52120000  0.58920000  1.0 -0.25879019
C  C8  1  0.65140000  0.45660000  0.74620000  1.0 -0.3302087063
C  C9  1  0.13250000  0.16310000  0.34920000  1.0 -0.2162972154
C  C10  1  0.16310000  0.13250000  0.15080000  1.0 -0.2162972154
C  C11  1  0.86750000  0.83690000  0.65080000  1.0 -0.2162972154
C  C12  1  0.83690000  0.86750000  0.84920000  1.0 -0.2162972154
C  C13  1  0.97870000  0.84930000  0.28040000  1.0 -0.3028257513
C  C14  1  0.84930000  0.97870000  0.21960000  1.0 -0.3028257513
C  C15  1  0.02130000  0.15070000  0.71960000  1.0 -0.3028257513
C  C16  1  0.15070000  0.02130000  0.78040000  1.0 -0.3028257513
C  C17  1  0.98590000  0.34070000  0.62700000  1.0 -0.2759349594
C  C18  1  0.89670000  0.47330000  0.43290000  1.0 -0.2735078657
C  C19  1  0.34070000  0.98590000  0.87300000  1.0 -0.2759349594
C  C20  1  0.47330000  0.89670000  0.06710000  1.0 -0.2735078657
C  C21  1  0.01410000  0.65930000  0.37300000  1.0 -0.2759349594
C  C22  1  0.10330000  0.52670000  0.56710000  1.0 -0.2735078657
C  C23  1  0.65930000  0.01410000  0.12700000  1.0 -0.2759349594
C  C24  1  0.52670000  0.10330000  0.93290000  1.0 -0.2735078657
C  C25  1  0.70520000  0.42220000  0.21360000  1.0 -0.2759349594
C  C26  1  0.84820000  0.33600000  0.32940000  1.0 -0.3028257513
C  C27  1  0.42220000  0.70520000  0.28640000  1.0 -0.2759349594
C  C28  1  0.33600000  0.84820000  0.17060000  1.0 -0.3028257513
C  C29  1  0.29480000  0.57780000  0.78640000  1.0 -0.2759349594
C  C30  1  0.15180000  0.66400000  0.67060000  1.0 -0.3061327363
C  C31  1  0.57780000  0.29480000  0.71360000  1.0 -0.2759349594
C  C32  1  0.66400000  0.15180000  0.82940000  1.0 -0.3028257513
S  S1  1  0.89805000  0.63575000  0.05989000  1.0 1.4702160036
S  S2  1  0.63575000  0.89805000  0.44011000  1.0 1.4702160036
S  S3  1  0.10195000  0.36425000  0.94011000  1.0 1.4702160036
S  S4  1  0.36425000  0.10195000  0.55989000  1.0 1.4702160036
S  S5  1  0.97617000  0.09465000  0.36272000  1.0 1.3507496392
S  S6  1  0.09465000  0.97617000  0.13728000  1.0 1.3406214988
S  S7  1  0.02383000  0.90535000  0.63728000  1.0 1.3406214988
S  S8  1  0.90535000  0.02383000  0.86272000  1.0 1.3507496392
S  S9  1  0.90844000  0.59508000  0.67447000  1.0 1.4787667071
S  S10  1  0.59508000  0.90844000  0.82553000  1.0 1.4787667071
S  S11  1  0.09156000  0.40492000  0.32553000  1.0 1.4702160036
S  S12  1  0.40492000  0.09156000  0.17447000  1.0 1.4702160036
S  S13  1  0.90938000  0.31444000  0.98555000  1.0 1.2884297942
S  S14  1  0.31444000  0.90938000  0.51445000  1.0 1.2884297942
S  S15  1  0.09062000  0.68556000  0.01445000  1.0 1.2884297942
S  S16  1  0.68556000  0.09062000  0.48555000  1.0 1.2884297942
S  S17  1  0.75301000  0.56041000  0.96551000  1.0 1.3950388705
S  S18  1  0.56041000  0.75301000  0.53449000  1.0 1.3950388705
S  S19  1  0.24699000  0.43959000  0.03449000  1.0 1.3942225253
S  S20  1  0.43959000  0.24699000  0.46551000  1.0 1.3942225253
S  S21  1  0.72648000  0.22680000  0.13359000  1.0 0.8903172588
S  S22  1  0.22680000  0.72648000  0.36641000  1.0 0.896515814
S  S23  1  0.27352000  0.77320000  0.86641000  1.0 0.896515814
S  S24  1  0.77320000  0.27352000  0.63359000  1.0 0.8903172588
N  N1  1  0.53980000  0.28600000  0.20890000  1.0 -0.1114863144
N  N2  1  0.28600000  0.53980000  0.29110000  1.0 -0.1114863144
N  N3  1  0.46020000  0.71400000  0.79110000  1.0 -0.1114863144
N  N4  1  0.71400000  0.46020000  0.70890000  1.0 -0.1114863144
N  N5  1  0.12670000  0.12670000  0.25000000  1.0 -0.0725121541
N  N6  1  0.87330000  0.87330000  0.75000000  1.0 -0.0725121541
N  N7  1  0.93583000  0.93583000  0.25000000  1.0 -0.0725121541
N  N8  1  0.06417000  0.06417000  0.75000000  1.0 -0.0725121541
N  N9  1  0.96731000  0.42091000  0.56600000  1.0 -0.1022729116
N  N10  1  0.42091000  0.96731000  0.93400000  1.0 -0.1022729116
N  N11  1  0.03269000  0.57909000  0.43400000  1.0 -0.1022729116
N  N12  1  0.57909000  0.03269000  0.06600000  1.0 -0.1022729116
N  N13  1  0.77840000  0.36980000  0.21070000  1.0 -0.0855071308
N  N14  1  0.36980000  0.77840000  0.28930000  1.0 -0.0855071308
N  N15  1  0.22160000  0.63020000  0.78930000  1.0 -0.0855071308
N  N16  1  0.63020000  0.22160000  0.71070000  1.0 -0.0855071308
O  O1  1  0.92177000  0.51825000  0.74500000  1.0 -0.7552213395
O  O2  1  0.51825000  0.92177000  0.75500000  1.0 -0.7552213395
O  O3  1  0.07823000  0.48175000  0.25500000  1.0 -0.7539893115
O  O4  1  0.48175000  0.07823000  0.24500000  1.0 -0.7539893115
O  O5  1  0.92970000  0.56598000  0.01200000  1.0 -0.8593125666
O  O6  1  0.56598000  0.92970000  0.48800000  1.0 -0.8593125666
O  O7  1  0.07030000  0.43402000  0.98800000  1.0 -0.8593125666
O  O8  1  0.43402000  0.07030000  0.51200000  1.0 -0.8593125666
O  O9  1  0.97210000  0.59790000  0.75780000  1.0 -0.7374388004
O  O10  1  0.59790000  0.97210000  0.74220000  1.0 -0.7374388004
O  O11  1  0.02790000  0.40210000  0.24220000  1.0 -0.7374388004
O  O12  1  0.40210000  0.02790000  0.25780000  1.0 -0.7374388004
O  O13  1  0.96645000  0.16325000  0.26260000  1.0 -0.709515176
O  O14  1  0.16325000  0.96645000  0.23740000  1.0 -0.709515176
O  O15  1  0.03355000  0.83675000  0.73740000  1.0 -0.709515176
O  O16  1  0.83675000  0.03355000  0.76260000  1.0 -0.709515176
O  O17  1  0.81810000  0.70218000  0.95250000  1.0 -0.7220103169
O  O18  1  0.70218000  0.81810000  0.54750000  1.0 -0.7220103169
O  O19  1  0.18190000  0.29782000  0.04750000  1.0 -0.709515176
O  O20  1  0.29782000  0.18190000  0.45250000  1.0 -0.709515176
O  O21  1  0.78324000  0.56654000  0.84420000  1.0 -0.829023304
O  O22  1  0.56654000  0.78324000  0.65580000  1.0 -0.829023304
O  O23  1  0.21676000  0.43346000  0.15580000  1.0 -0.829023304
O  O24  1  0.43346000  0.21676000  0.34420000  1.0 -0.829023304
O  O25  1  0.83005000  0.66105000  0.66620000  1.0 -0.7283722485
O  O26  1  0.66105000  0.83005000  0.83380000  1.0 -0.7283722485
O  O27  1  0.16995000  0.33895000  0.33380000  1.0 -0.7283722485
O  O28  1  0.33895000  0.16995000  0.16620000  1.0 -0.7283722485
O  O29  1  0.90834000  0.60274000  0.52670000  1.0 -0.6039951766
O  O30  1  0.60274000  0.90834000  0.97330000  1.0 -0.6039951766
O  O31  1  0.09166000  0.39726000  0.47330000  1.0 -0.6039951766
O  O32  1  0.39726000  0.09166000  0.02670000  1.0 -0.6039951766
O  O33  1  0.83983000  0.31483000  0.99720000  1.0 -0.7220103169
O  O34  1  0.31483000  0.83983000  0.50280000  1.0 -0.7220103169
O  O35  1  0.16017000  0.68517000  0.00280000  1.0 -0.7220103169
O  O36  1  0.68517000  0.16017000  0.49720000  1.0 -0.7220103169
O  O37  1  0.93898000  0.11778000  0.46970000  1.0 -0.709515176
O  O38  1  0.11778000  0.93898000  0.03030000  1.0 -0.709515176
O  O39  1  0.06102000  0.88222000  0.53030000  1.0 -0.709515176
O  O40  1  0.88222000  0.06102000  0.96970000  1.0 -0.709515176
O  O41  1  0.95349000  0.65847000  0.05920000  1.0 -0.7220103169
O  O42  1  0.65847000  0.95349000  0.44080000  1.0 -0.7220103169
O  O43  1  0.04651000  0.34153000  0.94080000  1.0 -0.7220103169
O  O44  1  0.34153000  0.04651000  0.55920000  1.0 -0.7220103169
O  O45  1  0.82491000  0.50131000  0.09770000  1.0 -0.709515176
O  O46  1  0.50131000  0.82491000  0.40230000  1.0 -0.709515176
O  O47  1  0.17509000  0.49869000  0.90230000  1.0 -0.709515176
O  O48  1  0.49869000  0.17509000  0.59770000  1.0 -0.709515176
O  O49  1  0.88176000  0.38356000  0.85850000  1.0 -0.709515176
O  O50  1  0.38356000  0.88176000  0.64150000  1.0 -0.709515176
O  O51  1  0.11824000  0.61644000  0.14150000  1.0 -0.709515176
O  O52  1  0.61644000  0.11824000  0.35850000  1.0 -0.7012985406
O  O53  1  0.96469000  0.23789000  0.97280000  1.0 -0.6801110658
O  O54  1  0.23789000  0.96469000  0.52720000  1.0 -0.6801110658
O  O55  1  0.03531000  0.76211000  0.02720000  1.0 -0.6801110658
O  O56  1  0.76211000  0.03531000  0.47280000  1.0 -0.6745146239
O  O57  1  0.89435000  0.61495000  0.20180000  1.0 -0.5378804679
O  O58  1  0.61495000  0.89435000  0.29820000  1.0 -0.5378804679
O  O59  1  0.10565000  0.38505000  0.79820000  1.0 -0.5378804679
O  O60  1  0.38505000  0.10565000  0.70180000  1.0 -0.5378804679
O  O61  1  0.93528000  0.06968000  0.27230000  1.0 -0.7374388004
O  O62  1  0.06968000  0.93528000  0.22770000  1.0 -0.7374388004
O  O63  1  0.06472000  0.93032000  0.72770000  1.0 -0.7374388004
O  O64  1  0.93032000  0.06472000  0.77230000  1.0 -0.7374388004
O  O65  1  0.06180000  0.03050000  0.44120000  1.0 -0.7012985406
O  O66  1  0.03050000  0.06180000  0.05880000  1.0 -0.7012985406
O  O67  1  0.93820000  0.96950000  0.55880000  1.0 -0.7012985406
O  O68  1  0.96950000  0.93820000  0.94120000  1.0 -0.7012985406
O  O69  1  0.94709000  0.32329000  0.11330000  1.0 -0.6801110658
O  O70  1  0.32329000  0.94709000  0.38670000  1.0 -0.6801110658
O  O71  1  0.05291000  0.67671000  0.88670000  1.0 -0.6801110658
O  O72  1  0.67671000  0.05291000  0.61330000  1.0 -0.6801110658
O  O73  1  0.70978000  0.64118000  0.96940000  1.0 -0.7012985406
O  O74  1  0.64118000  0.70978000  0.53060000  1.0 -0.7012985406
O  O75  1  0.29022000  0.35882000  0.03060000  1.0 -0.7012985406
O  O76  1  0.35882000  0.29022000  0.46940000  1.0 -0.7012985406
O  O77  1  0.70208000  0.53428000  0.93740000  1.0 -0.6169530476
O  O78  1  0.53428000  0.70208000  0.56260000  1.0 -0.6169530476
O  O79  1  0.29792000  0.46572000  0.06260000  1.0 -0.6169530476
O  O80  1  0.46572000  0.29792000  0.43740000  1.0 -0.6169530476
O  O81  1  0.78340000  0.24740000  0.14240000  1.0 -0.1231687149
O  O82  1  0.24740000  0.78340000  0.35760000  1.0 -0.1231687149
O  O83  1  0.21660000  0.75260000  0.85760000  1.0 -0.1231687149
O  O84  1  0.75260000  0.21660000  0.64240000  1.0 -0.1231687149
O  O85  1  0.66730000  0.32010000  0.07080000  1.0 -0.1563936124
O  O86  1  0.32010000  0.66730000  0.42920000  1.0 -0.1563936124
O  O87  1  0.33270000  0.67990000  0.92920000  1.0 -0.1563936124
O  O88  1  0.67990000  0.33270000  0.57080000  1.0 -0.1563936124
O  O89  1  0.76480000  0.18420000  0.04000000  1.0 -0.1794096964
O  O90  1  0.18420000  0.76480000  0.46000000  1.0 -0.1794096964
O  O91  1  0.23520000  0.81580000  0.96000000  1.0 -0.1794096964
O  O92  1  0.81580000  0.23520000  0.54000000  1.0 -0.1794096964
O  O93  1  0.65900000  0.22340000  0.09250000  1.0 -0.1022729116
O  O94  1  0.22340000  0.65900000  0.40750000  1.0 -0.1022729116
O  O95  1  0.34100000  0.77660000  0.90750000  1.0 -0.1022729116
O  O96  1  0.77660000  0.34100000  0.59250000  1.0 -0.1022729116
O  O97  1  0.75350000  0.23110000  0.27720000  1.0 -0.408633391
O  O98  1  0.23110000  0.75350000  0.22280000  1.0 -0.408633391
O  O99  1  0.24650000  0.76890000  0.72280000  1.0 -0.408633391
O  O100  1  0.76890000  0.24650000  0.77720000  1.0 -0.408633391
O  O101  1  0.64500000  0.28200000  0.05520000  1.0 0.2161565473
O  O102  1  0.28200000  0.64500000  0.44480000  1.0 0.2161565473
O  O103  1  0.35500000  0.71800000  0.94480000  1.0 0.2161565473
O  O104  1  0.71800000  0.35500000  0.55520000  1.0 0.2161565473
O  O105  1  0.77310000  0.21550000  0.05150000  1.0 -0.051297099
O  O106  1  0.21550000  0.77310000  0.44850000  1.0 -0.051297099
O  O107  1  0.22690000  0.78450000  0.94850000  1.0 -0.051297099
O  O108  1  0.78450000  0.22690000  0.55150000  1.0 -0.051297099
O  O109  1  0.75420000  0.14440000  0.23210000  1.0 -0.408633391
O  O110  1  0.14440000  0.75420000  0.26790000  1.0 -0.408633391
O  O111  1  0.24580000  0.85560000  0.76790000  1.0 -0.408633391
O  O112  1  0.85560000  0.24580000  0.73210000  1.0 -0.408633391
