# DDEC6 charges by PACMAN v1.1 (https://github.com/mtap-research/PACMAN-charge/)
data_TANNUT_FSR_pacman
_symmetry_space_group_name_H-M   'P 1'
_cell_length_a   11.47510000
_cell_length_b   11.47510000
_cell_length_c   22.98100000
_cell_angle_alpha   72.97470000
_cell_angle_beta   107.02500000
_cell_angle_gamma   131.43800000
_symmetry_Int_Tables_number   1
_chemical_formula_structural   Zn3H28C38(NO4)4
_chemical_formula_sum   'Zn6 H56 C76 N8 O32'
_cell_volume   2148.36323506
_cell_formula_units_Z   2
loop_
 _symmetry_equiv_pos_site_id
 _symmetry_equiv_pos_as_xyz
  1  'x, y, z'
loop_
 _atom_site_type_symbol
 _atom_site_label
 _atom_site_symmetry_multiplicity
 _atom_site_fract_x
 _atom_site_fract_y
 _atom_site_fract_z
 _atom_site_occupancy
 _atom_site_charge
Zn  Zn1  1  0.64432000  0.06978000  0.23883000  1.0 0.80953948
Zn  Zn2  1  0.06978000  0.64432000  0.26117000  1.0 0.80953948
Zn  Zn3  1  0.35568000  0.93022000  0.76117000  1.0 0.80953948
Zn  Zn4  1  0.93022000  0.35568000  0.73883000  1.0 0.80953948
Zn  Zn5  1  0.08471000  0.08471000  0.25000000  1.0 0.8005037437
Zn  Zn6  1  0.91529000  0.91529000  0.75000000  1.0 0.8005037437
H  H1  1  0.74720000  0.37380000  0.42930000  1.0 0.1085281445
H  H2  1  0.37380000  0.74720000  0.07070000  1.0 0.1085281445
H  H3  1  0.25280000  0.62620000  0.57070000  1.0 0.1085281445
H  H4  1  0.62620000  0.25280000  0.92930000  1.0 0.1085281445
H  H5  1  0.54030000  0.13770000  0.47410000  1.0 0.1085281445
H  H6  1  0.13770000  0.54030000  0.02590000  1.0 0.1085281445
H  H7  1  0.45970000  0.86230000  0.52590000  1.0 0.1085281445
H  H8  1  0.86230000  0.45970000  0.97410000  1.0 0.1085281445
H  H9  1  0.33660000  0.94620000  0.41480000  1.0 0.1085281445
H  H10  1  0.94620000  0.33660000  0.08520000  1.0 0.1085281445
H  H11  1  0.66340000  0.05380000  0.58520000  1.0 0.1085281445
H  H12  1  0.05380000  0.66340000  0.91480000  1.0 0.1085281445
H  H13  1  0.91880000  0.25680000  0.33250000  1.0 0.1085281445
H  H14  1  0.25680000  0.91880000  0.16750000  1.0 0.1085281445
H  H15  1  0.08120000  0.74320000  0.66750000  1.0 0.1085281445
H  H16  1  0.74320000  0.08120000  0.83250000  1.0 0.1085281445
H  H17  1  0.99130000  0.23010000  0.43610000  1.0 0.1282763946
H  H18  1  0.23010000  0.99130000  0.06390000  1.0 0.1282763946
H  H19  1  0.00870000  0.76990000  0.56390000  1.0 0.1282763946
H  H20  1  0.76990000  0.00870000  0.93610000  1.0 0.1282763946
H  H21  1  0.58490000  0.79690000  0.45000000  1.0 0.1282763946
H  H22  1  0.79690000  0.58490000  0.05000000  1.0 0.1282763946
H  H23  1  0.41510000  0.20310000  0.55000000  1.0 0.1282763946
H  H24  1  0.20310000  0.41510000  0.95000000  1.0 0.1282763946
H  H25  1  0.52160000  0.83060000  0.34640000  1.0 0.118861867
H  H26  1  0.83060000  0.52160000  0.15360000  1.0 0.118861867
H  H27  1  0.47840000  0.16940000  0.65360000  1.0 0.118861867
H  H28  1  0.16940000  0.47840000  0.84640000  1.0 0.118861867
H  H29  1  0.76100000  0.72660000  0.64160000  1.0 0.102432316
H  H30  1  0.72660000  0.76100000  0.85840000  1.0 0.102432316
H  H31  1  0.23900000  0.27340000  0.35840000  1.0 0.102432316
H  H32  1  0.27340000  0.23900000  0.14160000  1.0 0.102432316
H  H33  1  0.70820000  0.75500000  0.53770000  1.0 0.1282763946
H  H34  1  0.75500000  0.70820000  0.96230000  1.0 0.1282763946
H  H35  1  0.29180000  0.24500000  0.46230000  1.0 0.1282763946
H  H36  1  0.24500000  0.29180000  0.03770000  1.0 0.1282763946
H  H37  1  0.98460000  0.21400000  0.53390000  1.0 0.1282763946
H  H38  1  0.21400000  0.98460000  0.96610000  1.0 0.1282763946
H  H39  1  0.01540000  0.78600000  0.46610000  1.0 0.1282763946
H  H40  1  0.78600000  0.01540000  0.03390000  1.0 0.1282763946
H  H41  1  0.03640000  0.17340000  0.64080000  1.0 0.0812419881
H  H42  1  0.17340000  0.03640000  0.85920000  1.0 0.0812419881
H  H43  1  0.96360000  0.82660000  0.35920000  1.0 0.0812419881
H  H44  1  0.82660000  0.96360000  0.14080000  1.0 0.0812419881
H  H45  1  0.37270000  0.29470000  0.25230000  1.0 0.1697642336
H  H46  1  0.29470000  0.37270000  0.24770000  1.0 0.1697642336
H  H47  1  0.62730000  0.70530000  0.74770000  1.0 0.1697642336
H  H48  1  0.70530000  0.62730000  0.75230000  1.0 0.1697642336
H  H49  1  0.82800000  0.82400000  0.21600000  1.0 0.362697197
H  H50  1  0.82400000  0.82800000  0.28400000  1.0 0.362697197
H  H51  1  0.17200000  0.17600000  0.78400000  1.0 0.362697197
H  H52  1  0.17600000  0.17200000  0.71600000  1.0 0.362697197
H  H53  1  0.67670000  0.65590000  0.71930000  1.0 0.1834823692
H  H54  1  0.65590000  0.67670000  0.78070000  1.0 0.1834823692
H  H55  1  0.32330000  0.34410000  0.28070000  1.0 0.1834823692
H  H56  1  0.34410000  0.32330000  0.21930000  1.0 0.1834823692
C  C1  1  0.41280000  0.07000000  0.33350000  1.0 -0.0471658503
C  C2  1  0.07000000  0.41280000  0.16650000  1.0 -0.0471658503
C  C3  1  0.58720000  0.93000000  0.66650000  1.0 -0.0471658503
C  C4  1  0.93000000  0.58720000  0.83350000  1.0 -0.0471658503
C  C5  1  0.53850000  0.21230000  0.30700000  1.0 -0.0828188901
C  C6  1  0.21230000  0.53850000  0.19300000  1.0 -0.0828188901
C  C7  1  0.46150000  0.78770000  0.69300000  1.0 -0.0828188901
C  C8  1  0.78770000  0.46150000  0.80700000  1.0 -0.0828188901
C  C9  1  0.66310000  0.32350000  0.34340000  1.0 -0.0616848638
C  C10  1  0.32350000  0.66310000  0.15660000  1.0 -0.0616848638
C  C11  1  0.33690000  0.67650000  0.65660000  1.0 -0.0616848638
C  C12  1  0.67650000  0.33690000  0.84340000  1.0 -0.0616848638
C  C13  1  0.66350000  0.29670000  0.40510000  1.0 -0.1360591298
C  C14  1  0.29670000  0.66350000  0.09490000  1.0 -0.1360591298
C  C15  1  0.33650000  0.70330000  0.59490000  1.0 -0.1360591298
C  C16  1  0.70330000  0.33650000  0.90510000  1.0 -0.1360591298
C  C17  1  0.54010000  0.15570000  0.43190000  1.0 -0.0978225638
C  C18  1  0.15570000  0.54010000  0.06810000  1.0 -0.0978225638
C  C19  1  0.45990000  0.84430000  0.56810000  1.0 -0.0978225638
C  C20  1  0.84430000  0.45990000  0.93190000  1.0 -0.0978225638
C  C21  1  0.41780000  0.04280000  0.39640000  1.0 -0.1235801747
C  C22  1  0.04280000  0.41780000  0.10360000  1.0 -0.1235801747
C  C23  1  0.58220000  0.95720000  0.60360000  1.0 -0.1235801747
C  C24  1  0.95720000  0.58220000  0.89640000  1.0 -0.1235801747
C  C25  1  0.26940000  0.94740000  0.29530000  1.0 0.5700350831
C  C26  1  0.94740000  0.26940000  0.20470000  1.0 0.5700350831
C  C27  1  0.73060000  0.05260000  0.70470000  1.0 0.5700350831
C  C28  1  0.05260000  0.73060000  0.79530000  1.0 0.5700350831
C  C29  1  0.53270000  0.24330000  0.23640000  1.0 0.5700350831
C  C30  1  0.24330000  0.53270000  0.26360000  1.0 0.5700350831
C  C31  1  0.46730000  0.75670000  0.76360000  1.0 0.5700350831
C  C32  1  0.75670000  0.46730000  0.73640000  1.0 0.5700350831
C  C33  1  0.81090000  0.47510000  0.31800000  1.0 0.4481620024
C  C34  1  0.47510000  0.81090000  0.18200000  1.0 0.4481620024
C  C35  1  0.18910000  0.52490000  0.68200000  1.0 0.4481620024
C  C36  1  0.52490000  0.18910000  0.81800000  1.0 0.4481620024
C  C37  1  0.85030000  0.16330000  0.35650000  1.0 0.0930654871
C  C38  1  0.16330000  0.85030000  0.14350000  1.0 0.0930654871
C  C39  1  0.14970000  0.83670000  0.64350000  1.0 0.0930654871
C  C40  1  0.83670000  0.14970000  0.85650000  1.0 0.0930654871
C  C41  1  0.89430000  0.14690000  0.41890000  1.0 -0.1916411539
C  C42  1  0.14690000  0.89430000  0.08110000  1.0 -0.1916411539
C  C43  1  0.10570000  0.85310000  0.58110000  1.0 -0.1916411539
C  C44  1  0.85310000  0.10570000  0.91890000  1.0 -0.1916411539
C  C45  1  0.79910000  0.01170000  0.45610000  1.0 0.102432316
C  C46  1  0.01170000  0.79910000  0.04390000  1.0 0.102432316
C  C47  1  0.20090000  0.98830000  0.54390000  1.0 0.102432316
C  C48  1  0.98830000  0.20090000  0.95610000  1.0 0.102432316
C  C49  1  0.65500000  0.89160000  0.42690000  1.0 -0.200207146
C  C50  1  0.89160000  0.65500000  0.07310000  1.0 -0.200207146
C  C51  1  0.34500000  0.10840000  0.57310000  1.0 -0.200207146
C  C52  1  0.10840000  0.34500000  0.92690000  1.0 -0.200207146
C  C53  1  0.61690000  0.91290000  0.36490000  1.0 0.0812419881
C  C54  1  0.91290000  0.61690000  0.13510000  1.0 0.0812419881
C  C55  1  0.38310000  0.08710000  0.63510000  1.0 0.0812419881
C  C56  1  0.08710000  0.38310000  0.86490000  1.0 0.0812419881
C  C57  1  0.80640000  0.82700000  0.62020000  1.0 0.0468109957
C  C58  1  0.82700000  0.80640000  0.87980000  1.0 0.0468109957
C  C59  1  0.19360000  0.17300000  0.37980000  1.0 0.0468109957
C  C60  1  0.17300000  0.19360000  0.12020000  1.0 0.0468109957
C  C61  1  0.77480000  0.84340000  0.55770000  1.0 -0.1916411539
C  C62  1  0.84340000  0.77480000  0.94230000  1.0 -0.1916411539
C  C63  1  0.22520000  0.15660000  0.44230000  1.0 -0.1916411539
C  C64  1  0.15660000  0.22520000  0.05770000  1.0 -0.1916411539
C  C65  1  0.84000000  0.98860000  0.52400000  1.0 0.0930654871
C  C66  1  0.98860000  0.84000000  0.97600000  1.0 0.0930654871
C  C67  1  0.16000000  0.01140000  0.47600000  1.0 0.0930654871
C  C68  1  0.01140000  0.16000000  0.02400000  1.0 0.0930654871
C  C69  1  0.93710000  0.11270000  0.55480000  1.0 -0.2056148333
C  C70  1  0.11270000  0.93710000  0.94520000  1.0 -0.2056148333
C  C71  1  0.06290000  0.88730000  0.44520000  1.0 -0.2056148333
C  C72  1  0.88730000  0.06290000  0.05480000  1.0 -0.2056148333
C  C73  1  0.96580000  0.08620000  0.62000000  1.0 0.0812419881
C  C74  1  0.08620000  0.96580000  0.88000000  1.0 0.0812419881
C  C75  1  0.03420000  0.91380000  0.38000000  1.0 0.0812419881
C  C76  1  0.91380000  0.03420000  0.12000000  1.0 0.0812419881
N  N1  1  0.71150000  0.04810000  0.32960000  1.0 -0.2483603006
N  N2  1  0.04810000  0.71150000  0.17040000  1.0 -0.2483603006
N  N3  1  0.28850000  0.95190000  0.67040000  1.0 -0.2483603006
N  N4  1  0.95190000  0.28850000  0.82960000  1.0 -0.2483603006
N  N5  1  0.90020000  0.94880000  0.65230000  1.0 -0.2411435713
N  N6  1  0.94880000  0.90020000  0.84770000  1.0 -0.2411435713
N  N7  1  0.09980000  0.05120000  0.34770000  1.0 -0.2411435713
N  N8  1  0.05120000  0.09980000  0.15230000  1.0 -0.2411435713
O  O1  1  0.18930000  0.97870000  0.25610000  1.0 -0.5615108778
O  O2  1  0.97870000  0.18930000  0.24390000  1.0 -0.5615108778
O  O3  1  0.81070000  0.02130000  0.74390000  1.0 -0.5615108778
O  O4  1  0.02130000  0.81070000  0.75610000  1.0 -0.5615108778
O  O5  1  0.23870000  0.81730000  0.30760000  1.0 -0.5273086747
O  O6  1  0.81730000  0.23870000  0.19240000  1.0 -0.5273086747
O  O7  1  0.76130000  0.18270000  0.69240000  1.0 -0.5273086747
O  O8  1  0.18270000  0.76130000  0.80760000  1.0 -0.5273086747
O  O9  1  0.53180000  0.15680000  0.21260000  1.0 -0.5363494774
O  O10  1  0.15680000  0.53180000  0.28740000  1.0 -0.5363494774
O  O11  1  0.46820000  0.84320000  0.78740000  1.0 -0.5363494774
O  O12  1  0.84320000  0.46820000  0.71260000  1.0 -0.5363494774
O  O13  1  0.52480000  0.34620000  0.20730000  1.0 -0.5068589022
O  O14  1  0.34620000  0.52480000  0.29270000  1.0 -0.5068589022
O  O15  1  0.47520000  0.65380000  0.79270000  1.0 -0.5068589022
O  O16  1  0.65380000  0.47520000  0.70730000  1.0 -0.5068589022
O  O17  1  0.85430000  0.46850000  0.27770000  1.0 -0.4944902753
O  O18  1  0.46850000  0.85430000  0.22230000  1.0 -0.4944902753
O  O19  1  0.14570000  0.53150000  0.72230000  1.0 -0.4944902753
O  O20  1  0.53150000  0.14570000  0.77770000  1.0 -0.4944902753
O  O21  1  0.85100000  0.60300000  0.33000000  1.0 -0.1525955519
O  O22  1  0.60300000  0.85100000  0.17000000  1.0 -0.1525955519
O  O23  1  0.14900000  0.39700000  0.67000000  1.0 -0.1525955519
O  O24  1  0.39700000  0.14900000  0.83000000  1.0 -0.1525955519
O  O25  1  0.30370000  0.30370000  0.25000000  1.0 -0.5156029036
O  O26  1  0.69630000  0.69630000  0.75000000  1.0 -0.5156029036
O  O27  1  0.85980000  0.85980000  0.25000000  1.0 -0.7155259123
O  O28  1  0.14020000  0.14020000  0.75000000  1.0 -0.7155259123
O  O29  1  0.42800000  0.08600000  0.85260000  1.0 -0.0391621116
O  O30  1  0.08600000  0.42800000  0.64740000  1.0 -0.0391621116
O  O31  1  0.57200000  0.91400000  0.14740000  1.0 -0.0391621116
O  O32  1  0.91400000  0.57200000  0.35260000  1.0 -0.0391621116
