# DDEC6 charges by PACMAN v1.1 (https://github.com/mtap-research/PACMAN-charge/)
data_TAPSUB_ASR_pacman
_symmetry_space_group_name_H-M   'P 1'
_cell_length_a   10.43900000
_cell_length_b   10.43900000
_cell_length_c   22.69100000
_cell_angle_alpha   74.77640000
_cell_angle_beta   105.22400000
_cell_angle_gamma   113.37000000
_symmetry_Int_Tables_number   1
_chemical_formula_structural   CoH16(C5N)4
_chemical_formula_sum   'Co2 H32 C40 N8'
_cell_volume   2154.87149593
_cell_formula_units_Z   2
loop_
 _symmetry_equiv_pos_site_id
 _symmetry_equiv_pos_as_xyz
  1  'x, y, z'
loop_
 _atom_site_type_symbol
 _atom_site_label
 _atom_site_symmetry_multiplicity
 _atom_site_fract_x
 _atom_site_fract_y
 _atom_site_fract_z
 _atom_site_occupancy
 _atom_site_charge
Co  Co1  1  0.01115000  0.01115000  0.75000000  1.0 0.0988080674
Co  Co2  1  0.98885000  0.98885000  0.25000000  1.0 0.0988080674
H  H1  1  0.20520000  0.03260000  0.87650000  1.0 0.0988080674
H  H2  1  0.20730000  0.02870000  0.97710000  1.0 0.1225348337
H  H3  1  0.79870000  0.98310000  0.93100000  1.0 0.1225348337
H  H4  1  0.80940000  0.98980000  0.83170000  1.0 0.093199844
H  H5  1  0.68190000  0.91410000  0.71220000  1.0 0.093199844
H  H6  1  0.47990000  0.71850000  0.71220000  1.0 0.1251857204
H  H7  1  0.32480000  0.51800000  0.77930000  1.0 0.1225348337
H  H8  1  0.13100000  0.31460000  0.78100000  1.0 0.093199844
H  H9  1  0.03260000  0.20520000  0.62350000  1.0 0.0988080674
H  H10  1  0.02870000  0.20730000  0.52290000  1.0 0.1225348337
H  H11  1  0.98310000  0.79870000  0.56900000  1.0 0.1225348337
H  H12  1  0.98980000  0.80940000  0.66830000  1.0 0.093199844
H  H13  1  0.91410000  0.68190000  0.78780000  1.0 0.093199844
H  H14  1  0.71850000  0.47990000  0.78780000  1.0 0.1251857204
H  H15  1  0.51800000  0.32480000  0.72070000  1.0 0.1225348337
H  H16  1  0.31460000  0.13100000  0.71900000  1.0 0.093199844
H  H17  1  0.79480000  0.96740000  0.12350000  1.0 0.0988080674
H  H18  1  0.79270000  0.97130000  0.02290000  1.0 0.1225348337
H  H19  1  0.20130000  0.01690000  0.06900000  1.0 0.1225348337
H  H20  1  0.19060000  0.01020000  0.16830000  1.0 0.093199844
H  H21  1  0.31810000  0.08590000  0.28780000  1.0 0.093199844
H  H22  1  0.52010000  0.28150000  0.28780000  1.0 0.1251857204
H  H23  1  0.67520000  0.48200000  0.22070000  1.0 0.1225348337
H  H24  1  0.86900000  0.68540000  0.21900000  1.0 0.093199844
H  H25  1  0.96740000  0.79480000  0.37650000  1.0 0.0988080674
H  H26  1  0.97130000  0.79270000  0.47710000  1.0 0.1225348337
H  H27  1  0.01690000  0.20130000  0.43100000  1.0 0.1225348337
H  H28  1  0.01020000  0.19060000  0.33170000  1.0 0.093199844
H  H29  1  0.08590000  0.31810000  0.21220000  1.0 0.093199844
H  H30  1  0.28150000  0.52010000  0.21220000  1.0 0.1251857204
H  H31  1  0.48200000  0.67520000  0.27930000  1.0 0.1225348337
H  H32  1  0.68540000  0.86900000  0.28100000  1.0 0.093199844
C  C1  1  0.12161000  0.02219000  0.88769000  1.0 0.030444927
C  C2  1  0.12358000  0.01942000  0.94836000  1.0 -0.2023901569
C  C3  1  0.00144000  0.00274000  0.96732000  1.0 0.0815232944
C  C4  1  0.88363000  0.99277000  0.92132000  1.0 -0.2023901569
C  C5  1  0.89107000  0.99713000  0.86165000  1.0 0.030444927
C  C6  1  0.68982000  0.82536000  0.72807000  1.0 0.030444927
C  C7  1  0.56765000  0.70785000  0.72765000  1.0 -0.2023901569
C  C8  1  0.32621000  0.43973000  0.76761000  1.0 -0.2023901569
C  C9  1  0.20930000  0.31726000  0.76779000  1.0 0.035641182
C  C10  1  0.02219000  0.12161000  0.61231000  1.0 0.030444927
C  C11  1  0.01942000  0.12358000  0.55164000  1.0 -0.2023901569
C  C12  1  0.00274000  0.00144000  0.53268000  1.0 0.0815232944
C  C13  1  0.99277000  0.88363000  0.57868000  1.0 -0.2023901569
C  C14  1  0.99713000  0.89107000  0.63835000  1.0 0.030444927
C  C15  1  0.82536000  0.68982000  0.77193000  1.0 0.030444927
C  C16  1  0.70785000  0.56765000  0.77235000  1.0 -0.2023901569
C  C17  1  0.43973000  0.32621000  0.73239000  1.0 -0.2023901569
C  C18  1  0.31726000  0.20930000  0.73221000  1.0 0.035641182
C  C19  1  0.87839000  0.97781000  0.11231000  1.0 0.030444927
C  C20  1  0.87642000  0.98058000  0.05164000  1.0 -0.2023901569
C  C21  1  0.99856000  0.99726000  0.03268000  1.0 0.0815232944
C  C22  1  0.11637000  0.00723000  0.07868000  1.0 -0.2023901569
C  C23  1  0.10893000  0.00287000  0.13835000  1.0 0.030444927
C  C24  1  0.31018000  0.17464000  0.27193000  1.0 0.030444927
C  C25  1  0.43235000  0.29215000  0.27235000  1.0 -0.2023901569
C  C26  1  0.67379000  0.56027000  0.23239000  1.0 -0.2023901569
C  C27  1  0.79070000  0.68274000  0.23221000  1.0 0.035641182
C  C28  1  0.97781000  0.87839000  0.38769000  1.0 0.035641182
C  C29  1  0.98058000  0.87642000  0.44836000  1.0 -0.2023901569
C  C30  1  0.99726000  0.99856000  0.46732000  1.0 0.0815232944
C  C31  1  0.00723000  0.11637000  0.42132000  1.0 -0.2023901569
C  C32  1  0.00287000  0.10893000  0.36165000  1.0 0.030444927
C  C33  1  0.17464000  0.31018000  0.22807000  1.0 0.030444927
C  C34  1  0.29215000  0.43235000  0.22765000  1.0 -0.2023901569
C  C35  1  0.56027000  0.67379000  0.26761000  1.0 -0.2023901569
C  C36  1  0.68274000  0.79070000  0.26779000  1.0 0.035641182
C  C37  1  0.57500000  0.57500000  0.75000000  1.0 0.0815232944
C  C38  1  0.44610000  0.44610000  0.75000000  1.0 0.0815232944
C  C39  1  0.42500000  0.42500000  0.25000000  1.0 0.0815232944
C  C40  1  0.55390000  0.55390000  0.25000000  1.0 0.0815232944
N  N1  1  0.00757000  0.01101000  0.84389000  1.0 -0.194425557
N  N2  1  0.01101000  0.00757000  0.65611000  1.0 -0.194425557
N  N3  1  0.99243000  0.98899000  0.15611000  1.0 -0.194425557
N  N4  1  0.98899000  0.99243000  0.34389000  1.0 -0.194425557
N  N5  1  0.81880000  0.81880000  0.75000000  1.0 -0.2079372855
N  N6  1  0.20180000  0.20180000  0.75000000  1.0 -0.2079372855
N  N7  1  0.18120000  0.18120000  0.25000000  1.0 -0.2079372855
N  N8  1  0.79820000  0.79820000  0.25000000  1.0 -0.2079372855
