# DDEC6 charges by PACMAN v1.1 (https://github.com/mtap-research/PACMAN-charge/)
data_TASWOB_ASR_pacman
_symmetry_space_group_name_H-M   'P 1'
_cell_length_a   14.51700000
_cell_length_b   25.63000000
_cell_length_c   26.60000000
_cell_angle_alpha   90.00000000
_cell_angle_beta   90.00000000
_cell_angle_gamma   90.00000000
_symmetry_Int_Tables_number   1
_chemical_formula_structural   TbC22(Cl2O)6
_chemical_formula_sum   'Tb8 C176 Cl96 O48'
_cell_volume   9897.08088600
_cell_formula_units_Z   8
loop_
 _symmetry_equiv_pos_site_id
 _symmetry_equiv_pos_as_xyz
  1  'x, y, z'
loop_
 _atom_site_type_symbol
 _atom_site_label
 _atom_site_symmetry_multiplicity
 _atom_site_fract_x
 _atom_site_fract_y
 _atom_site_fract_z
 _atom_site_occupancy
 _atom_site_charge
Tb  Tb1  1  0.14849000  0.39725000  0.81573000  1.0 2.1446187024
Tb  Tb2  1  0.14849000  0.10275000  0.18427000  1.0 2.1446187024
Tb  Tb3  1  0.35151000  0.39725000  0.68427000  1.0 2.1446187024
Tb  Tb4  1  0.35151000  0.10275000  0.31573000  1.0 2.1446187024
Tb  Tb5  1  0.85151000  0.60275000  0.18427000  1.0 2.1452502732
Tb  Tb6  1  0.85151000  0.89725000  0.81573000  1.0 2.1452502732
Tb  Tb7  1  0.64849000  0.60275000  0.31573000  1.0 2.1446187024
Tb  Tb8  1  0.64849000  0.89725000  0.68427000  1.0 2.1446187024
C  C1  1  0.90350000  0.62000000  0.61550000  1.0 0.0337939657
C  C2  1  0.90350000  0.88000000  0.38450000  1.0 0.0337939657
C  C3  1  0.59650000  0.62000000  0.88450000  1.0 0.0337939657
C  C4  1  0.59650000  0.88000000  0.11550000  1.0 0.0337939657
C  C5  1  0.09650000  0.38000000  0.38450000  1.0 0.0337939657
C  C6  1  0.09650000  0.12000000  0.61550000  1.0 0.0337939657
C  C7  1  0.40350000  0.38000000  0.11550000  1.0 0.0337939657
C  C8  1  0.40350000  0.12000000  0.88450000  1.0 0.0337939657
C  C9  1  0.84830000  0.60870000  0.57010000  1.0 -0.0487593301
C  C10  1  0.84830000  0.89130000  0.42990000  1.0 -0.0487593301
C  C11  1  0.65170000  0.60870000  0.92990000  1.0 -0.0487593301
C  C12  1  0.65170000  0.89130000  0.07010000  1.0 -0.0487593301
C  C13  1  0.15170000  0.39130000  0.42990000  1.0 -0.0487593301
C  C14  1  0.15170000  0.10870000  0.57010000  1.0 -0.0487593301
C  C15  1  0.34830000  0.39130000  0.07010000  1.0 -0.0487593301
C  C16  1  0.34830000  0.10870000  0.92990000  1.0 -0.0487593301
C  C17  1  0.88880000  0.58760000  0.52730000  1.0 0.0480466943
C  C18  1  0.88880000  0.91240000  0.47270000  1.0 0.0480466943
C  C19  1  0.61120000  0.58760000  0.97270000  1.0 0.0480466943
C  C20  1  0.61120000  0.91240000  0.02730000  1.0 0.0480466943
C  C21  1  0.11120000  0.41240000  0.47270000  1.0 0.0480466943
C  C22  1  0.11120000  0.08760000  0.52730000  1.0 0.0480466943
C  C23  1  0.38880000  0.41240000  0.02730000  1.0 0.0480466943
C  C24  1  0.38880000  0.08760000  0.97270000  1.0 0.0480466943
C  C25  1  0.83490000  0.57530000  0.48580000  1.0 0.0584361652
C  C26  1  0.83490000  0.92470000  0.51420000  1.0 0.0584361652
C  C27  1  0.66510000  0.57530000  0.01420000  1.0 0.0584361652
C  C28  1  0.66510000  0.92470000  0.98580000  1.0 0.0584361652
C  C29  1  0.16510000  0.42470000  0.51420000  1.0 0.0584361652
C  C30  1  0.16510000  0.07530000  0.48580000  1.0 0.0584361652
C  C31  1  0.33490000  0.42470000  0.98580000  1.0 0.0584361652
C  C32  1  0.33490000  0.07530000  0.01420000  1.0 0.0584361652
C  C33  1  0.74040000  0.58400000  0.48710000  1.0 -0.0868779818
C  C34  1  0.74040000  0.91600000  0.51290000  1.0 -0.0868779818
C  C35  1  0.75960000  0.58400000  0.01290000  1.0 -0.0844505231
C  C36  1  0.75960000  0.91600000  0.98710000  1.0 -0.0868779818
C  C37  1  0.25960000  0.41600000  0.51290000  1.0 -0.0868779818
C  C38  1  0.25960000  0.08400000  0.48710000  1.0 -0.0868779818
C  C39  1  0.24040000  0.41600000  0.98710000  1.0 -0.0868779818
C  C40  1  0.24040000  0.08400000  0.01290000  1.0 -0.0868779818
C  C41  1  0.69990000  0.60510000  0.52980000  1.0 0.0421543172
C  C42  1  0.69990000  0.89490000  0.47020000  1.0 0.0421543172
C  C43  1  0.80010000  0.60510000  0.97020000  1.0 0.0421543172
C  C44  1  0.80010000  0.89490000  0.02980000  1.0 0.0421543172
C  C45  1  0.30010000  0.39490000  0.47020000  1.0 0.0421543172
C  C46  1  0.30010000  0.10510000  0.52980000  1.0 0.0421543172
C  C47  1  0.19990000  0.39490000  0.02980000  1.0 0.0421543172
C  C48  1  0.19990000  0.10510000  0.97020000  1.0 0.0421543172
C  C49  1  0.75380000  0.61740000  0.57130000  1.0 0.0421543172
C  C50  1  0.75380000  0.88260000  0.42870000  1.0 0.0421543172
C  C51  1  0.74620000  0.61740000  0.92870000  1.0 0.0421543172
C  C52  1  0.74620000  0.88260000  0.07130000  1.0 0.0421543172
C  C53  1  0.24620000  0.38260000  0.42870000  1.0 0.0421543172
C  C54  1  0.24620000  0.11740000  0.57130000  1.0 0.0421543172
C  C55  1  0.25380000  0.38260000  0.07130000  1.0 0.0480466943
C  C56  1  0.25380000  0.11740000  0.92870000  1.0 0.0480466943
C  C57  1  0.96750000  0.57970000  0.63740000  1.0 -0.0420654644
C  C58  1  0.96750000  0.92030000  0.36260000  1.0 -0.0420654644
C  C59  1  0.53250000  0.57970000  0.86260000  1.0 -0.0420654644
C  C60  1  0.53250000  0.92030000  0.13740000  1.0 -0.0420654644
C  C61  1  0.03250000  0.42030000  0.36260000  1.0 -0.0420654644
C  C62  1  0.03250000  0.07970000  0.63740000  1.0 -0.0420654644
C  C63  1  0.46750000  0.42030000  0.13740000  1.0 -0.0420654644
C  C64  1  0.46750000  0.07970000  0.86260000  1.0 -0.0420654644
C  C65  1  0.94050000  0.52780000  0.64560000  1.0 0.0480466943
C  C66  1  0.94050000  0.97220000  0.35440000  1.0 0.0480466943
C  C67  1  0.55950000  0.52780000  0.85440000  1.0 0.0480466943
C  C68  1  0.55950000  0.97220000  0.14560000  1.0 0.0480466943
C  C69  1  0.05950000  0.47220000  0.35440000  1.0 0.0480466943
C  C70  1  0.05950000  0.02780000  0.64560000  1.0 0.0480466943
C  C71  1  0.44050000  0.47220000  0.14560000  1.0 0.0421543172
C  C72  1  0.44050000  0.02780000  0.85440000  1.0 0.0421543172
C  C73  1  0.00050000  0.49190000  0.66680000  1.0 0.0421543172
C  C74  1  0.00050000  0.00810000  0.33320000  1.0 0.0421543172
C  C75  1  0.49950000  0.49190000  0.83320000  1.0 0.0421543172
C  C76  1  0.49950000  0.00810000  0.16680000  1.0 0.0421543172
C  C77  1  0.99950000  0.50810000  0.33320000  1.0 0.0421543172
C  C78  1  0.99950000  0.99190000  0.66680000  1.0 0.0421543172
C  C79  1  0.50050000  0.50810000  0.16680000  1.0 0.0421543172
C  C80  1  0.50050000  0.99190000  0.83320000  1.0 0.0421543172
C  C81  1  0.09160000  0.50460000  0.67920000  1.0 -0.125305752
C  C82  1  0.09160000  0.99540000  0.32080000  1.0 -0.125305752
C  C83  1  0.40840000  0.50460000  0.82080000  1.0 -0.1242260934
C  C84  1  0.40840000  0.99540000  0.17920000  1.0 -0.1242260934
C  C85  1  0.90840000  0.49540000  0.32080000  1.0 -0.1242260934
C  C86  1  0.90840000  0.00460000  0.67920000  1.0 -0.1242260934
C  C87  1  0.59160000  0.49540000  0.17920000  1.0 -0.1242260934
C  C88  1  0.59160000  0.00460000  0.82080000  1.0 -0.1242260934
C  C89  1  0.12100000  0.55490000  0.66910000  1.0 0.0584361652
C  C90  1  0.12100000  0.94510000  0.33090000  1.0 0.0584361652
C  C91  1  0.37900000  0.55490000  0.83090000  1.0 0.0584361652
C  C92  1  0.37900000  0.94510000  0.16910000  1.0 0.0584361652
C  C93  1  0.87900000  0.44510000  0.33090000  1.0 0.0584361652
C  C94  1  0.87900000  0.05490000  0.66910000  1.0 0.0584361652
C  C95  1  0.62100000  0.44510000  0.16910000  1.0 0.0584361652
C  C96  1  0.62100000  0.05490000  0.83090000  1.0 0.0584361652
C  C97  1  0.05910000  0.59170000  0.64880000  1.0 0.0421543172
C  C98  1  0.05910000  0.90830000  0.35120000  1.0 0.0421543172
C  C99  1  0.44090000  0.59170000  0.85120000  1.0 0.0421543172
C  C100  1  0.44090000  0.90830000  0.14880000  1.0 0.0421543172
C  C101  1  0.94090000  0.40830000  0.35120000  1.0 0.0421543172
C  C102  1  0.94090000  0.09170000  0.64880000  1.0 0.0421543172
C  C103  1  0.55910000  0.40830000  0.14880000  1.0 0.0480466943
C  C104  1  0.55910000  0.09170000  0.85120000  1.0 0.0480466943
C  C105  1  0.89790000  0.67100000  0.64130000  1.0 -0.0420654644
C  C106  1  0.89790000  0.82900000  0.35870000  1.0 -0.0420654644
C  C107  1  0.60210000  0.67100000  0.85870000  1.0 -0.0420654644
C  C108  1  0.60210000  0.82900000  0.14130000  1.0 -0.0420654644
C  C109  1  0.10210000  0.32900000  0.35870000  1.0 -0.0420654644
C  C110  1  0.10210000  0.17100000  0.64130000  1.0 -0.0420654644
C  C111  1  0.39790000  0.32900000  0.14130000  1.0 -0.0420654644
C  C112  1  0.39790000  0.17100000  0.85870000  1.0 -0.0420654644
C  C113  1  0.89960000  0.71550000  0.61300000  1.0 0.0480466943
C  C114  1  0.89960000  0.78450000  0.38700000  1.0 0.0480466943
C  C115  1  0.60040000  0.71550000  0.88700000  1.0 0.0480466943
C  C116  1  0.60040000  0.78450000  0.11300000  1.0 0.0480466943
C  C117  1  0.10040000  0.28450000  0.38700000  1.0 0.0480466943
C  C118  1  0.10040000  0.21550000  0.61300000  1.0 0.0480466943
C  C119  1  0.39960000  0.28450000  0.11300000  1.0 0.0480466943
C  C120  1  0.39960000  0.21550000  0.88700000  1.0 0.0480466943
C  C121  1  0.88840000  0.67470000  0.69300000  1.0 0.0421543172
C  C122  1  0.88840000  0.82530000  0.30700000  1.0 0.0421543172
C  C123  1  0.61160000  0.67470000  0.80700000  1.0 0.0421543172
C  C124  1  0.61160000  0.82530000  0.19300000  1.0 0.0421543172
C  C125  1  0.11160000  0.32530000  0.30700000  1.0 0.0421543172
C  C126  1  0.11160000  0.17470000  0.69300000  1.0 0.0421543172
C  C127  1  0.38840000  0.32530000  0.19300000  1.0 0.0421543172
C  C128  1  0.38840000  0.17470000  0.80700000  1.0 0.0421543172
C  C129  1  0.88810000  0.76610000  0.63600000  1.0 0.0835480609
C  C130  1  0.88810000  0.73390000  0.36400000  1.0 0.0835480609
C  C131  1  0.61190000  0.76610000  0.86400000  1.0 0.0835480609
C  C132  1  0.61190000  0.73390000  0.13600000  1.0 0.0835480609
C  C133  1  0.11190000  0.23390000  0.36400000  1.0 0.0835480609
C  C134  1  0.11190000  0.26610000  0.63600000  1.0 0.0835480609
C  C135  1  0.38810000  0.23390000  0.13600000  1.0 0.0835480609
C  C136  1  0.38810000  0.26610000  0.86400000  1.0 0.0835480609
C  C137  1  0.87530000  0.72420000  0.71620000  1.0 0.0584361652
C  C138  1  0.87530000  0.77580000  0.28380000  1.0 0.0584361652
C  C139  1  0.62470000  0.72420000  0.78380000  1.0 0.0584361652
C  C140  1  0.62470000  0.77580000  0.21620000  1.0 0.0584361652
C  C141  1  0.12470000  0.27580000  0.28380000  1.0 0.0584361652
C  C142  1  0.12470000  0.22420000  0.71620000  1.0 0.0584361652
C  C143  1  0.37530000  0.27580000  0.21620000  1.0 0.0584361652
C  C144  1  0.37530000  0.22420000  0.78380000  1.0 0.0584361652
C  C145  1  0.15470000  0.46560000  0.70290000  1.0 0.6621230965
C  C146  1  0.15470000  0.03440000  0.29710000  1.0 0.6621230965
C  C147  1  0.34530000  0.46560000  0.79710000  1.0 0.6621230965
C  C148  1  0.34530000  0.03440000  0.20290000  1.0 0.6621230965
C  C149  1  0.84530000  0.53440000  0.29710000  1.0 0.6621230965
C  C150  1  0.84530000  0.96560000  0.70290000  1.0 0.6621230965
C  C151  1  0.65470000  0.53440000  0.20290000  1.0 0.6621230965
C  C152  1  0.65470000  0.96560000  0.79710000  1.0 0.6621230965
C  C153  1  0.84390000  0.82170000  0.71330000  1.0 0.6621230965
C  C154  1  0.84390000  0.67830000  0.28670000  1.0 0.6621230965
C  C155  1  0.65610000  0.82170000  0.78670000  1.0 0.6621230965
C  C156  1  0.65610000  0.67830000  0.21330000  1.0 0.6621230965
C  C157  1  0.15610000  0.17830000  0.28670000  1.0 0.6621230965
C  C158  1  0.15610000  0.32170000  0.71330000  1.0 0.6621230965
C  C159  1  0.34390000  0.17830000  0.21330000  1.0 0.6621230965
C  C160  1  0.34390000  0.32170000  0.78670000  1.0 0.6621230965
C  C161  1  0.67720000  0.56680000  0.44030000  1.0 0.5867253145
C  C162  1  0.67720000  0.93320000  0.55970000  1.0 0.5867253145
C  C163  1  0.82280000  0.56680000  0.05970000  1.0 0.5867253145
C  C164  1  0.82280000  0.93320000  0.94030000  1.0 0.5867253145
C  C165  1  0.32280000  0.43320000  0.55970000  1.0 0.5867253145
C  C166  1  0.32280000  0.06680000  0.44030000  1.0 0.5867253145
C  C167  1  0.17720000  0.43320000  0.94030000  1.0 0.5867253145
C  C168  1  0.17720000  0.06680000  0.05970000  1.0 0.5867253145
C  C169  1  0.86870000  0.77000000  0.68850000  1.0 -0.1242260934
C  C170  1  0.86870000  0.73000000  0.31150000  1.0 -0.1242260934
C  C171  1  0.63130000  0.77000000  0.81150000  1.0 -0.125305752
C  C172  1  0.63130000  0.73000000  0.18850000  1.0 -0.125305752
C  C173  1  0.13130000  0.23000000  0.31150000  1.0 -0.1242260934
C  C174  1  0.13130000  0.27000000  0.68850000  1.0 -0.1242260934
C  C175  1  0.36870000  0.23000000  0.18850000  1.0 -0.1242260934
C  C176  1  0.36870000  0.27000000  0.81150000  1.0 -0.1242260934
Cl  Cl1  1  0.00400000  0.57778000  0.52300000  1.0 -0.055639958
Cl  Cl2  1  0.00400000  0.92222000  0.47700000  1.0 -0.055639958
Cl  Cl3  1  0.49600000  0.57778000  0.97700000  1.0 -0.055639958
Cl  Cl4  1  0.49600000  0.92222000  0.02300000  1.0 -0.055639958
Cl  Cl5  1  0.99600000  0.42222000  0.47700000  1.0 -0.055639958
Cl  Cl6  1  0.99600000  0.07778000  0.52300000  1.0 -0.055639958
Cl  Cl7  1  0.50400000  0.42222000  0.02300000  1.0 -0.055639958
Cl  Cl8  1  0.50400000  0.07778000  0.97700000  1.0 -0.055639958
Cl  Cl9  1  0.82940000  0.50955000  0.63380000  1.0 -0.030998795
Cl  Cl10  1  0.82940000  0.99045000  0.36620000  1.0 -0.030998795
Cl  Cl11  1  0.67060000  0.50955000  0.86620000  1.0 -0.030998795
Cl  Cl12  1  0.67060000  0.99045000  0.13380000  1.0 -0.030998795
Cl  Cl13  1  0.17060000  0.49045000  0.36620000  1.0 -0.030998795
Cl  Cl14  1  0.17060000  0.00955000  0.63380000  1.0 -0.030998795
Cl  Cl15  1  0.32940000  0.49045000  0.13380000  1.0 -0.030998795
Cl  Cl16  1  0.32940000  0.00955000  0.86620000  1.0 -0.030998795
Cl  Cl17  1  0.88210000  0.54519000  0.43373000  1.0 -0.0487593301
Cl  Cl18  1  0.88210000  0.95481000  0.56627000  1.0 -0.0487593301
Cl  Cl19  1  0.61790000  0.54519000  0.06627000  1.0 -0.0487593301
Cl  Cl20  1  0.61790000  0.95481000  0.93373000  1.0 -0.0487593301
Cl  Cl21  1  0.11790000  0.45481000  0.56627000  1.0 -0.055639958
Cl  Cl22  1  0.11790000  0.04519000  0.43373000  1.0 -0.055639958
Cl  Cl23  1  0.38210000  0.45481000  0.93373000  1.0 -0.055639958
Cl  Cl24  1  0.38210000  0.04519000  0.06627000  1.0 -0.055639958
Cl  Cl25  1  0.96580000  0.42871000  0.67584000  1.0 -0.00543072
Cl  Cl26  1  0.96580000  0.07129000  0.32416000  1.0 -0.00543072
Cl  Cl27  1  0.53420000  0.42871000  0.82416000  1.0 -0.00543072
Cl  Cl28  1  0.53420000  0.07129000  0.17584000  1.0 -0.00543072
Cl  Cl29  1  0.03420000  0.57129000  0.32416000  1.0 -0.0047460836
Cl  Cl30  1  0.03420000  0.92871000  0.67584000  1.0 -0.0047460836
Cl  Cl31  1  0.46580000  0.57129000  0.17584000  1.0 -0.0047460836
Cl  Cl32  1  0.46580000  0.92871000  0.82416000  1.0 -0.0047460836
Cl  Cl33  1  0.58220000  0.61560000  0.52894000  1.0 0.0198411286
Cl  Cl34  1  0.58220000  0.88440000  0.47106000  1.0 0.0198411286
Cl  Cl35  1  0.91780000  0.61560000  0.97106000  1.0 0.011833966
Cl  Cl36  1  0.91780000  0.88440000  0.02894000  1.0 0.011833966
Cl  Cl37  1  0.41780000  0.38440000  0.47106000  1.0 0.0198411286
Cl  Cl38  1  0.41780000  0.11560000  0.52894000  1.0 0.0198411286
Cl  Cl39  1  0.08220000  0.38440000  0.02894000  1.0 0.0198411286
Cl  Cl40  1  0.08220000  0.11560000  0.97106000  1.0 0.0198411286
Cl  Cl41  1  0.10210000  0.65344000  0.63466000  1.0 -0.0193838688
Cl  Cl42  1  0.10210000  0.84656000  0.36534000  1.0 -0.0193838688
Cl  Cl43  1  0.39790000  0.65344000  0.86534000  1.0 -0.0193838688
Cl  Cl44  1  0.39790000  0.84656000  0.13466000  1.0 -0.0193838688
Cl  Cl45  1  0.89790000  0.34656000  0.36534000  1.0 -0.0193838688
Cl  Cl46  1  0.89790000  0.15344000  0.63466000  1.0 -0.0193838688
Cl  Cl47  1  0.60210000  0.34656000  0.13466000  1.0 -0.0193838688
Cl  Cl48  1  0.60210000  0.15344000  0.86534000  1.0 -0.0193838688
Cl  Cl49  1  0.69870000  0.63956000  0.62444000  1.0 -0.0420654644
Cl  Cl50  1  0.69870000  0.86044000  0.37556000  1.0 -0.0420654644
Cl  Cl51  1  0.80130000  0.63956000  0.87556000  1.0 -0.0420654644
Cl  Cl52  1  0.80130000  0.86044000  0.12444000  1.0 -0.0420654644
Cl  Cl53  1  0.30130000  0.36044000  0.37556000  1.0 -0.0420654644
Cl  Cl54  1  0.30130000  0.13956000  0.62444000  1.0 -0.0420654644
Cl  Cl55  1  0.19870000  0.36044000  0.12444000  1.0 -0.0487593301
Cl  Cl56  1  0.19870000  0.13956000  0.87556000  1.0 -0.0420654644
Cl  Cl57  1  0.23140000  0.57230000  0.68316000  1.0 -0.030998795
Cl  Cl58  1  0.23140000  0.92770000  0.31684000  1.0 -0.030998795
Cl  Cl59  1  0.26860000  0.57230000  0.81684000  1.0 -0.030998795
Cl  Cl60  1  0.26860000  0.92770000  0.18316000  1.0 -0.030998795
Cl  Cl61  1  0.76860000  0.42770000  0.31684000  1.0 -0.030998795
Cl  Cl62  1  0.76860000  0.07230000  0.68316000  1.0 -0.030998795
Cl  Cl63  1  0.73140000  0.42770000  0.18316000  1.0 -0.030998795
Cl  Cl64  1  0.73140000  0.07230000  0.81684000  1.0 -0.030998795
Cl  Cl65  1  0.87600000  0.62005000  0.73120000  1.0 -0.0487593301
Cl  Cl66  1  0.87600000  0.87995000  0.26880000  1.0 -0.0487593301
Cl  Cl67  1  0.62400000  0.62005000  0.76880000  1.0 -0.0487593301
Cl  Cl68  1  0.62400000  0.87995000  0.23120000  1.0 -0.0487593301
Cl  Cl69  1  0.12400000  0.37995000  0.26880000  1.0 -0.0487593301
Cl  Cl70  1  0.12400000  0.12005000  0.73120000  1.0 -0.0487593301
Cl  Cl71  1  0.37600000  0.37995000  0.23120000  1.0 -0.0487593301
Cl  Cl72  1  0.37600000  0.12005000  0.76880000  1.0 -0.0487593301
Cl  Cl73  1  0.92430000  0.71535000  0.55054000  1.0 -0.0487593301
Cl  Cl74  1  0.92430000  0.78465000  0.44946000  1.0 -0.0487593301
Cl  Cl75  1  0.57570000  0.71535000  0.94946000  1.0 -0.0487593301
Cl  Cl76  1  0.57570000  0.78465000  0.05054000  1.0 -0.0487593301
Cl  Cl77  1  0.07570000  0.28465000  0.44946000  1.0 -0.0420654644
Cl  Cl78  1  0.07570000  0.21535000  0.55054000  1.0 -0.0420654644
Cl  Cl79  1  0.42430000  0.28465000  0.05054000  1.0 -0.0420654644
Cl  Cl80  1  0.42430000  0.21535000  0.94946000  1.0 -0.0420654644
Cl  Cl81  1  0.89410000  0.82191000  0.60168000  1.0 -0.0487593301
Cl  Cl82  1  0.89410000  0.67809000  0.39832000  1.0 -0.0487593301
Cl  Cl83  1  0.60590000  0.82191000  0.89832000  1.0 -0.0420654644
Cl  Cl84  1  0.60590000  0.67809000  0.10168000  1.0 -0.0420654644
Cl  Cl85  1  0.10590000  0.17809000  0.39832000  1.0 -0.0487593301
Cl  Cl86  1  0.10590000  0.32191000  0.60168000  1.0 -0.0487593301
Cl  Cl87  1  0.39410000  0.17809000  0.10168000  1.0 -0.0420654644
Cl  Cl88  1  0.39410000  0.32191000  0.89832000  1.0 -0.0420654644
Cl  Cl89  1  0.85550000  0.72686000  0.78132000  1.0 -0.055639958
Cl  Cl90  1  0.85550000  0.77314000  0.21868000  1.0 -0.055639958
Cl  Cl91  1  0.64450000  0.72686000  0.71868000  1.0 -0.0487593301
Cl  Cl92  1  0.64450000  0.77314000  0.28132000  1.0 -0.0487593301
Cl  Cl93  1  0.14450000  0.27314000  0.21868000  1.0 -0.0487593301
Cl  Cl94  1  0.14450000  0.22686000  0.78132000  1.0 -0.0487593301
Cl  Cl95  1  0.35550000  0.27314000  0.28132000  1.0 -0.055639958
Cl  Cl96  1  0.35550000  0.22686000  0.71868000  1.0 -0.055639958
O  O1  1  0.13520000  0.45080000  0.74580000  1.0 -0.6695031996
O  O2  1  0.13520000  0.04920000  0.25420000  1.0 -0.6695031996
O  O3  1  0.36480000  0.45080000  0.75420000  1.0 -0.6695031996
O  O4  1  0.36480000  0.04920000  0.24580000  1.0 -0.6695031996
O  O5  1  0.86480000  0.54920000  0.25420000  1.0 -0.6695031996
O  O6  1  0.86480000  0.95080000  0.74580000  1.0 -0.6695031996
O  O7  1  0.63520000  0.54920000  0.24580000  1.0 -0.6695031996
O  O8  1  0.63520000  0.95080000  0.75420000  1.0 -0.6695031996
O  O9  1  0.22090000  0.45020000  0.67760000  1.0 -0.6371190647
O  O10  1  0.22090000  0.04980000  0.32240000  1.0 -0.6371190647
O  O11  1  0.27910000  0.45020000  0.82240000  1.0 -0.6371190647
O  O12  1  0.27910000  0.04980000  0.17760000  1.0 -0.6371190647
O  O13  1  0.77910000  0.54980000  0.32240000  1.0 -0.6371190647
O  O14  1  0.77910000  0.95020000  0.67760000  1.0 -0.6371190647
O  O15  1  0.72090000  0.54980000  0.17760000  1.0 -0.6371190647
O  O16  1  0.72090000  0.95020000  0.82240000  1.0 -0.6371190647
O  O17  1  0.68030000  0.60060000  0.40400000  1.0 -0.7444914455
O  O18  1  0.68030000  0.89940000  0.59600000  1.0 -0.7444914455
O  O19  1  0.81970000  0.60060000  0.09600000  1.0 -0.745777535
O  O20  1  0.81970000  0.89940000  0.90400000  1.0 -0.745777535
O  O21  1  0.31970000  0.39940000  0.59600000  1.0 -0.7444914455
O  O22  1  0.31970000  0.10060000  0.40400000  1.0 -0.7444914455
O  O23  1  0.18030000  0.39940000  0.90400000  1.0 -0.745777535
O  O24  1  0.18030000  0.10060000  0.09600000  1.0 -0.745777535
O  O25  1  0.89450000  0.83800000  0.74750000  1.0 -0.6227846419
O  O26  1  0.89450000  0.66200000  0.25250000  1.0 -0.6227846419
O  O27  1  0.60550000  0.83800000  0.75250000  1.0 -0.6227846419
O  O28  1  0.60550000  0.66200000  0.24750000  1.0 -0.6227846419
O  O29  1  0.10550000  0.16200000  0.25250000  1.0 -0.6227846419
O  O30  1  0.10550000  0.33800000  0.74750000  1.0 -0.6227846419
O  O31  1  0.39450000  0.16200000  0.24750000  1.0 -0.6287068601
O  O32  1  0.39450000  0.33800000  0.75250000  1.0 -0.6287068601
O  O33  1  0.77090000  0.84110000  0.69430000  1.0 -0.7087520833
O  O34  1  0.77090000  0.65890000  0.30570000  1.0 -0.7087520833
O  O35  1  0.72910000  0.84110000  0.80570000  1.0 -0.7087520833
O  O36  1  0.72910000  0.65890000  0.19430000  1.0 -0.7087520833
O  O37  1  0.22910000  0.15890000  0.30570000  1.0 -0.7087520833
O  O38  1  0.22910000  0.34110000  0.69430000  1.0 -0.7087520833
O  O39  1  0.27090000  0.15890000  0.19430000  1.0 -0.7087520833
O  O40  1  0.27090000  0.34110000  0.80570000  1.0 -0.7087520833
O  O41  1  0.63860000  0.52540000  0.44250000  1.0 -0.4403964381
O  O42  1  0.63860000  0.97460000  0.55750000  1.0 -0.4403964381
O  O43  1  0.86140000  0.52540000  0.05750000  1.0 -0.4403964381
O  O44  1  0.86140000  0.97460000  0.94250000  1.0 -0.4403964381
O  O45  1  0.36140000  0.47460000  0.55750000  1.0 -0.4403964381
O  O46  1  0.36140000  0.02540000  0.44250000  1.0 -0.4403964381
O  O47  1  0.13860000  0.47460000  0.94250000  1.0 -0.4403964381
O  O48  1  0.13860000  0.02540000  0.05750000  1.0 -0.4403964381
