# DDEC6 charges by PACMAN v1.1 (https://github.com/mtap-research/PACMAN-charge/)
data_TASWER_ASR_pacman
_symmetry_space_group_name_H-M   'P 1'
_cell_length_a   14.53180000
_cell_length_b   25.36100000
_cell_length_c   26.61840000
_cell_angle_alpha   90.00000000
_cell_angle_beta   90.00000000
_cell_angle_gamma   90.00000000
_symmetry_Int_Tables_number   1
_chemical_formula_structural   GdC22(Cl2O)6
_chemical_formula_sum   'Gd8 C176 Cl96 O48'
_cell_volume   9809.97121671
_cell_formula_units_Z   8
loop_
 _symmetry_equiv_pos_site_id
 _symmetry_equiv_pos_as_xyz
  1  'x, y, z'
loop_
 _atom_site_type_symbol
 _atom_site_label
 _atom_site_symmetry_multiplicity
 _atom_site_fract_x
 _atom_site_fract_y
 _atom_site_fract_z
 _atom_site_occupancy
 _atom_site_charge
Gd  Gd1  1  0.14684000  0.89777000  0.81534000  1.0 2.0917456786
Gd  Gd2  1  0.14684000  0.60223000  0.18466000  1.0 2.0917456786
Gd  Gd3  1  0.35316000  0.60223000  0.31534000  1.0 2.0917456786
Gd  Gd4  1  0.35316000  0.89777000  0.68466000  1.0 2.0917456786
Gd  Gd5  1  0.85316000  0.10222000  0.18466000  1.0 2.0917456786
Gd  Gd6  1  0.85316000  0.39777000  0.81534000  1.0 2.0917456786
Gd  Gd7  1  0.64684000  0.39777000  0.68466000  1.0 2.0917456786
Gd  Gd8  1  0.64684000  0.10222000  0.31534000  1.0 2.0917456786
C  C1  1  0.15650000  0.96620000  0.70210000  1.0 0.661048245
C  C2  1  0.15650000  0.53380000  0.29790000  1.0 0.661048245
C  C3  1  0.34350000  0.53380000  0.20210000  1.0 0.661048245
C  C4  1  0.34350000  0.96620000  0.79790000  1.0 0.661048245
C  C5  1  0.84350000  0.03379000  0.29790000  1.0 0.661048245
C  C6  1  0.84350000  0.46620000  0.70210000  1.0 0.661048245
C  C7  1  0.65650000  0.46620000  0.79790000  1.0 0.661048245
C  C8  1  0.65650000  0.03379000  0.20210000  1.0 0.661048245
C  C9  1  0.67710000  0.06491000  0.43910000  1.0 0.590454955
C  C10  1  0.67710000  0.43509000  0.56090000  1.0 0.590454955
C  C11  1  0.82290000  0.43509000  0.93910000  1.0 0.590454955
C  C12  1  0.82290000  0.06491000  0.06090000  1.0 0.590454955
C  C13  1  0.32290000  0.93510000  0.56090000  1.0 0.590454955
C  C14  1  0.32290000  0.56490000  0.43910000  1.0 0.590454955
C  C15  1  0.17710000  0.56490000  0.06090000  1.0 0.590454955
C  C16  1  0.17710000  0.93510000  0.93910000  1.0 0.590454955
C  C17  1  0.84450000  0.32100000  0.71220000  1.0 0.661048245
C  C18  1  0.84450000  0.17899000  0.28780000  1.0 0.661048245
C  C19  1  0.65550000  0.17899000  0.21220000  1.0 0.661048245
C  C20  1  0.65550000  0.32100000  0.78780000  1.0 0.661048245
C  C21  1  0.15550000  0.67899000  0.28780000  1.0 0.661048245
C  C22  1  0.15550000  0.82100000  0.71220000  1.0 0.661048245
C  C23  1  0.34450000  0.82100000  0.78780000  1.0 0.661048245
C  C24  1  0.34450000  0.67899000  0.21220000  1.0 0.661048245
C  C25  1  0.09080000  0.00530000  0.67850000  1.0 -0.1118743286
C  C26  1  0.09080000  0.49469000  0.32150000  1.0 -0.1118743286
C  C27  1  0.40920000  0.49469000  0.17850000  1.0 -0.1118743286
C  C28  1  0.40920000  0.00530000  0.82150000  1.0 -0.1118743286
C  C29  1  0.90920000  0.99469000  0.32150000  1.0 -0.1118743286
C  C30  1  0.90920000  0.50530000  0.67850000  1.0 -0.1118743286
C  C31  1  0.59080000  0.50530000  0.82150000  1.0 -0.1118743286
C  C32  1  0.59080000  0.99469000  0.17850000  1.0 -0.1118743286
C  C33  1  0.11730000  0.05740000  0.66910000  1.0 0.0509304723
C  C34  1  0.11730000  0.44260000  0.33090000  1.0 0.0509304723
C  C35  1  0.38270000  0.44260000  0.16910000  1.0 0.0509304723
C  C36  1  0.38270000  0.05740000  0.83090000  1.0 0.0509304723
C  C37  1  0.88270000  0.94259000  0.33090000  1.0 0.0509304723
C  C38  1  0.88270000  0.55741000  0.66910000  1.0 0.0509304723
C  C39  1  0.61730000  0.55741000  0.83090000  1.0 0.0509304723
C  C40  1  0.61730000  0.94259000  0.16910000  1.0 0.0509304723
C  C41  1  0.05610000  0.09241000  0.64710000  1.0 0.0509304723
C  C42  1  0.05610000  0.40759000  0.35290000  1.0 0.0509304723
C  C43  1  0.44390000  0.40759000  0.14710000  1.0 0.0509304723
C  C44  1  0.44390000  0.09241000  0.85290000  1.0 0.0509304723
C  C45  1  0.94390000  0.90760000  0.35290000  1.0 0.0509304723
C  C46  1  0.94390000  0.59240000  0.64710000  1.0 0.0509304723
C  C47  1  0.55610000  0.59240000  0.85290000  1.0 0.0509304723
C  C48  1  0.55610000  0.90760000  0.14710000  1.0 0.0509304723
C  C49  1  0.96660000  0.07841000  0.63430000  1.0 -0.0497724956
C  C50  1  0.96660000  0.42159000  0.36570000  1.0 -0.0497724956
C  C51  1  0.53340000  0.42159000  0.13430000  1.0 -0.0406732287
C  C52  1  0.53340000  0.07841000  0.86570000  1.0 -0.0497724956
C  C53  1  0.03340000  0.92159000  0.36570000  1.0 -0.0497724956
C  C54  1  0.03340000  0.57840000  0.63430000  1.0 -0.0497724956
C  C55  1  0.46660000  0.57840000  0.86570000  1.0 -0.0497724956
C  C56  1  0.46660000  0.92159000  0.13430000  1.0 -0.0497724956
C  C57  1  0.94150000  0.02580000  0.64270000  1.0 0.0509304723
C  C58  1  0.94150000  0.47419000  0.35730000  1.0 0.0509304723
C  C59  1  0.55850000  0.47419000  0.14270000  1.0 0.0509304723
C  C60  1  0.55850000  0.02580000  0.85730000  1.0 0.0509304723
C  C61  1  0.05850000  0.97420000  0.35730000  1.0 0.0509304723
C  C62  1  0.05850000  0.52580000  0.64270000  1.0 0.0509304723
C  C63  1  0.44150000  0.52580000  0.85730000  1.0 0.0509304723
C  C64  1  0.44150000  0.97420000  0.14270000  1.0 0.0509304723
C  C65  1  0.00370000  0.99060000  0.66420000  1.0 0.0411792183
C  C66  1  0.00370000  0.50940000  0.33580000  1.0 0.0411792183
C  C67  1  0.49630000  0.50940000  0.16420000  1.0 0.0411792183
C  C68  1  0.49630000  0.99060000  0.83580000  1.0 0.0411792183
C  C69  1  0.99630000  0.00940000  0.33580000  1.0 0.0509304723
C  C70  1  0.99630000  0.49061000  0.66420000  1.0 0.0411792183
C  C71  1  0.50370000  0.49061000  0.83580000  1.0 0.0411792183
C  C72  1  0.50370000  0.00940000  0.16420000  1.0 0.0411792183
C  C73  1  0.90120000  0.11821000  0.61440000  1.0 0.0308318377
C  C74  1  0.90120000  0.38179000  0.38560000  1.0 0.0308318377
C  C75  1  0.59880000  0.38179000  0.11440000  1.0 0.0308318377
C  C76  1  0.59880000  0.11821000  0.88560000  1.0 0.0308318377
C  C77  1  0.09880000  0.88179000  0.38560000  1.0 0.0308318377
C  C78  1  0.09880000  0.61821000  0.61440000  1.0 0.0308318377
C  C79  1  0.40120000  0.61821000  0.88560000  1.0 0.0308318377
C  C80  1  0.40120000  0.88179000  0.11440000  1.0 0.0308318377
C  C81  1  0.73670000  0.07970000  0.48450000  1.0 -0.088534407
C  C82  1  0.73670000  0.42029000  0.51550000  1.0 -0.088534407
C  C83  1  0.76330000  0.42029000  0.98450000  1.0 -0.088534407
C  C84  1  0.76330000  0.07970000  0.01550000  1.0 -0.088534407
C  C85  1  0.26330000  0.92029000  0.51550000  1.0 -0.088534407
C  C86  1  0.26330000  0.57971000  0.48450000  1.0 -0.088534407
C  C87  1  0.23670000  0.57971000  0.01550000  1.0 -0.088534407
C  C88  1  0.23670000  0.92029000  0.98450000  1.0 -0.088534407
C  C89  1  0.83060000  0.07130000  0.48490000  1.0 0.0589355987
C  C90  1  0.83060000  0.42869000  0.51510000  1.0 0.0589355987
C  C91  1  0.66940000  0.42869000  0.98490000  1.0 0.0589355987
C  C92  1  0.66940000  0.07130000  0.01510000  1.0 0.0589355987
C  C93  1  0.16940000  0.92870000  0.51510000  1.0 0.0589355987
C  C94  1  0.16940000  0.57130000  0.48490000  1.0 0.0589355987
C  C95  1  0.33060000  0.57130000  0.01510000  1.0 0.0589355987
C  C96  1  0.33060000  0.92870000  0.98490000  1.0 0.0589355987
C  C97  1  0.88560000  0.08500000  0.52590000  1.0 0.0411792183
C  C98  1  0.88560000  0.41499000  0.47410000  1.0 0.0411792183
C  C99  1  0.61440000  0.41499000  0.02590000  1.0 0.0411792183
C  C100  1  0.61440000  0.08500000  0.97410000  1.0 0.0411792183
C  C101  1  0.11440000  0.91500000  0.47410000  1.0 0.0411792183
C  C102  1  0.11440000  0.58500000  0.52590000  1.0 0.0411792183
C  C103  1  0.38560000  0.58500000  0.97410000  1.0 0.0411792183
C  C104  1  0.38560000  0.91500000  0.02590000  1.0 0.0411792183
C  C105  1  0.84470000  0.10630000  0.56960000  1.0 -0.0497724956
C  C106  1  0.84470000  0.39370000  0.43040000  1.0 -0.0497724956
C  C107  1  0.65530000  0.39370000  0.06960000  1.0 -0.0497724956
C  C108  1  0.65530000  0.10630000  0.93040000  1.0 -0.0497724956
C  C109  1  0.15530000  0.89369000  0.43040000  1.0 -0.0497724956
C  C110  1  0.15530000  0.60630000  0.56960000  1.0 -0.0497724956
C  C111  1  0.34470000  0.60630000  0.93040000  1.0 -0.0497724956
C  C112  1  0.34470000  0.89369000  0.06960000  1.0 -0.0497724956
C  C113  1  0.75030000  0.11441000  0.56880000  1.0 0.0509304723
C  C114  1  0.75030000  0.38560000  0.43120000  1.0 0.0509304723
C  C115  1  0.74970000  0.38560000  0.06880000  1.0 0.0509304723
C  C116  1  0.74970000  0.11441000  0.93120000  1.0 0.0509304723
C  C117  1  0.24970000  0.88560000  0.43120000  1.0 0.0509304723
C  C118  1  0.24970000  0.61440000  0.56880000  1.0 0.0509304723
C  C119  1  0.25030000  0.61440000  0.93120000  1.0 0.0509304723
C  C120  1  0.25030000  0.88560000  0.06880000  1.0 0.0509304723
C  C121  1  0.69710000  0.10200000  0.52710000  1.0 0.0411792183
C  C122  1  0.69710000  0.39799000  0.47290000  1.0 0.0411792183
C  C123  1  0.80290000  0.39799000  0.02710000  1.0 0.0411792183
C  C124  1  0.80290000  0.10200000  0.97290000  1.0 0.0308318377
C  C125  1  0.30290000  0.89799000  0.47290000  1.0 0.0411792183
C  C126  1  0.30290000  0.60201000  0.52710000  1.0 0.0411792183
C  C127  1  0.19710000  0.60201000  0.97290000  1.0 0.0411792183
C  C128  1  0.19710000  0.89799000  0.02710000  1.0 0.0411792183
C  C129  1  0.89220000  0.16911000  0.63980000  1.0 -0.0497724956
C  C130  1  0.89220000  0.33089000  0.36020000  1.0 -0.0497724956
C  C131  1  0.60780000  0.33089000  0.13980000  1.0 -0.0497724956
C  C132  1  0.60780000  0.16911000  0.86020000  1.0 -0.0497724956
C  C133  1  0.10780000  0.83090000  0.36020000  1.0 -0.0497724956
C  C134  1  0.10780000  0.66910000  0.63980000  1.0 -0.0497724956
C  C135  1  0.39220000  0.66910000  0.86020000  1.0 -0.0497724956
C  C136  1  0.39220000  0.83090000  0.13980000  1.0 -0.0497724956
C  C137  1  0.89510000  0.21730000  0.61280000  1.0 0.0509304723
C  C138  1  0.89510000  0.28269000  0.38720000  1.0 0.0509304723
C  C139  1  0.60490000  0.28269000  0.11280000  1.0 0.0509304723
C  C140  1  0.60490000  0.21730000  0.88720000  1.0 0.0509304723
C  C141  1  0.10490000  0.78269000  0.38720000  1.0 0.0509304723
C  C142  1  0.10490000  0.71730000  0.61280000  1.0 0.0509304723
C  C143  1  0.39510000  0.71730000  0.88720000  1.0 0.0509304723
C  C144  1  0.39510000  0.78269000  0.11280000  1.0 0.0509304723
C  C145  1  0.88340000  0.26521000  0.63580000  1.0 0.0589355987
C  C146  1  0.88340000  0.23480000  0.36420000  1.0 0.0589355987
C  C147  1  0.61660000  0.23480000  0.13580000  1.0 0.0589355987
C  C148  1  0.61660000  0.26521000  0.86420000  1.0 0.0589355987
C  C149  1  0.11660000  0.73479000  0.36420000  1.0 0.0589355987
C  C150  1  0.11660000  0.76520000  0.63580000  1.0 0.0589355987
C  C151  1  0.38340000  0.76520000  0.86420000  1.0 0.0589355987
C  C152  1  0.38340000  0.73479000  0.13580000  1.0 0.0589355987
C  C153  1  0.86930000  0.26881000  0.68740000  1.0 -0.1118743286
C  C154  1  0.86930000  0.23119000  0.31260000  1.0 -0.1118743286
C  C155  1  0.63070000  0.23119000  0.18740000  1.0 -0.1118743286
C  C156  1  0.63070000  0.26881000  0.81260000  1.0 -0.1118743286
C  C157  1  0.13070000  0.73120000  0.31260000  1.0 -0.1118743286
C  C158  1  0.13070000  0.76880000  0.68740000  1.0 -0.1118743286
C  C159  1  0.36930000  0.76880000  0.81260000  1.0 -0.1118743286
C  C160  1  0.36930000  0.73120000  0.18740000  1.0 -0.1118743286
C  C161  1  0.87220000  0.22231000  0.71450000  1.0 0.0509304723
C  C162  1  0.87220000  0.27770000  0.28550000  1.0 0.0509304723
C  C163  1  0.62780000  0.27770000  0.21450000  1.0 0.0509304723
C  C164  1  0.62780000  0.22231000  0.78550000  1.0 0.0509304723
C  C165  1  0.12780000  0.77769000  0.28550000  1.0 0.0589355987
C  C166  1  0.12780000  0.72230000  0.71450000  1.0 0.0509304723
C  C167  1  0.37220000  0.72230000  0.78550000  1.0 0.0509304723
C  C168  1  0.37220000  0.77769000  0.21450000  1.0 0.0589355987
C  C169  1  0.88200000  0.17341000  0.69180000  1.0 0.0411792183
C  C170  1  0.88200000  0.32660000  0.30820000  1.0 0.0411792183
C  C171  1  0.61800000  0.32660000  0.19180000  1.0 0.0411792183
C  C172  1  0.61800000  0.17341000  0.80820000  1.0 0.0411792183
C  C173  1  0.11800000  0.82659000  0.30820000  1.0 0.0411792183
C  C174  1  0.11800000  0.67341000  0.69180000  1.0 0.0411792183
C  C175  1  0.38200000  0.67341000  0.80820000  1.0 0.0411792183
C  C176  1  0.38200000  0.82659000  0.19180000  1.0 0.0411792183
Cl  Cl1  1  0.22612000  0.07644000  0.68503000  1.0 -0.0307154583
Cl  Cl2  1  0.22612000  0.42356000  0.31497000  1.0 -0.0307154583
Cl  Cl3  1  0.27388000  0.42356000  0.18503000  1.0 -0.0307154583
Cl  Cl4  1  0.27388000  0.07644000  0.81497000  1.0 -0.0307154583
Cl  Cl5  1  0.77388000  0.92355000  0.31497000  1.0 -0.0307154583
Cl  Cl6  1  0.77388000  0.57644000  0.68503000  1.0 -0.0307154583
Cl  Cl7  1  0.72612000  0.57644000  0.81497000  1.0 -0.0307154583
Cl  Cl8  1  0.72612000  0.92355000  0.18503000  1.0 -0.0307154583
Cl  Cl9  1  0.09695000  0.15532000  0.63395000  1.0 -0.0210645355
Cl  Cl10  1  0.09695000  0.34469000  0.36605000  1.0 -0.0210645355
Cl  Cl11  1  0.40305000  0.34469000  0.13395000  1.0 -0.0210645355
Cl  Cl12  1  0.40305000  0.15532000  0.86605000  1.0 -0.0210645355
Cl  Cl13  1  0.90305000  0.84468000  0.36605000  1.0 -0.0210645355
Cl  Cl14  1  0.90305000  0.65531000  0.63395000  1.0 -0.0210645355
Cl  Cl15  1  0.59695000  0.65531000  0.86605000  1.0 -0.0210645355
Cl  Cl16  1  0.59695000  0.84468000  0.13395000  1.0 -0.0210645355
Cl  Cl17  1  0.83274000  0.00447000  0.62798000  1.0 -0.0210645355
Cl  Cl18  1  0.83274000  0.49552000  0.37202000  1.0 -0.0210645355
Cl  Cl19  1  0.66726000  0.49552000  0.12798000  1.0 -0.0210645355
Cl  Cl20  1  0.66726000  0.00447000  0.87202000  1.0 -0.0210645355
Cl  Cl21  1  0.16726000  0.99552000  0.37202000  1.0 -0.0210645355
Cl  Cl22  1  0.16726000  0.50448000  0.62798000  1.0 -0.0210645355
Cl  Cl23  1  0.33274000  0.50448000  0.87202000  1.0 -0.0210645355
Cl  Cl24  1  0.33274000  0.99552000  0.12798000  1.0 -0.0210645355
Cl  Cl25  1  0.97068000  0.92558000  0.67298000  1.0 -0.0406732287
Cl  Cl26  1  0.97068000  0.57442000  0.32702000  1.0 -0.0307154583
Cl  Cl27  1  0.52932000  0.57442000  0.17298000  1.0 -0.0307154583
Cl  Cl28  1  0.52932000  0.92558000  0.82702000  1.0 -0.0406732287
Cl  Cl29  1  0.02932000  0.07441000  0.32702000  1.0 -0.0307154583
Cl  Cl30  1  0.02932000  0.42558000  0.67298000  1.0 -0.0307154583
Cl  Cl31  1  0.47068000  0.42558000  0.82702000  1.0 -0.0307154583
Cl  Cl32  1  0.47068000  0.07441000  0.17298000  1.0 -0.0307154583
Cl  Cl33  1  0.87966000  0.04283000  0.43303000  1.0 -0.0307154583
Cl  Cl34  1  0.87966000  0.45717000  0.56697000  1.0 -0.0307154583
Cl  Cl35  1  0.62034000  0.45717000  0.93303000  1.0 -0.0307154583
Cl  Cl36  1  0.62034000  0.04283000  0.06697000  1.0 -0.0307154583
Cl  Cl37  1  0.12034000  0.95717000  0.56697000  1.0 -0.0307154583
Cl  Cl38  1  0.12034000  0.54283000  0.43303000  1.0 -0.0307154583
Cl  Cl39  1  0.37966000  0.54283000  0.06697000  1.0 -0.0307154583
Cl  Cl40  1  0.37966000  0.95717000  0.93303000  1.0 -0.0307154583
Cl  Cl41  1  0.00158000  0.07770000  0.52128000  1.0 -0.0497724956
Cl  Cl42  1  0.00158000  0.42230000  0.47872000  1.0 -0.0497724956
Cl  Cl43  1  0.49842000  0.42230000  0.02128000  1.0 -0.0497724956
Cl  Cl44  1  0.49842000  0.07770000  0.97872000  1.0 -0.0497724956
Cl  Cl45  1  0.99842000  0.92231000  0.47872000  1.0 -0.0497724956
Cl  Cl46  1  0.99842000  0.57769000  0.52128000  1.0 -0.0497724956
Cl  Cl47  1  0.50158000  0.57769000  0.97872000  1.0 -0.0497724956
Cl  Cl48  1  0.50158000  0.92231000  0.02128000  1.0 -0.0497724956
Cl  Cl49  1  0.69455000  0.13603000  0.62256000  1.0 -0.0497724956
Cl  Cl50  1  0.69455000  0.36396000  0.37744000  1.0 -0.0497724956
Cl  Cl51  1  0.80545000  0.36396000  0.12256000  1.0 -0.0497724956
Cl  Cl52  1  0.80545000  0.13603000  0.87744000  1.0 -0.0497724956
Cl  Cl53  1  0.30545000  0.86396000  0.37744000  1.0 -0.0406732287
Cl  Cl54  1  0.30545000  0.63604000  0.62256000  1.0 -0.0497724956
Cl  Cl55  1  0.19455000  0.63604000  0.87744000  1.0 -0.0497724956
Cl  Cl56  1  0.19455000  0.86396000  0.12256000  1.0 -0.0497724956
Cl  Cl57  1  0.57972000  0.11286000  0.52691000  1.0 0.0190157744
Cl  Cl58  1  0.57972000  0.38714000  0.47309000  1.0 0.0190157744
Cl  Cl59  1  0.92028000  0.38714000  0.02691000  1.0 0.0190157744
Cl  Cl60  1  0.92028000  0.11286000  0.97309000  1.0 0.014326895
Cl  Cl61  1  0.42028000  0.88713000  0.47309000  1.0 0.014326895
Cl  Cl62  1  0.42028000  0.61286000  0.52691000  1.0 0.0190157744
Cl  Cl63  1  0.07972000  0.61286000  0.97309000  1.0 0.014326895
Cl  Cl64  1  0.07972000  0.88713000  0.02691000  1.0 0.0190157744
Cl  Cl65  1  0.91870000  0.21593000  0.54972000  1.0 -0.0406732287
Cl  Cl66  1  0.91870000  0.28406000  0.45028000  1.0 -0.0406732287
Cl  Cl67  1  0.58130000  0.28406000  0.04972000  1.0 -0.0406732287
Cl  Cl68  1  0.58130000  0.21593000  0.95028000  1.0 -0.0406732287
Cl  Cl69  1  0.08130000  0.78407000  0.45028000  1.0 -0.0406732287
Cl  Cl70  1  0.08130000  0.71593000  0.54972000  1.0 -0.0406732287
Cl  Cl71  1  0.41870000  0.71593000  0.95028000  1.0 -0.0406732287
Cl  Cl72  1  0.41870000  0.78407000  0.04972000  1.0 -0.0406732287
Cl  Cl73  1  0.88873000  0.32270000  0.60138000  1.0 -0.0406732287
Cl  Cl74  1  0.88873000  0.17729000  0.39862000  1.0 -0.0497724956
Cl  Cl75  1  0.61127000  0.17729000  0.10138000  1.0 -0.0497724956
Cl  Cl76  1  0.61127000  0.32270000  0.89862000  1.0 -0.0406732287
Cl  Cl77  1  0.11127000  0.67729000  0.39862000  1.0 -0.0497724956
Cl  Cl78  1  0.11127000  0.82271000  0.60138000  1.0 -0.0406732287
Cl  Cl79  1  0.38873000  0.82271000  0.89862000  1.0 -0.0497724956
Cl  Cl80  1  0.38873000  0.67729000  0.10138000  1.0 -0.0497724956
Cl  Cl81  1  0.85672000  0.22412000  0.77920000  1.0 -0.0307154583
Cl  Cl82  1  0.85672000  0.27588000  0.22080000  1.0 -0.0307154583
Cl  Cl83  1  0.64328000  0.27588000  0.27920000  1.0 -0.0307154583
Cl  Cl84  1  0.64328000  0.22412000  0.72080000  1.0 -0.0307154583
Cl  Cl85  1  0.14328000  0.77589000  0.22080000  1.0 -0.0210645355
Cl  Cl86  1  0.14328000  0.72411000  0.77920000  1.0 -0.0210645355
Cl  Cl87  1  0.35672000  0.72411000  0.72080000  1.0 -0.0307154583
Cl  Cl88  1  0.35672000  0.77589000  0.27920000  1.0 -0.0307154583
Cl  Cl89  1  0.87215000  0.11697000  0.72787000  1.0 -0.0406732287
Cl  Cl90  1  0.87215000  0.38302000  0.27213000  1.0 -0.0406732287
Cl  Cl91  1  0.62785000  0.38302000  0.22787000  1.0 -0.0406732287
Cl  Cl92  1  0.62785000  0.11697000  0.77213000  1.0 -0.0406732287
Cl  Cl93  1  0.12785000  0.88302000  0.27213000  1.0 -0.0406732287
Cl  Cl94  1  0.12785000  0.61698000  0.72787000  1.0 -0.0406732287
Cl  Cl95  1  0.37215000  0.61698000  0.77213000  1.0 -0.0406732287
Cl  Cl96  1  0.37215000  0.88302000  0.22787000  1.0 -0.0406732287
O  O1  1  0.13670000  0.95178000  0.74559000  1.0 -0.6805842925
O  O2  1  0.13670000  0.54822000  0.25441000  1.0 -0.6805842925
O  O3  1  0.36330000  0.54822000  0.24559000  1.0 -0.6805842925
O  O4  1  0.36330000  0.95178000  0.75441000  1.0 -0.6805842925
O  O5  1  0.86330000  0.04821000  0.25441000  1.0 -0.6805842925
O  O6  1  0.86330000  0.45178000  0.74559000  1.0 -0.6805842925
O  O7  1  0.63670000  0.45178000  0.75441000  1.0 -0.6805842925
O  O8  1  0.63670000  0.04821000  0.24559000  1.0 -0.6805842925
O  O9  1  0.22340000  0.95283000  0.67671000  1.0 -0.6198536415
O  O10  1  0.22340000  0.54717000  0.32329000  1.0 -0.6198536415
O  O11  1  0.27660000  0.54717000  0.17671000  1.0 -0.6198536415
O  O12  1  0.27660000  0.95283000  0.82329000  1.0 -0.6198536415
O  O13  1  0.77660000  0.04717000  0.32329000  1.0 -0.6198536415
O  O14  1  0.77660000  0.45282000  0.67671000  1.0 -0.6198536415
O  O15  1  0.72340000  0.45282000  0.82329000  1.0 -0.6198536415
O  O16  1  0.72340000  0.04717000  0.17671000  1.0 -0.6198536415
O  O17  1  0.63860000  0.02191000  0.44090000  1.0 -0.4732050334
O  O18  1  0.63860000  0.47809000  0.55910000  1.0 -0.4787782018
O  O19  1  0.86140000  0.47809000  0.94090000  1.0 -0.4787782018
O  O20  1  0.86140000  0.02191000  0.05910000  1.0 -0.4732050334
O  O21  1  0.36140000  0.97810000  0.55910000  1.0 -0.4787782018
O  O22  1  0.36140000  0.52190000  0.44090000  1.0 -0.4732050334
O  O23  1  0.13860000  0.52190000  0.05910000  1.0 -0.4732050334
O  O24  1  0.13860000  0.97810000  0.94090000  1.0 -0.4787782018
O  O25  1  0.67690000  0.09764000  0.40359000  1.0 -0.6945348938
O  O26  1  0.67690000  0.40236000  0.59641000  1.0 -0.6945348938
O  O27  1  0.82310000  0.40236000  0.90359000  1.0 -0.6945348938
O  O28  1  0.82310000  0.09764000  0.09641000  1.0 -0.6951876242
O  O29  1  0.32310000  0.90236000  0.59641000  1.0 -0.6945348938
O  O30  1  0.32310000  0.59764000  0.40359000  1.0 -0.6945348938
O  O31  1  0.17690000  0.59764000  0.09641000  1.0 -0.6945348938
O  O32  1  0.17690000  0.90236000  0.90359000  1.0 -0.6945348938
O  O33  1  0.77180000  0.34125000  0.69524000  1.0 -0.6805842925
O  O34  1  0.77180000  0.15876000  0.30476000  1.0 -0.6805842925
O  O35  1  0.72820000  0.15876000  0.19524000  1.0 -0.6805842925
O  O36  1  0.72820000  0.34125000  0.80476000  1.0 -0.6805842925
O  O37  1  0.22820000  0.65875000  0.30476000  1.0 -0.6805842925
O  O38  1  0.22820000  0.84125000  0.69524000  1.0 -0.6805842925
O  O39  1  0.27180000  0.84125000  0.80476000  1.0 -0.6805842925
O  O40  1  0.27180000  0.65875000  0.19524000  1.0 -0.6805842925
O  O41  1  0.89430000  0.33716000  0.74719000  1.0 -0.6392086779
O  O42  1  0.89430000  0.16284000  0.25281000  1.0 -0.6392086779
O  O43  1  0.60570000  0.16284000  0.24719000  1.0 -0.6392086779
O  O44  1  0.60570000  0.33716000  0.75281000  1.0 -0.6392086779
O  O45  1  0.10570000  0.66283000  0.25281000  1.0 -0.6392086779
O  O46  1  0.10570000  0.83716000  0.74719000  1.0 -0.6392086779
O  O47  1  0.39430000  0.83716000  0.75281000  1.0 -0.6392086779
O  O48  1  0.39430000  0.66283000  0.24719000  1.0 -0.6392086779
