# DDEC6 charges by PACMAN v1.1 (https://github.com/mtap-research/PACMAN-charge/)
data_TASWAN_FSR_pacman
_symmetry_space_group_name_H-M   'P 1'
_cell_length_a   15.24430000
_cell_length_b   25.06920000
_cell_length_c   26.56220000
_cell_angle_alpha   90.00000000
_cell_angle_beta   90.00000000
_cell_angle_gamma   90.00000000
_symmetry_Int_Tables_number   1
_chemical_formula_structural   TbC27(Cl4O3)3
_chemical_formula_sum   'Tb8 C216 Cl96 O72'
_cell_volume   10151.07424897
_cell_formula_units_Z   8
loop_
 _symmetry_equiv_pos_site_id
 _symmetry_equiv_pos_as_xyz
  1  'x, y, z'
loop_
 _atom_site_type_symbol
 _atom_site_label
 _atom_site_symmetry_multiplicity
 _atom_site_fract_x
 _atom_site_fract_y
 _atom_site_fract_z
 _atom_site_occupancy
 _atom_site_charge
Tb  Tb1  1  0.65482000  0.89950000  0.68339000  1.0 2.1430520442
Tb  Tb2  1  0.65482000  0.60050000  0.31661000  1.0 2.1430520442
Tb  Tb3  1  0.84518000  0.60050000  0.18339000  1.0 2.1430520442
Tb  Tb4  1  0.84518000  0.89950000  0.81661000  1.0 2.1430520442
Tb  Tb5  1  0.34518000  0.10050000  0.31661000  1.0 2.1430520442
Tb  Tb6  1  0.34518000  0.39950000  0.68339000  1.0 2.1430520442
Tb  Tb7  1  0.15482000  0.39950000  0.81661000  1.0 2.1430520442
Tb  Tb8  1  0.15482000  0.10050000  0.18339000  1.0 2.1430520442
C  C1  1  0.65790000  0.96801000  0.79686000  1.0 0.6687972871
C  C2  1  0.65790000  0.53199000  0.20314000  1.0 0.6687972871
C  C3  1  0.84210000  0.53199000  0.29686000  1.0 0.6687972871
C  C4  1  0.84210000  0.96801000  0.70314000  1.0 0.6687972871
C  C5  1  0.34210000  0.03199000  0.20314000  1.0 0.6687972871
C  C6  1  0.34210000  0.46801000  0.79686000  1.0 0.6687972871
C  C7  1  0.15790000  0.46801000  0.70314000  1.0 0.6687972871
C  C8  1  0.15790000  0.03199000  0.29686000  1.0 0.6687972871
C  C9  1  0.19150000  0.06220000  0.06030000  1.0 0.6146508184
C  C10  1  0.19150000  0.43780000  0.93970000  1.0 0.6146508184
C  C11  1  0.30850000  0.43780000  0.56030000  1.0 0.6146508184
C  C12  1  0.30850000  0.06220000  0.43970000  1.0 0.6146508184
C  C13  1  0.80850000  0.93780000  0.93970000  1.0 0.6146508184
C  C14  1  0.80850000  0.56220000  0.06030000  1.0 0.6146508184
C  C15  1  0.69150000  0.56220000  0.43970000  1.0 0.6146508184
C  C16  1  0.69150000  0.93780000  0.56030000  1.0 0.6146508184
C  C17  1  0.34080000  0.32152000  0.78679000  1.0 0.6687972871
C  C18  1  0.34080000  0.17848000  0.21321000  1.0 0.6687972871
C  C19  1  0.15920000  0.17848000  0.28679000  1.0 0.6687972871
C  C20  1  0.15920000  0.32152000  0.71321000  1.0 0.6687972871
C  C21  1  0.65920000  0.67848000  0.21321000  1.0 0.6687972871
C  C22  1  0.65920000  0.82152000  0.78679000  1.0 0.6687972871
C  C23  1  0.84080000  0.82152000  0.71321000  1.0 0.6687972871
C  C24  1  0.84080000  0.67848000  0.28679000  1.0 0.6687972871
C  C25  1  0.59150000  0.00619000  0.82035000  1.0 -0.0738367225
C  C26  1  0.59150000  0.49381000  0.17965000  1.0 -0.0738367225
C  C27  1  0.90850000  0.49381000  0.32035000  1.0 -0.0738367225
C  C28  1  0.90850000  0.00619000  0.67965000  1.0 -0.0738367225
C  C29  1  0.40850000  0.99381000  0.17965000  1.0 -0.0738367225
C  C30  1  0.40850000  0.50619000  0.82035000  1.0 -0.0738367225
C  C31  1  0.09150000  0.50619000  0.67965000  1.0 -0.0738367225
C  C32  1  0.09150000  0.99381000  0.32035000  1.0 -0.0738367225
C  C33  1  0.61410000  0.05940000  0.82951000  1.0 0.0612196312
C  C34  1  0.61410000  0.44060000  0.17049000  1.0 0.0612196312
C  C35  1  0.88590000  0.44060000  0.32951000  1.0 0.0612196312
C  C36  1  0.88590000  0.05940000  0.67049000  1.0 0.0612196312
C  C37  1  0.38590000  0.94060000  0.17049000  1.0 0.0612196312
C  C38  1  0.38590000  0.55940000  0.82951000  1.0 0.0612196312
C  C39  1  0.11410000  0.55940000  0.67049000  1.0 0.0612196312
C  C40  1  0.11410000  0.94060000  0.32951000  1.0 0.0612196312
C  C41  1  0.55410000  0.09379000  0.85123000  1.0 0.0694485203
C  C42  1  0.55410000  0.40621000  0.14877000  1.0 0.0694485203
C  C43  1  0.94590000  0.40621000  0.35123000  1.0 0.0694485203
C  C44  1  0.94590000  0.09379000  0.64877000  1.0 0.0694485203
C  C45  1  0.44590000  0.90621000  0.14877000  1.0 0.0694485203
C  C46  1  0.44590000  0.59379000  0.85123000  1.0 0.0694485203
C  C47  1  0.05410000  0.59379000  0.64877000  1.0 0.0694485203
C  C48  1  0.05410000  0.90621000  0.35123000  1.0 0.0694485203
C  C49  1  0.46910000  0.07772000  0.86431000  1.0 -0.0278995207
C  C50  1  0.46910000  0.42228000  0.13569000  1.0 -0.0278995207
C  C51  1  0.03090000  0.42228000  0.36431000  1.0 -0.0278995207
C  C52  1  0.03090000  0.07772000  0.63569000  1.0 -0.0278995207
C  C53  1  0.53090000  0.92228000  0.13569000  1.0 -0.0278995207
C  C54  1  0.53090000  0.57772000  0.86431000  1.0 -0.0278995207
C  C55  1  0.96910000  0.57772000  0.63569000  1.0 -0.0278995207
C  C56  1  0.96910000  0.92228000  0.36431000  1.0 -0.0278995207
C  C57  1  0.44910000  0.02395000  0.85630000  1.0 0.0533125251
C  C58  1  0.44910000  0.47605000  0.14370000  1.0 0.0533125251
C  C59  1  0.05090000  0.47605000  0.35630000  1.0 0.0533125251
C  C60  1  0.05090000  0.02395000  0.64370000  1.0 0.0533125251
C  C61  1  0.55090000  0.97605000  0.14370000  1.0 0.0533125251
C  C62  1  0.55090000  0.52395000  0.85630000  1.0 0.0533125251
C  C63  1  0.94910000  0.52395000  0.64370000  1.0 0.0533125251
C  C64  1  0.94910000  0.97605000  0.35630000  1.0 0.0533125251
C  C65  1  0.50930000  0.98961000  0.83415000  1.0 0.0612196312
C  C66  1  0.50930000  0.51039000  0.16585000  1.0 0.0612196312
C  C67  1  0.99070000  0.51039000  0.33415000  1.0 0.0612196312
C  C68  1  0.99070000  0.98961000  0.66585000  1.0 0.0612196312
C  C69  1  0.49070000  0.01039000  0.16585000  1.0 0.0612196312
C  C70  1  0.49070000  0.48961000  0.83415000  1.0 0.0612196312
C  C71  1  0.00930000  0.48961000  0.66585000  1.0 0.0612196312
C  C72  1  0.00930000  0.01039000  0.33415000  1.0 0.0612196312
C  C73  1  0.40340000  0.11600000  0.88410000  1.0 0.0612196312
C  C74  1  0.40340000  0.38400000  0.11590000  1.0 0.0612196312
C  C75  1  0.09660000  0.38400000  0.38410000  1.0 0.0612196312
C  C76  1  0.09660000  0.11600000  0.61590000  1.0 0.0612196312
C  C77  1  0.59660000  0.88400000  0.11590000  1.0 0.0612196312
C  C78  1  0.59660000  0.61600000  0.88410000  1.0 0.0612196312
C  C79  1  0.90340000  0.61600000  0.61590000  1.0 0.0612196312
C  C80  1  0.90340000  0.88400000  0.38410000  1.0 0.0612196312
C  C81  1  0.24650000  0.07800000  0.01448000  1.0 -0.0643528077
C  C82  1  0.24650000  0.42200000  0.98552000  1.0 -0.0643528077
C  C83  1  0.25350000  0.42200000  0.51448000  1.0 -0.0643528077
C  C84  1  0.25350000  0.07800000  0.48552000  1.0 -0.0643528077
C  C85  1  0.75350000  0.92200000  0.98552000  1.0 -0.0643528077
C  C86  1  0.75350000  0.57800000  0.01448000  1.0 -0.0643528077
C  C87  1  0.74650000  0.57800000  0.48552000  1.0 -0.0643528077
C  C88  1  0.74650000  0.92200000  0.51448000  1.0 -0.0643528077
C  C89  1  0.33700000  0.07000000  0.01459000  1.0 0.0694485203
C  C90  1  0.33700000  0.43000000  0.98541000  1.0 0.0694485203
C  C91  1  0.16300000  0.43000000  0.51459000  1.0 0.0694485203
C  C92  1  0.16300000  0.07000000  0.48541000  1.0 0.0694485203
C  C93  1  0.66300000  0.93000000  0.98541000  1.0 0.0694485203
C  C94  1  0.66300000  0.57000000  0.01459000  1.0 0.0694485203
C  C95  1  0.83700000  0.57000000  0.48541000  1.0 0.0694485203
C  C96  1  0.83700000  0.93000000  0.51459000  1.0 0.0694485203
C  C97  1  0.38770000  0.08330000  0.97315000  1.0 0.0612196312
C  C98  1  0.38770000  0.41670000  0.02685000  1.0 0.0612196312
C  C99  1  0.11230000  0.41670000  0.47315000  1.0 0.0612196312
C  C100  1  0.11230000  0.08330000  0.52685000  1.0 0.0612196312
C  C101  1  0.61230000  0.91670000  0.02685000  1.0 0.0612196312
C  C102  1  0.61230000  0.58330000  0.97315000  1.0 0.0612196312
C  C103  1  0.88770000  0.58330000  0.52685000  1.0 0.0612196312
C  C104  1  0.88770000  0.91670000  0.47315000  1.0 0.0612196312
C  C105  1  0.34960000  0.10315000  0.92928000  1.0 -0.0278995207
C  C106  1  0.34960000  0.39685000  0.07072000  1.0 -0.0278995207
C  C107  1  0.15040000  0.39685000  0.42928000  1.0 -0.0278995207
C  C108  1  0.15040000  0.10315000  0.57072000  1.0 -0.0278995207
C  C109  1  0.65040000  0.89685000  0.07072000  1.0 -0.0278995207
C  C110  1  0.65040000  0.60315000  0.92928000  1.0 -0.0278995207
C  C111  1  0.84960000  0.60315000  0.57072000  1.0 -0.0278995207
C  C112  1  0.84960000  0.89685000  0.42928000  1.0 -0.0278995207
C  C113  1  0.25920000  0.11020000  0.92945000  1.0 0.0612196312
C  C114  1  0.25920000  0.38980000  0.07055000  1.0 0.0612196312
C  C115  1  0.24080000  0.38980000  0.42945000  1.0 0.0612196312
C  C116  1  0.24080000  0.11020000  0.57055000  1.0 0.0612196312
C  C117  1  0.74080000  0.88980000  0.07055000  1.0 0.0612196312
C  C118  1  0.74080000  0.61020000  0.92945000  1.0 0.0612196312
C  C119  1  0.75920000  0.61020000  0.57055000  1.0 0.0612196312
C  C120  1  0.75920000  0.88980000  0.42945000  1.0 0.0612196312
C  C121  1  0.20910000  0.09830000  0.97190000  1.0 0.0612196312
C  C122  1  0.20910000  0.40170000  0.02810000  1.0 0.0612196312
C  C123  1  0.29090000  0.40170000  0.47190000  1.0 0.0612196312
C  C124  1  0.29090000  0.09830000  0.52810000  1.0 0.0612196312
C  C125  1  0.79090000  0.90170000  0.02810000  1.0 0.0612196312
C  C126  1  0.79090000  0.59830000  0.97190000  1.0 0.0612196312
C  C127  1  0.70910000  0.59830000  0.52810000  1.0 0.0612196312
C  C128  1  0.70910000  0.90170000  0.47190000  1.0 0.0612196312
C  C129  1  0.39260000  0.16810000  0.85890000  1.0 -0.0278995207
C  C130  1  0.39260000  0.33190000  0.14110000  1.0 -0.0278995207
C  C131  1  0.10740000  0.33190000  0.35890000  1.0 -0.0278995207
C  C132  1  0.10740000  0.16810000  0.64110000  1.0 -0.0278995207
C  C133  1  0.60740000  0.83190000  0.14110000  1.0 -0.0278995207
C  C134  1  0.60740000  0.66810000  0.85890000  1.0 -0.0278995207
C  C135  1  0.89260000  0.66810000  0.64110000  1.0 -0.0278995207
C  C136  1  0.89260000  0.83190000  0.35890000  1.0 -0.0278995207
C  C137  1  0.39390000  0.21601000  0.88609000  1.0 0.0612196312
C  C138  1  0.39390000  0.28399000  0.11391000  1.0 0.0612196312
C  C139  1  0.10610000  0.28399000  0.38609000  1.0 0.0612196312
C  C140  1  0.10610000  0.21601000  0.61391000  1.0 0.0612196312
C  C141  1  0.60610000  0.78399000  0.11391000  1.0 0.0612196312
C  C142  1  0.60610000  0.71601000  0.88609000  1.0 0.0612196312
C  C143  1  0.89390000  0.71601000  0.61391000  1.0 0.0612196312
C  C144  1  0.89390000  0.78399000  0.38609000  1.0 0.0612196312
C  C145  1  0.38020000  0.26536000  0.86283000  1.0 0.0767236416
C  C146  1  0.38020000  0.23464000  0.13717000  1.0 0.0767236416
C  C147  1  0.11980000  0.23464000  0.36283000  1.0 0.0767236416
C  C148  1  0.11980000  0.26536000  0.63717000  1.0 0.0767236416
C  C149  1  0.61980000  0.73464000  0.13717000  1.0 0.0767236416
C  C150  1  0.61980000  0.76536000  0.86283000  1.0 0.0767236416
C  C151  1  0.88020000  0.76536000  0.63717000  1.0 0.0767236416
C  C152  1  0.88020000  0.73464000  0.36283000  1.0 0.0767236416
C  C153  1  0.36520000  0.26870000  0.81139000  1.0 -0.0804271895
C  C154  1  0.36520000  0.23130000  0.18861000  1.0 -0.0804271895
C  C155  1  0.13480000  0.23130000  0.31139000  1.0 -0.0804271895
C  C156  1  0.13480000  0.26870000  0.68861000  1.0 -0.0804271895
C  C157  1  0.63480000  0.73130000  0.18861000  1.0 -0.0804271895
C  C158  1  0.63480000  0.76870000  0.81139000  1.0 -0.0804271895
C  C159  1  0.86520000  0.76870000  0.68861000  1.0 -0.0804271895
C  C160  1  0.86520000  0.73130000  0.31139000  1.0 -0.0804271895
C  C161  1  0.36940000  0.22123000  0.78399000  1.0 0.0694485203
C  C162  1  0.36940000  0.27877000  0.21601000  1.0 0.0694485203
C  C163  1  0.13060000  0.27877000  0.28399000  1.0 0.0694485203
C  C164  1  0.13060000  0.22123000  0.71601000  1.0 0.0694485203
C  C165  1  0.63060000  0.77877000  0.21601000  1.0 0.0694485203
C  C166  1  0.63060000  0.72123000  0.78399000  1.0 0.0694485203
C  C167  1  0.86940000  0.72123000  0.71601000  1.0 0.0694485203
C  C168  1  0.86940000  0.77877000  0.28399000  1.0 0.0694485203
C  C169  1  0.38080000  0.17214000  0.80713000  1.0 0.0612196312
C  C170  1  0.38080000  0.32786000  0.19287000  1.0 0.0612196312
C  C171  1  0.11920000  0.32786000  0.30713000  1.0 0.0612196312
C  C172  1  0.11920000  0.17214000  0.69287000  1.0 0.0612196312
C  C173  1  0.61920000  0.82786000  0.19287000  1.0 0.0612196312
C  C174  1  0.61920000  0.67214000  0.80713000  1.0 0.0612196312
C  C175  1  0.88080000  0.67214000  0.69287000  1.0 0.0612196312
C  C176  1  0.88080000  0.82786000  0.30713000  1.0 0.0612196312
C  C177  1  0.55010000  0.02570000  0.67670000  1.0 0.4934225594
C  C178  1  0.55010000  0.47430000  0.32330000  1.0 0.4934225594
C  C179  1  0.94990000  0.47430000  0.17670000  1.0 0.4934225594
C  C180  1  0.94990000  0.02570000  0.82330000  1.0 0.4934225594
C  C181  1  0.44990000  0.97430000  0.32330000  1.0 0.4934225594
C  C182  1  0.44990000  0.52570000  0.67670000  1.0 0.4934225594
C  C183  1  0.05010000  0.52570000  0.82330000  1.0 0.4934225594
C  C184  1  0.05010000  0.97430000  0.17670000  1.0 0.4934225594
C  C185  1  0.52260000  0.06670000  0.64950000  1.0 -0.4925375629
C  C186  1  0.52260000  0.43330000  0.35050000  1.0 -0.4925375629
C  C187  1  0.97740000  0.43330000  0.14950000  1.0 -0.4925375629
C  C188  1  0.97740000  0.06670000  0.85050000  1.0 -0.4925375629
C  C189  1  0.47740000  0.93330000  0.35050000  1.0 -0.4925375629
C  C190  1  0.47740000  0.56670000  0.64950000  1.0 -0.4925375629
C  C191  1  0.02260000  0.56670000  0.85050000  1.0 -0.4925375629
C  C192  1  0.02260000  0.93330000  0.14950000  1.0 -0.4925375629
C  C193  1  0.63800000  0.78650000  0.60560000  1.0 0.3696218756
C  C194  1  0.63800000  0.71350000  0.39440000  1.0 0.3696218756
C  C195  1  0.86200000  0.71350000  0.10560000  1.0 0.3696218756
C  C196  1  0.86200000  0.78650000  0.89440000  1.0 0.3696218756
C  C197  1  0.36200000  0.21350000  0.39440000  1.0 0.3696218756
C  C198  1  0.36200000  0.28650000  0.60560000  1.0 0.3696218756
C  C199  1  0.13800000  0.28650000  0.89440000  1.0 0.3696218756
C  C200  1  0.13800000  0.21350000  0.10560000  1.0 0.3696218756
C  C201  1  0.65000000  0.78220000  0.55330000  1.0 -0.1545594978
C  C202  1  0.65000000  0.71780000  0.44670000  1.0 -0.1545594978
C  C203  1  0.85000000  0.71780000  0.05330000  1.0 -0.1545594978
C  C204  1  0.85000000  0.78220000  0.94670000  1.0 -0.1545594978
C  C205  1  0.35000000  0.21780000  0.44670000  1.0 -0.1545594978
C  C206  1  0.35000000  0.28220000  0.55330000  1.0 -0.1545594978
C  C207  1  0.15000000  0.28220000  0.94670000  1.0 -0.1545594978
C  C208  1  0.15000000  0.21780000  0.05330000  1.0 -0.1545594978
C  C209  1  0.07400000  0.24210000  0.07190000  1.0 0.0296329818
C  C210  1  0.07400000  0.25790000  0.92810000  1.0 0.0296329818
C  C211  1  0.42600000  0.25790000  0.57190000  1.0 0.0296329818
C  C212  1  0.42600000  0.24210000  0.42810000  1.0 0.0296329818
C  C213  1  0.92600000  0.75790000  0.92810000  1.0 0.0296329818
C  C214  1  0.92600000  0.74210000  0.07190000  1.0 0.0296329818
C  C215  1  0.57400000  0.74210000  0.42810000  1.0 0.0296329818
C  C216  1  0.57400000  0.75790000  0.57190000  1.0 0.0296329818
Cl  Cl1  1  0.71690000  0.08107000  0.81307000  1.0 0.0090091038
Cl  Cl2  1  0.71690000  0.41893000  0.18693000  1.0 0.0090091038
Cl  Cl3  1  0.78310000  0.41893000  0.31307000  1.0 0.0090091038
Cl  Cl4  1  0.78310000  0.08107000  0.68693000  1.0 0.0090091038
Cl  Cl5  1  0.28310000  0.91893000  0.18693000  1.0 0.0036657442
Cl  Cl6  1  0.28310000  0.58107000  0.81307000  1.0 0.0036657442
Cl  Cl7  1  0.21690000  0.58107000  0.68693000  1.0 0.0036657442
Cl  Cl8  1  0.21690000  0.91893000  0.31307000  1.0 0.0036657442
Cl  Cl9  1  0.58866000  0.15835000  0.86455000  1.0 -0.0024481441
Cl  Cl10  1  0.58866000  0.34165000  0.13545000  1.0 -0.0024481441
Cl  Cl11  1  0.91134000  0.34165000  0.36455000  1.0 -0.0024481441
Cl  Cl12  1  0.91134000  0.15835000  0.63545000  1.0 -0.0024481441
Cl  Cl13  1  0.41134000  0.84165000  0.13545000  1.0 -0.0024481441
Cl  Cl14  1  0.41134000  0.65835000  0.86455000  1.0 -0.0024481441
Cl  Cl15  1  0.08866000  0.65835000  0.63545000  1.0 -0.0024481441
Cl  Cl16  1  0.08866000  0.84165000  0.36455000  1.0 -0.0024481441
Cl  Cl17  1  0.34649000  0.99957000  0.87162000  1.0 -0.0024481441
Cl  Cl18  1  0.34649000  0.50043000  0.12838000  1.0 -0.0024481441
Cl  Cl19  1  0.15351000  0.50043000  0.37162000  1.0 -0.0024481441
Cl  Cl20  1  0.15351000  0.99957000  0.62838000  1.0 -0.0024481441
Cl  Cl21  1  0.65351000  0.00043000  0.12838000  1.0 -0.0024481441
Cl  Cl22  1  0.65351000  0.49957000  0.87162000  1.0 -0.0024481441
Cl  Cl23  1  0.84649000  0.49957000  0.62838000  1.0 -0.0024481441
Cl  Cl24  1  0.84649000  0.00043000  0.37162000  1.0 -0.0024481441
Cl  Cl25  1  0.48154000  0.92315000  0.82458000  1.0 0.0090091038
Cl  Cl26  1  0.48154000  0.57685000  0.17542000  1.0 0.0090091038
Cl  Cl27  1  0.01846000  0.57685000  0.32458000  1.0 0.0090091038
Cl  Cl28  1  0.01846000  0.92315000  0.67542000  1.0 0.0090091038
Cl  Cl29  1  0.51846000  0.07685000  0.17542000  1.0 0.0090091038
Cl  Cl30  1  0.51846000  0.42315000  0.82458000  1.0 0.0090091038
Cl  Cl31  1  0.98154000  0.42315000  0.67542000  1.0 0.0090091038
Cl  Cl32  1  0.98154000  0.07685000  0.32458000  1.0 0.0090091038
Cl  Cl33  1  0.38487000  0.04294000  0.06735000  1.0 -0.013851815
Cl  Cl34  1  0.38487000  0.45706000  0.93265000  1.0 -0.013851815
Cl  Cl35  1  0.11513000  0.45706000  0.56735000  1.0 -0.013851815
Cl  Cl36  1  0.11513000  0.04294000  0.43265000  1.0 -0.013851815
Cl  Cl37  1  0.61513000  0.95706000  0.93265000  1.0 -0.013851815
Cl  Cl38  1  0.61513000  0.54294000  0.06735000  1.0 -0.013851815
Cl  Cl39  1  0.88487000  0.54294000  0.43265000  1.0 -0.013851815
Cl  Cl40  1  0.88487000  0.95706000  0.56735000  1.0 -0.013851815
Cl  Cl41  1  0.50005000  0.07709000  0.97799000  1.0 -0.0196928659
Cl  Cl42  1  0.50005000  0.42291000  0.02201000  1.0 -0.0196928659
Cl  Cl43  1  0.99995000  0.42291000  0.47799000  1.0 -0.0196928659
Cl  Cl44  1  0.99995000  0.07709000  0.52201000  1.0 -0.0196928659
Cl  Cl45  1  0.49995000  0.92291000  0.02201000  1.0 -0.0196928659
Cl  Cl46  1  0.49995000  0.57709000  0.97799000  1.0 -0.0196928659
Cl  Cl47  1  0.00005000  0.57709000  0.52201000  1.0 -0.0196928659
Cl  Cl48  1  0.00005000  0.92291000  0.47799000  1.0 -0.0196928659
Cl  Cl49  1  0.20594000  0.12971000  0.87470000  1.0 -0.0196928659
Cl  Cl50  1  0.20594000  0.37029000  0.12530000  1.0 -0.0196928659
Cl  Cl51  1  0.29406000  0.37029000  0.37470000  1.0 -0.0196928659
Cl  Cl52  1  0.29406000  0.12971000  0.62530000  1.0 -0.0196928659
Cl  Cl53  1  0.79406000  0.87029000  0.12530000  1.0 -0.0196928659
Cl  Cl54  1  0.79406000  0.62971000  0.87470000  1.0 -0.0196928659
Cl  Cl55  1  0.70594000  0.62971000  0.62530000  1.0 -0.0196928659
Cl  Cl56  1  0.70594000  0.87029000  0.37470000  1.0 -0.0196928659
Cl  Cl57  1  0.09702000  0.10856000  0.97118000  1.0 0.0368442078
Cl  Cl58  1  0.09702000  0.39144000  0.02882000  1.0 0.0368442078
Cl  Cl59  1  0.40298000  0.39144000  0.47118000  1.0 0.0368442078
Cl  Cl60  1  0.40298000  0.10856000  0.52882000  1.0 0.0368442078
Cl  Cl61  1  0.90298000  0.89144000  0.02882000  1.0 0.0368442078
Cl  Cl62  1  0.90298000  0.60856000  0.97118000  1.0 0.0368442078
Cl  Cl63  1  0.59702000  0.60856000  0.52882000  1.0 0.0368442078
Cl  Cl64  1  0.59702000  0.89144000  0.47118000  1.0 0.0368442078
Cl  Cl65  1  0.41729000  0.21516000  0.94944000  1.0 -0.0196928659
Cl  Cl66  1  0.41729000  0.28484000  0.05056000  1.0 -0.0196928659
Cl  Cl67  1  0.08271000  0.28484000  0.44944000  1.0 -0.0196928659
Cl  Cl68  1  0.08271000  0.21516000  0.55056000  1.0 -0.0196928659
Cl  Cl69  1  0.58271000  0.78484000  0.05056000  1.0 -0.0196928659
Cl  Cl70  1  0.58271000  0.71516000  0.94944000  1.0 -0.0196928659
Cl  Cl71  1  0.91729000  0.71516000  0.55056000  1.0 -0.0196928659
Cl  Cl72  1  0.91729000  0.78484000  0.44944000  1.0 -0.0196928659
Cl  Cl73  1  0.38458000  0.32324000  0.89774000  1.0 -0.0196928659
Cl  Cl74  1  0.38458000  0.17676000  0.10226000  1.0 -0.0196928659
Cl  Cl75  1  0.11542000  0.17676000  0.39774000  1.0 -0.0196928659
Cl  Cl76  1  0.11542000  0.32324000  0.60226000  1.0 -0.0196928659
Cl  Cl77  1  0.61542000  0.67676000  0.10226000  1.0 -0.0196928659
Cl  Cl78  1  0.61542000  0.82324000  0.89774000  1.0 -0.0196928659
Cl  Cl79  1  0.88458000  0.82324000  0.60226000  1.0 -0.0196928659
Cl  Cl80  1  0.88458000  0.67676000  0.39774000  1.0 -0.0196928659
Cl  Cl81  1  0.35171000  0.22341000  0.71951000  1.0 0.0090091038
Cl  Cl82  1  0.35171000  0.27659000  0.28049000  1.0 0.0090091038
Cl  Cl83  1  0.14829000  0.27659000  0.21951000  1.0 0.0090091038
Cl  Cl84  1  0.14829000  0.22341000  0.78049000  1.0 0.0090091038
Cl  Cl85  1  0.64829000  0.77659000  0.28049000  1.0 0.0090091038
Cl  Cl86  1  0.64829000  0.72341000  0.71951000  1.0 0.0090091038
Cl  Cl87  1  0.85171000  0.72341000  0.78049000  1.0 0.0090091038
Cl  Cl88  1  0.85171000  0.77659000  0.21951000  1.0 0.0090091038
Cl  Cl89  1  0.37298000  0.11506000  0.77077000  1.0 -0.013851815
Cl  Cl90  1  0.37298000  0.38494000  0.22923000  1.0 -0.013851815
Cl  Cl91  1  0.12702000  0.38494000  0.27077000  1.0 -0.013851815
Cl  Cl92  1  0.12702000  0.11506000  0.72923000  1.0 -0.013851815
Cl  Cl93  1  0.62702000  0.88494000  0.22923000  1.0 -0.013851815
Cl  Cl94  1  0.62702000  0.61506000  0.77077000  1.0 -0.013851815
Cl  Cl95  1  0.87298000  0.61506000  0.72923000  1.0 -0.013851815
Cl  Cl96  1  0.87298000  0.88494000  0.27077000  1.0 -0.013851815
O  O1  1  0.64200000  0.95327000  0.75303000  1.0 -0.5881158517
O  O2  1  0.64200000  0.54673000  0.24697000  1.0 -0.5881158517
O  O3  1  0.85800000  0.54673000  0.25303000  1.0 -0.5881158517
O  O4  1  0.85800000  0.95327000  0.74697000  1.0 -0.5881158517
O  O5  1  0.35800000  0.04673000  0.24697000  1.0 -0.5881158517
O  O6  1  0.35800000  0.45327000  0.75303000  1.0 -0.5881158517
O  O7  1  0.14200000  0.45327000  0.74697000  1.0 -0.5881158517
O  O8  1  0.14200000  0.04673000  0.25303000  1.0 -0.5881158517
O  O9  1  0.72090000  0.95510000  0.82355000  1.0 -0.5735757026
O  O10  1  0.72090000  0.54490000  0.17645000  1.0 -0.5735757026
O  O11  1  0.77910000  0.54490000  0.32355000  1.0 -0.5735757026
O  O12  1  0.77910000  0.95510000  0.67645000  1.0 -0.5735757026
O  O13  1  0.27910000  0.04490000  0.17645000  1.0 -0.5735757026
O  O14  1  0.27910000  0.45510000  0.82355000  1.0 -0.5735757026
O  O15  1  0.22090000  0.45510000  0.67645000  1.0 -0.5735757026
O  O16  1  0.22090000  0.04490000  0.32355000  1.0 -0.5735757026
O  O17  1  0.15710000  0.01810000  0.05940000  1.0 -0.3588081199
O  O18  1  0.15710000  0.48190000  0.94060000  1.0 -0.3588081199
O  O19  1  0.34290000  0.48190000  0.55940000  1.0 -0.3588081199
O  O20  1  0.34290000  0.01810000  0.44060000  1.0 -0.3588081199
O  O21  1  0.84290000  0.98190000  0.94060000  1.0 -0.3588081199
O  O22  1  0.84290000  0.51810000  0.05940000  1.0 -0.3588081199
O  O23  1  0.65710000  0.51810000  0.44060000  1.0 -0.3588081199
O  O24  1  0.65710000  0.98190000  0.55940000  1.0 -0.3588081199
O  O25  1  0.18780000  0.09573000  0.09527000  1.0 -0.5952620777
O  O26  1  0.18780000  0.40427000  0.90473000  1.0 -0.5952620777
O  O27  1  0.31220000  0.40427000  0.59527000  1.0 -0.5952620777
O  O28  1  0.31220000  0.09573000  0.40473000  1.0 -0.5952620777
O  O29  1  0.81220000  0.90427000  0.90473000  1.0 -0.5952620777
O  O30  1  0.81220000  0.59573000  0.09527000  1.0 -0.5952620777
O  O31  1  0.68780000  0.59573000  0.40473000  1.0 -0.5952620777
O  O32  1  0.68780000  0.90427000  0.59527000  1.0 -0.5881158517
O  O33  1  0.27270000  0.34242000  0.80460000  1.0 -0.6340827021
O  O34  1  0.27270000  0.15758000  0.19540000  1.0 -0.6340827021
O  O35  1  0.22730000  0.15758000  0.30460000  1.0 -0.6340827021
O  O36  1  0.22730000  0.34242000  0.69540000  1.0 -0.6340827021
O  O37  1  0.72730000  0.65758000  0.19540000  1.0 -0.6340827021
O  O38  1  0.72730000  0.84242000  0.80460000  1.0 -0.6340827021
O  O39  1  0.77270000  0.84242000  0.69540000  1.0 -0.6340827021
O  O40  1  0.77270000  0.65758000  0.30460000  1.0 -0.6340827021
O  O41  1  0.38640000  0.33824000  0.75109000  1.0 -0.5183525953
O  O42  1  0.38640000  0.16176000  0.24891000  1.0 -0.5183525953
O  O43  1  0.11360000  0.16176000  0.25109000  1.0 -0.5183525953
O  O44  1  0.11360000  0.33824000  0.74891000  1.0 -0.5183525953
O  O45  1  0.61360000  0.66176000  0.24891000  1.0 -0.5183525953
O  O46  1  0.61360000  0.83824000  0.75109000  1.0 -0.5183525953
O  O47  1  0.88640000  0.83824000  0.74891000  1.0 -0.5183525953
O  O48  1  0.88640000  0.66176000  0.25109000  1.0 -0.5183525953
O  O49  1  0.59190000  0.98110000  0.65164000  1.0 -0.5611124385
O  O50  1  0.59190000  0.51890000  0.34836000  1.0 -0.5611124385
O  O51  1  0.90810000  0.51890000  0.15164000  1.0 -0.5611124385
O  O52  1  0.90810000  0.98110000  0.84836000  1.0 -0.5611124385
O  O53  1  0.40810000  0.01890000  0.34836000  1.0 -0.5611124385
O  O54  1  0.40810000  0.48110000  0.65164000  1.0 -0.5611124385
O  O55  1  0.09190000  0.48110000  0.84836000  1.0 -0.5611124385
O  O56  1  0.09190000  0.01890000  0.15164000  1.0 -0.5611124385
O  O57  1  0.59940000  0.82059000  0.64059000  1.0 -0.5763488087
O  O58  1  0.59940000  0.67941000  0.35941000  1.0 -0.5763488087
O  O59  1  0.90060000  0.67941000  0.14059000  1.0 -0.5763488087
O  O60  1  0.90060000  0.82059000  0.85941000  1.0 -0.5763488087
O  O61  1  0.40060000  0.17941000  0.35941000  1.0 -0.5763488087
O  O62  1  0.40060000  0.32059000  0.64059000  1.0 -0.5763488087
O  O63  1  0.09940000  0.32059000  0.85941000  1.0 -0.5763488087
O  O64  1  0.09940000  0.17941000  0.14059000  1.0 -0.5763488087
O  O65  1  0.49660000  0.89665000  0.69162000  1.0 -0.4117647271
O  O66  1  0.49660000  0.60335000  0.30838000  1.0 -0.4117647271
O  O67  1  0.00340000  0.60335000  0.19162000  1.0 -0.4117647271
O  O68  1  0.00340000  0.89665000  0.80838000  1.0 -0.4117647271
O  O69  1  0.50340000  0.10335000  0.30838000  1.0 -0.4117647271
O  O70  1  0.50340000  0.39665000  0.69162000  1.0 -0.4117647271
O  O71  1  0.99660000  0.39665000  0.80838000  1.0 -0.4117647271
O  O72  1  0.99660000  0.10335000  0.19162000  1.0 -0.4117647271
