# DDEC6 charges by PACMAN v1.1 (https://github.com/mtap-research/PACMAN-charge/)
data_TASXIW_FSR_pacman
_symmetry_space_group_name_H-M   'P 1'
_cell_length_a   16.54740000
_cell_length_b   16.54740000
_cell_length_c   13.95170000
_cell_angle_alpha   69.99080000
_cell_angle_beta   110.00900000
_cell_angle_gamma   76.60530000
_symmetry_Int_Tables_number   1
_chemical_formula_structural   Zn2H9C17(NO5)2
_chemical_formula_sum   'Zn8 H36 C68 N8 O40'
_cell_volume   3098.67808018
_cell_formula_units_Z   4
loop_
 _symmetry_equiv_pos_site_id
 _symmetry_equiv_pos_as_xyz
  1  'x, y, z'
loop_
 _atom_site_type_symbol
 _atom_site_label
 _atom_site_symmetry_multiplicity
 _atom_site_fract_x
 _atom_site_fract_y
 _atom_site_fract_z
 _atom_site_occupancy
 _atom_site_charge
Zn  Zn1  1  0.20573000  0.65245000  0.28775000  1.0 0.9039446732
Zn  Zn2  1  0.65245000  0.20573000  0.21225000  1.0 0.9039446732
Zn  Zn3  1  0.79427000  0.34755000  0.71225000  1.0 0.9039446732
Zn  Zn4  1  0.34755000  0.79427000  0.78775000  1.0 0.9076808711
Zn  Zn5  1  0.27862000  0.64068000  0.53922000  1.0 0.9404302259
Zn  Zn6  1  0.64068000  0.27862000  0.96078000  1.0 0.9404302259
Zn  Zn7  1  0.72138000  0.35932000  0.46078000  1.0 0.9404302259
Zn  Zn8  1  0.35932000  0.72138000  0.03922000  1.0 0.9404302259
H  H1  1  0.11610000  0.49410000  0.65440000  1.0 0.1398761019
H  H2  1  0.49410000  0.11610000  0.84560000  1.0 0.1398761019
H  H3  1  0.88390000  0.50590000  0.34560000  1.0 0.1398761019
H  H4  1  0.50590000  0.88390000  0.15440000  1.0 0.1398761019
H  H5  1  0.03640000  0.94280000  0.13340000  1.0 0.1398761019
H  H6  1  0.94280000  0.03640000  0.36660000  1.0 0.1398761019
H  H7  1  0.96360000  0.05720000  0.86660000  1.0 0.1398761019
H  H8  1  0.05720000  0.96360000  0.63340000  1.0 0.1398761019
H  H9  1  0.55320000  0.51800000  0.36310000  1.0 0.1488607434
H  H10  1  0.51800000  0.55320000  0.13690000  1.0 0.1488607434
H  H11  1  0.44680000  0.48200000  0.63690000  1.0 0.1488607434
H  H12  1  0.48200000  0.44680000  0.86310000  1.0 0.1488607434
H  H13  1  0.15540000  0.65100000  0.05540000  1.0 0.1224016455
H  H14  1  0.65100000  0.15540000  0.44460000  1.0 0.1224016455
H  H15  1  0.84460000  0.34900000  0.94460000  1.0 0.1224016455
H  H16  1  0.34900000  0.84460000  0.55540000  1.0 0.1224016455
H  H17  1  0.03720000  0.74180000  0.86460000  1.0 0.1398761019
H  H18  1  0.74180000  0.03720000  0.63540000  1.0 0.1398761019
H  H19  1  0.96280000  0.25820000  0.13540000  1.0 0.1398761019
H  H20  1  0.25820000  0.96280000  0.36460000  1.0 0.1398761019
H  H21  1  0.88080000  0.87480000  0.97890000  1.0 0.1488607434
H  H22  1  0.87480000  0.88080000  0.52110000  1.0 0.1488607434
H  H23  1  0.11920000  0.12520000  0.02110000  1.0 0.1488607434
H  H24  1  0.12520000  0.11920000  0.47890000  1.0 0.1488607434
H  H25  1  0.00090000  0.78290000  0.15690000  1.0 0.1224016455
H  H26  1  0.78290000  0.00090000  0.34310000  1.0 0.1224016455
H  H27  1  0.99910000  0.21710000  0.84310000  1.0 0.1224016455
H  H28  1  0.21710000  0.99910000  0.65690000  1.0 0.1224016455
H  H29  1  0.01710000  0.60670000  0.27810000  1.0 0.3529195656
H  H30  1  0.60670000  0.01710000  0.22190000  1.0 0.3529195656
H  H31  1  0.98290000  0.39330000  0.72190000  1.0 0.3529195656
H  H32  1  0.39330000  0.98290000  0.77810000  1.0 0.3529195656
H  H33  1  0.13090000  0.84250000  0.50710000  1.0 0.3529195656
H  H34  1  0.84250000  0.13090000  0.99290000  1.0 0.3529195656
H  H35  1  0.86910000  0.15750000  0.49290000  1.0 0.3529195656
H  H36  1  0.15750000  0.86910000  0.00710000  1.0 0.3529195656
C  C1  1  0.12850000  0.58270000  0.46350000  1.0 0.6093003472
C  C2  1  0.58270000  0.12850000  0.03650000  1.0 0.6093003472
C  C3  1  0.87150000  0.41730000  0.53650000  1.0 0.6093003472
C  C4  1  0.41730000  0.87150000  0.96350000  1.0 0.6093003472
C  C5  1  0.06230000  0.53970000  0.48190000  1.0 -0.1437253314
C  C6  1  0.53970000  0.06230000  0.01810000  1.0 -0.1450317482
C  C7  1  0.93770000  0.46030000  0.51810000  1.0 -0.1437253314
C  C8  1  0.46030000  0.93770000  0.98190000  1.0 -0.1437253314
C  C9  1  0.06810000  0.49610000  0.59080000  1.0 -0.1711323018
C  C10  1  0.49610000  0.06810000  0.90920000  1.0 -0.1711323018
C  C11  1  0.93190000  0.50390000  0.40920000  1.0 -0.1711323018
C  C12  1  0.50390000  0.93190000  0.09080000  1.0 -0.1711323018
C  C13  1  0.99030000  0.54250000  0.39120000  1.0 0.2460453202
C  C14  1  0.54250000  0.99030000  0.10880000  1.0 0.2449471822
C  C15  1  0.00970000  0.45750000  0.60880000  1.0 0.2449471822
C  C16  1  0.45750000  0.00970000  0.89120000  1.0 0.2449471822
C  C17  1  0.14740000  0.81580000  0.34680000  1.0 0.5962443968
C  C18  1  0.81580000  0.14740000  0.15320000  1.0 0.5962443968
C  C19  1  0.85260000  0.18420000  0.65320000  1.0 0.5962443968
C  C20  1  0.18420000  0.85260000  0.84680000  1.0 0.5962443968
C  C21  1  0.06710000  0.90710000  0.30070000  1.0 -0.1437253314
C  C22  1  0.90710000  0.06710000  0.19930000  1.0 -0.1437253314
C  C23  1  0.93290000  0.09290000  0.69930000  1.0 -0.1437253314
C  C24  1  0.09290000  0.93290000  0.80070000  1.0 -0.1437253314
C  C25  1  0.01510000  0.96110000  0.18100000  1.0 -0.2149424235
C  C26  1  0.96110000  0.01510000  0.31900000  1.0 -0.2149424235
C  C27  1  0.98490000  0.03890000  0.81900000  1.0 -0.2149424235
C  C28  1  0.03890000  0.98490000  0.68100000  1.0 -0.2155843059
C  C29  1  0.03820000  0.93600000  0.36880000  1.0 0.2460453202
C  C30  1  0.93600000  0.03820000  0.13120000  1.0 0.2460453202
C  C31  1  0.96180000  0.06400000  0.63120000  1.0 0.2460453202
C  C32  1  0.06400000  0.96180000  0.86880000  1.0 0.2460453202
C  C33  1  0.37810000  0.62910000  0.25770000  1.0 0.6093003472
C  C34  1  0.62910000  0.37810000  0.24230000  1.0 0.6093003472
C  C35  1  0.62190000  0.37090000  0.74230000  1.0 0.6093003472
C  C36  1  0.37090000  0.62190000  0.75770000  1.0 0.6093003472
C  C37  1  0.43830000  0.56170000  0.38470000  1.0 -0.1142898983
C  C38  1  0.56170000  0.43830000  0.11530000  1.0 -0.1142898983
C  C39  1  0.56170000  0.43830000  0.61530000  1.0 -0.1142898983
C  C40  1  0.43830000  0.56170000  0.88470000  1.0 -0.1142898983
C  C41  1  0.40440000  0.55460000  0.46820000  1.0 0.3104008605
C  C42  1  0.55460000  0.40440000  0.03180000  1.0 0.3104008605
C  C43  1  0.59560000  0.44540000  0.53180000  1.0 0.3104008605
C  C44  1  0.44540000  0.59560000  0.96820000  1.0 0.3104008605
C  C45  1  0.53230000  0.50910000  0.42000000  1.0 -0.249672095
C  C46  1  0.50910000  0.53230000  0.08000000  1.0 -0.249672095
C  C47  1  0.46770000  0.49090000  0.58000000  1.0 -0.249672095
C  C48  1  0.49090000  0.46770000  0.92000000  1.0 -0.249672095
C  C49  1  0.09980000  0.69820000  0.03830000  1.0 0.0993046631
C  C50  1  0.69820000  0.09980000  0.46170000  1.0 0.0993046631
C  C51  1  0.90020000  0.30180000  0.96170000  1.0 0.0993046631
C  C52  1  0.30180000  0.90020000  0.53830000  1.0 0.0993046631
C  C53  1  0.03030000  0.75110000  0.92530000  1.0 -0.1964912047
C  C54  1  0.75110000  0.03030000  0.57470000  1.0 -0.1964912047
C  C55  1  0.96970000  0.24890000  0.07470000  1.0 -0.1922963808
C  C56  1  0.24890000  0.96970000  0.42530000  1.0 -0.1964912047
C  C57  1  0.95040000  0.81800000  0.90550000  1.0 0.1691448708
C  C58  1  0.81800000  0.95040000  0.59450000  1.0 0.1691448708
C  C59  1  0.04960000  0.18200000  0.09450000  1.0 0.1691448708
C  C60  1  0.18200000  0.04960000  0.40550000  1.0 0.1691448708
C  C61  1  0.93670000  0.83070000  0.99210000  1.0 -0.1922963808
C  C62  1  0.83070000  0.93670000  0.50790000  1.0 -0.1922963808
C  C63  1  0.06330000  0.16930000  0.00790000  1.0 -0.1922963808
C  C64  1  0.16930000  0.06330000  0.49210000  1.0 -0.1922963808
C  C65  1  0.00880000  0.77580000  0.09550000  1.0 0.0859150348
C  C66  1  0.77580000  0.00880000  0.40450000  1.0 0.0859150348
C  C67  1  0.99120000  0.22420000  0.90450000  1.0 0.0859150348
C  C68  1  0.22420000  0.99120000  0.59550000  1.0 0.0859150348
N  N1  1  0.09070000  0.71210000  0.12540000  1.0 -0.2302522639
N  N2  1  0.71210000  0.09070000  0.37460000  1.0 -0.2302522639
N  N3  1  0.90930000  0.28790000  0.87460000  1.0 -0.2302522639
N  N4  1  0.28790000  0.90930000  0.62540000  1.0 -0.2302522639
N  N5  1  0.87510000  0.88870000  0.78460000  1.0 -0.0426524597
N  N6  1  0.88870000  0.87510000  0.71540000  1.0 -0.0426524597
N  N7  1  0.12490000  0.11130000  0.21540000  1.0 -0.0426524597
N  N8  1  0.11130000  0.12490000  0.28460000  1.0 -0.0426524597
O  O1  1  0.11880000  0.62180000  0.36520000  1.0 -0.5284783026
O  O2  1  0.62180000  0.11880000  0.13480000  1.0 -0.5284783026
O  O3  1  0.88120000  0.37820000  0.63480000  1.0 -0.5284783026
O  O4  1  0.37820000  0.88120000  0.86520000  1.0 -0.5284783026
O  O5  1  0.19010000  0.57810000  0.54810000  1.0 -0.4909057895
O  O6  1  0.57810000  0.19010000  0.95190000  1.0 -0.4909057895
O  O7  1  0.80990000  0.42190000  0.45190000  1.0 -0.4909057895
O  O8  1  0.42190000  0.80990000  0.04810000  1.0 -0.4909057895
O  O9  1  0.97640000  0.58460000  0.28000000  1.0 -0.4156115333
O  O10  1  0.58460000  0.97640000  0.22000000  1.0 -0.4136370202
O  O11  1  0.02360000  0.41540000  0.72000000  1.0 -0.4136370202
O  O12  1  0.41540000  0.02360000  0.78000000  1.0 -0.4136370202
O  O13  1  0.16350000  0.78810000  0.28240000  1.0 -0.5032462159
O  O14  1  0.78810000  0.16350000  0.21760000  1.0 -0.5032462159
O  O15  1  0.83650000  0.21190000  0.71760000  1.0 -0.5032462159
O  O16  1  0.21190000  0.83650000  0.78240000  1.0 -0.5032462159
O  O17  1  0.19310000  0.77010000  0.45840000  1.0 -0.5597119684
O  O18  1  0.77010000  0.19310000  0.04160000  1.0 -0.5597119684
O  O19  1  0.80690000  0.22990000  0.54160000  1.0 -0.5597119684
O  O20  1  0.22990000  0.80690000  0.95840000  1.0 -0.5597119684
O  O21  1  0.08450000  0.89050000  0.48530000  1.0 -0.4298088903
O  O22  1  0.89050000  0.08450000  0.01470000  1.0 -0.4298088903
O  O23  1  0.91550000  0.10950000  0.51470000  1.0 -0.4298088903
O  O24  1  0.10950000  0.91550000  0.98530000  1.0 -0.4298088903
O  O25  1  0.31720000  0.60480000  0.44030000  1.0 -0.5597119684
O  O26  1  0.60480000  0.31720000  0.05970000  1.0 -0.5597119684
O  O27  1  0.68280000  0.39520000  0.55970000  1.0 -0.5597119684
O  O28  1  0.39520000  0.68280000  0.94030000  1.0 -0.5597119684
O  O29  1  0.29250000  0.67270000  0.21760000  1.0 -0.5284783026
O  O30  1  0.67270000  0.29250000  0.28240000  1.0 -0.5284783026
O  O31  1  0.70750000  0.32730000  0.78240000  1.0 -0.5284783026
O  O32  1  0.32730000  0.70750000  0.71760000  1.0 -0.5284783026
O  O33  1  0.42100000  0.63760000  0.19820000  1.0 -0.5284783026
O  O34  1  0.63760000  0.42100000  0.30180000  1.0 -0.5284783026
O  O35  1  0.57900000  0.36240000  0.80180000  1.0 -0.5284783026
O  O36  1  0.36240000  0.57900000  0.69820000  1.0 -0.5284783026
O  O37  1  0.23670000  0.51410000  0.29900000  1.0 -0.249672095
O  O38  1  0.51410000  0.23670000  0.20100000  1.0 -0.2402563324
O  O39  1  0.76330000  0.48590000  0.70100000  1.0 -0.2402563324
O  O40  1  0.48590000  0.76330000  0.79900000  1.0 -0.2402563324
