# DDEC6 charges by PACMAN v1.1 (https://github.com/mtap-research/PACMAN-charge/)
data_TATSAK_ASR_pacman
_symmetry_space_group_name_H-M   'P 1'
_cell_length_a   12.12000000
_cell_length_b   19.32900000
_cell_length_c   20.08800000
_cell_angle_alpha   90.00000000
_cell_angle_beta   90.00000000
_cell_angle_gamma   90.00000000
_symmetry_Int_Tables_number   1
_chemical_formula_structural   Co3H10C28N4O9F10
_chemical_formula_sum   'Co12 H40 C112 N16 O36 F40'
_cell_volume   4705.96513824
_cell_formula_units_Z   4
loop_
 _symmetry_equiv_pos_site_id
 _symmetry_equiv_pos_as_xyz
  1  'x, y, z'
loop_
 _atom_site_type_symbol
 _atom_site_label
 _atom_site_symmetry_multiplicity
 _atom_site_fract_x
 _atom_site_fract_y
 _atom_site_fract_z
 _atom_site_occupancy
 _atom_site_charge
Co  Co1  1  0.61457000  0.70744000  0.83564000  1.0 0.9715052563
Co  Co2  1  0.11457000  0.79256000  0.16436000  1.0 0.9715052563
Co  Co3  1  0.88543000  0.20744000  0.66436000  1.0 0.9715052563
Co  Co4  1  0.38543000  0.29256000  0.33564000  1.0 0.9715052563
Co  Co5  1  0.38543000  0.29256000  0.16436000  1.0 0.9715052563
Co  Co6  1  0.88543000  0.20744000  0.83564000  1.0 0.9715052563
Co  Co7  1  0.11457000  0.79256000  0.33564000  1.0 0.9715052563
Co  Co8  1  0.61457000  0.70744000  0.66436000  1.0 0.9715052563
Co  Co9  1  0.37047000  0.82688000  0.25000000  1.0 0.8125864434
Co  Co10  1  0.87047000  0.67312000  0.75000000  1.0 0.8125864434
Co  Co11  1  0.12953000  0.32688000  0.25000000  1.0 0.8125864434
Co  Co12  1  0.62953000  0.17312000  0.75000000  1.0 0.8125864434
H  H1  1  0.60200000  0.82470000  0.94300000  1.0 0.1335239903
H  H2  1  0.10200000  0.67530000  0.05700000  1.0 0.1335239903
H  H3  1  0.89800000  0.32470000  0.55700000  1.0 0.1335239903
H  H4  1  0.39800000  0.17530000  0.44300000  1.0 0.1335239903
H  H5  1  0.39800000  0.17530000  0.05700000  1.0 0.1335239903
H  H6  1  0.89800000  0.32470000  0.94300000  1.0 0.1335239903
H  H7  1  0.10200000  0.67530000  0.44300000  1.0 0.1335239903
H  H8  1  0.60200000  0.82470000  0.55700000  1.0 0.1335239903
H  H9  1  0.42580000  0.65640000  0.92670000  1.0 0.1376875955
H  H10  1  0.92580000  0.84360000  0.07330000  1.0 0.1376875955
H  H11  1  0.07420000  0.15640000  0.57330000  1.0 0.1376875955
H  H12  1  0.57420000  0.34360000  0.42670000  1.0 0.1376875955
H  H13  1  0.57420000  0.34360000  0.07330000  1.0 0.1376875955
H  H14  1  0.07420000  0.15640000  0.92670000  1.0 0.1376875955
H  H15  1  0.92580000  0.84360000  0.42670000  1.0 0.1376875955
H  H16  1  0.42580000  0.65640000  0.57330000  1.0 0.1376875955
H  H17  1  0.37110000  0.94980000  0.15330000  1.0 0.1335239903
H  H18  1  0.87110000  0.55020000  0.84670000  1.0 0.1335239903
H  H19  1  0.12890000  0.44980000  0.34670000  1.0 0.1335239903
H  H20  1  0.62890000  0.05020000  0.65330000  1.0 0.1335239903
H  H21  1  0.62890000  0.05020000  0.84670000  1.0 0.1335239903
H  H22  1  0.12890000  0.44980000  0.15330000  1.0 0.1335239903
H  H23  1  0.87110000  0.55020000  0.65330000  1.0 0.1335239903
H  H24  1  0.37110000  0.94980000  0.34670000  1.0 0.1335239903
H  H25  1  0.57890000  0.88520000  0.32990000  1.0 0.1198787791
H  H26  1  0.07890000  0.61480000  0.67010000  1.0 0.1198787791
H  H27  1  0.92110000  0.38520000  0.17010000  1.0 0.1198787791
H  H28  1  0.42110000  0.11480000  0.82990000  1.0 0.1198787791
H  H29  1  0.42110000  0.11480000  0.67010000  1.0 0.1198787791
H  H30  1  0.92110000  0.38520000  0.32990000  1.0 0.1198787791
H  H31  1  0.07890000  0.61480000  0.82990000  1.0 0.1198787791
H  H32  1  0.57890000  0.88520000  0.17010000  1.0 0.1198787791
H  H33  1  0.92190000  0.26910000  0.32990000  1.0 0.1198787791
H  H34  1  0.42190000  0.23090000  0.67010000  1.0 0.1198787791
H  H35  1  0.57810000  0.76910000  0.17010000  1.0 0.1198787791
H  H36  1  0.07810000  0.73090000  0.82990000  1.0 0.1198787791
H  H37  1  0.07810000  0.73090000  0.67010000  1.0 0.1198787791
H  H38  1  0.57810000  0.76910000  0.32990000  1.0 0.1198787791
H  H39  1  0.42190000  0.23090000  0.82990000  1.0 0.1198787791
H  H40  1  0.92190000  0.26910000  0.17010000  1.0 0.1198787791
C  C1  1  0.38930000  0.08220000  0.25000000  1.0 -0.2089133096
C  C2  1  0.88930000  0.41780000  0.75000000  1.0 -0.2089133096
C  C3  1  0.11070000  0.58220000  0.25000000  1.0 -0.2089133096
C  C4  1  0.61070000  0.91780000  0.75000000  1.0 -0.2089133096
C  C5  1  0.91380000  0.82030000  0.25000000  1.0 0.611658724
C  C6  1  0.41380000  0.67970000  0.75000000  1.0 0.611658724
C  C7  1  0.58620000  0.32030000  0.25000000  1.0 0.611658724
C  C8  1  0.08620000  0.17970000  0.75000000  1.0 0.611658724
C  C9  1  0.34490000  0.78790000  0.10530000  1.0 0.611658724
C  C10  1  0.84490000  0.71210000  0.89470000  1.0 0.611658724
C  C11  1  0.15510000  0.28790000  0.39470000  1.0 0.611658724
C  C12  1  0.65510000  0.21210000  0.60530000  1.0 0.611658724
C  C13  1  0.65510000  0.21210000  0.89470000  1.0 0.611658724
C  C14  1  0.15510000  0.28790000  0.10530000  1.0 0.611658724
C  C15  1  0.84490000  0.71210000  0.60530000  1.0 0.611658724
C  C16  1  0.34490000  0.78790000  0.39470000  1.0 0.611658724
C  C17  1  0.39450000  0.16370000  0.25000000  1.0 0.6221964973
C  C18  1  0.89450000  0.33630000  0.75000000  1.0 0.6221964973
C  C19  1  0.10550000  0.66370000  0.25000000  1.0 0.6221964973
C  C20  1  0.60550000  0.83630000  0.75000000  1.0 0.6221964973
C  C21  1  0.38640000  0.71100000  0.00560000  1.0 0.2634754199
C  C22  1  0.88640000  0.78900000  0.99440000  1.0 0.2634754199
C  C23  1  0.11360000  0.21100000  0.49440000  1.0 0.2634754199
C  C24  1  0.61360000  0.28900000  0.50560000  1.0 0.2634754199
C  C25  1  0.61360000  0.28900000  0.99440000  1.0 0.2634754199
C  C26  1  0.11360000  0.21100000  0.00560000  1.0 0.2634754199
C  C27  1  0.88640000  0.78900000  0.50560000  1.0 0.2634754199
C  C28  1  0.38640000  0.71100000  0.49440000  1.0 0.2634754199
C  C29  1  0.54800000  0.79490000  0.95910000  1.0 -0.0588901115
C  C30  1  0.04800000  0.70510000  0.04090000  1.0 -0.0588901115
C  C31  1  0.95200000  0.29490000  0.54090000  1.0 -0.0588901115
C  C32  1  0.45200000  0.20510000  0.45910000  1.0 -0.0588901115
C  C33  1  0.45200000  0.20510000  0.04090000  1.0 -0.0588901115
C  C34  1  0.95200000  0.29490000  0.95910000  1.0 -0.0588901115
C  C35  1  0.04800000  0.70510000  0.45910000  1.0 -0.0588901115
C  C36  1  0.54800000  0.79490000  0.54090000  1.0 -0.0588901115
C  C37  1  0.78790000  0.82410000  0.25000000  1.0 -0.0588901115
C  C38  1  0.28790000  0.67590000  0.75000000  1.0 -0.0588901115
C  C39  1  0.71210000  0.32410000  0.25000000  1.0 -0.0588901115
C  C40  1  0.21210000  0.17590000  0.75000000  1.0 -0.0588901115
C  C41  1  0.40840000  0.77270000  0.04260000  1.0 -0.2283414584
C  C42  1  0.90840000  0.72730000  0.95740000  1.0 -0.2283414584
C  C43  1  0.09160000  0.27270000  0.45740000  1.0 -0.2283414584
C  C44  1  0.59160000  0.22730000  0.54260000  1.0 -0.2283414584
C  C45  1  0.59160000  0.22730000  0.95740000  1.0 -0.2283414584
C  C46  1  0.09160000  0.27270000  0.04260000  1.0 -0.2283414584
C  C47  1  0.90840000  0.72730000  0.54260000  1.0 -0.2283414584
C  C48  1  0.40840000  0.77270000  0.45740000  1.0 -0.2283414584
C  C49  1  0.49410000  0.81210000  0.01740000  1.0 0.2404437642
C  C50  1  0.99410000  0.68790000  0.98260000  1.0 0.2404437642
C  C51  1  0.00590000  0.31210000  0.48260000  1.0 0.2404437642
C  C52  1  0.50590000  0.18790000  0.51740000  1.0 0.2404437642
C  C53  1  0.50590000  0.18790000  0.98260000  1.0 0.2404437642
C  C54  1  0.00590000  0.31210000  0.01740000  1.0 0.2404437642
C  C55  1  0.99410000  0.68790000  0.51740000  1.0 0.2404437642
C  C56  1  0.49410000  0.81210000  0.48260000  1.0 0.2404437642
C  C57  1  0.44350000  0.69660000  0.94980000  1.0 -0.1101051253
C  C58  1  0.94350000  0.80340000  0.05020000  1.0 -0.1101051253
C  C59  1  0.05650000  0.19660000  0.55020000  1.0 -0.1101051253
C  C60  1  0.55650000  0.30340000  0.44980000  1.0 -0.1101051253
C  C61  1  0.55650000  0.30340000  0.05020000  1.0 -0.1101051253
C  C62  1  0.05650000  0.19660000  0.94980000  1.0 -0.1101051253
C  C63  1  0.94350000  0.80340000  0.44980000  1.0 -0.1101051253
C  C64  1  0.44350000  0.69660000  0.55020000  1.0 -0.1101051253
C  C65  1  0.37610000  0.97400000  0.19330000  1.0 -0.0911663306
C  C66  1  0.87610000  0.52600000  0.80670000  1.0 -0.0911663306
C  C67  1  0.12390000  0.47400000  0.30670000  1.0 -0.0911663306
C  C68  1  0.62390000  0.02600000  0.69330000  1.0 -0.0911663306
C  C69  1  0.62390000  0.02600000  0.80670000  1.0 -0.0911663306
C  C70  1  0.12390000  0.47400000  0.19330000  1.0 -0.0911663306
C  C71  1  0.87610000  0.52600000  0.69330000  1.0 -0.0911663306
C  C72  1  0.37610000  0.97400000  0.30670000  1.0 -0.0911663306
C  C73  1  0.38230000  0.04490000  0.19240000  1.0 0.250965597
C  C74  1  0.88230000  0.45510000  0.80760000  1.0 0.250965597
C  C75  1  0.11770000  0.54490000  0.30760000  1.0 0.250965597
C  C76  1  0.61770000  0.95510000  0.69240000  1.0 0.250965597
C  C77  1  0.61770000  0.95510000  0.80760000  1.0 0.250965597
C  C78  1  0.11770000  0.54490000  0.19240000  1.0 0.250965597
C  C79  1  0.88230000  0.45510000  0.69240000  1.0 0.250965597
C  C80  1  0.38230000  0.04490000  0.30760000  1.0 0.250965597
C  C81  1  0.61590000  0.86040000  0.29710000  1.0 -0.0658529905
C  C82  1  0.11590000  0.63960000  0.70290000  1.0 -0.0658529905
C  C83  1  0.88410000  0.36040000  0.20290000  1.0 -0.0658529905
C  C84  1  0.38410000  0.13960000  0.79710000  1.0 -0.0658529905
C  C85  1  0.38410000  0.13960000  0.70290000  1.0 -0.0658529905
C  C86  1  0.88410000  0.36040000  0.29710000  1.0 -0.0658529905
C  C87  1  0.11590000  0.63960000  0.79710000  1.0 -0.0658529905
C  C88  1  0.61590000  0.86040000  0.20290000  1.0 -0.0658529905
C  C89  1  0.72590000  0.78790000  0.29570000  1.0 0.02622768
C  C90  1  0.22590000  0.71210000  0.70430000  1.0 0.02622768
C  C91  1  0.77410000  0.28790000  0.20430000  1.0 0.02622768
C  C92  1  0.27410000  0.21210000  0.79570000  1.0 0.02622768
C  C93  1  0.27410000  0.21210000  0.70430000  1.0 0.02622768
C  C94  1  0.77410000  0.28790000  0.29570000  1.0 0.02622768
C  C95  1  0.22590000  0.71210000  0.79570000  1.0 0.02622768
C  C96  1  0.72590000  0.78790000  0.20430000  1.0 0.02622768
C  C97  1  0.77270000  0.35960000  0.20200000  1.0 0.1091631203
C  C98  1  0.27270000  0.14040000  0.79800000  1.0 0.1091631203
C  C99  1  0.72730000  0.85960000  0.29800000  1.0 0.1091631203
C  C100  1  0.22730000  0.64040000  0.70200000  1.0 0.1091631203
C  C101  1  0.22730000  0.64040000  0.79800000  1.0 0.1091631203
C  C102  1  0.72730000  0.85960000  0.20200000  1.0 0.1091631203
C  C103  1  0.27270000  0.14040000  0.70200000  1.0 0.1091631203
C  C104  1  0.77270000  0.35960000  0.29800000  1.0 0.1091631203
C  C105  1  0.88440000  0.29170000  0.29590000  1.0 -0.0330158342
C  C106  1  0.38440000  0.20830000  0.70410000  1.0 -0.0330158342
C  C107  1  0.61560000  0.79170000  0.20410000  1.0 -0.0330158342
C  C108  1  0.11560000  0.70830000  0.79590000  1.0 -0.0330158342
C  C109  1  0.11560000  0.70830000  0.70410000  1.0 -0.0330158342
C  C110  1  0.61560000  0.79170000  0.29590000  1.0 -0.0330158342
C  C111  1  0.38440000  0.20830000  0.79590000  1.0 -0.0330158342
C  C112  1  0.88440000  0.29170000  0.20410000  1.0 -0.0330158342
N  N1  1  0.55480000  0.82640000  0.25000000  1.0 -0.0521277097
N  N2  1  0.05480000  0.67360000  0.75000000  1.0 -0.0521277097
N  N3  1  0.94520000  0.32640000  0.25000000  1.0 -0.0521277097
N  N4  1  0.44520000  0.17360000  0.75000000  1.0 -0.0521277097
N  N5  1  0.52590000  0.73760000  0.92530000  1.0 -0.1769066808
N  N6  1  0.02590000  0.76240000  0.07470000  1.0 -0.1769066808
N  N7  1  0.97410000  0.23760000  0.57470000  1.0 -0.1769066808
N  N8  1  0.47410000  0.26240000  0.42530000  1.0 -0.1769066808
N  N9  1  0.47410000  0.26240000  0.07470000  1.0 -0.1769066808
N  N10  1  0.97410000  0.23760000  0.92530000  1.0 -0.1769066808
N  N11  1  0.02590000  0.76240000  0.42530000  1.0 -0.1769066808
N  N12  1  0.52590000  0.73760000  0.57470000  1.0 -0.1769066808
N  N13  1  0.37700000  0.93960000  0.25000000  1.0 -0.138589579
N  N14  1  0.87700000  0.56040000  0.75000000  1.0 -0.138589579
N  N15  1  0.12300000  0.43960000  0.25000000  1.0 -0.138589579
N  N16  1  0.62300000  0.06040000  0.75000000  1.0 -0.138589579
O  O1  1  0.19830000  0.82580000  0.25000000  1.0 -0.8419827056
O  O2  1  0.69830000  0.67420000  0.75000000  1.0 -0.8419827056
O  O3  1  0.30170000  0.32580000  0.25000000  1.0 -0.8419827056
O  O4  1  0.80170000  0.17420000  0.75000000  1.0 -0.8419827056
O  O5  1  0.25230000  0.76260000  0.10990000  1.0 -0.4995696377
O  O6  1  0.75230000  0.73740000  0.89010000  1.0 -0.4995696377
O  O7  1  0.24770000  0.26260000  0.39010000  1.0 -0.4995696377
O  O8  1  0.74770000  0.23740000  0.60990000  1.0 -0.4995696377
O  O9  1  0.74770000  0.23740000  0.89010000  1.0 -0.4995696377
O  O10  1  0.24770000  0.26260000  0.10990000  1.0 -0.4995696377
O  O11  1  0.75230000  0.73740000  0.60990000  1.0 -0.4995696377
O  O12  1  0.25230000  0.76260000  0.39010000  1.0 -0.4995696377
O  O13  1  0.39180000  0.82730000  0.14720000  1.0 -0.568385182
O  O14  1  0.89180000  0.67270000  0.85280000  1.0 -0.568385182
O  O15  1  0.10820000  0.32730000  0.35280000  1.0 -0.568385182
O  O16  1  0.60820000  0.17270000  0.64720000  1.0 -0.568385182
O  O17  1  0.60820000  0.17270000  0.85280000  1.0 -0.568385182
O  O18  1  0.10820000  0.32730000  0.14720000  1.0 -0.568385182
O  O19  1  0.89180000  0.67270000  0.64720000  1.0 -0.568385182
O  O20  1  0.39180000  0.82730000  0.35280000  1.0 -0.568385182
O  O21  1  0.95830000  0.81980000  0.19460000  1.0 -0.5209608656
O  O22  1  0.45830000  0.68020000  0.80540000  1.0 -0.5209608656
O  O23  1  0.54170000  0.31980000  0.30540000  1.0 -0.5209608656
O  O24  1  0.04170000  0.18020000  0.69460000  1.0 -0.5209608656
O  O25  1  0.04170000  0.18020000  0.80540000  1.0 -0.5209608656
O  O26  1  0.54170000  0.31980000  0.19460000  1.0 -0.5209608656
O  O27  1  0.45830000  0.68020000  0.69460000  1.0 -0.5209608656
O  O28  1  0.95830000  0.81980000  0.30540000  1.0 -0.5209608656
O  O29  1  0.39710000  0.19010000  0.19480000  1.0 -0.4832169396
O  O30  1  0.89710000  0.30990000  0.80520000  1.0 -0.4832169396
O  O31  1  0.10290000  0.69010000  0.30520000  1.0 -0.4832169396
O  O32  1  0.60290000  0.80990000  0.69480000  1.0 -0.4832169396
O  O33  1  0.60290000  0.80990000  0.80520000  1.0 -0.4832169396
O  O34  1  0.10290000  0.69010000  0.19480000  1.0 -0.4832169396
O  O35  1  0.89710000  0.30990000  0.69480000  1.0 -0.4832169396
O  O36  1  0.39710000  0.19010000  0.30520000  1.0 -0.4832169396
F  F1  1  0.52400000  0.87260000  0.04500000  1.0 -0.1292127949
F  F2  1  0.02400000  0.62740000  0.95500000  1.0 -0.1292127949
F  F3  1  0.97600000  0.37260000  0.45500000  1.0 -0.1292127949
F  F4  1  0.47600000  0.12740000  0.54500000  1.0 -0.1292127949
F  F5  1  0.47600000  0.12740000  0.95500000  1.0 -0.1292127949
F  F6  1  0.97600000  0.37260000  0.04500000  1.0 -0.1292127949
F  F7  1  0.02400000  0.62740000  0.54500000  1.0 -0.1292127949
F  F8  1  0.52400000  0.87260000  0.45500000  1.0 -0.1292127949
F  F9  1  0.39000000  0.07510000  0.13430000  1.0 -0.138589579
F  F10  1  0.89000000  0.42490000  0.86570000  1.0 -0.138589579
F  F11  1  0.11000000  0.57510000  0.36570000  1.0 -0.138589579
F  F12  1  0.61000000  0.92490000  0.63430000  1.0 -0.138589579
F  F13  1  0.61000000  0.92490000  0.86570000  1.0 -0.138589579
F  F14  1  0.11000000  0.57510000  0.13430000  1.0 -0.138589579
F  F15  1  0.89000000  0.42490000  0.63430000  1.0 -0.138589579
F  F16  1  0.39000000  0.07510000  0.36570000  1.0 -0.138589579
F  F17  1  0.75630000  0.75670000  0.37340000  1.0 -0.1528094095
F  F18  1  0.25630000  0.74330000  0.62660000  1.0 -0.1528094095
F  F19  1  0.74370000  0.25670000  0.12660000  1.0 -0.1528094095
F  F20  1  0.24370000  0.24330000  0.87340000  1.0 -0.1528094095
F  F21  1  0.24370000  0.24330000  0.62660000  1.0 -0.1528094095
F  F22  1  0.74370000  0.25670000  0.37340000  1.0 -0.1528094095
F  F23  1  0.25630000  0.74330000  0.87340000  1.0 -0.1528094095
F  F24  1  0.75630000  0.75670000  0.12660000  1.0 -0.1528094095
F  F25  1  0.72530000  0.40270000  0.15670000  1.0 -0.104666086
F  F26  1  0.22530000  0.09730000  0.84330000  1.0 -0.104666086
F  F27  1  0.77470000  0.90270000  0.34330000  1.0 -0.104666086
F  F28  1  0.27470000  0.59730000  0.65670000  1.0 -0.104666086
F  F29  1  0.27470000  0.59730000  0.84330000  1.0 -0.104666086
F  F30  1  0.77470000  0.90270000  0.15670000  1.0 -0.104666086
F  F31  1  0.22530000  0.09730000  0.65670000  1.0 -0.104666086
F  F32  1  0.72530000  0.40270000  0.34330000  1.0 -0.104666086
F  F33  1  0.18600000  0.16500000  0.02610000  1.0 -0.1292127949
F  F34  1  0.68600000  0.33500000  0.97390000  1.0 -0.1292127949
F  F35  1  0.31400000  0.66500000  0.47390000  1.0 -0.1292127949
F  F36  1  0.81400000  0.83500000  0.52610000  1.0 -0.1292127949
F  F37  1  0.81400000  0.83500000  0.97390000  1.0 -0.1292127949
F  F38  1  0.31400000  0.66500000  0.02610000  1.0 -0.1292127949
F  F39  1  0.68600000  0.33500000  0.52610000  1.0 -0.1292127949
F  F40  1  0.18600000  0.16500000  0.47390000  1.0 -0.1292127949
