# DDEC6 charges by PACMAN v1.1 (https://github.com/mtap-research/PACMAN-charge/)
data_TATXOE_ASR_pacman
_symmetry_space_group_name_H-M   'P 1'
_cell_length_a   10.48510000
_cell_length_b   10.48510000
_cell_length_c   22.33160000
_cell_angle_alpha   70.72650000
_cell_angle_beta   109.27400000
_cell_angle_gamma   116.36600000
_symmetry_Int_Tables_number   1
_chemical_formula_structural   CuH16(C5N)4
_chemical_formula_sum   'Cu2 H32 C40 N8'
_cell_volume   2026.94410141
_cell_formula_units_Z   2
loop_
 _symmetry_equiv_pos_site_id
 _symmetry_equiv_pos_as_xyz
  1  'x, y, z'
loop_
 _atom_site_type_symbol
 _atom_site_label
 _atom_site_symmetry_multiplicity
 _atom_site_fract_x
 _atom_site_fract_y
 _atom_site_fract_z
 _atom_site_occupancy
 _atom_site_charge
Cu  Cu1  1  0.47457000  0.47457000  0.25000000  1.0 0.2010120354
Cu  Cu2  1  0.52543000  0.52543000  0.75000000  1.0 0.2010120354
H  H1  1  0.97543000  0.15417000  0.28330000  1.0 0.1228975535
H  H2  1  0.48362000  0.28986000  0.38254000  1.0 0.0978742293
H  H3  1  0.46540000  0.67380000  0.31784000  1.0 0.0889287852
H  H4  1  0.46984000  0.68576000  0.41934000  1.0 0.1228975535
H  H5  1  0.18373000  0.36039000  0.28170000  1.0 0.0889287852
H  H6  1  0.50217000  0.29505000  0.48695000  1.0 0.1228975535
H  H7  1  0.00258000  0.75950000  0.28722000  1.0 0.1250683568
H  H8  1  0.79029000  0.55473000  0.28896000  1.0 0.0889287852
H  H9  1  0.15417000  0.97543000  0.21670000  1.0 0.1228975535
H  H10  1  0.28986000  0.48362000  0.11746000  1.0 0.0978742293
H  H11  1  0.67380000  0.46540000  0.18216000  1.0 0.0889287852
H  H12  1  0.68576000  0.46984000  0.08066000  1.0 0.1228975535
H  H13  1  0.36039000  0.18373000  0.21830000  1.0 0.0889287852
H  H14  1  0.29505000  0.50217000  0.01305000  1.0 0.1228975535
H  H15  1  0.75950000  0.00258000  0.21278000  1.0 0.1228975535
H  H16  1  0.55473000  0.79029000  0.21104000  1.0 0.0889287852
H  H17  1  0.02457000  0.84583000  0.71670000  1.0 0.1228975535
H  H18  1  0.51638000  0.71014000  0.61746000  1.0 0.0978742293
H  H19  1  0.53460000  0.32620000  0.68216000  1.0 0.0889287852
H  H20  1  0.53016000  0.31424000  0.58066000  1.0 0.1228975535
H  H21  1  0.81627000  0.63961000  0.71830000  1.0 0.0889287852
H  H22  1  0.49783000  0.70495000  0.51305000  1.0 0.1228975535
H  H23  1  0.99742000  0.24050000  0.71278000  1.0 0.1228975535
H  H24  1  0.20971000  0.44527000  0.71104000  1.0 0.0889287852
H  H25  1  0.84583000  0.02457000  0.78330000  1.0 0.1228975535
H  H26  1  0.71014000  0.51638000  0.88254000  1.0 0.0978742293
H  H27  1  0.32620000  0.53460000  0.81784000  1.0 0.0889287852
H  H28  1  0.31424000  0.53016000  0.91934000  1.0 0.1228975535
H  H29  1  0.63961000  0.81627000  0.78170000  1.0 0.0889287852
H  H30  1  0.70495000  0.49783000  0.98695000  1.0 0.1228975535
H  H31  1  0.24050000  0.99742000  0.78722000  1.0 0.1250683568
H  H32  1  0.44527000  0.20971000  0.78896000  1.0 0.0889287852
C  C1  1  0.49520000  0.49600000  0.46640000  1.0 0.0889287852
C  C2  1  0.05210000  0.15810000  0.26960000  1.0 -0.2036676276
C  C3  1  0.48480000  0.37220000  0.39030000  1.0 0.0381362173
C  C4  1  0.47230000  0.59630000  0.35250000  1.0 0.0199091174
C  C5  1  0.47790000  0.60570000  0.41380000  1.0 -0.2036676276
C  C6  1  0.17870000  0.28230000  0.26880000  1.0 0.0314058638
C  C7  1  0.49530000  0.37430000  0.45330000  1.0 -0.2063122221
C  C8  1  0.91270000  0.76930000  0.27230000  1.0 -0.2036676276
C  C9  1  0.78490000  0.64650000  0.27250000  1.0 0.0199091174
C  C10  1  0.49600000  0.49520000  0.03360000  1.0 0.0889287852
C  C11  1  0.15810000  0.05210000  0.23040000  1.0 -0.2036676276
C  C12  1  0.37220000  0.48480000  0.10970000  1.0 0.0381362173
C  C13  1  0.59630000  0.47230000  0.14750000  1.0 0.0199091174
C  C14  1  0.60570000  0.47790000  0.08620000  1.0 -0.2036676276
C  C15  1  0.28230000  0.17870000  0.23120000  1.0 0.0314058638
C  C16  1  0.37430000  0.49530000  0.04670000  1.0 -0.2063122221
C  C17  1  0.76930000  0.91270000  0.22770000  1.0 -0.2036676276
C  C18  1  0.64650000  0.78490000  0.22750000  1.0 0.0199091174
C  C19  1  0.50480000  0.50400000  0.53360000  1.0 0.0889287852
C  C20  1  0.94790000  0.84190000  0.73040000  1.0 -0.2036676276
C  C21  1  0.51520000  0.62780000  0.60970000  1.0 0.0381362173
C  C22  1  0.52770000  0.40370000  0.64750000  1.0 0.0199091174
C  C23  1  0.52210000  0.39430000  0.58620000  1.0 -0.2036676276
C  C24  1  0.82130000  0.71770000  0.73120000  1.0 0.0314058638
C  C25  1  0.50470000  0.62570000  0.54670000  1.0 -0.2063122221
C  C26  1  0.08730000  0.23070000  0.72770000  1.0 -0.2036676276
C  C27  1  0.21510000  0.35350000  0.72750000  1.0 0.0199091174
C  C28  1  0.50400000  0.50480000  0.96640000  1.0 0.0889287852
C  C29  1  0.84190000  0.94790000  0.76960000  1.0 -0.2036676276
C  C30  1  0.62780000  0.51520000  0.89030000  1.0 0.0381362173
C  C31  1  0.40370000  0.52770000  0.85250000  1.0 0.0199091174
C  C32  1  0.39430000  0.52210000  0.91380000  1.0 -0.2036676276
C  C33  1  0.71770000  0.82130000  0.76880000  1.0 0.0314058638
C  C34  1  0.62570000  0.50470000  0.95330000  1.0 -0.2063122221
C  C35  1  0.23070000  0.08730000  0.77230000  1.0 -0.2036676276
C  C36  1  0.35350000  0.21510000  0.77250000  1.0 0.0199091174
C  C37  1  0.03960000  0.03960000  0.25000000  1.0 0.082857545
C  C38  1  0.90640000  0.90640000  0.25000000  1.0 0.082857545
C  C39  1  0.96040000  0.96040000  0.75000000  1.0 0.082857545
C  C40  1  0.09360000  0.09360000  0.75000000  1.0 0.082857545
N  N1  1  0.47640000  0.48180000  0.34060000  1.0 -0.2036676276
N  N2  1  0.48180000  0.47640000  0.15940000  1.0 -0.2036676276
N  N3  1  0.52360000  0.51820000  0.65940000  1.0 -0.2063122221
N  N4  1  0.51820000  0.52360000  0.84060000  1.0 -0.2036676276
N  N5  1  0.29590000  0.29590000  0.25000000  1.0 -0.2469917112
N  N6  1  0.65680000  0.65680000  0.25000000  1.0 -0.1876982548
N  N7  1  0.70410000  0.70410000  0.75000000  1.0 -0.2469917112
N  N8  1  0.34320000  0.34320000  0.75000000  1.0 -0.1876982548
