# DDEC6 charges by PACMAN v1.1 (https://github.com/mtap-research/PACMAN-charge/)
data_TATYUL_ASR_pacman
_symmetry_space_group_name_H-M   'P 1'
_cell_length_a   7.89490000
_cell_length_b   17.30880000
_cell_length_c   17.42770000
_cell_angle_alpha   90.00000000
_cell_angle_beta   90.00000000
_cell_angle_gamma   90.00000000
_symmetry_Int_Tables_number   1
_chemical_formula_structural   K2Ca3H4(CO)14
_chemical_formula_sum   'K8 Ca12 H16 C56 O56'
_cell_volume   2381.51690458
_cell_formula_units_Z   4
loop_
 _symmetry_equiv_pos_site_id
 _symmetry_equiv_pos_as_xyz
  1  'x, y, z'
loop_
 _atom_site_type_symbol
 _atom_site_label
 _atom_site_symmetry_multiplicity
 _atom_site_fract_x
 _atom_site_fract_y
 _atom_site_fract_z
 _atom_site_occupancy
 _atom_site_charge
K  K1  1  0.18251000  0.78394000  0.48207000  1.0 0.8682672242
K  K2  1  0.18251000  0.71606000  0.01793000  1.0 0.8682672242
K  K3  1  0.31749000  0.21606000  0.98207000  1.0 0.8682672242
K  K4  1  0.31749000  0.28394000  0.51793000  1.0 0.8682672242
K  K5  1  0.81749000  0.21606000  0.51793000  1.0 0.8682672242
K  K6  1  0.81749000  0.28394000  0.98207000  1.0 0.8682672242
K  K7  1  0.68251000  0.78394000  0.01793000  1.0 0.8682672242
K  K8  1  0.68251000  0.71606000  0.48207000  1.0 0.8682672242
Ca  Ca1  1  0.17959000  0.91951000  0.30382000  1.0 1.4008579429
Ca  Ca2  1  0.17959000  0.58049000  0.19618000  1.0 1.4008579429
Ca  Ca3  1  0.32041000  0.08049000  0.80382000  1.0 1.4008579429
Ca  Ca4  1  0.32041000  0.41951000  0.69618000  1.0 1.4008579429
Ca  Ca5  1  0.82041000  0.08049000  0.69618000  1.0 1.4008579429
Ca  Ca6  1  0.82041000  0.41951000  0.80382000  1.0 1.4008579429
Ca  Ca7  1  0.67959000  0.91951000  0.19618000  1.0 1.4008579429
Ca  Ca8  1  0.67959000  0.58049000  0.30382000  1.0 1.4008579429
Ca  Ca9  1  0.93378000  0.75000000  0.25000000  1.0 1.3939994881
Ca  Ca10  1  0.56622000  0.25000000  0.75000000  1.0 1.4008579429
Ca  Ca11  1  0.06622000  0.25000000  0.75000000  1.0 1.3939994881
Ca  Ca12  1  0.43378000  0.75000000  0.25000000  1.0 1.3939994881
H  H1  1  0.93650000  0.90760000  0.49470000  1.0 0.1603250289
H  H2  1  0.93650000  0.59240000  0.00530000  1.0 0.1603250289
H  H3  1  0.56350000  0.09240000  0.99470000  1.0 0.1603250289
H  H4  1  0.56350000  0.40760000  0.50530000  1.0 0.1603250289
H  H5  1  0.06350000  0.09240000  0.50530000  1.0 0.1603250289
H  H6  1  0.06350000  0.40760000  0.99470000  1.0 0.1603250289
H  H7  1  0.43650000  0.90760000  0.00530000  1.0 0.1603250289
H  H8  1  0.43650000  0.59240000  0.49470000  1.0 0.1603250289
H  H9  1  0.42590000  0.90440000  0.49370000  1.0 0.1496552965
H  H10  1  0.42590000  0.59560000  0.00630000  1.0 0.1496552965
H  H11  1  0.07410000  0.09560000  0.99370000  1.0 0.1496552965
H  H12  1  0.07410000  0.40440000  0.50630000  1.0 0.1496552965
H  H13  1  0.57410000  0.09560000  0.50630000  1.0 0.1496552965
H  H14  1  0.57410000  0.40440000  0.99370000  1.0 0.1496552965
H  H15  1  0.92590000  0.90440000  0.00630000  1.0 0.1496552965
H  H16  1  0.92590000  0.59560000  0.49370000  1.0 0.1496552965
C  C1  1  0.67800000  0.94120000  0.58570000  1.0 0.600331516
C  C2  1  0.67800000  0.55880000  0.91430000  1.0 0.600331516
C  C3  1  0.82200000  0.05880000  0.08570000  1.0 0.600331516
C  C4  1  0.82200000  0.44120000  0.41430000  1.0 0.600331516
C  C5  1  0.32200000  0.05880000  0.41430000  1.0 0.600331516
C  C6  1  0.32200000  0.44120000  0.08570000  1.0 0.600331516
C  C7  1  0.17800000  0.94120000  0.91430000  1.0 0.600331516
C  C8  1  0.17800000  0.55880000  0.58570000  1.0 0.600331516
C  C9  1  0.68000000  0.91020000  0.50630000  1.0 0.0302385444
C  C10  1  0.68000000  0.58980000  0.99370000  1.0 0.0302385444
C  C11  1  0.82000000  0.08980000  0.00630000  1.0 0.0302385444
C  C12  1  0.82000000  0.41020000  0.49370000  1.0 0.0302385444
C  C13  1  0.32000000  0.08980000  0.49370000  1.0 0.0302385444
C  C14  1  0.32000000  0.41020000  0.00630000  1.0 0.0302385444
C  C15  1  0.18000000  0.91020000  0.99370000  1.0 0.0302385444
C  C16  1  0.18000000  0.58980000  0.50630000  1.0 0.0302385444
C  C17  1  0.83560000  0.89560000  0.46990000  1.0 -0.2660615136
C  C18  1  0.83560000  0.60440000  0.03010000  1.0 -0.2660615136
C  C19  1  0.66440000  0.10440000  0.96990000  1.0 -0.2660615136
C  C20  1  0.66440000  0.39560000  0.53010000  1.0 -0.2660615136
C  C21  1  0.16440000  0.10440000  0.53010000  1.0 -0.2660615136
C  C22  1  0.16440000  0.39560000  0.96990000  1.0 -0.2660615136
C  C23  1  0.33560000  0.89560000  0.03010000  1.0 -0.2660615136
C  C24  1  0.33560000  0.60440000  0.46990000  1.0 -0.2660615136
C  C25  1  0.83870000  0.86300000  0.39630000  1.0 0.2473296906
C  C26  1  0.83870000  0.63700000  0.10370000  1.0 0.2473296906
C  C27  1  0.66130000  0.13700000  0.89630000  1.0 0.2473296906
C  C28  1  0.66130000  0.36300000  0.60370000  1.0 0.2473296906
C  C29  1  0.16130000  0.13700000  0.60370000  1.0 0.2473296906
C  C30  1  0.16130000  0.36300000  0.89630000  1.0 0.2473296906
C  C31  1  0.33870000  0.86300000  0.10370000  1.0 0.2473296906
C  C32  1  0.33870000  0.63700000  0.39630000  1.0 0.2473296906
C  C33  1  0.68220000  0.84920000  0.35840000  1.0 0.1137660323
C  C34  1  0.68220000  0.65080000  0.14160000  1.0 0.1137660323
C  C35  1  0.81780000  0.15080000  0.85840000  1.0 0.1137660323
C  C36  1  0.81780000  0.34920000  0.64160000  1.0 0.1137660323
C  C37  1  0.31780000  0.15080000  0.64160000  1.0 0.1137660323
C  C38  1  0.31780000  0.34920000  0.85840000  1.0 0.1137660323
C  C39  1  0.18220000  0.84920000  0.14160000  1.0 0.1137660323
C  C40  1  0.18220000  0.65080000  0.35840000  1.0 0.1137660323
C  C41  1  0.52680000  0.86330000  0.39470000  1.0 0.2377450327
C  C42  1  0.52680000  0.63670000  0.10530000  1.0 0.2377450327
C  C43  1  0.97320000  0.13670000  0.89470000  1.0 0.2377450327
C  C44  1  0.97320000  0.36330000  0.60530000  1.0 0.2377450327
C  C45  1  0.47320000  0.13670000  0.60530000  1.0 0.2377450327
C  C46  1  0.47320000  0.36330000  0.89470000  1.0 0.2377450327
C  C47  1  0.02680000  0.86330000  0.10530000  1.0 0.2377450327
C  C48  1  0.02680000  0.63670000  0.39470000  1.0 0.2377450327
C  C49  1  0.52790000  0.89430000  0.46900000  1.0 -0.2494349768
C  C50  1  0.52790000  0.60570000  0.03100000  1.0 -0.2494349768
C  C51  1  0.97210000  0.10570000  0.96900000  1.0 -0.2494349768
C  C52  1  0.97210000  0.39430000  0.53100000  1.0 -0.2494349768
C  C53  1  0.47210000  0.10570000  0.53100000  1.0 -0.2494349768
C  C54  1  0.47210000  0.39430000  0.96900000  1.0 -0.2494349768
C  C55  1  0.02790000  0.89430000  0.03100000  1.0 -0.2494349768
C  C56  1  0.02790000  0.60570000  0.46900000  1.0 -0.2494349768
O  O1  1  0.54770000  0.92750000  0.62770000  1.0 -0.3631478538
O  O2  1  0.54770000  0.57250000  0.87230000  1.0 -0.3631478538
O  O3  1  0.95230000  0.07250000  0.12770000  1.0 -0.3631478538
O  O4  1  0.95230000  0.42750000  0.37230000  1.0 -0.3631478538
O  O5  1  0.45230000  0.07250000  0.37230000  1.0 -0.3631478538
O  O6  1  0.45230000  0.42750000  0.12770000  1.0 -0.3631478538
O  O7  1  0.04770000  0.92750000  0.87230000  1.0 -0.3631478538
O  O8  1  0.04770000  0.57250000  0.62770000  1.0 -0.3631478538
O  O9  1  0.80410000  0.97820000  0.61030000  1.0 -0.5527076935
O  O10  1  0.80410000  0.52180000  0.88970000  1.0 -0.5527076935
O  O11  1  0.69590000  0.02180000  0.11030000  1.0 -0.5527076935
O  O12  1  0.69590000  0.47820000  0.38970000  1.0 -0.5527076935
O  O13  1  0.19590000  0.02180000  0.38970000  1.0 -0.5527076935
O  O14  1  0.19590000  0.47820000  0.11030000  1.0 -0.5527076935
O  O15  1  0.30410000  0.97820000  0.88970000  1.0 -0.5527076935
O  O16  1  0.30410000  0.52180000  0.61030000  1.0 -0.5527076935
O  O17  1  0.98340000  0.84327000  0.36129000  1.0 -0.6888912012
O  O18  1  0.98340000  0.65673000  0.13871000  1.0 -0.6888912012
O  O19  1  0.51660000  0.15673000  0.86129000  1.0 -0.6888912012
O  O20  1  0.51660000  0.34327000  0.63871000  1.0 -0.6888912012
O  O21  1  0.01660000  0.15673000  0.63871000  1.0 -0.6888912012
O  O22  1  0.01660000  0.34327000  0.86129000  1.0 -0.6888912012
O  O23  1  0.48340000  0.84327000  0.13871000  1.0 -0.6888912012
O  O24  1  0.48340000  0.65673000  0.36129000  1.0 -0.6888912012
O  O25  1  0.68460000  0.82114000  0.28608000  1.0 -0.6580537399
O  O26  1  0.68460000  0.67886000  0.21392000  1.0 -0.6580537399
O  O27  1  0.81540000  0.17886000  0.78608000  1.0 -0.6580537399
O  O28  1  0.81540000  0.32114000  0.71392000  1.0 -0.6580537399
O  O29  1  0.31540000  0.17886000  0.71392000  1.0 -0.6580537399
O  O30  1  0.31540000  0.32114000  0.78608000  1.0 -0.6580537399
O  O31  1  0.18460000  0.82114000  0.21392000  1.0 -0.6580537399
O  O32  1  0.18460000  0.67886000  0.28608000  1.0 -0.6580537399
O  O33  1  0.38310000  0.84481000  0.35802000  1.0 -0.6835445305
O  O34  1  0.38310000  0.65519000  0.14198000  1.0 -0.6835445305
O  O35  1  0.11690000  0.15519000  0.85802000  1.0 -0.6835445305
O  O36  1  0.11690000  0.34481000  0.64198000  1.0 -0.6835445305
O  O37  1  0.61690000  0.15519000  0.64198000  1.0 -0.6835445305
O  O38  1  0.61690000  0.34481000  0.85802000  1.0 -0.6835445305
O  O39  1  0.88310000  0.84481000  0.14198000  1.0 -0.6835445305
O  O40  1  0.88310000  0.65519000  0.35802000  1.0 -0.6835445305
O  O41  1  0.92660000  0.99240000  0.25510000  1.0 -0.5698857595
O  O42  1  0.92660000  0.50760000  0.24490000  1.0 -0.5698857595
O  O43  1  0.57340000  0.00760000  0.75510000  1.0 -0.5595297804
O  O44  1  0.57340000  0.49240000  0.74490000  1.0 -0.5595297804
O  O45  1  0.07340000  0.00760000  0.74490000  1.0 -0.5698857595
O  O46  1  0.07340000  0.49240000  0.75510000  1.0 -0.5698857595
O  O47  1  0.42660000  0.99240000  0.24490000  1.0 -0.5595297804
O  O48  1  0.42660000  0.50760000  0.25510000  1.0 -0.5595297804
O  O49  1  0.94160000  0.73240000  0.59180000  1.0 -0.4798240801
O  O50  1  0.94160000  0.76760000  0.90820000  1.0 -0.4798240801
O  O51  1  0.55840000  0.26760000  0.09180000  1.0 -0.4798240801
O  O52  1  0.55840000  0.23240000  0.40820000  1.0 -0.4798240801
O  O53  1  0.05840000  0.26760000  0.40820000  1.0 -0.4798240801
O  O54  1  0.05840000  0.23240000  0.09180000  1.0 -0.4798240801
O  O55  1  0.44160000  0.73240000  0.90820000  1.0 -0.4798240801
O  O56  1  0.44160000  0.76760000  0.59180000  1.0 -0.4798240801
