# DDEC6 charges by PACMAN v1.1 (https://github.com/mtap-research/PACMAN-charge/)
data_TAVSER_FSR_pacman
_symmetry_space_group_name_H-M   'P 1'
_cell_length_a   9.34350000
_cell_length_b   22.18700000
_cell_length_c   13.89200000
_cell_angle_alpha   90.00000000
_cell_angle_beta   109.75400000
_cell_angle_gamma   90.00000000
_symmetry_Int_Tables_number   1
_chemical_formula_structural   YP6H8(C4O7)3
_chemical_formula_sum   'Y4 P24 H32 C48 O84'
_cell_volume   2710.39702595
_cell_formula_units_Z   4
loop_
 _symmetry_equiv_pos_site_id
 _symmetry_equiv_pos_as_xyz
  1  'x, y, z'
loop_
 _atom_site_type_symbol
 _atom_site_label
 _atom_site_symmetry_multiplicity
 _atom_site_fract_x
 _atom_site_fract_y
 _atom_site_fract_z
 _atom_site_occupancy
 _atom_site_charge
Y  Y1  1  0.75779000  0.93824000  0.51071000  1.0 1.8294750785
Y  Y2  1  0.24221000  0.43824000  0.98929000  1.0 1.8294750785
Y  Y3  1  0.24221000  0.06176000  0.48929000  1.0 1.8294750785
Y  Y4  1  0.75779000  0.56176000  0.01071000  1.0 1.8294750785
P  P1  1  0.63152000  0.05873000  0.64541000  1.0 1.2833035027
P  P2  1  0.13550000  0.18459000  0.62940000  1.0 0.4113596912
P  P3  1  0.33560000  0.33195000  0.81480000  1.0 0.4047686791
P  P4  1  0.85619000  0.45815000  0.83500000  1.0 1.2833035027
P  P5  1  0.08190000  0.19460000  0.56560000  1.0 0.4403310155
P  P6  1  0.36290000  0.32290000  0.85010000  1.0 0.4047686791
P  P7  1  0.36848000  0.55873000  0.85459000  1.0 1.2833035027
P  P8  1  0.86450000  0.68459000  0.87060000  1.0 0.4113596912
P  P9  1  0.66440000  0.83195000  0.68520000  1.0 0.4113596912
P  P10  1  0.14381000  0.95815000  0.66500000  1.0 1.2833035027
P  P11  1  0.91810000  0.69460000  0.93440000  1.0 0.4403310155
P  P12  1  0.63710000  0.82290000  0.64990000  1.0 0.4113596912
P  P13  1  0.36848000  0.94127000  0.35459000  1.0 1.2833035027
P  P14  1  0.86450000  0.81541000  0.37060000  1.0 0.4113596912
P  P15  1  0.66440000  0.66805000  0.18520000  1.0 0.4047686791
P  P16  1  0.14381000  0.54185000  0.16500000  1.0 1.2833035027
P  P17  1  0.91810000  0.80540000  0.43440000  1.0 0.4403310155
P  P18  1  0.63710000  0.67710000  0.14990000  1.0 0.4047686791
P  P19  1  0.63152000  0.44127000  0.14541000  1.0 1.2833035027
P  P20  1  0.13550000  0.31541000  0.12940000  1.0 0.4113596912
P  P21  1  0.33560000  0.16805000  0.31480000  1.0 0.4047686791
P  P22  1  0.85619000  0.04185000  0.33500000  1.0 1.2833035027
P  P23  1  0.08190000  0.30540000  0.06560000  1.0 0.4403310155
P  P24  1  0.36290000  0.17710000  0.35010000  1.0 0.4047686791
H  H1  1  0.75150000  0.01260000  0.77100000  1.0 0.394229803
H  H2  1  0.89670000  0.09550000  0.59790000  1.0 0.1269587947
H  H3  1  0.60080000  0.17570000  0.71140000  1.0 0.1002266237
H  H4  1  0.95290000  0.27060000  0.68410000  1.0 0.1002266237
H  H5  1  0.51500000  0.25050000  0.75040000  1.0 0.1002266237
H  H6  1  0.89440000  0.34150000  0.76240000  1.0 0.117695417
H  H7  1  0.57930000  0.42020000  0.86260000  1.0 0.1269587947
H  H8  1  0.72880000  0.51330000  0.72470000  1.0 0.3592098987
H  H9  1  0.24850000  0.51260000  0.72900000  1.0 0.394229803
H  H10  1  0.10330000  0.59550000  0.90210000  1.0 0.1269587947
H  H11  1  0.39920000  0.67570000  0.78860000  1.0 0.1002266237
H  H12  1  0.04710000  0.77060000  0.81590000  1.0 0.1002266237
H  H13  1  0.48500000  0.75050000  0.74960000  1.0 0.1002266237
H  H14  1  0.10560000  0.84150000  0.73760000  1.0 0.117695417
H  H15  1  0.42070000  0.92020000  0.63740000  1.0 0.1269587947
H  H16  1  0.27120000  0.01330000  0.77530000  1.0 0.3592098987
H  H17  1  0.24850000  0.98740000  0.22900000  1.0 0.394229803
H  H18  1  0.10330000  0.90450000  0.40210000  1.0 0.1269587947
H  H19  1  0.39920000  0.82430000  0.28860000  1.0 0.1002266237
H  H20  1  0.04710000  0.72940000  0.31590000  1.0 0.1002266237
H  H21  1  0.48500000  0.74950000  0.24960000  1.0 0.1002266237
H  H22  1  0.10560000  0.65850000  0.23760000  1.0 0.117695417
H  H23  1  0.42070000  0.57980000  0.13740000  1.0 0.1269587947
H  H24  1  0.27120000  0.48670000  0.27530000  1.0 0.3592098987
H  H25  1  0.75150000  0.48740000  0.27100000  1.0 0.394229803
H  H26  1  0.89670000  0.40450000  0.09790000  1.0 0.1269587947
H  H27  1  0.60080000  0.32430000  0.21140000  1.0 0.1002266237
H  H28  1  0.95290000  0.22940000  0.18410000  1.0 0.1002266237
H  H29  1  0.51500000  0.24950000  0.25040000  1.0 0.1002266237
H  H30  1  0.89440000  0.15850000  0.26240000  1.0 0.117695417
H  H31  1  0.57930000  0.07980000  0.36260000  1.0 0.1269587947
H  H32  1  0.72880000  0.98670000  0.22470000  1.0 0.3592098987
C  C1  1  0.73580000  0.12740000  0.65330000  1.0 -0.145819124
C  C2  1  0.86410000  0.13000000  0.62520000  1.0 -0.0147883137
C  C3  1  0.68940000  0.17830000  0.69270000  1.0 -0.0729808633
C  C4  1  0.94550000  0.18360000  0.63740000  1.0 -0.192540955
C  C5  1  0.76690000  0.23280000  0.70620000  1.0 0.0726212019
C  C6  1  0.89680000  0.23420000  0.67680000  1.0 -0.1018005434
C  C7  1  0.71550000  0.28660000  0.74910000  1.0 0.0726212019
C  C8  1  0.57600000  0.28580000  0.76690000  1.0 -0.0729808633
C  C9  1  0.79970000  0.33940000  0.77360000  1.0 -0.0916706912
C  C10  1  0.52500000  0.33440000  0.80750000  1.0 -0.1772080029
C  C11  1  0.74980000  0.38940000  0.81430000  1.0 -0.1290376375
C  C12  1  0.61270000  0.38680000  0.83290000  1.0 -0.026556897
C  C13  1  0.26420000  0.62740000  0.84670000  1.0 -0.145819124
C  C14  1  0.13590000  0.63000000  0.87480000  1.0 -0.0147883137
C  C15  1  0.31060000  0.67830000  0.80730000  1.0 -0.0729808633
C  C16  1  0.05450000  0.68360000  0.86260000  1.0 -0.192540955
C  C17  1  0.23310000  0.73280000  0.79380000  1.0 0.0726212019
C  C18  1  0.10320000  0.73420000  0.82320000  1.0 -0.1018005434
C  C19  1  0.28450000  0.78660000  0.75090000  1.0 0.0726212019
C  C20  1  0.42400000  0.78580000  0.73310000  1.0 -0.0729808633
C  C21  1  0.20030000  0.83940000  0.72640000  1.0 -0.0916706912
C  C22  1  0.47500000  0.83440000  0.69250000  1.0 -0.1772080029
C  C23  1  0.25020000  0.88940000  0.68570000  1.0 -0.1290376375
C  C24  1  0.38730000  0.88680000  0.66710000  1.0 -0.026556897
C  C25  1  0.26420000  0.87260000  0.34670000  1.0 -0.145819124
C  C26  1  0.13590000  0.87000000  0.37480000  1.0 -0.0147883137
C  C27  1  0.31060000  0.82170000  0.30730000  1.0 -0.0729808633
C  C28  1  0.05450000  0.81640000  0.36260000  1.0 -0.192540955
C  C29  1  0.23310000  0.76720000  0.29380000  1.0 0.0726212019
C  C30  1  0.10320000  0.76580000  0.32320000  1.0 -0.1018005434
C  C31  1  0.28450000  0.71340000  0.25090000  1.0 0.0726212019
C  C32  1  0.42400000  0.71420000  0.23310000  1.0 -0.0729808633
C  C33  1  0.20030000  0.66060000  0.22640000  1.0 -0.0916706912
C  C34  1  0.47500000  0.66560000  0.19250000  1.0 -0.1772080029
C  C35  1  0.25020000  0.61060000  0.18570000  1.0 -0.1290376375
C  C36  1  0.38730000  0.61320000  0.16710000  1.0 -0.026556897
C  C37  1  0.73580000  0.37260000  0.15330000  1.0 -0.145819124
C  C38  1  0.86410000  0.37000000  0.12520000  1.0 -0.0147883137
C  C39  1  0.68940000  0.32170000  0.19270000  1.0 -0.0729808633
C  C40  1  0.94550000  0.31640000  0.13740000  1.0 -0.192540955
C  C41  1  0.76690000  0.26720000  0.20620000  1.0 0.0726212019
C  C42  1  0.89680000  0.26580000  0.17680000  1.0 -0.1018005434
C  C43  1  0.71550000  0.21340000  0.24910000  1.0 0.0726212019
C  C44  1  0.57600000  0.21420000  0.26690000  1.0 -0.0729808633
C  C45  1  0.79970000  0.16060000  0.27360000  1.0 -0.0916706912
C  C46  1  0.52500000  0.16560000  0.30750000  1.0 -0.1772080029
C  C47  1  0.74980000  0.11060000  0.31430000  1.0 -0.1290376375
C  C48  1  0.61270000  0.11320000  0.33290000  1.0 -0.026556897
O  O1  1  0.67770000  0.01549000  0.57920000  1.0 -0.7767928505
O  O2  1  0.46580000  0.07350000  0.61460000  1.0 -0.7532392805
O  O3  1  0.12500000  0.13570000  0.53940000  1.0 -0.2980516927
O  O4  1  0.02070000  0.44440000  0.85710000  1.0 -0.7435602808
O  O5  1  0.81900000  0.49471000  0.91320000  1.0 -0.785449099
O  O6  1  0.32000000  0.38020000  0.88390000  1.0 -0.3281043733
O  O7  1  0.67390000  0.03450000  0.75730000  1.0 -0.5685079956
O  O8  1  0.26100000  0.17500000  0.73270000  1.0 -0.2254585887
O  O9  1  0.15000000  0.24830000  0.59040000  1.0 -0.1018005434
O  O10  1  0.21360000  0.34360000  0.70600000  1.0 -0.0916706912
O  O11  1  0.31040000  0.26710000  0.84240000  1.0 -0.1290376375
O  O12  1  0.80300000  0.49090000  0.72890000  1.0 -0.5766446556
O  O13  1  0.36390000  0.13390000  0.77290000  1.0 0.0780054478
O  O14  1  0.40980000  0.06980000  0.81330000  1.0 -0.3626451904
O  O15  1  0.12570000  0.27680000  0.41200000  1.0 0.4654439723
O  O16  1  0.01550000  0.23120000  0.45940000  1.0 -0.3281043733
O  O17  1  0.20450000  0.23280000  0.63510000  1.0 -0.1290376375
O  O18  1  0.15350000  0.13240000  0.57130000  1.0 -0.2980516927
O  O19  1  0.35660000  0.26310000  0.88750000  1.0 -0.17136677
O  O20  1  0.22960000  0.32930000  0.74040000  1.0 -0.1432747359
O  O21  1  0.34400000  0.37290000  0.91340000  1.0 -0.3364733721
O  O22  1  0.32230000  0.51549000  0.92080000  1.0 -0.7767928505
O  O23  1  0.53420000  0.57350000  0.88540000  1.0 -0.7532392805
O  O24  1  0.87500000  0.63570000  0.96060000  1.0 -0.2980516927
O  O25  1  0.97930000  0.94440000  0.64290000  1.0 -0.7435602808
O  O26  1  0.18100000  0.99471000  0.58680000  1.0 -0.785449099
O  O27  1  0.68000000  0.88020000  0.61610000  1.0 -0.3281043733
O  O28  1  0.32610000  0.53450000  0.74270000  1.0 -0.5685079956
O  O29  1  0.73900000  0.67500000  0.76730000  1.0 -0.2254585887
O  O30  1  0.85000000  0.74830000  0.90960000  1.0 -0.1018005434
O  O31  1  0.78640000  0.84360000  0.79400000  1.0 -0.0916706912
O  O32  1  0.68960000  0.76710000  0.65760000  1.0 -0.1290376375
O  O33  1  0.19700000  0.99090000  0.77110000  1.0 -0.5766446556
O  O34  1  0.63610000  0.63390000  0.72710000  1.0 0.0780054478
O  O35  1  0.59020000  0.56980000  0.68670000  1.0 -0.3626451904
O  O36  1  0.87430000  0.77680000  0.08800000  1.0 0.4628192023
O  O37  1  0.98450000  0.73120000  0.04060000  1.0 -0.3281043733
O  O38  1  0.79550000  0.73280000  0.86490000  1.0 -0.1290376375
O  O39  1  0.84650000  0.63240000  0.92870000  1.0 -0.2980516927
O  O40  1  0.64340000  0.76310000  0.61250000  1.0 -0.17136677
O  O41  1  0.77040000  0.82930000  0.75960000  1.0 -0.1432747359
O  O42  1  0.65600000  0.87290000  0.58660000  1.0 -0.3364733721
O  O43  1  0.32230000  0.98451000  0.42080000  1.0 -0.7767928505
O  O44  1  0.53420000  0.92650000  0.38540000  1.0 -0.7553332115
O  O45  1  0.87500000  0.86430000  0.46060000  1.0 -0.2980516927
O  O46  1  0.97930000  0.55560000  0.14290000  1.0 -0.7435602808
O  O47  1  0.18100000  0.50529000  0.08680000  1.0 -0.785449099
O  O48  1  0.68000000  0.61980000  0.11610000  1.0 -0.3281043733
O  O49  1  0.32610000  0.96550000  0.24270000  1.0 -0.5685079956
O  O50  1  0.73900000  0.82500000  0.26730000  1.0 -0.2254585887
O  O51  1  0.85000000  0.75170000  0.40960000  1.0 -0.1018005434
O  O52  1  0.78640000  0.65640000  0.29400000  1.0 -0.0916706912
O  O53  1  0.68960000  0.73290000  0.15760000  1.0 -0.1290376375
O  O54  1  0.19700000  0.50910000  0.27110000  1.0 -0.5766446556
O  O55  1  0.63610000  0.86610000  0.22710000  1.0 0.0780054478
O  O56  1  0.59020000  0.93020000  0.18670000  1.0 -0.3626451904
O  O57  1  0.87430000  0.72320000  0.58800000  1.0 0.4628192023
O  O58  1  0.98450000  0.76880000  0.54060000  1.0 -0.3281043733
O  O59  1  0.79550000  0.76720000  0.36490000  1.0 -0.1290376375
O  O60  1  0.84650000  0.86760000  0.42870000  1.0 -0.2980516927
O  O61  1  0.64340000  0.73690000  0.11250000  1.0 -0.17136677
O  O62  1  0.77040000  0.67070000  0.25960000  1.0 -0.1432747359
O  O63  1  0.65600000  0.62710000  0.08660000  1.0 -0.3364733721
O  O64  1  0.67770000  0.48451000  0.07920000  1.0 -0.7767928505
O  O65  1  0.46580000  0.42650000  0.11460000  1.0 -0.7532392805
O  O66  1  0.12500000  0.36430000  0.03940000  1.0 -0.2980516927
O  O67  1  0.02070000  0.05560000  0.35710000  1.0 -0.7435602808
O  O68  1  0.81900000  0.00529000  0.41320000  1.0 -0.785449099
O  O69  1  0.32000000  0.11980000  0.38390000  1.0 -0.3281043733
O  O70  1  0.67390000  0.46550000  0.25730000  1.0 -0.5685079956
O  O71  1  0.26100000  0.32500000  0.23270000  1.0 -0.2249891723
O  O72  1  0.15000000  0.25170000  0.09040000  1.0 -0.1018005434
O  O73  1  0.21360000  0.15640000  0.20600000  1.0 -0.0916706912
O  O74  1  0.31040000  0.23290000  0.34240000  1.0 -0.1290376375
O  O75  1  0.80300000  0.00910000  0.22890000  1.0 -0.5766446556
O  O76  1  0.36390000  0.36610000  0.27290000  1.0 0.0780054478
O  O77  1  0.40980000  0.43020000  0.31330000  1.0 -0.3626451904
O  O78  1  0.12570000  0.22320000  0.91200000  1.0 0.4628192023
O  O79  1  0.01550000  0.26880000  0.95940000  1.0 -0.3281043733
O  O80  1  0.20450000  0.26720000  0.13510000  1.0 -0.1290376375
O  O81  1  0.15350000  0.36760000  0.07130000  1.0 -0.2980516927
O  O82  1  0.35660000  0.23690000  0.38750000  1.0 -0.17136677
O  O83  1  0.22960000  0.17070000  0.24040000  1.0 -0.1432747359
O  O84  1  0.34400000  0.12710000  0.41340000  1.0 -0.3364733721
