# DDEC6 charges by PACMAN v1.1 (https://github.com/mtap-research/PACMAN-charge/)
data_TAWTAP_FSR_pacman
_symmetry_space_group_name_H-M   'P 1'
_cell_length_a   8.08310000
_cell_length_b   16.88410000
_cell_length_c   17.30010000
_cell_angle_alpha   90.00000000
_cell_angle_beta   117.08400000
_cell_angle_gamma   90.00000000
_symmetry_Int_Tables_number   1
_chemical_formula_structural   Zn3P4(HO3)4
_chemical_formula_sum   'Zn12 P16 H16 O48'
_cell_volume   2102.13381017
_cell_formula_units_Z   4
loop_
 _symmetry_equiv_pos_site_id
 _symmetry_equiv_pos_as_xyz
  1  'x, y, z'
loop_
 _atom_site_type_symbol
 _atom_site_label
 _atom_site_symmetry_multiplicity
 _atom_site_fract_x
 _atom_site_fract_y
 _atom_site_fract_z
 _atom_site_occupancy
 _atom_site_charge
Zn  Zn1  1  0.40990000  0.14919000  0.75828000  1.0 1.171568944
Zn  Zn2  1  0.59010000  0.64919000  0.74172000  1.0 1.171568944
Zn  Zn3  1  0.59010000  0.85081000  0.24172000  1.0 1.171568944
Zn  Zn4  1  0.40990000  0.35081000  0.25828000  1.0 1.171568944
Zn  Zn5  1  0.24617000  0.04055000  0.39219000  1.0 1.187037039
Zn  Zn6  1  0.75383000  0.54055000  0.10781000  1.0 1.1809442722
Zn  Zn7  1  0.75383000  0.95945000  0.60781000  1.0 1.1809442722
Zn  Zn8  1  0.24617000  0.45945000  0.89219000  1.0 1.187037039
Zn  Zn9  1  0.04974000  0.05407000  0.11645000  1.0 1.1132240179
Zn  Zn10  1  0.95026000  0.55407000  0.38355000  1.0 1.1132240179
Zn  Zn11  1  0.95026000  0.94593000  0.88355000  1.0 1.1132240179
Zn  Zn12  1  0.04974000  0.44593000  0.61645000  1.0 1.1132240179
P  P1  1  0.69856000  0.05920000  0.93085000  1.0 1.171568944
P  P2  1  0.30144000  0.55920000  0.56915000  1.0 1.1809442722
P  P3  1  0.30144000  0.94080000  0.06915000  1.0 1.171568944
P  P4  1  0.69856000  0.44080000  0.43085000  1.0 1.171568944
P  P5  1  0.39216000  0.05698000  0.59459000  1.0 1.4654666069
P  P6  1  0.60784000  0.55698000  0.90541000  1.0 1.4654666069
P  P7  1  0.60784000  0.94302000  0.40541000  1.0 1.4646887663
P  P8  1  0.39216000  0.44302000  0.09459000  1.0 1.4654666069
P  P9  1  0.87723000  0.97606000  0.22990000  1.0 1.3522669556
P  P10  1  0.12277000  0.47606000  0.27010000  1.0 1.3522669556
P  P11  1  0.12277000  0.02394000  0.77010000  1.0 1.3522669556
P  P12  1  0.87723000  0.52394000  0.72990000  1.0 1.3522669556
P  P13  1  0.31666000  0.15919000  0.26849000  1.0 1.3304736796
P  P14  1  0.68334000  0.65919000  0.23151000  1.0 1.3304736796
P  P15  1  0.68334000  0.84081000  0.73151000  1.0 1.3304736796
P  P16  1  0.31666000  0.34081000  0.76849000  1.0 1.3304736796
H  H1  1  0.56670000  0.04290000  0.94870000  1.0 -0.1181805325
H  H2  1  0.43330000  0.54290000  0.55130000  1.0 -0.1181805325
H  H3  1  0.43330000  0.95710000  0.05130000  1.0 -0.1181805325
H  H4  1  0.56670000  0.45710000  0.44870000  1.0 -0.1181805325
H  H5  1  0.30920000  0.98530000  0.62620000  1.0 -0.1500363814
H  H6  1  0.69080000  0.48530000  0.87380000  1.0 -0.1500363814
H  H7  1  0.69080000  0.01470000  0.37380000  1.0 -0.1500363814
H  H8  1  0.30920000  0.51470000  0.12620000  1.0 -0.1500363814
H  H9  1  0.70740000  0.02520000  0.19020000  1.0 -0.1580213872
H  H10  1  0.29260000  0.52520000  0.30980000  1.0 -0.1580213872
H  H11  1  0.29260000  0.97480000  0.80980000  1.0 -0.1580213872
H  H12  1  0.70740000  0.47480000  0.69020000  1.0 -0.1580213872
H  H13  1  0.44800000  0.10750000  0.26030000  1.0 -0.1500363814
H  H14  1  0.55200000  0.60750000  0.23970000  1.0 -0.1441351292
H  H15  1  0.55200000  0.89250000  0.73970000  1.0 -0.1441351292
H  H16  1  0.44800000  0.39250000  0.76030000  1.0 -0.1500363814
O  O1  1  0.63910000  0.11990000  0.85900000  1.0 -0.6552227852
O  O2  1  0.36090000  0.61990000  0.64100000  1.0 -0.6552227852
O  O3  1  0.36090000  0.88010000  0.14100000  1.0 -0.6540227053
O  O4  1  0.63910000  0.38010000  0.35900000  1.0 -0.6552227852
O  O5  1  0.79780000  0.89340000  0.22740000  1.0 -0.7019956229
O  O6  1  0.20220000  0.39340000  0.27260000  1.0 -0.7019956229
O  O7  1  0.20220000  0.10660000  0.77260000  1.0 -0.7019956229
O  O8  1  0.79780000  0.60660000  0.72740000  1.0 -0.7019956229
O  O9  1  0.40780000  0.23820000  0.27710000  1.0 -0.6540227053
O  O10  1  0.59220000  0.73820000  0.22290000  1.0 -0.6540227053
O  O11  1  0.59220000  0.76180000  0.72290000  1.0 -0.6540227053
O  O12  1  0.40780000  0.26180000  0.77710000  1.0 -0.6540227053
O  O13  1  0.39670000  0.12860000  0.64780000  1.0 -0.7019956229
O  O14  1  0.60330000  0.62860000  0.85220000  1.0 -0.7019956229
O  O15  1  0.60330000  0.87140000  0.35220000  1.0 -0.7019956229
O  O16  1  0.39670000  0.37140000  0.14780000  1.0 -0.7019956229
O  O17  1  0.25060000  0.06940000  0.50110000  1.0 -0.6798754451
O  O18  1  0.74940000  0.56940000  0.99890000  1.0 -0.6798754451
O  O19  1  0.74940000  0.93060000  0.49890000  1.0 -0.6899073771
O  O20  1  0.25060000  0.43060000  0.00110000  1.0 -0.6798754451
O  O21  1  0.28800000  0.14220000  0.34780000  1.0 -0.6899073771
O  O22  1  0.71200000  0.64220000  0.15220000  1.0 -0.6899073771
O  O23  1  0.71200000  0.85780000  0.65220000  1.0 -0.6899073771
O  O24  1  0.28800000  0.35780000  0.84780000  1.0 -0.6899073771
O  O25  1  0.58330000  0.03810000  0.60470000  1.0 -0.7722926853
O  O26  1  0.41670000  0.53810000  0.89530000  1.0 -0.7722926853
O  O27  1  0.41670000  0.96190000  0.39530000  1.0 -0.7722926853
O  O28  1  0.58330000  0.46190000  0.10470000  1.0 -0.7722926853
O  O29  1  0.99370000  0.00550000  0.31940000  1.0 -0.6899073771
O  O30  1  0.00630000  0.50550000  0.18060000  1.0 -0.6899073771
O  O31  1  0.00630000  0.99450000  0.68060000  1.0 -0.6899073771
O  O32  1  0.99370000  0.49450000  0.81940000  1.0 -0.6899073771
O  O33  1  0.97070000  0.97510000  0.17190000  1.0 -0.7100226102
O  O34  1  0.02930000  0.47510000  0.32810000  1.0 -0.7100226102
O  O35  1  0.02930000  0.02490000  0.82810000  1.0 -0.7100226102
O  O36  1  0.97070000  0.52490000  0.67190000  1.0 -0.7100226102
O  O37  1  0.13890000  0.15020000  0.18510000  1.0 -0.6798754451
O  O38  1  0.86110000  0.65020000  0.31490000  1.0 -0.6798754451
O  O39  1  0.86110000  0.84980000  0.81490000  1.0 -0.6798754451
O  O40  1  0.13890000  0.34980000  0.68510000  1.0 -0.6798754451
O  O41  1  0.75500000  0.98040000  0.91110000  1.0 -0.6552227852
O  O42  1  0.24500000  0.48040000  0.58890000  1.0 -0.6540227053
O  O43  1  0.24500000  0.01960000  0.08890000  1.0 -0.6540227053
O  O44  1  0.75500000  0.51960000  0.41110000  1.0 -0.6540227053
O  O45  1  0.84820000  0.09760000  0.01180000  1.0 -0.6257367549
O  O46  1  0.15180000  0.59760000  0.48820000  1.0 -0.6257367549
O  O47  1  0.15180000  0.90240000  0.98820000  1.0 -0.6257367549
O  O48  1  0.84820000  0.40240000  0.51180000  1.0 -0.6257367549
