# DDEC6 charges by PACMAN v1.1 (https://github.com/mtap-research/PACMAN-charge/)
data_TAWYUO_ASR_pacman
_symmetry_space_group_name_H-M   'P 1'
_cell_length_a   18.77700000
_cell_length_b   8.74230000
_cell_length_c   35.10330000
_cell_angle_alpha   90.00000000
_cell_angle_beta   122.11200000
_cell_angle_gamma   90.00000000
_symmetry_Int_Tables_number   1
_chemical_formula_structural   Zn2H33(C4O)9
_chemical_formula_sum   'Zn8 H132 C144 O36'
_cell_volume   4880.77408991
_cell_formula_units_Z   4
loop_
 _symmetry_equiv_pos_site_id
 _symmetry_equiv_pos_as_xyz
  1  'x, y, z'
loop_
 _atom_site_type_symbol
 _atom_site_label
 _atom_site_symmetry_multiplicity
 _atom_site_fract_x
 _atom_site_fract_y
 _atom_site_fract_z
 _atom_site_occupancy
 _atom_site_charge
Zn  Zn1  1  0.93333000  0.72069000  0.75066000  1.0 0.9185678642
Zn  Zn2  1  0.06667000  0.22069000  0.74934000  1.0 0.9185678642
Zn  Zn3  1  0.06667000  0.27931000  0.24934000  1.0 0.9185678642
Zn  Zn4  1  0.93333000  0.77931000  0.25066000  1.0 0.9185678642
Zn  Zn5  1  0.86626000  0.37460000  0.69501000  1.0 0.7106442135
Zn  Zn6  1  0.13374000  0.87460000  0.80499000  1.0 0.7106442135
Zn  Zn7  1  0.13374000  0.62540000  0.30499000  1.0 0.7106442135
Zn  Zn8  1  0.86626000  0.12540000  0.19501000  1.0 0.7106442135
H  H1  1  0.97080000  0.43290000  0.86470000  1.0 0.1302825299
H  H2  1  0.02920000  0.93290000  0.63530000  1.0 0.1302825299
H  H3  1  0.02920000  0.56710000  0.13530000  1.0 0.1302825299
H  H4  1  0.97080000  0.06710000  0.36470000  1.0 0.1302825299
H  H5  1  0.02960000  0.36620000  0.84970000  1.0 0.1476845344
H  H6  1  0.97040000  0.86620000  0.65030000  1.0 0.1476845344
H  H7  1  0.97040000  0.63380000  0.15030000  1.0 0.1476845344
H  H8  1  0.02960000  0.13380000  0.34970000  1.0 0.1476845344
H  H9  1  0.83920000  0.44930000  0.83900000  1.0 0.1198102131
H  H10  1  0.16080000  0.94930000  0.66100000  1.0 0.1198102131
H  H11  1  0.16080000  0.55070000  0.16100000  1.0 0.1198102131
H  H12  1  0.83920000  0.05070000  0.33900000  1.0 0.1198102131
H  H13  1  0.85480000  0.99540000  0.82770000  1.0 0.1401417003
H  H14  1  0.14520000  0.49540000  0.67230000  1.0 0.1401417003
H  H15  1  0.14520000  0.00460000  0.17230000  1.0 0.1401417003
H  H16  1  0.85480000  0.50460000  0.32770000  1.0 0.1401417003
H  H17  1  0.74250000  0.55710000  0.85190000  1.0 0.1401417003
H  H18  1  0.25750000  0.05710000  0.64810000  1.0 0.1401417003
H  H19  1  0.25750000  0.44290000  0.14810000  1.0 0.1401417003
H  H20  1  0.74250000  0.94290000  0.35190000  1.0 0.1401417003
H  H21  1  0.65370000  0.48380000  0.82020000  1.0 0.1401417003
H  H22  1  0.34630000  0.98380000  0.67980000  1.0 0.1401417003
H  H23  1  0.34630000  0.51620000  0.17980000  1.0 0.1401417003
H  H24  1  0.65370000  0.01620000  0.32020000  1.0 0.1401417003
H  H25  1  0.70230000  0.45380000  0.87210000  1.0 0.1401417003
H  H26  1  0.29770000  0.95380000  0.62790000  1.0 0.1401417003
H  H27  1  0.29770000  0.54620000  0.12790000  1.0 0.1401417003
H  H28  1  0.70230000  0.04620000  0.37210000  1.0 0.1401417003
H  H29  1  0.73710000  0.85850000  0.85700000  1.0 0.1401417003
H  H30  1  0.26290000  0.35850000  0.64300000  1.0 0.1401417003
H  H31  1  0.26290000  0.14150000  0.14300000  1.0 0.1401417003
H  H32  1  0.73710000  0.64150000  0.35700000  1.0 0.1401417003
H  H33  1  0.66300000  0.89470000  0.80790000  1.0 0.1401417003
H  H34  1  0.33700000  0.39470000  0.69210000  1.0 0.1401417003
H  H35  1  0.33700000  0.10530000  0.19210000  1.0 0.1401417003
H  H36  1  0.66300000  0.60530000  0.30790000  1.0 0.1401417003
H  H37  1  0.74800000  0.82980000  0.81630000  1.0 0.1401417003
H  H38  1  0.25200000  0.32980000  0.68370000  1.0 0.1401417003
H  H39  1  0.25200000  0.17020000  0.18370000  1.0 0.1401417003
H  H40  1  0.74800000  0.67020000  0.31630000  1.0 0.1401417003
H  H41  1  0.54970000  0.24980000  0.79480000  1.0 0.1302825299
H  H42  1  0.45030000  0.74980000  0.70520000  1.0 0.1302825299
H  H43  1  0.45030000  0.75020000  0.20520000  1.0 0.1302825299
H  H44  1  0.54970000  0.25020000  0.29480000  1.0 0.1302825299
H  H45  1  0.49980000  0.09590000  0.88600000  1.0 0.1198102131
H  H46  1  0.50020000  0.59590000  0.61400000  1.0 0.1198102131
H  H47  1  0.50020000  0.90410000  0.11400000  1.0 0.1198102131
H  H48  1  0.49980000  0.40410000  0.38600000  1.0 0.1198102131
H  H49  1  0.73290000  0.05600000  0.90930000  1.0 0.1198102131
H  H50  1  0.26710000  0.55600000  0.59070000  1.0 0.1198102131
H  H51  1  0.26710000  0.94400000  0.09070000  1.0 0.1198102131
H  H52  1  0.73290000  0.44400000  0.40930000  1.0 0.1198102131
H  H53  1  0.30900000  0.55100000  0.78610000  1.0 0.1302825299
H  H54  1  0.69100000  0.05100000  0.71390000  1.0 0.1302825299
H  H55  1  0.69100000  0.44900000  0.21390000  1.0 0.1302825299
H  H56  1  0.30900000  0.94900000  0.28610000  1.0 0.1302825299
H  H57  1  0.22790000  0.11660000  0.75960000  1.0 0.1401417003
H  H58  1  0.77210000  0.61660000  0.74040000  1.0 0.1401417003
H  H59  1  0.77210000  0.88340000  0.24040000  1.0 0.1401417003
H  H60  1  0.22790000  0.38340000  0.25960000  1.0 0.1401417003
H  H61  1  0.37660000  0.91860000  0.81780000  1.0 0.1401417003
H  H62  1  0.62340000  0.41860000  0.68220000  1.0 0.1401417003
H  H63  1  0.62340000  0.08140000  0.18220000  1.0 0.1401417003
H  H64  1  0.37660000  0.58140000  0.31780000  1.0 0.1401417003
H  H65  1  0.32090000  0.91620000  0.76520000  1.0 0.1476845344
H  H66  1  0.67910000  0.41620000  0.73480000  1.0 0.1476845344
H  H67  1  0.67910000  0.08380000  0.23480000  1.0 0.1476845344
H  H68  1  0.32090000  0.58380000  0.26520000  1.0 0.1476845344
H  H69  1  0.41800000  0.94360000  0.78950000  1.0 0.1401417003
H  H70  1  0.58200000  0.44360000  0.71050000  1.0 0.1401417003
H  H71  1  0.58200000  0.05640000  0.21050000  1.0 0.1401417003
H  H72  1  0.41800000  0.55640000  0.28950000  1.0 0.1401417003
H  H73  1  0.51550000  0.48930000  0.85570000  1.0 0.1401417003
H  H74  1  0.48450000  0.98930000  0.64430000  1.0 0.1401417003
H  H75  1  0.48450000  0.51070000  0.14430000  1.0 0.1401417003
H  H76  1  0.51550000  0.01070000  0.35570000  1.0 0.1401417003
H  H77  1  0.49910000  0.51370000  0.80740000  1.0 0.1401417003
H  H78  1  0.50090000  0.01370000  0.69260000  1.0 0.1401417003
H  H79  1  0.50090000  0.48630000  0.19260000  1.0 0.1401417003
H  H80  1  0.49910000  0.98630000  0.30740000  1.0 0.1401417003
H  H81  1  0.45040000  0.61260000  0.82360000  1.0 0.1401417003
H  H82  1  0.54960000  0.11260000  0.67640000  1.0 0.1401417003
H  H83  1  0.54960000  0.38740000  0.17640000  1.0 0.1401417003
H  H84  1  0.45040000  0.88740000  0.32360000  1.0 0.1401417003
H  H85  1  0.19800000  0.55300000  0.79600000  1.0 0.1401417003
H  H86  1  0.80200000  0.05300000  0.70400000  1.0 0.1401417003
H  H87  1  0.80200000  0.44700000  0.20400000  1.0 0.1401417003
H  H88  1  0.19800000  0.94700000  0.29600000  1.0 0.1401417003
H  H89  1  0.16910000  0.60640000  0.74710000  1.0 0.1401417003
H  H90  1  0.83090000  0.10640000  0.75290000  1.0 0.1401417003
H  H91  1  0.83090000  0.39360000  0.25290000  1.0 0.1401417003
H  H92  1  0.16910000  0.89360000  0.24710000  1.0 0.1401417003
H  H93  1  0.70410000  0.66100000  0.00050000  1.0 0.1401417003
H  H94  1  0.29590000  0.16100000  0.49950000  1.0 0.1401417003
H  H95  1  0.29590000  0.33900000  0.99950000  1.0 0.1401417003
H  H96  1  0.70410000  0.83900000  0.50050000  1.0 0.1401417003
H  H97  1  0.71550000  0.07480000  0.05370000  1.0 0.1198102131
H  H98  1  0.28450000  0.57480000  0.44630000  1.0 0.1198102131
H  H99  1  0.28450000  0.92520000  0.94630000  1.0 0.1198102131
H  H100  1  0.71550000  0.42520000  0.55370000  1.0 0.1198102131
H  H101  1  0.67850000  0.29610000  0.01220000  1.0 0.1302825299
H  H102  1  0.32150000  0.79610000  0.48780000  1.0 0.1302825299
H  H103  1  0.32150000  0.70390000  0.98780000  1.0 0.1302825299
H  H104  1  0.67850000  0.20390000  0.51220000  1.0 0.1302825299
H  H105  1  0.69680000  0.29610000  0.97350000  1.0 0.1302825299
H  H106  1  0.30320000  0.79610000  0.52650000  1.0 0.1302825299
H  H107  1  0.30320000  0.70390000  0.02650000  1.0 0.1302825299
H  H108  1  0.69680000  0.20390000  0.47350000  1.0 0.1302825299
H  H109  1  0.60420000  0.28060000  0.96200000  1.0 0.1302825299
H  H110  1  0.39580000  0.78060000  0.53800000  1.0 0.1302825299
H  H111  1  0.39580000  0.71940000  0.03800000  1.0 0.1302825299
H  H112  1  0.60420000  0.21940000  0.46200000  1.0 0.1302825299
H  H113  1  0.65220000  0.62830000  0.92360000  1.0 0.1401417003
H  H114  1  0.34780000  0.12830000  0.57640000  1.0 0.1401417003
H  H115  1  0.34780000  0.37170000  0.07640000  1.0 0.1401417003
H  H116  1  0.65220000  0.87170000  0.42360000  1.0 0.1401417003
H  H117  1  0.58910000  0.75280000  0.89090000  1.0 0.1401417003
H  H118  1  0.41090000  0.25280000  0.60910000  1.0 0.1401417003
H  H119  1  0.41090000  0.24720000  0.10910000  1.0 0.1401417003
H  H120  1  0.58910000  0.74720000  0.39090000  1.0 0.1401417003
H  H121  1  0.68400000  0.76030000  0.90600000  1.0 0.1401417003
H  H122  1  0.31600000  0.26030000  0.59400000  1.0 0.1401417003
H  H123  1  0.31600000  0.23970000  0.09400000  1.0 0.1401417003
H  H124  1  0.68400000  0.73970000  0.40600000  1.0 0.1401417003
H  H125  1  0.81210000  0.95450000  0.11370000  1.0 0.1198102131
H  H126  1  0.18790000  0.45450000  0.38630000  1.0 0.1198102131
H  H127  1  0.18790000  0.04550000  0.88630000  1.0 0.1198102131
H  H128  1  0.81210000  0.54550000  0.61370000  1.0 0.1198102131
H  H129  1  0.72900000  0.91880000  0.11260000  1.0 0.1401417003
H  H130  1  0.27100000  0.41880000  0.38740000  1.0 0.1401417003
H  H131  1  0.27100000  0.08120000  0.88740000  1.0 0.1401417003
H  H132  1  0.72900000  0.58120000  0.61260000  1.0 0.1401417003
C  C1  1  0.92560000  0.47440000  0.79790000  1.0 0.5934208613
C  C2  1  0.07440000  0.97440000  0.70210000  1.0 0.5934208613
C  C3  1  0.07440000  0.52560000  0.20210000  1.0 0.5934208613
C  C4  1  0.92560000  0.02560000  0.29790000  1.0 0.5934208613
C  C5  1  0.97140000  0.37850000  0.84080000  1.0 -0.1673986446
C  C6  1  0.02860000  0.87850000  0.65920000  1.0 -0.1673986446
C  C7  1  0.02860000  0.62150000  0.15920000  1.0 -0.1673986446
C  C8  1  0.97140000  0.12150000  0.34080000  1.0 -0.1673986446
C  C9  1  0.86110000  0.22590000  0.83520000  1.0 0.2486960869
C  C10  1  0.13890000  0.72590000  0.66480000  1.0 0.2486960869
C  C11  1  0.13890000  0.77410000  0.16480000  1.0 0.2486960869
C  C12  1  0.86110000  0.27410000  0.33520000  1.0 0.2486960869
C  C13  1  0.81970000  0.35110000  0.83850000  1.0 -0.3215367068
C  C14  1  0.18030000  0.85110000  0.66150000  1.0 -0.3215367068
C  C15  1  0.18030000  0.64890000  0.16150000  1.0 -0.3215367068
C  C16  1  0.81970000  0.14890000  0.33850000  1.0 -0.3215367068
C  C17  1  0.74860000  0.33100000  0.84100000  1.0 0.1611574621
C  C18  1  0.25140000  0.83100000  0.65900000  1.0 0.1611574621
C  C19  1  0.25140000  0.66900000  0.15900000  1.0 0.1611574621
C  C20  1  0.74860000  0.16900000  0.34100000  1.0 0.1611574621
C  C21  1  0.71800000  0.18400000  0.83910000  1.0 -0.0908908062
C  C22  1  0.28200000  0.68400000  0.66090000  1.0 -0.0908908062
C  C23  1  0.28200000  0.81600000  0.16090000  1.0 -0.0908908062
C  C24  1  0.71800000  0.31600000  0.33910000  1.0 -0.0908908062
C  C25  1  0.75590000  0.05690000  0.83250000  1.0 0.1611574621
C  C26  1  0.24410000  0.55690000  0.66750000  1.0 0.1611574621
C  C27  1  0.24410000  0.94310000  0.16750000  1.0 0.1611574621
C  C28  1  0.75590000  0.44310000  0.33250000  1.0 0.1611574621
C  C29  1  0.82820000  0.07900000  0.83120000  1.0 -0.3096813082
C  C30  1  0.17180000  0.57900000  0.66880000  1.0 -0.3096813082
C  C31  1  0.17180000  0.92100000  0.16880000  1.0 -0.3096813082
C  C32  1  0.82820000  0.42100000  0.33120000  1.0 -0.3096813082
C  C33  1  0.70810000  0.46880000  0.84680000  1.0 -0.4720067003
C  C34  1  0.29190000  0.96880000  0.65320000  1.0 -0.4720067003
C  C35  1  0.29190000  0.53120000  0.15320000  1.0 -0.4720067003
C  C36  1  0.70810000  0.03120000  0.34680000  1.0 -0.4720067003
C  C37  1  0.72300000  0.89520000  0.82800000  1.0 -0.4809235316
C  C38  1  0.27700000  0.39520000  0.67200000  1.0 -0.4809235316
C  C39  1  0.27700000  0.10480000  0.17200000  1.0 -0.4809235316
C  C40  1  0.72300000  0.60480000  0.32800000  1.0 -0.4809235316
C  C41  1  0.65110000  0.15870000  0.84980000  1.0 0.1001595289
C  C42  1  0.34890000  0.65870000  0.65020000  1.0 0.1001595289
C  C43  1  0.34890000  0.84130000  0.15020000  1.0 0.1001595289
C  C44  1  0.65110000  0.34130000  0.34980000  1.0 0.1001595289
C  C45  1  0.56750000  0.20470000  0.82250000  1.0 -0.2189007383
C  C46  1  0.43250000  0.70470000  0.67750000  1.0 -0.2189007383
C  C47  1  0.43250000  0.79530000  0.17750000  1.0 -0.2189007383
C  C48  1  0.56750000  0.29530000  0.32250000  1.0 -0.2189007383
C  C49  1  0.51070000  0.18490000  0.83560000  1.0 0.1001595289
C  C50  1  0.48930000  0.68490000  0.66440000  1.0 0.1001595289
C  C51  1  0.48930000  0.81510000  0.16440000  1.0 0.1001595289
C  C52  1  0.51070000  0.31510000  0.33560000  1.0 0.1001595289
C  C53  1  0.53790000  0.11250000  0.87720000  1.0 -0.2133557704
C  C54  1  0.46210000  0.61250000  0.62280000  1.0 -0.2133557704
C  C55  1  0.46210000  0.88750000  0.12280000  1.0 -0.2133557704
C  C56  1  0.53790000  0.38750000  0.37720000  1.0 -0.2133557704
C  C57  1  0.62150000  0.06560000  0.90510000  1.0 0.1001595289
C  C58  1  0.37850000  0.56560000  0.59490000  1.0 0.1001595289
C  C59  1  0.37850000  0.93440000  0.09490000  1.0 0.1001595289
C  C60  1  0.62150000  0.43440000  0.40510000  1.0 0.1001595289
C  C61  1  0.67740000  0.08810000  0.89110000  1.0 -0.2133557704
C  C62  1  0.32260000  0.58810000  0.60890000  1.0 -0.2133557704
C  C63  1  0.32260000  0.91190000  0.10890000  1.0 -0.2133557704
C  C64  1  0.67740000  0.41190000  0.39110000  1.0 -0.2133557704
C  C65  1  0.42160000  0.23890000  0.80910000  1.0 -0.0990499948
C  C66  1  0.57840000  0.73890000  0.69090000  1.0 -0.0990499948
C  C67  1  0.57840000  0.76110000  0.19090000  1.0 -0.0990499948
C  C68  1  0.42160000  0.26110000  0.30910000  1.0 -0.0990499948
C  C69  1  0.40480000  0.39530000  0.80660000  1.0 0.1611574621
C  C70  1  0.59520000  0.89530000  0.69340000  1.0 0.1611574621
C  C71  1  0.59520000  0.60470000  0.19340000  1.0 0.1611574621
C  C72  1  0.40480000  0.10470000  0.30660000  1.0 0.1611574621
C  C73  1  0.32070000  0.44700000  0.78760000  1.0 -0.3096813082
C  C74  1  0.67930000  0.94700000  0.71240000  1.0 -0.3096813082
C  C75  1  0.67930000  0.55300000  0.21240000  1.0 -0.3096813082
C  C76  1  0.32070000  0.05300000  0.28760000  1.0 -0.3096813082
C  C77  1  0.25700000  0.34140000  0.77140000  1.0 0.2431095484
C  C78  1  0.74300000  0.84140000  0.72860000  1.0 0.2431095484
C  C79  1  0.74300000  0.65860000  0.22860000  1.0 0.2431095484
C  C80  1  0.25700000  0.15860000  0.27140000  1.0 0.2431095484
C  C81  1  0.27220000  0.18590000  0.77170000  1.0 -0.2982024346
C  C82  1  0.72780000  0.68590000  0.72830000  1.0 -0.2982024346
C  C83  1  0.72780000  0.81410000  0.22830000  1.0 -0.2982024346
C  C84  1  0.27220000  0.31410000  0.27170000  1.0 -0.2982024346
C  C85  1  0.35480000  0.13410000  0.79040000  1.0 0.1679493319
C  C86  1  0.64520000  0.63410000  0.70960000  1.0 0.1679493319
C  C87  1  0.64520000  0.86590000  0.20960000  1.0 0.1679493319
C  C88  1  0.35480000  0.36590000  0.29040000  1.0 0.1679493319
C  C89  1  0.36890000  0.96220000  0.79080000  1.0 -0.4720067003
C  C90  1  0.63110000  0.46220000  0.70920000  1.0 -0.4720067003
C  C91  1  0.63110000  0.03780000  0.20920000  1.0 -0.4720067003
C  C92  1  0.36890000  0.53780000  0.29080000  1.0 -0.4720067003
C  C93  1  0.47370000  0.51340000  0.82500000  1.0 -0.4809235316
C  C94  1  0.52630000  0.01340000  0.67500000  1.0 -0.4809235316
C  C95  1  0.52630000  0.48660000  0.17500000  1.0 -0.4809235316
C  C96  1  0.47370000  0.98660000  0.32500000  1.0 -0.4809235316
C  C97  1  0.15940000  0.53190000  0.76430000  1.0 -0.1874987428
C  C98  1  0.84060000  0.03190000  0.73570000  1.0 -0.1874987428
C  C99  1  0.84060000  0.46810000  0.23570000  1.0 -0.1874987428
C  C100  1  0.15940000  0.96810000  0.26430000  1.0 -0.1874987428
C  C101  1  0.06900000  0.54350000  0.75270000  1.0 0.6374732386
C  C102  1  0.93100000  0.04350000  0.74730000  1.0 0.6374732386
C  C103  1  0.93100000  0.45650000  0.24730000  1.0 0.6374732386
C  C104  1  0.06900000  0.95650000  0.25270000  1.0 0.6374732386
C  C105  1  0.65290000  0.99210000  0.95010000  1.0 -0.077829795
C  C106  1  0.34710000  0.49210000  0.54990000  1.0 -0.077829795
C  C107  1  0.34710000  0.00790000  0.04990000  1.0 -0.077829795
C  C108  1  0.65290000  0.50790000  0.45010000  1.0 -0.077829795
C  C109  1  0.66450000  0.83190000  0.95520000  1.0 0.1476845344
C  C110  1  0.33550000  0.33190000  0.54480000  1.0 0.1476845344
C  C111  1  0.33550000  0.16810000  0.04480000  1.0 0.1401417003
C  C112  1  0.66450000  0.66810000  0.45520000  1.0 0.1476845344
C  C113  1  0.69600000  0.76620000  0.99700000  1.0 -0.2982024346
C  C114  1  0.30400000  0.26620000  0.50300000  1.0 -0.2982024346
C  C115  1  0.30400000  0.23380000  0.00300000  1.0 -0.2982024346
C  C116  1  0.69600000  0.73380000  0.49700000  1.0 -0.2982024346
C  C117  1  0.71570000  0.85730000  0.03410000  1.0 0.2566619198
C  C118  1  0.28430000  0.35730000  0.46590000  1.0 0.2566619198
C  C119  1  0.28430000  0.14270000  0.96590000  1.0 0.2566619198
C  C120  1  0.71570000  0.64270000  0.53410000  1.0 0.2566619198
C  C121  1  0.70300000  0.01450000  0.02910000  1.0 -0.3096813082
C  C122  1  0.29700000  0.51450000  0.47090000  1.0 -0.3096813082
C  C123  1  0.29700000  0.98550000  0.97090000  1.0 -0.3096813082
C  C124  1  0.70300000  0.48550000  0.52910000  1.0 -0.3096813082
C  C125  1  0.67110000  0.08200000  0.98670000  1.0 0.1476845344
C  C126  1  0.32890000  0.58200000  0.51330000  1.0 0.1476845344
C  C127  1  0.32890000  0.91800000  0.01330000  1.0 0.1476845344
C  C128  1  0.67110000  0.41800000  0.48670000  1.0 0.1476845344
C  C129  1  0.66180000  0.25450000  0.98330000  1.0 -0.4376530815
C  C130  1  0.33820000  0.75450000  0.51670000  1.0 -0.4376530815
C  C131  1  0.33820000  0.74550000  0.01670000  1.0 -0.4376530815
C  C132  1  0.66180000  0.24550000  0.48330000  1.0 -0.4376530815
C  C133  1  0.64580000  0.73440000  0.91530000  1.0 -0.4720067003
C  C134  1  0.35420000  0.23440000  0.58470000  1.0 -0.4720067003
C  C135  1  0.35420000  0.26560000  0.08470000  1.0 -0.4720067003
C  C136  1  0.64580000  0.76560000  0.41530000  1.0 -0.4720067003
C  C137  1  0.77650000  0.87290000  0.11310000  1.0 -0.198830817
C  C138  1  0.22350000  0.37290000  0.38690000  1.0 -0.198830817
C  C139  1  0.22350000  0.12710000  0.88690000  1.0 -0.198830817
C  C140  1  0.77650000  0.62710000  0.61310000  1.0 -0.198830817
C  C141  1  0.82590000  0.77420000  0.15480000  1.0 0.6090898495
C  C142  1  0.17410000  0.27420000  0.34520000  1.0 0.6090898495
C  C143  1  0.17410000  0.22580000  0.84520000  1.0 0.6090898495
C  C144  1  0.82590000  0.72580000  0.65480000  1.0 0.6090898495
O  O1  1  0.87131000  0.41880000  0.76241000  1.0 -0.5289965688
O  O2  1  0.12869000  0.91880000  0.73759000  1.0 -0.5289965688
O  O3  1  0.12869000  0.58120000  0.23759000  1.0 -0.5289965688
O  O4  1  0.87131000  0.08120000  0.26241000  1.0 -0.5289965688
O  O5  1  0.95126000  0.61310000  0.80406000  1.0 -0.5628491063
O  O6  1  0.04874000  0.11310000  0.69594000  1.0 -0.5628491063
O  O7  1  0.04874000  0.38690000  0.19594000  1.0 -0.5628491063
O  O8  1  0.95126000  0.88690000  0.30406000  1.0 -0.5628491063
O  O9  1  0.93478000  0.23120000  0.83568000  1.0 -0.1807488967
O  O10  1  0.06522000  0.73120000  0.66432000  1.0 -0.1807488967
O  O11  1  0.06522000  0.76880000  0.16432000  1.0 -0.1807488967
O  O12  1  0.93478000  0.26880000  0.33568000  1.0 -0.1807488967
O  O13  1  0.04966000  0.67040000  0.76096000  1.0 -0.5289965688
O  O14  1  0.95034000  0.17040000  0.73904000  1.0 -0.5395929832
O  O15  1  0.95034000  0.32960000  0.23904000  1.0 -0.5289965688
O  O16  1  0.04966000  0.82960000  0.26096000  1.0 -0.5395929832
O  O17  1  0.02063000  0.43080000  0.73563000  1.0 -0.5452926774
O  O18  1  0.97937000  0.93080000  0.76437000  1.0 -0.5395929832
O  O19  1  0.97937000  0.56920000  0.26437000  1.0 -0.5452926774
O  O20  1  0.02063000  0.06920000  0.23563000  1.0 -0.5395929832
O  O21  1  0.17326000  0.38220000  0.75406000  1.0 -0.198830817
O  O22  1  0.82674000  0.88220000  0.74594000  1.0 -0.198830817
O  O23  1  0.82674000  0.61780000  0.24594000  1.0 -0.198830817
O  O24  1  0.17326000  0.11780000  0.25406000  1.0 -0.198830817
O  O25  1  0.74722000  0.78090000  0.07352000  1.0 -0.1528785285
O  O26  1  0.25278000  0.28090000  0.42648000  1.0 -0.1528785285
O  O27  1  0.25278000  0.21910000  0.92648000  1.0 -0.1528785285
O  O28  1  0.74722000  0.71910000  0.57352000  1.0 -0.1528785285
O  O29  1  0.83614000  0.63590000  0.15354000  1.0 -0.5033344496
O  O30  1  0.16386000  0.13590000  0.34646000  1.0 -0.5033344496
O  O31  1  0.16386000  0.36410000  0.84646000  1.0 -0.5033344496
O  O32  1  0.83614000  0.86410000  0.65354000  1.0 -0.5033344496
O  O33  1  0.85628000  0.85670000  0.19038000  1.0 -0.6080037672
O  O34  1  0.14372000  0.35670000  0.30962000  1.0 -0.6080037672
O  O35  1  0.14372000  0.14330000  0.80962000  1.0 -0.6080037672
O  O36  1  0.85628000  0.64330000  0.69038000  1.0 -0.6080037672
