# DDEC6 charges by PACMAN v1.1 (https://github.com/mtap-research/PACMAN-charge/)
data_TAZLEN_ASR_pacman
_symmetry_space_group_name_H-M   'P 1'
_cell_length_a   19.91320000
_cell_length_b   19.91320000
_cell_length_c   25.05170000
_cell_angle_alpha   90.00000000
_cell_angle_beta   90.00000000
_cell_angle_gamma   90.00000000
_symmetry_Int_Tables_number   1
_chemical_formula_structural   NdCd2H6(C3O2)6
_chemical_formula_sum   'Nd8 Cd16 H48 C144 O96'
_cell_volume   9933.88924312
_cell_formula_units_Z   8
loop_
 _symmetry_equiv_pos_site_id
 _symmetry_equiv_pos_as_xyz
  1  'x, y, z'
loop_
 _atom_site_type_symbol
 _atom_site_label
 _atom_site_symmetry_multiplicity
 _atom_site_fract_x
 _atom_site_fract_y
 _atom_site_fract_z
 _atom_site_occupancy
 _atom_site_charge
Nd  Nd1  1  0.20304000  0.29696000  0.93685000  1.0 2.1868745653
Nd  Nd2  1  0.79696000  0.70304000  0.93685000  1.0 2.1868745653
Nd  Nd3  1  0.20304000  0.70304000  0.43685000  1.0 2.1868745653
Nd  Nd4  1  0.79696000  0.29696000  0.43685000  1.0 2.1868745653
Nd  Nd5  1  0.29696000  0.79696000  0.06315000  1.0 2.1868745653
Nd  Nd6  1  0.70304000  0.20304000  0.06315000  1.0 2.1868745653
Nd  Nd7  1  0.29696000  0.20304000  0.56315000  1.0 2.1868745653
Nd  Nd8  1  0.70304000  0.79696000  0.56315000  1.0 2.1868745653
Cd  Cd1  1  0.28264000  0.21736000  0.05526000  1.0 1.0034861831
Cd  Cd2  1  0.71736000  0.78264000  0.05526000  1.0 1.0034861831
Cd  Cd3  1  0.28264000  0.78264000  0.55526000  1.0 1.0034861831
Cd  Cd4  1  0.71736000  0.21736000  0.55526000  1.0 1.0034861831
Cd  Cd5  1  0.21736000  0.71736000  0.94474000  1.0 1.0034861831
Cd  Cd6  1  0.78264000  0.28264000  0.94474000  1.0 1.0034861831
Cd  Cd7  1  0.21736000  0.28264000  0.44474000  1.0 1.0034861831
Cd  Cd8  1  0.78264000  0.71736000  0.44474000  1.0 1.0034861831
Cd  Cd9  1  0.48480000  0.51520000  0.25000000  1.0 0.613138443
Cd  Cd10  1  0.51520000  0.48480000  0.25000000  1.0 0.613138443
Cd  Cd11  1  0.98480000  0.98480000  0.75000000  1.0 0.613138443
Cd  Cd12  1  0.01520000  0.01520000  0.75000000  1.0 0.613138443
Cd  Cd13  1  0.01520000  0.98480000  0.25000000  1.0 0.613138443
Cd  Cd14  1  0.98480000  0.01520000  0.25000000  1.0 0.613138443
Cd  Cd15  1  0.51520000  0.51520000  0.75000000  1.0 0.613138443
Cd  Cd16  1  0.48480000  0.48480000  0.75000000  1.0 0.613138443
H  H1  1  0.33310000  0.61450000  0.11460000  1.0 0.102953781
H  H2  1  0.66690000  0.38550000  0.11460000  1.0 0.102953781
H  H3  1  0.88550000  0.83310000  0.61460000  1.0 0.102953781
H  H4  1  0.11450000  0.16690000  0.61460000  1.0 0.102953781
H  H5  1  0.16690000  0.11450000  0.88540000  1.0 0.102953781
H  H6  1  0.83310000  0.88550000  0.88540000  1.0 0.102953781
H  H7  1  0.61450000  0.33310000  0.38540000  1.0 0.102953781
H  H8  1  0.38550000  0.66690000  0.38540000  1.0 0.102953781
H  H9  1  0.16690000  0.88550000  0.38540000  1.0 0.102953781
H  H10  1  0.83310000  0.11450000  0.38540000  1.0 0.102953781
H  H11  1  0.61450000  0.66690000  0.88540000  1.0 0.102953781
H  H12  1  0.38550000  0.33310000  0.88540000  1.0 0.102953781
H  H13  1  0.33310000  0.38550000  0.61460000  1.0 0.102953781
H  H14  1  0.66690000  0.61450000  0.61460000  1.0 0.102953781
H  H15  1  0.88550000  0.16690000  0.11460000  1.0 0.102953781
H  H16  1  0.11450000  0.83310000  0.11460000  1.0 0.102953781
H  H17  1  0.33860000  0.41400000  0.13520000  1.0 0.1181317238
H  H18  1  0.66140000  0.58600000  0.13520000  1.0 0.1181317238
H  H19  1  0.08600000  0.83860000  0.63520000  1.0 0.1181317238
H  H20  1  0.91400000  0.16140000  0.63520000  1.0 0.1181317238
H  H21  1  0.16140000  0.91400000  0.86480000  1.0 0.1181317238
H  H22  1  0.83860000  0.08600000  0.86480000  1.0 0.1181317238
H  H23  1  0.41400000  0.33860000  0.36480000  1.0 0.1181317238
H  H24  1  0.58600000  0.66140000  0.36480000  1.0 0.1181317238
H  H25  1  0.16140000  0.08600000  0.36480000  1.0 0.1181317238
H  H26  1  0.83860000  0.91400000  0.36480000  1.0 0.1181317238
H  H27  1  0.41400000  0.66140000  0.86480000  1.0 0.1181317238
H  H28  1  0.58600000  0.33860000  0.86480000  1.0 0.1181317238
H  H29  1  0.33860000  0.58600000  0.63520000  1.0 0.1181317238
H  H30  1  0.66140000  0.41400000  0.63520000  1.0 0.1181317238
H  H31  1  0.08600000  0.16140000  0.13520000  1.0 0.1181317238
H  H32  1  0.91400000  0.83860000  0.13520000  1.0 0.1181317238
H  H33  1  0.23730000  0.49460000  0.01190000  1.0 0.102953781
H  H34  1  0.76270000  0.50540000  0.01190000  1.0 0.102953781
H  H35  1  0.00540000  0.73730000  0.51190000  1.0 0.102953781
H  H36  1  0.99460000  0.26270000  0.51190000  1.0 0.102953781
H  H37  1  0.26270000  0.99460000  0.98810000  1.0 0.102953781
H  H38  1  0.73730000  0.00540000  0.98810000  1.0 0.102953781
H  H39  1  0.49460000  0.23730000  0.48810000  1.0 0.102953781
H  H40  1  0.50540000  0.76270000  0.48810000  1.0 0.102953781
H  H41  1  0.26270000  0.00540000  0.48810000  1.0 0.102953781
H  H42  1  0.73730000  0.99460000  0.48810000  1.0 0.102953781
H  H43  1  0.49460000  0.76270000  0.98810000  1.0 0.102953781
H  H44  1  0.50540000  0.23730000  0.98810000  1.0 0.102953781
H  H45  1  0.23730000  0.50540000  0.51190000  1.0 0.102953781
H  H46  1  0.76270000  0.49460000  0.51190000  1.0 0.102953781
H  H47  1  0.00540000  0.26270000  0.01190000  1.0 0.102953781
H  H48  1  0.99460000  0.73730000  0.01190000  1.0 0.102953781
C  C1  1  0.28170000  0.56330000  0.05900000  1.0 -0.0591619329
C  C2  1  0.71830000  0.43670000  0.05900000  1.0 -0.0591619329
C  C3  1  0.93670000  0.78170000  0.55900000  1.0 -0.0591619329
C  C4  1  0.06330000  0.21830000  0.55900000  1.0 -0.0591619329
C  C5  1  0.21830000  0.06330000  0.94100000  1.0 -0.0591619329
C  C6  1  0.78170000  0.93670000  0.94100000  1.0 -0.0492268762
C  C7  1  0.56330000  0.28170000  0.44100000  1.0 -0.0591619329
C  C8  1  0.43670000  0.71830000  0.44100000  1.0 -0.0591619329
C  C9  1  0.21830000  0.93670000  0.44100000  1.0 -0.0591619329
C  C10  1  0.78170000  0.06330000  0.44100000  1.0 -0.0591619329
C  C11  1  0.56330000  0.71830000  0.94100000  1.0 -0.0492268762
C  C12  1  0.43670000  0.28170000  0.94100000  1.0 -0.0492268762
C  C13  1  0.28170000  0.43670000  0.55900000  1.0 -0.0591619329
C  C14  1  0.71830000  0.56330000  0.55900000  1.0 -0.0591619329
C  C15  1  0.93670000  0.21830000  0.05900000  1.0 -0.0492268762
C  C16  1  0.06330000  0.78170000  0.05900000  1.0 -0.0591619329
C  C17  1  0.28540000  0.44310000  0.06970000  1.0 -0.0591619329
C  C18  1  0.71460000  0.55690000  0.06970000  1.0 -0.0591619329
C  C19  1  0.05690000  0.78540000  0.56970000  1.0 -0.0591619329
C  C20  1  0.94310000  0.21460000  0.56970000  1.0 -0.0591619329
C  C21  1  0.21460000  0.94310000  0.93030000  1.0 -0.0591619329
C  C22  1  0.78540000  0.05690000  0.93030000  1.0 -0.0591619329
C  C23  1  0.44310000  0.28540000  0.43030000  1.0 -0.0591619329
C  C24  1  0.55690000  0.71460000  0.43030000  1.0 -0.0591619329
C  C25  1  0.21460000  0.05690000  0.43030000  1.0 -0.0591619329
C  C26  1  0.78540000  0.94310000  0.43030000  1.0 -0.0591619329
C  C27  1  0.44310000  0.71460000  0.93030000  1.0 -0.0591619329
C  C28  1  0.55690000  0.28540000  0.93030000  1.0 -0.0591619329
C  C29  1  0.28540000  0.55690000  0.56970000  1.0 -0.0591619329
C  C30  1  0.71460000  0.44310000  0.56970000  1.0 -0.0591619329
C  C31  1  0.05690000  0.21460000  0.06970000  1.0 -0.0591619329
C  C32  1  0.94310000  0.78540000  0.06970000  1.0 -0.0591619329
C  C33  1  0.32100000  0.57170000  0.10330000  1.0 -0.0980876225
C  C34  1  0.67900000  0.42830000  0.10330000  1.0 -0.0980876225
C  C35  1  0.92830000  0.82100000  0.60330000  1.0 -0.0980876225
C  C36  1  0.07170000  0.17900000  0.60330000  1.0 -0.0980876225
C  C37  1  0.17900000  0.07170000  0.89670000  1.0 -0.0980876225
C  C38  1  0.82100000  0.92830000  0.89670000  1.0 -0.0980876225
C  C39  1  0.57170000  0.32100000  0.39670000  1.0 -0.0980876225
C  C40  1  0.42830000  0.67900000  0.39670000  1.0 -0.0980876225
C  C41  1  0.17900000  0.92830000  0.39670000  1.0 -0.0980876225
C  C42  1  0.82100000  0.07170000  0.39670000  1.0 -0.0980876225
C  C43  1  0.57170000  0.67900000  0.89670000  1.0 -0.0980876225
C  C44  1  0.42830000  0.32100000  0.89670000  1.0 -0.0980876225
C  C45  1  0.32100000  0.42830000  0.60330000  1.0 -0.0980876225
C  C46  1  0.67900000  0.57170000  0.60330000  1.0 -0.0980876225
C  C47  1  0.92830000  0.17900000  0.10330000  1.0 -0.0980876225
C  C48  1  0.07170000  0.82100000  0.10330000  1.0 -0.0980876225
C  C49  1  0.26810000  0.37380000  0.05200000  1.0 0.615859267
C  C50  1  0.73190000  0.62620000  0.05200000  1.0 0.615859267
C  C51  1  0.12620000  0.76810000  0.55200000  1.0 0.615859267
C  C52  1  0.87380000  0.23190000  0.55200000  1.0 0.615859267
C  C53  1  0.23190000  0.87380000  0.94800000  1.0 0.615859267
C  C54  1  0.76810000  0.12620000  0.94800000  1.0 0.615859267
C  C55  1  0.37380000  0.26810000  0.44800000  1.0 0.615859267
C  C56  1  0.62620000  0.73190000  0.44800000  1.0 0.615859267
C  C57  1  0.23190000  0.12620000  0.44800000  1.0 0.615859267
C  C58  1  0.76810000  0.87380000  0.44800000  1.0 0.615859267
C  C59  1  0.37380000  0.73190000  0.94800000  1.0 0.615859267
C  C60  1  0.62620000  0.26810000  0.94800000  1.0 0.615859267
C  C61  1  0.26810000  0.62620000  0.55200000  1.0 0.615859267
C  C62  1  0.73190000  0.37380000  0.55200000  1.0 0.615859267
C  C63  1  0.12620000  0.23190000  0.05200000  1.0 0.615859267
C  C64  1  0.87380000  0.76810000  0.05200000  1.0 0.615859267
C  C65  1  0.32490000  0.45120000  0.11580000  1.0 -0.0980876225
C  C66  1  0.67510000  0.54880000  0.11580000  1.0 -0.0980876225
C  C67  1  0.04880000  0.82490000  0.61580000  1.0 -0.0980876225
C  C68  1  0.95120000  0.17510000  0.61580000  1.0 -0.0980876225
C  C69  1  0.17510000  0.95120000  0.88420000  1.0 -0.0980876225
C  C70  1  0.82490000  0.04880000  0.88420000  1.0 -0.0980876225
C  C71  1  0.45120000  0.32490000  0.38420000  1.0 -0.0980876225
C  C72  1  0.54880000  0.67510000  0.38420000  1.0 -0.0980876225
C  C73  1  0.17510000  0.04880000  0.38420000  1.0 -0.0980876225
C  C74  1  0.82490000  0.95120000  0.38420000  1.0 -0.0980876225
C  C75  1  0.45120000  0.67510000  0.88420000  1.0 -0.0980876225
C  C76  1  0.54880000  0.32490000  0.88420000  1.0 -0.0980876225
C  C77  1  0.32490000  0.54880000  0.61580000  1.0 -0.0980876225
C  C78  1  0.67510000  0.45120000  0.61580000  1.0 -0.0980876225
C  C79  1  0.04880000  0.17510000  0.11580000  1.0 -0.0980876225
C  C80  1  0.95120000  0.82490000  0.11580000  1.0 -0.0980876225
C  C81  1  0.26400000  0.49960000  0.04210000  1.0 -0.093186791
C  C82  1  0.73600000  0.50040000  0.04210000  1.0 -0.093186791
C  C83  1  0.00040000  0.76400000  0.54210000  1.0 -0.093186791
C  C84  1  0.99960000  0.23600000  0.54210000  1.0 -0.093186791
C  C85  1  0.23600000  0.99960000  0.95790000  1.0 -0.093186791
C  C86  1  0.76400000  0.00040000  0.95790000  1.0 -0.093186791
C  C87  1  0.49960000  0.26400000  0.45790000  1.0 -0.093186791
C  C88  1  0.50040000  0.73600000  0.45790000  1.0 -0.093186791
C  C89  1  0.23600000  0.00040000  0.45790000  1.0 -0.093186791
C  C90  1  0.76400000  0.99960000  0.45790000  1.0 -0.093186791
C  C91  1  0.49960000  0.73600000  0.95790000  1.0 -0.093186791
C  C92  1  0.50040000  0.26400000  0.95790000  1.0 -0.093186791
C  C93  1  0.26400000  0.50040000  0.54210000  1.0 -0.093186791
C  C94  1  0.73600000  0.49960000  0.54210000  1.0 -0.093186791
C  C95  1  0.00040000  0.23600000  0.04210000  1.0 -0.093186791
C  C96  1  0.99960000  0.76400000  0.04210000  1.0 -0.093186791
C  C97  1  0.39070000  0.52140000  0.17650000  1.0 0.5297678379
C  C98  1  0.60930000  0.47860000  0.17650000  1.0 0.5297678379
C  C99  1  0.97860000  0.89070000  0.67650000  1.0 0.5297678379
C  C100  1  0.02140000  0.10930000  0.67650000  1.0 0.5297678379
C  C101  1  0.10930000  0.02140000  0.82350000  1.0 0.5297678379
C  C102  1  0.89070000  0.97860000  0.82350000  1.0 0.5297678379
C  C103  1  0.52140000  0.39070000  0.32350000  1.0 0.5297678379
C  C104  1  0.47860000  0.60930000  0.32350000  1.0 0.5297678379
C  C105  1  0.10930000  0.97860000  0.32350000  1.0 0.5297678379
C  C106  1  0.89070000  0.02140000  0.32350000  1.0 0.5297678379
C  C107  1  0.52140000  0.60930000  0.82350000  1.0 0.5297678379
C  C108  1  0.47860000  0.39070000  0.82350000  1.0 0.5297678379
C  C109  1  0.39070000  0.47860000  0.67650000  1.0 0.5297678379
C  C110  1  0.60930000  0.52140000  0.67650000  1.0 0.5297678379
C  C111  1  0.97860000  0.10930000  0.17650000  1.0 0.5297678379
C  C112  1  0.02140000  0.89070000  0.17650000  1.0 0.5297678379
C  C113  1  0.23910000  0.12380000  0.97270000  1.0 0.613138443
C  C114  1  0.76090000  0.87620000  0.97270000  1.0 0.613138443
C  C115  1  0.37620000  0.73910000  0.47270000  1.0 0.613138443
C  C116  1  0.62380000  0.26090000  0.47270000  1.0 0.613138443
C  C117  1  0.26090000  0.62380000  0.02730000  1.0 0.615859267
C  C118  1  0.73910000  0.37620000  0.02730000  1.0 0.615859267
C  C119  1  0.12380000  0.23910000  0.52730000  1.0 0.613138443
C  C120  1  0.87620000  0.76090000  0.52730000  1.0 0.613138443
C  C121  1  0.26090000  0.37620000  0.52730000  1.0 0.613138443
C  C122  1  0.73910000  0.62380000  0.52730000  1.0 0.613138443
C  C123  1  0.12380000  0.76090000  0.02730000  1.0 0.615859267
C  C124  1  0.87620000  0.23910000  0.02730000  1.0 0.615859267
C  C125  1  0.23910000  0.87620000  0.47270000  1.0 0.613138443
C  C126  1  0.76090000  0.12380000  0.47270000  1.0 0.613138443
C  C127  1  0.37620000  0.26090000  0.97270000  1.0 0.613138443
C  C128  1  0.62380000  0.73910000  0.97270000  1.0 0.613138443
C  C129  1  0.34300000  0.51460000  0.13170000  1.0 -0.0492268762
C  C130  1  0.65700000  0.48540000  0.13170000  1.0 -0.0492268762
C  C131  1  0.98540000  0.84300000  0.63170000  1.0 -0.0492268762
C  C132  1  0.01460000  0.15700000  0.63170000  1.0 -0.0492268762
C  C133  1  0.15700000  0.01460000  0.86830000  1.0 -0.0492268762
C  C134  1  0.84300000  0.98540000  0.86830000  1.0 -0.0492268762
C  C135  1  0.51460000  0.34300000  0.36830000  1.0 -0.0492268762
C  C136  1  0.48540000  0.65700000  0.36830000  1.0 -0.0492268762
C  C137  1  0.15700000  0.98540000  0.36830000  1.0 -0.0492268762
C  C138  1  0.84300000  0.01460000  0.36830000  1.0 -0.0492268762
C  C139  1  0.51460000  0.65700000  0.86830000  1.0 -0.0492268762
C  C140  1  0.48540000  0.34300000  0.86830000  1.0 -0.0492268762
C  C141  1  0.34300000  0.48540000  0.63170000  1.0 -0.0492268762
C  C142  1  0.65700000  0.51460000  0.63170000  1.0 -0.0492268762
C  C143  1  0.98540000  0.15700000  0.13170000  1.0 -0.0492268762
C  C144  1  0.01460000  0.84300000  0.13170000  1.0 -0.0492268762
O  O1  1  0.28800000  0.32550000  0.07890000  1.0 -0.5417504976
O  O2  1  0.71200000  0.67450000  0.07890000  1.0 -0.5417504976
O  O3  1  0.17450000  0.78800000  0.57890000  1.0 -0.5417504976
O  O4  1  0.82550000  0.21200000  0.57890000  1.0 -0.5417504976
O  O5  1  0.21200000  0.82550000  0.92110000  1.0 -0.5417504976
O  O6  1  0.78800000  0.17450000  0.92110000  1.0 -0.5417504976
O  O7  1  0.32550000  0.28800000  0.42110000  1.0 -0.5417504976
O  O8  1  0.67450000  0.71200000  0.42110000  1.0 -0.5417504976
O  O9  1  0.21200000  0.17450000  0.42110000  1.0 -0.5417504976
O  O10  1  0.78800000  0.82550000  0.42110000  1.0 -0.5417504976
O  O11  1  0.32550000  0.71200000  0.92110000  1.0 -0.5417504976
O  O12  1  0.67450000  0.28800000  0.92110000  1.0 -0.5417504976
O  O13  1  0.28800000  0.67450000  0.57890000  1.0 -0.5417504976
O  O14  1  0.71200000  0.32550000  0.57890000  1.0 -0.5417504976
O  O15  1  0.17450000  0.21200000  0.07890000  1.0 -0.5417504976
O  O16  1  0.82550000  0.78800000  0.07890000  1.0 -0.5417504976
O  O17  1  0.21990000  0.18080000  0.95730000  1.0 -0.7424910473
O  O18  1  0.78010000  0.81920000  0.95730000  1.0 -0.7424910473
O  O19  1  0.31920000  0.71990000  0.45730000  1.0 -0.7424910473
O  O20  1  0.68080000  0.28010000  0.45730000  1.0 -0.7424910473
O  O21  1  0.28010000  0.68080000  0.04270000  1.0 -0.7424910473
O  O22  1  0.71990000  0.31920000  0.04270000  1.0 -0.7424910473
O  O23  1  0.18080000  0.21990000  0.54270000  1.0 -0.7424910473
O  O24  1  0.81920000  0.78010000  0.54270000  1.0 -0.7424910473
O  O25  1  0.28010000  0.31920000  0.54270000  1.0 -0.7424910473
O  O26  1  0.71990000  0.68080000  0.54270000  1.0 -0.7424910473
O  O27  1  0.18080000  0.78010000  0.04270000  1.0 -0.7424910473
O  O28  1  0.81920000  0.21990000  0.04270000  1.0 -0.7424910473
O  O29  1  0.21990000  0.81920000  0.45730000  1.0 -0.7424910473
O  O30  1  0.78010000  0.18080000  0.45730000  1.0 -0.7424910473
O  O31  1  0.31920000  0.28010000  0.95730000  1.0 -0.7424910473
O  O32  1  0.68080000  0.71990000  0.95730000  1.0 -0.7424910473
O  O33  1  0.27190000  0.11550000  0.01630000  1.0 -0.5480672451
O  O34  1  0.72810000  0.88450000  0.01630000  1.0 -0.5480672451
O  O35  1  0.38450000  0.77190000  0.51630000  1.0 -0.5480672451
O  O36  1  0.61550000  0.22810000  0.51630000  1.0 -0.5480672451
O  O37  1  0.22810000  0.61550000  0.98370000  1.0 -0.5480672451
O  O38  1  0.77190000  0.38450000  0.98370000  1.0 -0.5480672451
O  O39  1  0.11550000  0.27190000  0.48370000  1.0 -0.5480672451
O  O40  1  0.88450000  0.72810000  0.48370000  1.0 -0.5480672451
O  O41  1  0.22810000  0.38450000  0.48370000  1.0 -0.5480672451
O  O42  1  0.77190000  0.61550000  0.48370000  1.0 -0.5480672451
O  O43  1  0.11550000  0.72810000  0.98370000  1.0 -0.5480672451
O  O44  1  0.88450000  0.27190000  0.98370000  1.0 -0.5480672451
O  O45  1  0.27190000  0.88450000  0.51630000  1.0 -0.5480672451
O  O46  1  0.72810000  0.11550000  0.51630000  1.0 -0.5480672451
O  O47  1  0.38450000  0.22810000  0.01630000  1.0 -0.5480672451
O  O48  1  0.61550000  0.77190000  0.01630000  1.0 -0.5480672451
O  O49  1  0.41490000  0.47400000  0.19820000  1.0 -0.4559139119
O  O50  1  0.58510000  0.52600000  0.19820000  1.0 -0.4559139119
O  O51  1  0.02600000  0.91490000  0.69820000  1.0 -0.4559139119
O  O52  1  0.97400000  0.08510000  0.69820000  1.0 -0.4559139119
O  O53  1  0.08510000  0.97400000  0.80180000  1.0 -0.4559139119
O  O54  1  0.91490000  0.02600000  0.80180000  1.0 -0.4559139119
O  O55  1  0.47400000  0.41490000  0.30180000  1.0 -0.4559139119
O  O56  1  0.52600000  0.58510000  0.30180000  1.0 -0.4559139119
O  O57  1  0.08510000  0.02600000  0.30180000  1.0 -0.4559139119
O  O58  1  0.91490000  0.97400000  0.30180000  1.0 -0.4559139119
O  O59  1  0.47400000  0.58510000  0.80180000  1.0 -0.4559139119
O  O60  1  0.52600000  0.41490000  0.80180000  1.0 -0.4559139119
O  O61  1  0.41490000  0.52600000  0.69820000  1.0 -0.4559139119
O  O62  1  0.58510000  0.47400000  0.69820000  1.0 -0.4559139119
O  O63  1  0.02600000  0.08510000  0.19820000  1.0 -0.4559139119
O  O64  1  0.97400000  0.91490000  0.19820000  1.0 -0.4559139119
O  O65  1  0.23280000  0.36880000  0.00930000  1.0 -0.7545881005
O  O66  1  0.76720000  0.63120000  0.00930000  1.0 -0.7545881005
O  O67  1  0.13120000  0.73280000  0.50930000  1.0 -0.7545881005
O  O68  1  0.86880000  0.26720000  0.50930000  1.0 -0.7545881005
O  O69  1  0.26720000  0.86880000  0.99070000  1.0 -0.7545881005
O  O70  1  0.73280000  0.13120000  0.99070000  1.0 -0.7545881005
O  O71  1  0.36880000  0.23280000  0.49070000  1.0 -0.7545881005
O  O72  1  0.63120000  0.76720000  0.49070000  1.0 -0.7545881005
O  O73  1  0.26720000  0.13120000  0.49070000  1.0 -0.7545881005
O  O74  1  0.73280000  0.86880000  0.49070000  1.0 -0.7545881005
O  O75  1  0.36880000  0.76720000  0.99070000  1.0 -0.7545881005
O  O76  1  0.63120000  0.23280000  0.99070000  1.0 -0.7545881005
O  O77  1  0.23280000  0.63120000  0.50930000  1.0 -0.7545881005
O  O78  1  0.76720000  0.36880000  0.50930000  1.0 -0.7545881005
O  O79  1  0.13120000  0.26720000  0.00930000  1.0 -0.7545881005
O  O80  1  0.86880000  0.73280000  0.00930000  1.0 -0.7545881005
O  O81  1  0.40530000  0.57930000  0.19190000  1.0 -0.4879948193
O  O82  1  0.59470000  0.42070000  0.19190000  1.0 -0.4879948193
O  O83  1  0.92070000  0.90530000  0.69190000  1.0 -0.4879948193
O  O84  1  0.07930000  0.09470000  0.69190000  1.0 -0.4879948193
O  O85  1  0.09470000  0.07930000  0.80810000  1.0 -0.4879948193
O  O86  1  0.90530000  0.92070000  0.80810000  1.0 -0.4879948193
O  O87  1  0.57930000  0.40530000  0.30810000  1.0 -0.4879948193
O  O88  1  0.42070000  0.59470000  0.30810000  1.0 -0.4879948193
O  O89  1  0.09470000  0.92070000  0.30810000  1.0 -0.4879948193
O  O90  1  0.90530000  0.07930000  0.30810000  1.0 -0.4879948193
O  O91  1  0.57930000  0.59470000  0.80810000  1.0 -0.4879948193
O  O92  1  0.42070000  0.40530000  0.80810000  1.0 -0.4879948193
O  O93  1  0.40530000  0.42070000  0.69190000  1.0 -0.4879948193
O  O94  1  0.59470000  0.57930000  0.69190000  1.0 -0.4879948193
O  O95  1  0.92070000  0.09470000  0.19190000  1.0 -0.4879948193
O  O96  1  0.07930000  0.90530000  0.19190000  1.0 -0.4879948193
