# DDEC6 charges by PACMAN v1.1 (https://github.com/mtap-research/PACMAN-charge/)
data_TAZLAJ_ASR_pacman
_symmetry_space_group_name_H-M   'P 1'
_cell_length_a   19.54100000
_cell_length_b   19.54100000
_cell_length_c   25.95000000
_cell_angle_alpha   90.00000000
_cell_angle_beta   90.00000000
_cell_angle_gamma   90.00000000
_symmetry_Int_Tables_number   1
_chemical_formula_structural   TbCd2H6(C3O2)6
_chemical_formula_sum   'Tb8 Cd16 H48 C144 O96'
_cell_volume   9909.02517195
_cell_formula_units_Z   8
loop_
 _symmetry_equiv_pos_site_id
 _symmetry_equiv_pos_as_xyz
  1  'x, y, z'
loop_
 _atom_site_type_symbol
 _atom_site_label
 _atom_site_symmetry_multiplicity
 _atom_site_fract_x
 _atom_site_fract_y
 _atom_site_fract_z
 _atom_site_occupancy
 _atom_site_charge
Tb  Tb1  1  0.30030000  0.80030000  0.94638000  1.0 2.1245438828
Tb  Tb2  1  0.69970000  0.19970000  0.94638000  1.0 2.1257148041
Tb  Tb3  1  0.69970000  0.80030000  0.44638000  1.0 2.1257148041
Tb  Tb4  1  0.30030000  0.19970000  0.44638000  1.0 2.1257148041
Tb  Tb5  1  0.19970000  0.30030000  0.05362000  1.0 2.1245438828
Tb  Tb6  1  0.80030000  0.69970000  0.05362000  1.0 2.1257148041
Tb  Tb7  1  0.80030000  0.30030000  0.55362000  1.0 2.1257148041
Tb  Tb8  1  0.19970000  0.69970000  0.55362000  1.0 2.1245438828
Cd  Cd1  1  0.21287000  0.71287000  0.05699000  1.0 1.0000941529
Cd  Cd2  1  0.78713000  0.28713000  0.05699000  1.0 1.0000941529
Cd  Cd3  1  0.78713000  0.71287000  0.55699000  1.0 1.0000941529
Cd  Cd4  1  0.21287000  0.28713000  0.55699000  1.0 1.0000941529
Cd  Cd5  1  0.28713000  0.21287000  0.94301000  1.0 1.0000941529
Cd  Cd6  1  0.71287000  0.78713000  0.94301000  1.0 1.0000941529
Cd  Cd7  1  0.71287000  0.21287000  0.44301000  1.0 1.0000941529
Cd  Cd8  1  0.28713000  0.78713000  0.44301000  1.0 1.0000941529
Cd  Cd9  1  0.51524000  0.51524000  0.25000000  1.0 0.6243944454
Cd  Cd10  1  0.48476000  0.48476000  0.25000000  1.0 0.6243944454
Cd  Cd11  1  0.98476000  0.01524000  0.75000000  1.0 0.6243944454
Cd  Cd12  1  0.01524000  0.98476000  0.75000000  1.0 0.6277056778
Cd  Cd13  1  0.98476000  0.98476000  0.25000000  1.0 0.6243944454
Cd  Cd14  1  0.01524000  0.01524000  0.25000000  1.0 0.6243944454
Cd  Cd15  1  0.51524000  0.48476000  0.75000000  1.0 0.6243944454
Cd  Cd16  1  0.48476000  0.51524000  0.75000000  1.0 0.6243944454
H  H1  1  0.49280000  0.76290000  0.01700000  1.0 0.1079193353
H  H2  1  0.50720000  0.23710000  0.01700000  1.0 0.1079193353
H  H3  1  0.73710000  0.99280000  0.51700000  1.0 0.1079193353
H  H4  1  0.26290000  0.00720000  0.51700000  1.0 0.1079193353
H  H5  1  0.00720000  0.26290000  0.98300000  1.0 0.1079193353
H  H6  1  0.99280000  0.73710000  0.98300000  1.0 0.1079193353
H  H7  1  0.76290000  0.49280000  0.48300000  1.0 0.1079193353
H  H8  1  0.23710000  0.50720000  0.48300000  1.0 0.1079193353
H  H9  1  0.00720000  0.73710000  0.48300000  1.0 0.1079193353
H  H10  1  0.99280000  0.26290000  0.48300000  1.0 0.1079193353
H  H11  1  0.76290000  0.50720000  0.98300000  1.0 0.1079193353
H  H12  1  0.23710000  0.49280000  0.98300000  1.0 0.1079193353
H  H13  1  0.49280000  0.23710000  0.51700000  1.0 0.1079193353
H  H14  1  0.50720000  0.76290000  0.51700000  1.0 0.1079193353
H  H15  1  0.73710000  0.00720000  0.01700000  1.0 0.1079193353
H  H16  1  0.26290000  0.99280000  0.01700000  1.0 0.1079193353
H  H17  1  0.41350000  0.65810000  0.13680000  1.0 0.1197840533
H  H18  1  0.58650000  0.34190000  0.13680000  1.0 0.1197840533
H  H19  1  0.84190000  0.91350000  0.63680000  1.0 0.1197840533
H  H20  1  0.15810000  0.08650000  0.63680000  1.0 0.1197840533
H  H21  1  0.08650000  0.15810000  0.86320000  1.0 0.1197840533
H  H22  1  0.91350000  0.84190000  0.86320000  1.0 0.1197840533
H  H23  1  0.65810000  0.41350000  0.36320000  1.0 0.1197840533
H  H24  1  0.34190000  0.58650000  0.36320000  1.0 0.1197840533
H  H25  1  0.08650000  0.84190000  0.36320000  1.0 0.1197840533
H  H26  1  0.91350000  0.15810000  0.36320000  1.0 0.1197840533
H  H27  1  0.65810000  0.58650000  0.86320000  1.0 0.1197840533
H  H28  1  0.34190000  0.41350000  0.86320000  1.0 0.1197840533
H  H29  1  0.41350000  0.34190000  0.63680000  1.0 0.1197840533
H  H30  1  0.58650000  0.65810000  0.63680000  1.0 0.1197840533
H  H31  1  0.84190000  0.08650000  0.13680000  1.0 0.1197840533
H  H32  1  0.15810000  0.91350000  0.13680000  1.0 0.1197840533
H  H33  1  0.61740000  0.66630000  0.11470000  1.0 0.1049536559
H  H34  1  0.38260000  0.33370000  0.11470000  1.0 0.1049536559
H  H35  1  0.83370000  0.11740000  0.61470000  1.0 0.1049536559
H  H36  1  0.16630000  0.88260000  0.61470000  1.0 0.1049536559
H  H37  1  0.88260000  0.16630000  0.88530000  1.0 0.1049536559
H  H38  1  0.11740000  0.83370000  0.88530000  1.0 0.1049536559
H  H39  1  0.66630000  0.61740000  0.38530000  1.0 0.1049536559
H  H40  1  0.33370000  0.38260000  0.38530000  1.0 0.1049536559
H  H41  1  0.88260000  0.83370000  0.38530000  1.0 0.1049536559
H  H42  1  0.11740000  0.16630000  0.38530000  1.0 0.1049536559
H  H43  1  0.66630000  0.38260000  0.88530000  1.0 0.1049536559
H  H44  1  0.33370000  0.61740000  0.88530000  1.0 0.1049536559
H  H45  1  0.61740000  0.33370000  0.61470000  1.0 0.1049536559
H  H46  1  0.38260000  0.66630000  0.61470000  1.0 0.1049536559
H  H47  1  0.83370000  0.88260000  0.11470000  1.0 0.1049536559
H  H48  1  0.16630000  0.11740000  0.11470000  1.0 0.1049536559
C  C1  1  0.56660000  0.71530000  0.05990000  1.0 -0.0692588292
C  C2  1  0.43340000  0.28470000  0.05990000  1.0 -0.0692588292
C  C3  1  0.78470000  0.06660000  0.55990000  1.0 -0.0692588292
C  C4  1  0.21530000  0.93340000  0.55990000  1.0 -0.0692588292
C  C5  1  0.93340000  0.21530000  0.94010000  1.0 -0.0692588292
C  C6  1  0.06660000  0.78470000  0.94010000  1.0 -0.0692588292
C  C7  1  0.71530000  0.56660000  0.44010000  1.0 -0.0692588292
C  C8  1  0.28470000  0.43340000  0.44010000  1.0 -0.0692588292
C  C9  1  0.93340000  0.78470000  0.44010000  1.0 -0.0692588292
C  C10  1  0.06660000  0.21530000  0.44010000  1.0 -0.0692588292
C  C11  1  0.71530000  0.43340000  0.94010000  1.0 -0.0692588292
C  C12  1  0.28470000  0.56660000  0.94010000  1.0 -0.0692588292
C  C13  1  0.56660000  0.28470000  0.55990000  1.0 -0.0692588292
C  C14  1  0.43340000  0.71530000  0.55990000  1.0 -0.0692588292
C  C15  1  0.78470000  0.93340000  0.05990000  1.0 -0.0692588292
C  C16  1  0.21530000  0.06660000  0.05990000  1.0 -0.0692588292
C  C17  1  0.37190000  0.72890000  0.05570000  1.0 0.6277056778
C  C18  1  0.62810000  0.27110000  0.05570000  1.0 0.6277056778
C  C19  1  0.77110000  0.87190000  0.55570000  1.0 0.6277056778
C  C20  1  0.22890000  0.12810000  0.55570000  1.0 0.6277056778
C  C21  1  0.12810000  0.22890000  0.94430000  1.0 0.6277056778
C  C22  1  0.87190000  0.77110000  0.94430000  1.0 0.6277056778
C  C23  1  0.72890000  0.37190000  0.44430000  1.0 0.6277056778
C  C24  1  0.27110000  0.62810000  0.44430000  1.0 0.6277056778
C  C25  1  0.12810000  0.77110000  0.44430000  1.0 0.6277056778
C  C26  1  0.87190000  0.22890000  0.44430000  1.0 0.6277056778
C  C27  1  0.72890000  0.62810000  0.94430000  1.0 0.6277056778
C  C28  1  0.27110000  0.37190000  0.94430000  1.0 0.6277056778
C  C29  1  0.37190000  0.27110000  0.55570000  1.0 0.6277056778
C  C30  1  0.62810000  0.72890000  0.55570000  1.0 0.6277056778
C  C31  1  0.77110000  0.12810000  0.05570000  1.0 0.6277056778
C  C32  1  0.22890000  0.87190000  0.05570000  1.0 0.6277056778
C  C33  1  0.44190000  0.71180000  0.07400000  1.0 -0.0692588292
C  C34  1  0.55810000  0.28820000  0.07400000  1.0 -0.0692588292
C  C35  1  0.78820000  0.94190000  0.57400000  1.0 -0.0692588292
C  C36  1  0.21180000  0.05810000  0.57400000  1.0 -0.0692588292
C  C37  1  0.05810000  0.21180000  0.92600000  1.0 -0.0692588292
C  C38  1  0.94190000  0.78820000  0.92600000  1.0 -0.0692588292
C  C39  1  0.71180000  0.44190000  0.42600000  1.0 -0.0692588292
C  C40  1  0.28820000  0.55810000  0.42600000  1.0 -0.0692588292
C  C41  1  0.05810000  0.78820000  0.42600000  1.0 -0.0692588292
C  C42  1  0.94190000  0.21180000  0.42600000  1.0 -0.0692588292
C  C43  1  0.71180000  0.55810000  0.92600000  1.0 -0.0692588292
C  C44  1  0.28820000  0.44190000  0.92600000  1.0 -0.0692588292
C  C45  1  0.44190000  0.28820000  0.57400000  1.0 -0.0692588292
C  C46  1  0.55810000  0.71180000  0.57400000  1.0 -0.0692588292
C  C47  1  0.78820000  0.05810000  0.07400000  1.0 -0.0692588292
C  C48  1  0.21180000  0.94190000  0.07400000  1.0 -0.0692588292
C  C49  1  0.49930000  0.73470000  0.04550000  1.0 -0.0882736864
C  C50  1  0.50070000  0.26530000  0.04550000  1.0 -0.0882736864
C  C51  1  0.76530000  0.99930000  0.54550000  1.0 -0.0882736864
C  C52  1  0.23470000  0.00070000  0.54550000  1.0 -0.0882736864
C  C53  1  0.00070000  0.23470000  0.95450000  1.0 -0.0882736864
C  C54  1  0.99930000  0.76530000  0.95450000  1.0 -0.0882736864
C  C55  1  0.73470000  0.49930000  0.45450000  1.0 -0.0882736864
C  C56  1  0.26530000  0.50070000  0.45450000  1.0 -0.0882736864
C  C57  1  0.00070000  0.76530000  0.45450000  1.0 -0.0882736864
C  C58  1  0.99930000  0.23470000  0.45450000  1.0 -0.0882736864
C  C59  1  0.73470000  0.50070000  0.95450000  1.0 -0.0882736864
C  C60  1  0.26530000  0.49930000  0.95450000  1.0 -0.0882736864
C  C61  1  0.49930000  0.26530000  0.54550000  1.0 -0.0882736864
C  C62  1  0.50070000  0.73470000  0.54550000  1.0 -0.0882736864
C  C63  1  0.76530000  0.00070000  0.04550000  1.0 -0.0882736864
C  C64  1  0.23470000  0.99930000  0.04550000  1.0 -0.0882736864
C  C65  1  0.45120000  0.67220000  0.11760000  1.0 -0.0882736864
C  C66  1  0.54880000  0.32780000  0.11760000  1.0 -0.0882736864
C  C67  1  0.82780000  0.95120000  0.61760000  1.0 -0.0882736864
C  C68  1  0.17220000  0.04880000  0.61760000  1.0 -0.0882736864
C  C69  1  0.04880000  0.17220000  0.88240000  1.0 -0.0882736864
C  C70  1  0.95120000  0.82780000  0.88240000  1.0 -0.0882736864
C  C71  1  0.67220000  0.45120000  0.38240000  1.0 -0.0882736864
C  C72  1  0.32780000  0.54880000  0.38240000  1.0 -0.0882736864
C  C73  1  0.04880000  0.82780000  0.38240000  1.0 -0.0882736864
C  C74  1  0.95120000  0.17220000  0.38240000  1.0 -0.0882736864
C  C75  1  0.67220000  0.54880000  0.88240000  1.0 -0.0882736864
C  C76  1  0.32780000  0.45120000  0.88240000  1.0 -0.0882736864
C  C77  1  0.45120000  0.32780000  0.61760000  1.0 -0.0882736864
C  C78  1  0.54880000  0.67220000  0.61760000  1.0 -0.0882736864
C  C79  1  0.82780000  0.04880000  0.11760000  1.0 -0.0882736864
C  C80  1  0.17220000  0.95120000  0.11760000  1.0 -0.0882736864
C  C81  1  0.57350000  0.67720000  0.10350000  1.0 -0.0882736864
C  C82  1  0.42650000  0.32280000  0.10350000  1.0 -0.0882736864
C  C83  1  0.82280000  0.07350000  0.60350000  1.0 -0.0849993826
C  C84  1  0.17720000  0.92650000  0.60350000  1.0 -0.0849993826
C  C85  1  0.92650000  0.17720000  0.89650000  1.0 -0.0882736864
C  C86  1  0.07350000  0.82280000  0.89650000  1.0 -0.0849993826
C  C87  1  0.67720000  0.57350000  0.39650000  1.0 -0.0882736864
C  C88  1  0.32280000  0.42650000  0.39650000  1.0 -0.0882736864
C  C89  1  0.92650000  0.82280000  0.39650000  1.0 -0.0882736864
C  C90  1  0.07350000  0.17720000  0.39650000  1.0 -0.0882736864
C  C91  1  0.67720000  0.42650000  0.89650000  1.0 -0.0849993826
C  C92  1  0.32280000  0.57350000  0.89650000  1.0 -0.0849993826
C  C93  1  0.57350000  0.32280000  0.60350000  1.0 -0.0849993826
C  C94  1  0.42650000  0.67720000  0.60350000  1.0 -0.0849993826
C  C95  1  0.82280000  0.92650000  0.10350000  1.0 -0.0882736864
C  C96  1  0.17720000  0.07350000  0.10350000  1.0 -0.0882736864
C  C97  1  0.12520000  0.76200000  0.97200000  1.0 0.6134104504
C  C98  1  0.87480000  0.23800000  0.97200000  1.0 0.6134104504
C  C99  1  0.73800000  0.62520000  0.47200000  1.0 0.6134104504
C  C100  1  0.26200000  0.37480000  0.47200000  1.0 0.6134104504
C  C101  1  0.37480000  0.26200000  0.02800000  1.0 0.6134104504
C  C102  1  0.62520000  0.73800000  0.02800000  1.0 0.6134104504
C  C103  1  0.76200000  0.12520000  0.52800000  1.0 0.6134104504
C  C104  1  0.23800000  0.87480000  0.52800000  1.0 0.6134104504
C  C105  1  0.37480000  0.73800000  0.52800000  1.0 0.6134104504
C  C106  1  0.62520000  0.26200000  0.52800000  1.0 0.6134104504
C  C107  1  0.76200000  0.87480000  0.02800000  1.0 0.6134104504
C  C108  1  0.23800000  0.12520000  0.02800000  1.0 0.6134104504
C  C109  1  0.12520000  0.23800000  0.47200000  1.0 0.6134104504
C  C110  1  0.87480000  0.76200000  0.47200000  1.0 0.6134104504
C  C111  1  0.73800000  0.37480000  0.97200000  1.0 0.6134104504
C  C112  1  0.26200000  0.62520000  0.97200000  1.0 0.6134104504
C  C113  1  0.51710000  0.65310000  0.13280000  1.0 -0.0560740431
C  C114  1  0.48290000  0.34690000  0.13280000  1.0 -0.0560740431
C  C115  1  0.84690000  0.01710000  0.63280000  1.0 -0.0560740431
C  C116  1  0.15310000  0.98290000  0.63280000  1.0 -0.0560740431
C  C117  1  0.98290000  0.15310000  0.86720000  1.0 -0.0548299478
C  C118  1  0.01710000  0.84690000  0.86720000  1.0 -0.0560740431
C  C119  1  0.65310000  0.51710000  0.36720000  1.0 -0.0560740431
C  C120  1  0.34690000  0.48290000  0.36720000  1.0 -0.0560740431
C  C121  1  0.98290000  0.84690000  0.36720000  1.0 -0.0560740431
C  C122  1  0.01710000  0.15310000  0.36720000  1.0 -0.0548299478
C  C123  1  0.65310000  0.48290000  0.86720000  1.0 -0.0560740431
C  C124  1  0.34690000  0.51710000  0.86720000  1.0 -0.0560740431
C  C125  1  0.51710000  0.34690000  0.63280000  1.0 -0.0560740431
C  C126  1  0.48290000  0.65310000  0.63280000  1.0 -0.0560740431
C  C127  1  0.84690000  0.98290000  0.13280000  1.0 -0.0560740431
C  C128  1  0.15310000  0.01710000  0.13280000  1.0 -0.0560740431
C  C129  1  0.52330000  0.60610000  0.17690000  1.0 0.5414040907
C  C130  1  0.47670000  0.39390000  0.17690000  1.0 0.5414040907
C  C131  1  0.89390000  0.02330000  0.67690000  1.0 0.5414040907
C  C132  1  0.10610000  0.97670000  0.67690000  1.0 0.5414040907
C  C133  1  0.97670000  0.10610000  0.82310000  1.0 0.5414040907
C  C134  1  0.02330000  0.89390000  0.82310000  1.0 0.5414040907
C  C135  1  0.60610000  0.52330000  0.32310000  1.0 0.5414040907
C  C136  1  0.39390000  0.47670000  0.32310000  1.0 0.5414040907
C  C137  1  0.97670000  0.89390000  0.32310000  1.0 0.5414040907
C  C138  1  0.02330000  0.10610000  0.32310000  1.0 0.5414040907
C  C139  1  0.60610000  0.47670000  0.82310000  1.0 0.5414040907
C  C140  1  0.39390000  0.52330000  0.82310000  1.0 0.5414040907
C  C141  1  0.52330000  0.39390000  0.67690000  1.0 0.5414040907
C  C142  1  0.47670000  0.60610000  0.67690000  1.0 0.5414040907
C  C143  1  0.89390000  0.97670000  0.17690000  1.0 0.5414040907
C  C144  1  0.10610000  0.02330000  0.17690000  1.0 0.5414040907
O  O1  1  0.32210000  0.70550000  0.08080000  1.0 -0.5441432596
O  O2  1  0.67790000  0.29450000  0.08080000  1.0 -0.5441432596
O  O3  1  0.79450000  0.82210000  0.58080000  1.0 -0.5441432596
O  O4  1  0.20550000  0.17790000  0.58080000  1.0 -0.5441432596
O  O5  1  0.17790000  0.20550000  0.91920000  1.0 -0.5441432596
O  O6  1  0.82210000  0.79450000  0.91920000  1.0 -0.5441432596
O  O7  1  0.70550000  0.32210000  0.41920000  1.0 -0.5441432596
O  O8  1  0.29450000  0.67790000  0.41920000  1.0 -0.5441432596
O  O9  1  0.17790000  0.79450000  0.41920000  1.0 -0.5441432596
O  O10  1  0.82210000  0.20550000  0.41920000  1.0 -0.5441432596
O  O11  1  0.70550000  0.67790000  0.91920000  1.0 -0.5441432596
O  O12  1  0.29450000  0.32210000  0.91920000  1.0 -0.5441432596
O  O13  1  0.32210000  0.29450000  0.58080000  1.0 -0.5441432596
O  O14  1  0.67790000  0.70550000  0.58080000  1.0 -0.5441432596
O  O15  1  0.79450000  0.17790000  0.08080000  1.0 -0.5441432596
O  O16  1  0.20550000  0.82210000  0.08080000  1.0 -0.5441432596
O  O17  1  0.11400000  0.72790000  0.01153000  1.0 -0.5263625497
O  O18  1  0.88600000  0.27210000  0.01153000  1.0 -0.5263625497
O  O19  1  0.77210000  0.61400000  0.51153000  1.0 -0.5263625497
O  O20  1  0.22790000  0.38600000  0.51153000  1.0 -0.5263625497
O  O21  1  0.38600000  0.22790000  0.98847000  1.0 -0.5263625497
O  O22  1  0.61400000  0.77210000  0.98847000  1.0 -0.5263625497
O  O23  1  0.72790000  0.11400000  0.48847000  1.0 -0.5263625497
O  O24  1  0.27210000  0.88600000  0.48847000  1.0 -0.5263625497
O  O25  1  0.38600000  0.77210000  0.48847000  1.0 -0.5263625497
O  O26  1  0.61400000  0.22790000  0.48847000  1.0 -0.5263625497
O  O27  1  0.72790000  0.88600000  0.98847000  1.0 -0.5263625497
O  O28  1  0.27210000  0.11400000  0.98847000  1.0 -0.5263625497
O  O29  1  0.11400000  0.27210000  0.51153000  1.0 -0.5263625497
O  O30  1  0.88600000  0.72790000  0.51153000  1.0 -0.5263625497
O  O31  1  0.77210000  0.38600000  0.01153000  1.0 -0.5263625497
O  O32  1  0.22790000  0.61400000  0.01153000  1.0 -0.5263625497
O  O33  1  0.18290000  0.78180000  0.95640000  1.0 -0.7371487973
O  O34  1  0.81710000  0.21820000  0.95640000  1.0 -0.7371487973
O  O35  1  0.71820000  0.68290000  0.45640000  1.0 -0.7371487973
O  O36  1  0.28180000  0.31710000  0.45640000  1.0 -0.7371487973
O  O37  1  0.31710000  0.28180000  0.04360000  1.0 -0.7371487973
O  O38  1  0.68290000  0.71820000  0.04360000  1.0 -0.7371487973
O  O39  1  0.78180000  0.18290000  0.54360000  1.0 -0.7371487973
O  O40  1  0.21820000  0.81710000  0.54360000  1.0 -0.7371487973
O  O41  1  0.31710000  0.71820000  0.54360000  1.0 -0.7371487973
O  O42  1  0.68290000  0.28180000  0.54360000  1.0 -0.7371487973
O  O43  1  0.78180000  0.81710000  0.04360000  1.0 -0.7371487973
O  O44  1  0.21820000  0.18290000  0.04360000  1.0 -0.7371487973
O  O45  1  0.18290000  0.21820000  0.45640000  1.0 -0.7371487973
O  O46  1  0.81710000  0.78180000  0.45640000  1.0 -0.7371487973
O  O47  1  0.71820000  0.31710000  0.95640000  1.0 -0.7371487973
O  O48  1  0.28180000  0.68290000  0.95640000  1.0 -0.7371487973
O  O49  1  0.36510000  0.76680000  0.01650000  1.0 -0.7371487973
O  O50  1  0.63490000  0.23320000  0.01650000  1.0 -0.7371487973
O  O51  1  0.73320000  0.86510000  0.51650000  1.0 -0.7371487973
O  O52  1  0.26680000  0.13490000  0.51650000  1.0 -0.7371487973
O  O53  1  0.13490000  0.26680000  0.98350000  1.0 -0.7371487973
O  O54  1  0.86510000  0.73320000  0.98350000  1.0 -0.7371487973
O  O55  1  0.76680000  0.36510000  0.48350000  1.0 -0.7371487973
O  O56  1  0.23320000  0.63490000  0.48350000  1.0 -0.7371487973
O  O57  1  0.13490000  0.73320000  0.48350000  1.0 -0.7371487973
O  O58  1  0.86510000  0.26680000  0.48350000  1.0 -0.7371487973
O  O59  1  0.76680000  0.63490000  0.98350000  1.0 -0.7371487973
O  O60  1  0.23320000  0.36510000  0.98350000  1.0 -0.7371487973
O  O61  1  0.36510000  0.23320000  0.51650000  1.0 -0.7371487973
O  O62  1  0.63490000  0.76680000  0.51650000  1.0 -0.7371487973
O  O63  1  0.73320000  0.13490000  0.01650000  1.0 -0.7371487973
O  O64  1  0.26680000  0.86510000  0.01650000  1.0 -0.7371487973
O  O65  1  0.47340000  0.58560000  0.20000000  1.0 -0.4730781951
O  O66  1  0.52660000  0.41440000  0.20000000  1.0 -0.4730781951
O  O67  1  0.91440000  0.97340000  0.70000000  1.0 -0.4730781951
O  O68  1  0.08560000  0.02660000  0.70000000  1.0 -0.4730781951
O  O69  1  0.02660000  0.08560000  0.80000000  1.0 -0.4730781951
O  O70  1  0.97340000  0.91440000  0.80000000  1.0 -0.4730781951
O  O71  1  0.58560000  0.47340000  0.30000000  1.0 -0.4730781951
O  O72  1  0.41440000  0.52660000  0.30000000  1.0 -0.4730781951
O  O73  1  0.02660000  0.91440000  0.30000000  1.0 -0.4730781951
O  O74  1  0.97340000  0.08560000  0.30000000  1.0 -0.4730781951
O  O75  1  0.58560000  0.52660000  0.80000000  1.0 -0.4730781951
O  O76  1  0.41440000  0.47340000  0.80000000  1.0 -0.4730781951
O  O77  1  0.47340000  0.41440000  0.70000000  1.0 -0.4730781951
O  O78  1  0.52660000  0.58560000  0.70000000  1.0 -0.4730781951
O  O79  1  0.91440000  0.02660000  0.20000000  1.0 -0.4730781951
O  O80  1  0.08560000  0.97340000  0.20000000  1.0 -0.4730781951
O  O81  1  0.58430000  0.58860000  0.18920000  1.0 -0.514560029
O  O82  1  0.41570000  0.41140000  0.18920000  1.0 -0.514560029
O  O83  1  0.91140000  0.08430000  0.68920000  1.0 -0.514560029
O  O84  1  0.08860000  0.91570000  0.68920000  1.0 -0.514560029
O  O85  1  0.91570000  0.08860000  0.81080000  1.0 -0.514560029
O  O86  1  0.08430000  0.91140000  0.81080000  1.0 -0.514560029
O  O87  1  0.58860000  0.58430000  0.31080000  1.0 -0.514560029
O  O88  1  0.41140000  0.41570000  0.31080000  1.0 -0.514560029
O  O89  1  0.91570000  0.91140000  0.31080000  1.0 -0.514560029
O  O90  1  0.08430000  0.08860000  0.31080000  1.0 -0.514560029
O  O91  1  0.58860000  0.41570000  0.81080000  1.0 -0.514560029
O  O92  1  0.41140000  0.58430000  0.81080000  1.0 -0.514560029
O  O93  1  0.58430000  0.41140000  0.68920000  1.0 -0.514560029
O  O94  1  0.41570000  0.58860000  0.68920000  1.0 -0.514560029
O  O95  1  0.91140000  0.91570000  0.18920000  1.0 -0.514560029
O  O96  1  0.08860000  0.08430000  0.18920000  1.0 -0.514560029
