# DDEC6 charges by PACMAN v1.1 (https://github.com/mtap-research/PACMAN-charge/)
data_TAZLIR_ASR_pacman
_symmetry_space_group_name_H-M   'P 1'
_cell_length_a   19.48760000
_cell_length_b   19.48760000
_cell_length_c   26.37700000
_cell_angle_alpha   90.00000000
_cell_angle_beta   90.00000000
_cell_angle_gamma   90.00000000
_symmetry_Int_Tables_number   1
_chemical_formula_structural   Sm2Cd3H12(C3O2)12
_chemical_formula_sum   'Sm8 Cd12 H48 C144 O96'
_cell_volume   10017.10238853
_cell_formula_units_Z   4
loop_
 _symmetry_equiv_pos_site_id
 _symmetry_equiv_pos_as_xyz
  1  'x, y, z'
loop_
 _atom_site_type_symbol
 _atom_site_label
 _atom_site_symmetry_multiplicity
 _atom_site_fract_x
 _atom_site_fract_y
 _atom_site_fract_z
 _atom_site_occupancy
 _atom_site_charge
Sm  Sm1  1  0.80899000  0.69101000  0.94713000  1.0 2.1426453916
Sm  Sm2  1  0.19101000  0.30899000  0.94713000  1.0 2.1426453916
Sm  Sm3  1  0.80899000  0.30899000  0.44713000  1.0 2.1426453916
Sm  Sm4  1  0.19101000  0.69101000  0.44713000  1.0 2.1426453916
Sm  Sm5  1  0.69101000  0.19101000  0.05287000  1.0 2.1426453916
Sm  Sm6  1  0.30899000  0.80899000  0.05287000  1.0 2.1426453916
Sm  Sm7  1  0.69101000  0.80899000  0.55287000  1.0 2.1426453916
Sm  Sm8  1  0.30899000  0.19101000  0.55287000  1.0 2.1426453916
Cd  Cd1  1  0.72010000  0.77990000  0.05393000  1.0 0.9799506454
Cd  Cd2  1  0.27990000  0.22010000  0.05393000  1.0 0.9799506454
Cd  Cd3  1  0.72010000  0.22010000  0.55393000  1.0 0.9799506454
Cd  Cd4  1  0.27990000  0.77990000  0.55393000  1.0 0.9799506454
Cd  Cd5  1  0.77990000  0.27990000  0.94607000  1.0 0.9799506454
Cd  Cd6  1  0.22010000  0.72010000  0.94607000  1.0 0.9799506454
Cd  Cd7  1  0.77990000  0.72010000  0.44607000  1.0 0.9799506454
Cd  Cd8  1  0.22010000  0.27990000  0.44607000  1.0 0.9799506454
Cd  Cd9  1  0.50000000  0.50000000  0.25000000  1.0 0.9740678696
Cd  Cd10  1  0.00000000  0.00000000  0.75000000  1.0 0.9799506454
Cd  Cd11  1  0.00000000  0.00000000  0.25000000  1.0 0.9799506454
Cd  Cd12  1  0.50000000  0.50000000  0.75000000  1.0 0.9740678696
H  H1  1  0.76270000  0.49880000  0.01920000  1.0 0.1086429553
H  H2  1  0.23730000  0.50120000  0.01920000  1.0 0.1086429553
H  H3  1  0.00120000  0.26270000  0.51920000  1.0 0.1086429553
H  H4  1  0.99880000  0.73730000  0.51920000  1.0 0.1086429553
H  H5  1  0.73730000  0.99880000  0.98080000  1.0 0.1086429553
H  H6  1  0.26270000  0.00120000  0.98080000  1.0 0.1086429553
H  H7  1  0.49880000  0.76270000  0.48080000  1.0 0.1086429553
H  H8  1  0.50120000  0.23730000  0.48080000  1.0 0.1086429553
H  H9  1  0.73730000  0.00120000  0.48080000  1.0 0.1086429553
H  H10  1  0.26270000  0.99880000  0.48080000  1.0 0.1086429553
H  H11  1  0.49880000  0.23730000  0.98080000  1.0 0.1086429553
H  H12  1  0.50120000  0.76270000  0.98080000  1.0 0.1086429553
H  H13  1  0.76270000  0.50120000  0.51920000  1.0 0.1086429553
H  H14  1  0.23730000  0.49880000  0.51920000  1.0 0.1086429553
H  H15  1  0.00120000  0.73730000  0.01920000  1.0 0.1086429553
H  H16  1  0.99880000  0.26270000  0.01920000  1.0 0.1086429553
H  H17  1  0.66000000  0.58290000  0.13490000  1.0 0.1247606007
H  H18  1  0.34000000  0.41710000  0.13490000  1.0 0.1254156239
H  H19  1  0.91710000  0.16000000  0.63490000  1.0 0.1254156239
H  H20  1  0.08290000  0.84000000  0.63490000  1.0 0.1254156239
H  H21  1  0.84000000  0.08290000  0.86510000  1.0 0.1254156239
H  H22  1  0.16000000  0.91710000  0.86510000  1.0 0.1254156239
H  H23  1  0.58290000  0.66000000  0.36510000  1.0 0.1247606007
H  H24  1  0.41710000  0.34000000  0.36510000  1.0 0.1254156239
H  H25  1  0.84000000  0.91710000  0.36510000  1.0 0.1254156239
H  H26  1  0.16000000  0.08290000  0.36510000  1.0 0.1254156239
H  H27  1  0.58290000  0.34000000  0.86510000  1.0 0.1254156239
H  H28  1  0.41710000  0.66000000  0.86510000  1.0 0.1254156239
H  H29  1  0.66000000  0.41710000  0.63490000  1.0 0.1254156239
H  H30  1  0.34000000  0.58290000  0.63490000  1.0 0.1254156239
H  H31  1  0.91710000  0.84000000  0.13490000  1.0 0.1254156239
H  H32  1  0.08290000  0.16000000  0.13490000  1.0 0.1254156239
H  H33  1  0.65450000  0.37960000  0.11430000  1.0 0.1086429553
H  H34  1  0.34550000  0.62040000  0.11430000  1.0 0.1086429553
H  H35  1  0.12040000  0.15450000  0.61430000  1.0 0.1086429553
H  H36  1  0.87960000  0.84550000  0.61430000  1.0 0.1086429553
H  H37  1  0.84550000  0.87960000  0.88570000  1.0 0.1086429553
H  H38  1  0.15450000  0.12040000  0.88570000  1.0 0.1086429553
H  H39  1  0.37960000  0.65450000  0.38570000  1.0 0.1086429553
H  H40  1  0.62040000  0.34550000  0.38570000  1.0 0.1086429553
H  H41  1  0.84550000  0.12040000  0.38570000  1.0 0.1086429553
H  H42  1  0.15450000  0.87960000  0.38570000  1.0 0.1086429553
H  H43  1  0.37960000  0.34550000  0.88570000  1.0 0.1086429553
H  H44  1  0.62040000  0.65450000  0.88570000  1.0 0.1086429553
H  H45  1  0.65450000  0.62040000  0.61430000  1.0 0.1086429553
H  H46  1  0.34550000  0.37960000  0.61430000  1.0 0.1086429553
H  H47  1  0.12040000  0.84550000  0.11430000  1.0 0.1086429553
H  H48  1  0.87960000  0.15450000  0.11430000  1.0 0.1086429553
C  C1  1  0.73360000  0.62140000  0.05640000  1.0 0.6145288376
C  C2  1  0.26640000  0.37860000  0.05640000  1.0 0.6145288376
C  C3  1  0.87860000  0.23360000  0.55640000  1.0 0.6153672365
C  C4  1  0.12140000  0.76640000  0.55640000  1.0 0.6145288376
C  C5  1  0.76640000  0.12140000  0.94360000  1.0 0.6145288376
C  C6  1  0.23360000  0.87860000  0.94360000  1.0 0.6153672365
C  C7  1  0.62140000  0.73360000  0.44360000  1.0 0.6145288376
C  C8  1  0.37860000  0.26640000  0.44360000  1.0 0.6145288376
C  C9  1  0.76640000  0.87860000  0.44360000  1.0 0.6145288376
C  C10  1  0.23360000  0.12140000  0.44360000  1.0 0.6153672365
C  C11  1  0.62140000  0.26640000  0.94360000  1.0 0.6145288376
C  C12  1  0.37860000  0.73360000  0.94360000  1.0 0.6145288376
C  C13  1  0.73360000  0.37860000  0.55640000  1.0 0.6145288376
C  C14  1  0.26640000  0.62140000  0.55640000  1.0 0.6145288376
C  C15  1  0.87860000  0.76640000  0.05640000  1.0 0.6145288376
C  C16  1  0.12140000  0.23360000  0.05640000  1.0 0.6153672365
C  C17  1  0.71200000  0.42970000  0.06190000  1.0 -0.058147803
C  C18  1  0.28800000  0.57030000  0.06190000  1.0 -0.058147803
C  C19  1  0.07030000  0.21200000  0.56190000  1.0 -0.058147803
C  C20  1  0.92970000  0.78800000  0.56190000  1.0 -0.058147803
C  C21  1  0.78800000  0.92970000  0.93810000  1.0 -0.058147803
C  C22  1  0.21200000  0.07030000  0.93810000  1.0 -0.0548154237
C  C23  1  0.42970000  0.71200000  0.43810000  1.0 -0.058147803
C  C24  1  0.57030000  0.28800000  0.43810000  1.0 -0.058147803
C  C25  1  0.78800000  0.07030000  0.43810000  1.0 -0.058147803
C  C26  1  0.21200000  0.92970000  0.43810000  1.0 -0.058147803
C  C27  1  0.42970000  0.28800000  0.93810000  1.0 -0.058147803
C  C28  1  0.57030000  0.71200000  0.93810000  1.0 -0.0548154237
C  C29  1  0.71200000  0.57030000  0.56190000  1.0 -0.0548154237
C  C30  1  0.28800000  0.42970000  0.56190000  1.0 -0.058147803
C  C31  1  0.07030000  0.78800000  0.06190000  1.0 -0.058147803
C  C32  1  0.92970000  0.21200000  0.06190000  1.0 -0.058147803
C  C33  1  0.60240000  0.47500000  0.17550000  1.0 0.5272893524
C  C34  1  0.39760000  0.52500000  0.17550000  1.0 0.5272893524
C  C35  1  0.02500000  0.10240000  0.67550000  1.0 0.5272893524
C  C36  1  0.97500000  0.89760000  0.67550000  1.0 0.5272893524
C  C37  1  0.89760000  0.97500000  0.82450000  1.0 0.5272893524
C  C38  1  0.10240000  0.02500000  0.82450000  1.0 0.5272893524
C  C39  1  0.47500000  0.60240000  0.32450000  1.0 0.5272893524
C  C40  1  0.52500000  0.39760000  0.32450000  1.0 0.5272893524
C  C41  1  0.89760000  0.02500000  0.32450000  1.0 0.5272893524
C  C42  1  0.10240000  0.97500000  0.32450000  1.0 0.5272893524
C  C43  1  0.47500000  0.39760000  0.82450000  1.0 0.5272893524
C  C44  1  0.52500000  0.60240000  0.82450000  1.0 0.5272893524
C  C45  1  0.60240000  0.52500000  0.67550000  1.0 0.5272893524
C  C46  1  0.39760000  0.47500000  0.67550000  1.0 0.5272893524
C  C47  1  0.02500000  0.89760000  0.17550000  1.0 0.5272893524
C  C48  1  0.97500000  0.10240000  0.17550000  1.0 0.5272893524
C  C49  1  0.71530000  0.55090000  0.07460000  1.0 -0.058147803
C  C50  1  0.28470000  0.44910000  0.07460000  1.0 -0.058147803
C  C51  1  0.94910000  0.21530000  0.57460000  1.0 -0.058147803
C  C52  1  0.05090000  0.78470000  0.57460000  1.0 -0.058147803
C  C53  1  0.78470000  0.05090000  0.92540000  1.0 -0.058147803
C  C54  1  0.21530000  0.94910000  0.92540000  1.0 -0.058147803
C  C55  1  0.55090000  0.71530000  0.42540000  1.0 -0.058147803
C  C56  1  0.44910000  0.28470000  0.42540000  1.0 -0.058147803
C  C57  1  0.78470000  0.94910000  0.42540000  1.0 -0.058147803
C  C58  1  0.21530000  0.05090000  0.42540000  1.0 -0.058147803
C  C59  1  0.55090000  0.28470000  0.92540000  1.0 -0.058147803
C  C60  1  0.44910000  0.71530000  0.92540000  1.0 -0.058147803
C  C61  1  0.71530000  0.44910000  0.57460000  1.0 -0.058147803
C  C62  1  0.28470000  0.55090000  0.57460000  1.0 -0.058147803
C  C63  1  0.94910000  0.78470000  0.07460000  1.0 -0.058147803
C  C64  1  0.05090000  0.21530000  0.07460000  1.0 -0.058147803
C  C65  1  0.65120000  0.48040000  0.13160000  1.0 -0.0317600269
C  C66  1  0.34880000  0.51960000  0.13160000  1.0 -0.0317600269
C  C67  1  0.01960000  0.15120000  0.63160000  1.0 -0.0317600269
C  C68  1  0.98040000  0.84880000  0.63160000  1.0 -0.0317600269
C  C69  1  0.84880000  0.98040000  0.86840000  1.0 -0.0317600269
C  C70  1  0.15120000  0.01960000  0.86840000  1.0 -0.0317600269
C  C71  1  0.48040000  0.65120000  0.36840000  1.0 -0.0317600269
C  C72  1  0.51960000  0.34880000  0.36840000  1.0 -0.0317600269
C  C73  1  0.84880000  0.01960000  0.36840000  1.0 -0.0317600269
C  C74  1  0.15120000  0.98040000  0.36840000  1.0 -0.0317600269
C  C75  1  0.48040000  0.34880000  0.86840000  1.0 -0.0317600269
C  C76  1  0.51960000  0.65120000  0.86840000  1.0 -0.0317600269
C  C77  1  0.65120000  0.51960000  0.63160000  1.0 -0.0317600269
C  C78  1  0.34880000  0.48040000  0.63160000  1.0 -0.0317600269
C  C79  1  0.01960000  0.84880000  0.13160000  1.0 -0.0317600269
C  C80  1  0.98040000  0.15120000  0.13160000  1.0 -0.0317600269
C  C81  1  0.73450000  0.49410000  0.04740000  1.0 -0.1085628583
C  C82  1  0.26550000  0.50590000  0.04740000  1.0 -0.1085628583
C  C83  1  0.00590000  0.23450000  0.54740000  1.0 -0.1085628583
C  C84  1  0.99410000  0.76550000  0.54740000  1.0 -0.1085628583
C  C85  1  0.76550000  0.99410000  0.95260000  1.0 -0.1085628583
C  C86  1  0.23450000  0.00590000  0.95260000  1.0 -0.1085628583
C  C87  1  0.49410000  0.73450000  0.45260000  1.0 -0.1085628583
C  C88  1  0.50590000  0.26550000  0.45260000  1.0 -0.1085628583
C  C89  1  0.76550000  0.00590000  0.45260000  1.0 -0.1085628583
C  C90  1  0.23450000  0.99410000  0.45260000  1.0 -0.1085628583
C  C91  1  0.49410000  0.26550000  0.95260000  1.0 -0.1085628583
C  C92  1  0.50590000  0.73450000  0.95260000  1.0 -0.1085628583
C  C93  1  0.73450000  0.50590000  0.54740000  1.0 -0.1085628583
C  C94  1  0.26550000  0.49410000  0.54740000  1.0 -0.1085628583
C  C95  1  0.00590000  0.76550000  0.04740000  1.0 -0.1085628583
C  C96  1  0.99410000  0.23450000  0.04740000  1.0 -0.1085628583
C  C97  1  0.67320000  0.54420000  0.11680000  1.0 -0.0916912332
C  C98  1  0.32680000  0.45580000  0.11680000  1.0 -0.0916912332
C  C99  1  0.95580000  0.17320000  0.61680000  1.0 -0.0916912332
C  C100  1  0.04420000  0.82680000  0.61680000  1.0 -0.0916912332
C  C101  1  0.82680000  0.04420000  0.88320000  1.0 -0.0916912332
C  C102  1  0.17320000  0.95580000  0.88320000  1.0 -0.0916912332
C  C103  1  0.54420000  0.67320000  0.38320000  1.0 -0.0916912332
C  C104  1  0.45580000  0.32680000  0.38320000  1.0 -0.0916912332
C  C105  1  0.82680000  0.95580000  0.38320000  1.0 -0.0916912332
C  C106  1  0.17320000  0.04420000  0.38320000  1.0 -0.0916912332
C  C107  1  0.54420000  0.32680000  0.88320000  1.0 -0.0916912332
C  C108  1  0.45580000  0.67320000  0.88320000  1.0 -0.0916912332
C  C109  1  0.67320000  0.45580000  0.61680000  1.0 -0.0916912332
C  C110  1  0.32680000  0.54420000  0.61680000  1.0 -0.0916912332
C  C111  1  0.95580000  0.82680000  0.11680000  1.0 -0.0916912332
C  C112  1  0.04420000  0.17320000  0.11680000  1.0 -0.0916912332
C  C113  1  0.66990000  0.42270000  0.10440000  1.0 -0.1001072316
C  C114  1  0.33010000  0.57730000  0.10440000  1.0 -0.1001072316
C  C115  1  0.07730000  0.16990000  0.60440000  1.0 -0.1001072316
C  C116  1  0.92270000  0.83010000  0.60440000  1.0 -0.1001072316
C  C117  1  0.83010000  0.92270000  0.89560000  1.0 -0.1001072316
C  C118  1  0.16990000  0.07730000  0.89560000  1.0 -0.1001072316
C  C119  1  0.42270000  0.66990000  0.39560000  1.0 -0.1001072316
C  C120  1  0.57730000  0.33010000  0.39560000  1.0 -0.1001072316
C  C121  1  0.83010000  0.07730000  0.39560000  1.0 -0.1001072316
C  C122  1  0.16990000  0.92270000  0.39560000  1.0 -0.1001072316
C  C123  1  0.42270000  0.33010000  0.89560000  1.0 -0.1001072316
C  C124  1  0.57730000  0.66990000  0.89560000  1.0 -0.1001072316
C  C125  1  0.66990000  0.57730000  0.60440000  1.0 -0.1001072316
C  C126  1  0.33010000  0.42270000  0.60440000  1.0 -0.1001072316
C  C127  1  0.07730000  0.83010000  0.10440000  1.0 -0.1001072316
C  C128  1  0.92270000  0.16990000  0.10440000  1.0 -0.1001072316
C  C129  1  0.73050000  0.36820000  0.03030000  1.0 0.6031088559
C  C130  1  0.26950000  0.63180000  0.03030000  1.0 0.6031088559
C  C131  1  0.13180000  0.23050000  0.53030000  1.0 0.6031088559
C  C132  1  0.86820000  0.76950000  0.53030000  1.0 0.6031088559
C  C133  1  0.76950000  0.86820000  0.96970000  1.0 0.6031088559
C  C134  1  0.23050000  0.13180000  0.96970000  1.0 0.6031088559
C  C135  1  0.36820000  0.73050000  0.46970000  1.0 0.6031088559
C  C136  1  0.63180000  0.26950000  0.46970000  1.0 0.6031088559
C  C137  1  0.76950000  0.13180000  0.46970000  1.0 0.6031088559
C  C138  1  0.23050000  0.86820000  0.46970000  1.0 0.6031088559
C  C139  1  0.36820000  0.26950000  0.96970000  1.0 0.6031088559
C  C140  1  0.63180000  0.73050000  0.96970000  1.0 0.6031088559
C  C141  1  0.73050000  0.63180000  0.53030000  1.0 0.6031088559
C  C142  1  0.26950000  0.36820000  0.53030000  1.0 0.6031088559
C  C143  1  0.13180000  0.76950000  0.03030000  1.0 0.6031088559
C  C144  1  0.86820000  0.23050000  0.03030000  1.0 0.6031088559
O  O1  1  0.77090000  0.62670000  0.01750000  1.0 -0.7463673921
O  O2  1  0.22910000  0.37330000  0.01750000  1.0 -0.7463673921
O  O3  1  0.87330000  0.27090000  0.51750000  1.0 -0.7463673921
O  O4  1  0.12670000  0.72910000  0.51750000  1.0 -0.7463673921
O  O5  1  0.72910000  0.12670000  0.98250000  1.0 -0.7463673921
O  O6  1  0.27090000  0.87330000  0.98250000  1.0 -0.7463673921
O  O7  1  0.62670000  0.77090000  0.48250000  1.0 -0.7463673921
O  O8  1  0.37330000  0.22910000  0.48250000  1.0 -0.7463673921
O  O9  1  0.72910000  0.87330000  0.48250000  1.0 -0.7463673921
O  O10  1  0.27090000  0.12670000  0.48250000  1.0 -0.7463673921
O  O11  1  0.62670000  0.22910000  0.98250000  1.0 -0.7463673921
O  O12  1  0.37330000  0.77090000  0.98250000  1.0 -0.7463673921
O  O13  1  0.77090000  0.37330000  0.51750000  1.0 -0.7463673921
O  O14  1  0.22910000  0.62670000  0.51750000  1.0 -0.7463673921
O  O15  1  0.87330000  0.72910000  0.01750000  1.0 -0.7463673921
O  O16  1  0.12670000  0.27090000  0.01750000  1.0 -0.7463673921
O  O17  1  0.71030000  0.31230000  0.04400000  1.0 -0.677187779
O  O18  1  0.28970000  0.68770000  0.04400000  1.0 -0.677187779
O  O19  1  0.18770000  0.21030000  0.54400000  1.0 -0.677187779
O  O20  1  0.81230000  0.78970000  0.54400000  1.0 -0.677187779
O  O21  1  0.78970000  0.81230000  0.95600000  1.0 -0.677187779
O  O22  1  0.21030000  0.18770000  0.95600000  1.0 -0.677187779
O  O23  1  0.31230000  0.71030000  0.45600000  1.0 -0.677187779
O  O24  1  0.68770000  0.28970000  0.45600000  1.0 -0.677187779
O  O25  1  0.78970000  0.18770000  0.45600000  1.0 -0.677187779
O  O26  1  0.21030000  0.81230000  0.45600000  1.0 -0.677187779
O  O27  1  0.31230000  0.28970000  0.95600000  1.0 -0.677187779
O  O28  1  0.68770000  0.71030000  0.95600000  1.0 -0.677187779
O  O29  1  0.71030000  0.68770000  0.54400000  1.0 -0.677187779
O  O30  1  0.28970000  0.31230000  0.54400000  1.0 -0.677187779
O  O31  1  0.18770000  0.78970000  0.04400000  1.0 -0.677187779
O  O32  1  0.81230000  0.21030000  0.04400000  1.0 -0.677187779
O  O33  1  0.58650000  0.52860000  0.19890000  1.0 -0.4902645989
O  O34  1  0.41350000  0.47140000  0.19890000  1.0 -0.4902645989
O  O35  1  0.97140000  0.08650000  0.69890000  1.0 -0.4902645989
O  O36  1  0.02860000  0.91350000  0.69890000  1.0 -0.4902645989
O  O37  1  0.91350000  0.02860000  0.80110000  1.0 -0.4902645989
O  O38  1  0.08650000  0.97140000  0.80110000  1.0 -0.4902645989
O  O39  1  0.52860000  0.58650000  0.30110000  1.0 -0.4902645989
O  O40  1  0.47140000  0.41350000  0.30110000  1.0 -0.4902645989
O  O41  1  0.91350000  0.97140000  0.30110000  1.0 -0.4902645989
O  O42  1  0.08650000  0.02860000  0.30110000  1.0 -0.4902645989
O  O43  1  0.52860000  0.41350000  0.80110000  1.0 -0.4902645989
O  O44  1  0.47140000  0.58650000  0.80110000  1.0 -0.4902645989
O  O45  1  0.58650000  0.47140000  0.69890000  1.0 -0.4902645989
O  O46  1  0.41350000  0.52860000  0.69890000  1.0 -0.4902645989
O  O47  1  0.97140000  0.91350000  0.19890000  1.0 -0.4902645989
O  O48  1  0.02860000  0.08650000  0.19890000  1.0 -0.4902645989
O  O49  1  0.57720000  0.41770000  0.18610000  1.0 -0.4902645989
O  O50  1  0.42280000  0.58230000  0.18610000  1.0 -0.4833021008
O  O51  1  0.08230000  0.07720000  0.68610000  1.0 -0.4902645989
O  O52  1  0.91770000  0.92280000  0.68610000  1.0 -0.4833021008
O  O53  1  0.92280000  0.91770000  0.81390000  1.0 -0.4833021008
O  O54  1  0.07720000  0.08230000  0.81390000  1.0 -0.4902645989
O  O55  1  0.41770000  0.57720000  0.31390000  1.0 -0.4902645989
O  O56  1  0.58230000  0.42280000  0.31390000  1.0 -0.4833021008
O  O57  1  0.92280000  0.08230000  0.31390000  1.0 -0.4833021008
O  O58  1  0.07720000  0.91770000  0.31390000  1.0 -0.4902645989
O  O59  1  0.41770000  0.42280000  0.81390000  1.0 -0.4902645989
O  O60  1  0.58230000  0.57720000  0.81390000  1.0 -0.4902645989
O  O61  1  0.57720000  0.58230000  0.68610000  1.0 -0.4902645989
O  O62  1  0.42280000  0.41770000  0.68610000  1.0 -0.4902645989
O  O63  1  0.08230000  0.92280000  0.18610000  1.0 -0.4833021008
O  O64  1  0.91770000  0.07720000  0.18610000  1.0 -0.4833021008
O  O65  1  0.71230000  0.67130000  0.08020000  1.0 -0.5222381121
O  O66  1  0.28770000  0.32870000  0.08020000  1.0 -0.5222381121
O  O67  1  0.82870000  0.21230000  0.58020000  1.0 -0.5222381121
O  O68  1  0.17130000  0.78770000  0.58020000  1.0 -0.5222381121
O  O69  1  0.78770000  0.17130000  0.91980000  1.0 -0.5222381121
O  O70  1  0.21230000  0.82870000  0.91980000  1.0 -0.5222381121
O  O71  1  0.67130000  0.71230000  0.41980000  1.0 -0.5222381121
O  O72  1  0.32870000  0.28770000  0.41980000  1.0 -0.5222381121
O  O73  1  0.78770000  0.82870000  0.41980000  1.0 -0.5222381121
O  O74  1  0.21230000  0.17130000  0.41980000  1.0 -0.5222381121
O  O75  1  0.67130000  0.28770000  0.91980000  1.0 -0.5222381121
O  O76  1  0.32870000  0.71230000  0.91980000  1.0 -0.5222381121
O  O77  1  0.71230000  0.32870000  0.58020000  1.0 -0.5222381121
O  O78  1  0.28770000  0.67130000  0.58020000  1.0 -0.5222381121
O  O79  1  0.82870000  0.78770000  0.08020000  1.0 -0.5222381121
O  O80  1  0.17130000  0.21230000  0.08020000  1.0 -0.5222381121
O  O81  1  0.76320000  0.37640000  0.99020000  1.0 -0.5222381121
O  O82  1  0.23680000  0.62360000  0.99020000  1.0 -0.5222381121
O  O83  1  0.12360000  0.26320000  0.49020000  1.0 -0.5222381121
O  O84  1  0.87640000  0.73680000  0.49020000  1.0 -0.5222381121
O  O85  1  0.73680000  0.87640000  0.00980000  1.0 -0.5222381121
O  O86  1  0.26320000  0.12360000  0.00980000  1.0 -0.5222381121
O  O87  1  0.37640000  0.76320000  0.50980000  1.0 -0.5222381121
O  O88  1  0.62360000  0.23680000  0.50980000  1.0 -0.5222381121
O  O89  1  0.73680000  0.12360000  0.50980000  1.0 -0.5222381121
O  O90  1  0.26320000  0.87640000  0.50980000  1.0 -0.5222381121
O  O91  1  0.37640000  0.23680000  0.00980000  1.0 -0.5222381121
O  O92  1  0.62360000  0.76320000  0.00980000  1.0 -0.5222381121
O  O93  1  0.76320000  0.62360000  0.49020000  1.0 -0.5222381121
O  O94  1  0.23680000  0.37640000  0.49020000  1.0 -0.5222381121
O  O95  1  0.12360000  0.73680000  0.99020000  1.0 -0.5222381121
O  O96  1  0.87640000  0.26320000  0.99020000  1.0 -0.5222381121
