# DDEC6 charges by PACMAN v1.1 (https://github.com/mtap-research/PACMAN-charge/)
data_TAZSAP02_ASR_pacman
_symmetry_space_group_name_H-M   'P 1'
_cell_length_a   7.87700000
_cell_length_b   12.06000000
_cell_length_c   12.27500000
_cell_angle_alpha   112.12000000
_cell_angle_beta   89.98000000
_cell_angle_gamma   99.95000000
_symmetry_Int_Tables_number   1
_chemical_formula_structural   PrH5(CO)6
_chemical_formula_sum   'Pr4 H20 C24 O24'
_cell_volume   1061.32897298
_cell_formula_units_Z   4
loop_
 _symmetry_equiv_pos_site_id
 _symmetry_equiv_pos_as_xyz
  1  'x, y, z'
loop_
 _atom_site_type_symbol
 _atom_site_label
 _atom_site_symmetry_multiplicity
 _atom_site_fract_x
 _atom_site_fract_y
 _atom_site_fract_z
 _atom_site_occupancy
 _atom_site_charge
Pr  Pr1  1  0.99088000  0.14557000  0.85426000  1.0 2.0872963389
Pr  Pr2  1  0.00912000  0.85443000  0.14574000  1.0 2.0872963389
Pr  Pr3  1  0.49083000  0.14516000  0.75199000  1.0 2.0953166207
Pr  Pr4  1  0.50917000  0.85484000  0.24801000  1.0 2.0953166207
H  H1  1  0.53340000  0.10140000  0.15580000  1.0 0.1393874233
H  H2  1  0.46660000  0.89860000  0.84420000  1.0 0.1393874233
H  H3  1  0.56550000  0.24030000  0.17870000  1.0 0.1339151954
H  H4  1  0.43450000  0.75970000  0.82130000  1.0 0.1339151954
H  H5  1  0.86730000  0.24750000  0.20750000  1.0 0.1339151954
H  H6  1  0.13270000  0.75250000  0.79250000  1.0 0.1339151954
H  H7  1  0.75880000  0.22120000  0.30470000  1.0 0.1339151954
H  H8  1  0.24120000  0.77880000  0.69530000  1.0 0.1339151954
H  H9  1  0.62770000  0.75290000  0.52610000  1.0 0.1339151954
H  H10  1  0.37230000  0.24710000  0.47390000  1.0 0.1339151954
H  H11  1  0.73490000  0.77610000  0.64260000  1.0 0.1339151954
H  H12  1  0.26510000  0.22390000  0.35740000  1.0 0.1339151954
H  H13  1  0.12080000  0.45020000  0.84920000  1.0 0.1668000987
H  H14  1  0.87920000  0.54980000  0.15080000  1.0 0.1668000987
H  H15  1  0.28910000  0.52390000  0.82310000  1.0 0.1668000987
H  H16  1  0.71090000  0.47610000  0.17690000  1.0 0.1668000987
H  H17  1  0.97920000  0.89930000  0.57600000  1.0 0.1555935016
H  H18  1  0.02080000  0.10070000  0.42400000  1.0 0.1555935016
H  H19  1  0.94870000  0.75910000  0.49860000  1.0 0.1519696137
H  H20  1  0.05130000  0.24090000  0.50140000  1.0 0.1519696137
C  C1  1  0.63800000  0.13800000  0.02140000  1.0 0.6761290749
C  C2  1  0.36200000  0.86200000  0.97860000  1.0 0.6761290749
C  C3  1  0.61500000  0.16700000  0.14800000  1.0 -0.2907138745
C  C4  1  0.38500000  0.83300000  0.85200000  1.0 -0.2907138745
C  C5  1  0.78200000  0.18730000  0.22210000  1.0 -0.2959294597
C  C6  1  0.21800000  0.81270000  0.77790000  1.0 -0.2959294597
C  C7  1  0.85700000  0.07800000  0.20100000  1.0 0.6607708653
C  C8  1  0.14300000  0.92200000  0.79900000  1.0 0.6607708653
C  C9  1  0.64500000  0.93000000  0.64800000  1.0 0.6607708653
C  C10  1  0.35500000  0.07000000  0.35200000  1.0 0.6607708653
C  C11  1  0.71500000  0.81100000  0.58500000  1.0 -0.2599754313
C  C12  1  0.28500000  0.18900000  0.41500000  1.0 -0.2599754313
C  C13  1  0.24500000  0.47300000  0.86600000  1.0 -0.3326686899
C  C14  1  0.75500000  0.52700000  0.13400000  1.0 -0.3326686899
C  C15  1  0.32000000  0.36300000  0.82300000  1.0 0.6695808192
C  C16  1  0.68000000  0.63700000  0.17700000  1.0 0.6695808192
C  C17  1  0.86300000  0.85500000  0.42100000  1.0 0.6695808192
C  C18  1  0.13700000  0.14500000  0.57900000  1.0 0.6695808192
C  C19  1  0.89800000  0.83100000  0.52110000  1.0 -0.3544045667
C  C20  1  0.10200000  0.16900000  0.47890000  1.0 -0.3561406413
C  C21  1  0.28500000  0.54400000  0.99600000  1.0 0.0542367903
C  C22  1  0.71500000  0.45600000  0.00400000  1.0 0.0550674369
C  C23  1  0.18300000  0.64100000  0.04500000  1.0 0.5627042672
C  C24  1  0.81700000  0.35900000  0.95500000  1.0 0.5627042672
O  O1  1  0.22690000  0.72170000  0.15410000  1.0 -0.7816106657
O  O2  1  0.77310000  0.27830000  0.84590000  1.0 -0.7816106657
O  O3  1  0.05200000  0.64720000  0.99510000  1.0 -0.5693798045
O  O4  1  0.94800000  0.35280000  0.00490000  1.0 -0.5693798045
O  O5  1  0.76200000  0.98220000  0.20870000  1.0 -0.7735554257
O  O6  1  0.23800000  0.01780000  0.79130000  1.0 -0.7735554257
O  O7  1  0.01000000  0.07360000  0.17840000  1.0 -0.6006451228
O  O8  1  0.99000000  0.92640000  0.82160000  1.0 -0.6006451228
O  O9  1  0.45300000  0.35830000  0.75520000  1.0 -0.6484132389
O  O10  1  0.54700000  0.64170000  0.24480000  1.0 -0.6484132389
O  O11  1  0.27350000  0.27770000  0.85530000  1.0 -0.6771956762
O  O12  1  0.72650000  0.72230000  0.14470000  1.0 -0.6749102155
O  O13  1  0.51100000  0.14880000  0.96430000  1.0 -0.6771956762
O  O14  1  0.48900000  0.85120000  0.03570000  1.0 -0.6771956762
O  O15  1  0.77140000  0.10240000  0.98000000  1.0 -0.6389609853
O  O16  1  0.22860000  0.89760000  0.02000000  1.0 -0.6389609853
O  O17  1  0.98970000  0.84490000  0.34900000  1.0 -0.7104696015
O  O18  1  0.01030000  0.15510000  0.65100000  1.0 -0.7104696015
O  O19  1  0.72400000  0.89050000  0.39980000  1.0 -0.7183800021
O  O20  1  0.27600000  0.10950000  0.60020000  1.0 -0.7183800021
O  O21  1  0.73600000  0.01730000  0.72110000  1.0 -0.634190766
O  O22  1  0.26400000  0.98270000  0.27890000  1.0 -0.6389609853
O  O23  1  0.49000000  0.92750000  0.61990000  1.0 -0.6211290935
O  O24  1  0.51000000  0.07250000  0.38010000  1.0 -0.6211290935
