# DDEC6 charges by PACMAN v1.1 (https://github.com/mtap-research/PACMAN-charge/)
data_TEBCEK_FSR_pacman
_symmetry_space_group_name_H-M   'P 1'
_cell_length_a   9.14100000
_cell_length_b   9.66700000
_cell_length_c   13.85500000
_cell_angle_alpha   100.83000000
_cell_angle_beta   90.81000000
_cell_angle_gamma   100.94000000
_symmetry_Int_Tables_number   1
_chemical_formula_structural   Co3H42C52(NO2)8
_chemical_formula_sum   'Co3 H42 C52 N8 O16'
_cell_volume   1179.07650123
_cell_formula_units_Z   1
loop_
 _symmetry_equiv_pos_site_id
 _symmetry_equiv_pos_as_xyz
  1  'x, y, z'
loop_
 _atom_site_type_symbol
 _atom_site_label
 _atom_site_symmetry_multiplicity
 _atom_site_fract_x
 _atom_site_fract_y
 _atom_site_fract_z
 _atom_site_occupancy
 _atom_site_charge
Co  Co1  1  0.00000000  0.00000000  0.50000000  1.0 0.8848636102
Co  Co2  1  0.15055000  0.96056000  0.73247000  1.0 0.7491435956
Co  Co3  1  0.84945000  0.03944000  0.26753000  1.0 0.7491435956
H  H1  1  0.54040000  0.79730000  0.80300000  1.0 0.161285023
H  H2  1  0.45960000  0.20270000  0.19700000  1.0 0.161285023
H  H3  1  0.41060000  0.68380000  0.83200000  1.0 0.161285023
H  H4  1  0.58940000  0.31620000  0.16800000  1.0 0.161285023
H  H5  1  0.83690000  0.93390000  0.84840000  1.0 0.1182223932
H  H6  1  0.16310000  0.06610000  0.15160000  1.0 0.1182223932
H  H7  1  0.79990000  0.10060000  0.99850000  1.0 0.1294190351
H  H8  1  0.20010000  0.89940000  0.00150000  1.0 0.1294190351
H  H9  1  0.20090000  0.23050000  0.90370000  1.0 0.1182223932
H  H10  1  0.79910000  0.76950000  0.09630000  1.0 0.1182223932
H  H11  1  0.26380000  0.34310000  0.06900000  1.0 0.1182223932
H  H12  1  0.73620000  0.65690000  0.93100000  1.0 0.1182223932
H  H13  1  0.31730000  0.55640000  0.18410000  1.0 0.1294190351
H  H14  1  0.68270000  0.44360000  0.81590000  1.0 0.1294190351
H  H15  1  0.88170000  0.57140000  0.18670000  1.0 0.1119399451
H  H16  1  0.11830000  0.42860000  0.81330000  1.0 0.1119399451
H  H17  1  0.82880000  0.36040000  0.06950000  1.0 0.1119399451
H  H18  1  0.17120000  0.63960000  0.93050000  1.0 0.1119399451
H  H19  1  0.34840000  0.82120000  0.23390000  1.0 0.1294190351
H  H20  1  0.65160000  0.17880000  0.76610000  1.0 0.1294190351
H  H21  1  0.31670000  0.01360000  0.36890000  1.0 0.1119399451
H  H22  1  0.68330000  0.98640000  0.63110000  1.0 0.1119399451
H  H23  1  0.95840000  0.71370000  0.34670000  1.0 0.1119399451
H  H24  1  0.04160000  0.28630000  0.65330000  1.0 0.1119399451
H  H25  1  0.32530000  0.21940000  0.51400000  1.0 0.1366385545
H  H26  1  0.67470000  0.78060000  0.48600000  1.0 0.1366385545
H  H27  1  0.46240000  0.15760000  0.54230000  1.0 0.1294190351
H  H28  1  0.53760000  0.84240000  0.45770000  1.0 0.1294190351
H  H29  1  0.31290000  0.45120000  0.66860000  1.0 0.1119399451
H  H30  1  0.68710000  0.54880000  0.33140000  1.0 0.1119399451
H  H31  1  0.68840000  0.74070000  0.68160000  1.0 0.1119399451
H  H32  1  0.31160000  0.25930000  0.31840000  1.0 0.1119399451
H  H33  1  0.67340000  0.33500000  0.54900000  1.0 0.1119399451
H  H34  1  0.32660000  0.66500000  0.45100000  1.0 0.1119399451
H  H35  1  0.87390000  0.53630000  0.51620000  1.0 0.1294190351
H  H36  1  0.12610000  0.46370000  0.48380000  1.0 0.1294190351
H  H37  1  0.92520000  0.52950000  0.62320000  1.0 0.1294190351
H  H38  1  0.07480000  0.47050000  0.37680000  1.0 0.1294190351
H  H39  1  0.39430000  0.78820000  0.64140000  1.0 0.161285023
H  H40  1  0.60570000  0.21180000  0.35860000  1.0 0.161285023
H  H41  1  0.26730000  0.67020000  0.67060000  1.0 0.1705057498
H  H42  1  0.73270000  0.32980000  0.32940000  1.0 0.1705057498
C  C1  1  0.45220000  0.72710000  0.77900000  1.0 -0.0092551218
C  C2  1  0.54780000  0.27290000  0.22100000  1.0 -0.0092551218
C  C3  1  0.90560000  0.01500000  0.87840000  1.0 -0.0524895156
C  C4  1  0.09440000  0.98500000  0.12160000  1.0 -0.0524895156
C  C5  1  0.88420000  0.10650000  0.96140000  1.0 -0.101479172
C  C6  1  0.11580000  0.89350000  0.03860000  1.0 -0.101479172
C  C7  1  0.10600000  0.17730000  0.90810000  1.0 0.1035520945
C  C8  1  0.89400000  0.82270000  0.09190000  1.0 0.1035520945
C  C9  1  0.04270000  0.33450000  0.05700000  1.0 0.1523126576
C  C10  1  0.95730000  0.66550000  0.94300000  1.0 0.1523126576
C  C11  1  0.18760000  0.39030000  0.09170000  1.0 -0.1731444012
C  C12  1  0.81240000  0.60970000  0.90830000  1.0 -0.1731444012
C  C13  1  0.21940000  0.51740000  0.16080000  1.0 -0.1620557208
C  C14  1  0.78060000  0.48260000  0.83920000  1.0 -0.1620557208
C  C15  1  0.10530000  0.58560000  0.19490000  1.0 0.1523126576
C  C16  1  0.89470000  0.41440000  0.80510000  1.0 0.1523126576
C  C17  1  0.95840000  0.52650000  0.16200000  1.0 -0.1960853163
C  C18  1  0.04160000  0.47350000  0.83800000  1.0 -0.1960853163
C  C19  1  0.92670000  0.40040000  0.09230000  1.0 -0.1731444012
C  C20  1  0.07330000  0.59960000  0.90770000  1.0 -0.1731444012
C  C21  1  0.26620000  0.82290000  0.27260000  1.0 -0.101479172
C  C22  1  0.73380000  0.17710000  0.72740000  1.0 -0.101479172
C  C23  1  0.24790000  0.92870000  0.34740000  1.0 -0.0524895156
C  C24  1  0.75210000  0.07130000  0.65260000  1.0 -0.0524895156
C  C25  1  0.05140000  0.76510000  0.33570000  1.0 0.1119399451
C  C26  1  0.94860000  0.23490000  0.66430000  1.0 0.1119399451
C  C27  1  0.30260000  0.14610000  0.64140000  1.0 0.6045091103
C  C28  1  0.69740000  0.85390000  0.35860000  1.0 0.6058386118
C  C29  1  0.39250000  0.21750000  0.56830000  1.0 -0.4284815986
C  C30  1  0.60750000  0.78250000  0.43170000  1.0 -0.4284815986
C  C31  1  0.47910000  0.36740000  0.60410000  1.0 0.1705057498
C  C32  1  0.52090000  0.63260000  0.39590000  1.0 0.1705057498
C  C33  1  0.41280000  0.47360000  0.65430000  1.0 -0.2750216473
C  C34  1  0.58720000  0.52640000  0.34570000  1.0 -0.274276321
C  C35  1  0.48960000  0.61140000  0.68390000  1.0 0.0543703314
C  C36  1  0.51040000  0.38860000  0.31610000  1.0 0.0551848028
C  C37  1  0.63630000  0.64670000  0.66200000  1.0 -0.2959039707
C  C38  1  0.36370000  0.35330000  0.33800000  1.0 -0.2959039707
C  C39  1  0.70640000  0.54410000  0.61140000  1.0 0.161285023
C  C40  1  0.29360000  0.45590000  0.38860000  1.0 0.161285023
C  C41  1  0.62630000  0.40510000  0.58320000  1.0 -0.2497220088
C  C42  1  0.37370000  0.59490000  0.41680000  1.0 -0.2497220088
C  C43  1  0.86730000  0.57680000  0.58520000  1.0 -0.4204559226
C  C44  1  0.13270000  0.42320000  0.41480000  1.0 -0.4204559226
C  C45  1  0.93600000  0.73470000  0.60320000  1.0 0.6058386118
C  C46  1  0.06400000  0.26530000  0.39680000  1.0 0.6058386118
C  C47  1  0.33970000  0.79800000  0.73710000  1.0 0.221085469
C  C48  1  0.66030000  0.20200000  0.26290000  1.0 0.221085469
C  C49  1  0.36850000  0.72330000  0.68680000  1.0 -0.0223827308
C  C50  1  0.63150000  0.27670000  0.31320000  1.0 -0.0223827308
C  C51  1  0.38540000  0.80300000  0.79060000  1.0 0.2065703224
C  C52  1  0.61460000  0.19700000  0.20940000  1.0 0.2065703224
N  N1  1  0.04490000  0.06020000  0.84520000  1.0 -0.3192771722
N  N2  1  0.95510000  0.93980000  0.15480000  1.0 -0.3192771722
N  N3  1  0.01260000  0.21020000  0.97990000  1.0 -0.0092551218
N  N4  1  0.98740000  0.78980000  0.02010000  1.0 -0.0092551218
N  N5  1  0.13980000  0.71840000  0.26470000  1.0 -0.0092551218
N  N6  1  0.86020000  0.28160000  0.73530000  1.0 -0.0092551218
N  N7  1  0.11210000  0.89190000  0.38730000  1.0 -0.310919476
N  N8  1  0.88790000  0.10810000  0.61270000  1.0 -0.310919476
O  O1  1  0.19400000  0.04010000  0.60800000  1.0 -0.5866624762
O  O2  1  0.80600000  0.95990000  0.39200000  1.0 -0.5866624762
O  O3  1  0.33080000  0.18100000  0.73080000  1.0 -0.5194087375
O  O4  1  0.66920000  0.81900000  0.26920000  1.0 -0.5194087375
O  O5  1  0.92540000  0.80060000  0.53500000  1.0 -0.5454818059
O  O6  1  0.07460000  0.19940000  0.46500000  1.0 -0.5409163484
O  O7  1  0.99760000  0.78850000  0.68610000  1.0 -0.5409163484
O  O8  1  0.00240000  0.21150000  0.31390000  1.0 -0.5409163484
O  O9  1  0.31100000  0.90800000  0.81810000  1.0 -0.310919476
O  O10  1  0.68900000  0.09200000  0.18190000  1.0 -0.310919476
O  O11  1  0.29970000  0.77470000  0.65470000  1.0 -0.1620557208
O  O12  1  0.70030000  0.22530000  0.34530000  1.0 -0.1620557208
O  O13  1  0.29600000  0.88900000  0.79060000  1.0 -0.2088017289
O  O14  1  0.70400000  0.11100000  0.20940000  1.0 -0.2088017289
O  O15  1  0.45830000  0.76010000  0.85240000  1.0 -0.2088017289
O  O16  1  0.54170000  0.23990000  0.14760000  1.0 -0.2088017289
