# DDEC6 charges by PACMAN v1.1 (https://github.com/mtap-research/PACMAN-charge/)
data_TEBKOD_ASR_pacman
_symmetry_space_group_name_H-M   'P 1'
_cell_length_a   9.41600000
_cell_length_b   23.01100000
_cell_length_c   31.37000000
_cell_angle_alpha   90.00000000
_cell_angle_beta   90.00000000
_cell_angle_gamma   90.00000000
_symmetry_Int_Tables_number   1
_chemical_formula_structural   Ce2Cu4H28C42I3(NO2)7
_chemical_formula_sum   'Ce8 Cu16 H112 C168 I12 N28 O56'
_cell_volume   6796.98733912
_cell_formula_units_Z   4
loop_
 _symmetry_equiv_pos_site_id
 _symmetry_equiv_pos_as_xyz
  1  'x, y, z'
loop_
 _atom_site_type_symbol
 _atom_site_label
 _atom_site_symmetry_multiplicity
 _atom_site_fract_x
 _atom_site_fract_y
 _atom_site_fract_z
 _atom_site_occupancy
 _atom_site_charge
Ce  Ce1  1  0.46298000  0.94144000  0.98507000  1.0 2.0418036649
Ce  Ce2  1  0.99357000  0.97123000  0.97814000  1.0 2.0866640279
Ce  Ce3  1  0.03702000  0.05856000  0.48507000  1.0 2.0418036649
Ce  Ce4  1  0.50643000  0.02877000  0.47814000  1.0 2.0866640279
Ce  Ce5  1  0.53702000  0.44144000  0.51493000  1.0 2.0418036649
Ce  Ce6  1  0.00643000  0.47123000  0.52186000  1.0 2.0866640279
Ce  Ce7  1  0.96298000  0.55856000  0.01493000  1.0 2.0418036649
Ce  Ce8  1  0.49357000  0.52877000  0.02186000  1.0 2.0866640279
Cu  Cu1  1  0.51460000  0.13923000  0.74859000  1.0 0.2178484829
Cu  Cu2  1  0.53910000  0.11675000  0.22539000  1.0 0.190084319
Cu  Cu3  1  0.71560000  0.26595000  0.81785000  1.0 0.2058198931
Cu  Cu4  1  0.74380000  0.21585000  0.73900000  1.0 0.190084319
Cu  Cu5  1  0.98540000  0.86077000  0.24859000  1.0 0.2178484829
Cu  Cu6  1  0.96090000  0.88325000  0.72539000  1.0 0.190084319
Cu  Cu7  1  0.78440000  0.73405000  0.31785000  1.0 0.2058198931
Cu  Cu8  1  0.75620000  0.78415000  0.23900000  1.0 0.190084319
Cu  Cu9  1  0.48540000  0.63923000  0.75141000  1.0 0.2178484829
Cu  Cu10  1  0.46090000  0.61675000  0.27461000  1.0 0.190084319
Cu  Cu11  1  0.28440000  0.76595000  0.68215000  1.0 0.2058198931
Cu  Cu12  1  0.25620000  0.71585000  0.76100000  1.0 0.190084319
Cu  Cu13  1  0.01460000  0.36077000  0.25141000  1.0 0.2178484829
Cu  Cu14  1  0.03910000  0.38325000  0.77461000  1.0 0.190084319
Cu  Cu15  1  0.21560000  0.23405000  0.18215000  1.0 0.2058198931
Cu  Cu16  1  0.24380000  0.28415000  0.26100000  1.0 0.190084319
H  H1  1  0.42130000  0.80960000  0.89800000  1.0 0.1398011773
H  H2  1  0.61110000  0.10370000  0.66120000  1.0 0.1004434067
H  H3  1  0.97630000  0.96540000  0.79770000  1.0 0.1085732207
H  H4  1  0.50760000  0.20130000  0.87310000  1.0 0.1004434067
H  H5  1  0.42010000  0.15270000  0.13950000  1.0 0.089503162
H  H6  1  0.88090000  0.98130000  0.86140000  1.0 0.1398011773
H  H7  1  0.49220000  0.12930000  0.92270000  1.0 0.1398011773
H  H8  1  0.10820000  0.08330000  0.84330000  1.0 0.1319515004
H  H9  1  0.56400000  0.95370000  0.12110000  1.0 0.1489637444
H  H10  1  0.00740000  0.81670000  0.87790000  1.0 0.1398011773
H  H11  1  0.89610000  0.16330000  0.84720000  1.0 0.1004434067
H  H12  1  0.75540000  0.82160000  0.78560000  1.0 0.1085732207
H  H13  1  0.15960000  0.15310000  0.62840000  1.0 0.1398011773
H  H14  1  0.21770000  0.12230000  0.78650000  1.0 0.1198173979
H  H15  1  0.03080000  0.75640000  0.82160000  1.0 0.1004434067
H  H16  1  0.74830000  0.13320000  0.15510000  1.0 0.1085732207
H  H17  1  0.47850000  0.00400000  0.87230000  1.0 0.1398011773
H  H18  1  0.64390000  0.83740000  0.84640000  1.0 0.1398011773
H  H19  1  0.23690000  0.16220000  0.69640000  1.0 0.1085732207
H  H20  1  0.44320000  0.75910000  0.83340000  1.0 0.089503162
H  H21  1  0.57410000  0.04820000  0.81290000  1.0 0.1004434067
H  H22  1  0.82270000  0.08850000  0.09230000  1.0 0.1319515004
H  H23  1  0.52820000  0.08000000  0.59400000  1.0 0.1398011773
H  H24  1  0.01490000  0.17720000  0.11830000  1.0 0.1004434067
H  H25  1  0.49550000  0.00790000  0.18020000  1.0 0.1085732207
H  H26  1  0.90620000  0.09560000  0.89950000  1.0 0.1398011773
H  H27  1  0.01950000  0.12300000  0.05390000  1.0 0.1319515004
H  H28  1  0.44080000  0.09390000  0.08150000  1.0 0.1319515004
H  H29  1  0.07870000  0.19040000  0.39800000  1.0 0.1398011773
H  H30  1  0.88890000  0.89630000  0.16120000  1.0 0.1004434067
H  H31  1  0.52370000  0.03460000  0.29770000  1.0 0.1085732207
H  H32  1  0.99240000  0.79870000  0.37310000  1.0 0.1004434067
H  H33  1  0.07990000  0.84730000  0.63950000  1.0 0.089503162
H  H34  1  0.61910000  0.01870000  0.36140000  1.0 0.1398011773
H  H35  1  0.00780000  0.87070000  0.42270000  1.0 0.1398011773
H  H36  1  0.39180000  0.91670000  0.34330000  1.0 0.1319515004
H  H37  1  0.93600000  0.04630000  0.62110000  1.0 0.1489637444
H  H38  1  0.49260000  0.18330000  0.37790000  1.0 0.1398011773
H  H39  1  0.60390000  0.83670000  0.34720000  1.0 0.1004434067
H  H40  1  0.74460000  0.17840000  0.28560000  1.0 0.1085732207
H  H41  1  0.34040000  0.84690000  0.12840000  1.0 0.1398011773
H  H42  1  0.28230000  0.87770000  0.28650000  1.0 0.1198173979
H  H43  1  0.46920000  0.24360000  0.32160000  1.0 0.1004434067
H  H44  1  0.75170000  0.86680000  0.65510000  1.0 0.1085732207
H  H45  1  0.02150000  0.99600000  0.37230000  1.0 0.1398011773
H  H46  1  0.85610000  0.16260000  0.34640000  1.0 0.1398011773
H  H47  1  0.26310000  0.83780000  0.19640000  1.0 0.1085732207
H  H48  1  0.05680000  0.24090000  0.33340000  1.0 0.089503162
H  H49  1  0.92590000  0.95180000  0.31290000  1.0 0.1004434067
H  H50  1  0.67730000  0.91150000  0.59230000  1.0 0.1319515004
H  H51  1  0.97180000  0.92000000  0.09400000  1.0 0.1398011773
H  H52  1  0.48510000  0.82280000  0.61830000  1.0 0.1004434067
H  H53  1  0.00450000  0.99210000  0.68020000  1.0 0.1085732207
H  H54  1  0.59380000  0.90440000  0.39950000  1.0 0.1398011773
H  H55  1  0.48050000  0.87700000  0.55390000  1.0 0.1319515004
H  H56  1  0.05920000  0.90610000  0.58150000  1.0 0.1319515004
H  H57  1  0.57870000  0.30960000  0.60200000  1.0 0.1398011773
H  H58  1  0.38890000  0.60370000  0.83880000  1.0 0.1004434067
H  H59  1  0.02370000  0.46540000  0.70230000  1.0 0.1085732207
H  H60  1  0.49240000  0.70130000  0.62690000  1.0 0.1004434067
H  H61  1  0.57990000  0.65270000  0.36050000  1.0 0.089503162
H  H62  1  0.11910000  0.48130000  0.63860000  1.0 0.1398011773
H  H63  1  0.50780000  0.62930000  0.57730000  1.0 0.1398011773
H  H64  1  0.89180000  0.58330000  0.65670000  1.0 0.1319515004
H  H65  1  0.43600000  0.45370000  0.37890000  1.0 0.1489637444
H  H66  1  0.99260000  0.31670000  0.62210000  1.0 0.1319515004
H  H67  1  0.10390000  0.66330000  0.65280000  1.0 0.1004434067
H  H68  1  0.24460000  0.32160000  0.71440000  1.0 0.1085732207
H  H69  1  0.84040000  0.65310000  0.87160000  1.0 0.1398011773
H  H70  1  0.78230000  0.62230000  0.71350000  1.0 0.1198173979
H  H71  1  0.96920000  0.25640000  0.67840000  1.0 0.1004434067
H  H72  1  0.25170000  0.63320000  0.34490000  1.0 0.1085732207
H  H73  1  0.52150000  0.50400000  0.62770000  1.0 0.1398011773
H  H74  1  0.35610000  0.33740000  0.65360000  1.0 0.1398011773
H  H75  1  0.76310000  0.66220000  0.80360000  1.0 0.1085732207
H  H76  1  0.55680000  0.25910000  0.66666667  1.0 0.089503162
H  H77  1  0.42590000  0.54820000  0.68710000  1.0 0.1004434067
H  H78  1  0.17730000  0.58850000  0.40770000  1.0 0.1319515004
H  H79  1  0.47180000  0.58000000  0.90600000  1.0 0.1398011773
H  H80  1  0.98510000  0.67720000  0.38170000  1.0 0.1004434067
H  H81  1  0.50450000  0.50790000  0.31980000  1.0 0.1085732207
H  H82  1  0.09380000  0.59560000  0.60050000  1.0 0.1398011773
H  H83  1  0.98050000  0.62300000  0.44610000  1.0 0.1319515004
H  H84  1  0.55920000  0.59390000  0.41850000  1.0 0.1319515004
H  H85  1  0.92130000  0.69040000  0.10200000  1.0 0.1398011773
H  H86  1  0.11110000  0.39630000  0.33880000  1.0 0.1004434067
H  H87  1  0.47630000  0.53460000  0.20230000  1.0 0.1085732207
H  H88  1  0.00760000  0.29870000  0.12690000  1.0 0.1004434067
H  H89  1  0.92010000  0.34730000  0.86050000  1.0 0.089503162
H  H90  1  0.38090000  0.51870000  0.13860000  1.0 0.1489637444
H  H91  1  0.99220000  0.37070000  0.07730000  1.0 0.1398011773
H  H92  1  0.60820000  0.41670000  0.15670000  1.0 0.1319515004
H  H93  1  0.06400000  0.54630000  0.87890000  1.0 0.1489637444
H  H94  1  0.50740000  0.68330000  0.12210000  1.0 0.1319515004
H  H95  1  0.39610000  0.33670000  0.15280000  1.0 0.1004434067
H  H96  1  0.25540000  0.67840000  0.21440000  1.0 0.1085732207
H  H97  1  0.65960000  0.34690000  0.37160000  1.0 0.1398011773
H  H98  1  0.71770000  0.37770000  0.21350000  1.0 0.1198173979
H  H99  1  0.53080000  0.74360000  0.17840000  1.0 0.1004434067
H  H100  1  0.24830000  0.36680000  0.84490000  1.0 0.1085732207
H  H101  1  0.97850000  0.49600000  0.12770000  1.0 0.1398011773
H  H102  1  0.14390000  0.66260000  0.15360000  1.0 0.1398011773
H  H103  1  0.73690000  0.33780000  0.30360000  1.0 0.1085732207
H  H104  1  0.94320000  0.74090000  0.16660000  1.0 0.089503162
H  H105  1  0.07410000  0.45180000  0.18710000  1.0 0.1004434067
H  H106  1  0.32270000  0.41150000  0.90770000  1.0 0.1319515004
H  H107  1  0.02820000  0.42000000  0.40600000  1.0 0.1398011773
H  H108  1  0.51490000  0.32280000  0.88170000  1.0 0.1004434067
H  H109  1  0.99550000  0.49210000  0.81980000  1.0 0.1085732207
H  H110  1  0.40620000  0.40440000  0.10050000  1.0 0.1398011773
H  H111  1  0.51950000  0.37700000  0.94610000  1.0 0.1319515004
H  H112  1  0.94080000  0.40610000  0.91850000  1.0 0.1319515004
C  C1  1  0.24800000  0.05670000  0.02640000  1.0 0.6109773287
C  C2  1  0.34100000  0.80280000  0.88120000  1.0 -0.168070845
C  C3  1  0.27000000  0.09580000  0.56000000  1.0 0.6292224084
C  C4  1  0.51600000  0.11130000  0.65500000  1.0 0.0554880308
C  C5  1  0.76000000  0.90790000  0.86660000  1.0 0.0319561054
C  C6  1  0.74400000  0.98620000  0.05760000  1.0 0.6292224084
C  C7  1  0.69800000  0.01660000  0.09680000  1.0 0.0099784756
C  C8  1  0.19900000  0.85700000  0.93530000  1.0 0.6292224084
C  C9  1  0.91100000  0.93860000  0.80800000  1.0 0.0812928373
C  C10  1  0.20900000  0.82490000  0.89370000  1.0 0.0167884933
C  C11  1  0.21200000  0.00920000  0.90400000  1.0 0.6109773287
C  C12  1  0.58800000  0.17880000  0.87810000  1.0 0.0493280456
C  C13  1  0.69700000  0.05540000  0.95090000  1.0 0.6292224084
C  C14  1  0.69700000  0.10100000  0.91730000  1.0 0.0018945815
C  C15  1  0.34000000  0.14610000  0.12300000  1.0 0.089503162
C  C16  1  0.85600000  0.94770000  0.84680000  1.0 -0.1610620052
C  C17  1  0.57700000  0.13560000  0.90840000  1.0 -0.1499848946
C  C18  1  0.20300000  0.07510000  0.83820000  1.0 -0.1499848946
C  C19  1  0.69900000  0.91510000  0.91070000  1.0 0.5963189671
C  C20  1  0.60100000  0.99060000  0.12570000  1.0 -0.168070845
C  C21  1  0.09800000  0.80530000  0.87000000  1.0 -0.1610620052
C  C22  1  0.81500000  0.15750000  0.86360000  1.0 0.0708734257
C  C23  1  0.77900000  0.85460000  0.80110000  1.0 0.0319561054
C  C24  1  0.25000000  0.13950000  0.63500000  1.0 -0.1499848946
C  C25  1  0.27100000  0.09950000  0.80490000  1.0 0.0099784756
C  C26  1  0.11200000  0.76990000  0.83510000  1.0 0.0812928373
C  C27  1  0.27900000  0.03690000  0.86540000  1.0 0.0167884933
C  C28  1  0.71000000  0.09740000  0.14760000  1.0 0.0392222194
C  C29  1  0.42200000  0.02820000  0.85550000  1.0 -0.1610620052
C  C30  1  0.71700000  0.86220000  0.83830000  1.0 -0.1499848946
C  C31  1  0.29900000  0.14760000  0.67590000  1.0 0.0493280456
C  C32  1  0.35400000  0.77010000  0.84300000  1.0 0.0708734257
C  C33  1  0.48000000  0.05680000  0.81970000  1.0 0.1085732207
C  C34  1  0.75500000  0.07040000  0.10930000  1.0 -0.1499848946
C  C35  1  0.46900000  0.09790000  0.61380000  1.0 -0.1420407301
C  C36  1  0.10000000  0.16100000  0.10950000  1.0 0.0392222194
C  C37  1  0.32500000  0.11320000  0.60350000  1.0 0.0099784756
C  C38  1  0.56400000  0.02400000  0.16230000  1.0 0.089503162
C  C39  1  0.82100000  0.11490000  0.89410000  1.0 -0.1610620052
C  C40  1  0.23700000  0.09390000  0.06360000  1.0 -0.0260476094
C  C41  1  0.09800000  0.12590000  0.07170000  1.0 -0.1499848946
C  C42  1  0.35200000  0.10900000  0.08830000  1.0 -0.1499848946
C  C43  1  0.25200000  0.94330000  0.52640000  1.0 0.6109773287
C  C44  1  0.15900000  0.19720000  0.38120000  1.0 -0.168070845
C  C45  1  0.23000000  0.90420000  0.06000000  1.0 0.6249774763
C  C46  1  0.98400000  0.88870000  0.15500000  1.0 0.0554880308
C  C47  1  0.74000000  0.09210000  0.36660000  1.0 0.0319561054
C  C48  1  0.75600000  0.01380000  0.55760000  1.0 0.6292224084
C  C49  1  0.80200000  0.98340000  0.59680000  1.0 0.0018945815
C  C50  1  0.30100000  0.14300000  0.43530000  1.0 0.6292224084
C  C51  1  0.58900000  0.06140000  0.30800000  1.0 0.0812928373
C  C52  1  0.29100000  0.17510000  0.39370000  1.0 0.0167884933
C  C53  1  0.28800000  0.99080000  0.40400000  1.0 0.6109773287
C  C54  1  0.91200000  0.82120000  0.37810000  1.0 0.0493280456
C  C55  1  0.80300000  0.94460000  0.45090000  1.0 0.6292224084
C  C56  1  0.80300000  0.89900000  0.41730000  1.0 0.0018945815
C  C57  1  0.16000000  0.85390000  0.62300000  1.0 0.089503162
C  C58  1  0.64400000  0.05230000  0.34680000  1.0 -0.1610620052
C  C59  1  0.92300000  0.86440000  0.40840000  1.0 -0.1499848946
C  C60  1  0.29700000  0.92490000  0.33820000  1.0 -0.1499848946
C  C61  1  0.80100000  0.08490000  0.41070000  1.0 0.5963189671
C  C62  1  0.89900000  0.00940000  0.62570000  1.0 -0.168070845
C  C63  1  0.40200000  0.19470000  0.37000000  1.0 -0.1610620052
C  C64  1  0.68500000  0.84250000  0.36360000  1.0 0.0708734257
C  C65  1  0.72100000  0.14540000  0.30110000  1.0 0.0319561054
C  C66  1  0.25000000  0.86050000  0.13500000  1.0 -0.1499848946
C  C67  1  0.22900000  0.90050000  0.30490000  1.0 0.0099784756
C  C68  1  0.38800000  0.23010000  0.33510000  1.0 0.0812928373
C  C69  1  0.22100000  0.96310000  0.36540000  1.0 0.0167884933
C  C70  1  0.79000000  0.90260000  0.64760000  1.0 0.0392222194
C  C71  1  0.07800000  0.97180000  0.35550000  1.0 -0.1610620052
C  C72  1  0.78300000  0.13780000  0.33830000  1.0 -0.1499848946
C  C73  1  0.20100000  0.85240000  0.17590000  1.0 0.0493280456
C  C74  1  0.14600000  0.22990000  0.34300000  1.0 0.0708734257
C  C75  1  0.02000000  0.94320000  0.31970000  1.0 0.1085732207
C  C76  1  0.74500000  0.92960000  0.60930000  1.0 -0.1499848946
C  C77  1  0.03100000  0.90210000  0.11380000  1.0 -0.1420407301
C  C78  1  0.40000000  0.83900000  0.60950000  1.0 0.0392222194
C  C79  1  0.17500000  0.88680000  0.10350000  1.0 0.0099784756
C  C80  1  0.93600000  0.97600000  0.66230000  1.0 0.089503162
C  C81  1  0.67900000  0.88510000  0.39410000  1.0 -0.1610620052
C  C82  1  0.26300000  0.90610000  0.56360000  1.0 -0.0260476094
C  C83  1  0.40200000  0.87410000  0.57170000  1.0 -0.1499848946
C  C84  1  0.14800000  0.89100000  0.58830000  1.0 -0.1499848946
C  C85  1  0.75200000  0.55670000  0.47360000  1.0 0.6109773287
C  C86  1  0.65900000  0.30280000  0.61880000  1.0 -0.168070845
C  C87  1  0.73000000  0.59580000  0.94000000  1.0 0.6249774763
C  C88  1  0.48400000  0.61130000  0.84500000  1.0 0.0493280456
C  C89  1  0.24000000  0.40790000  0.63340000  1.0 0.0319561054
C  C90  1  0.25600000  0.48620000  0.44240000  1.0 0.6292224084
C  C91  1  0.30200000  0.51660000  0.40320000  1.0 0.0018945815
C  C92  1  0.80100000  0.35700000  0.56470000  1.0 0.6292224084
C  C93  1  0.08900000  0.43860000  0.69200000  1.0 0.0812928373
C  C94  1  0.79100000  0.32490000  0.60630000  1.0 0.0167884933
C  C95  1  0.78800000  0.50920000  0.59600000  1.0 0.6109773287
C  C96  1  0.41200000  0.67880000  0.62190000  1.0 0.0493280456
C  C97  1  0.30300000  0.55540000  0.54910000  1.0 0.6292224084
C  C98  1  0.30300000  0.60100000  0.58270000  1.0 0.0018945815
C  C99  1  0.66000000  0.64610000  0.37700000  1.0 0.089503162
C  C100  1  0.14400000  0.44770000  0.65320000  1.0 -0.1610620052
C  C101  1  0.42300000  0.63560000  0.59160000  1.0 -0.1499848946
C  C102  1  0.79700000  0.57510000  0.66180000  1.0 -0.1499848946
C  C103  1  0.30100000  0.41510000  0.58930000  1.0 0.5963189671
C  C104  1  0.39900000  0.49060000  0.37430000  1.0 -0.168070845
C  C105  1  0.90200000  0.30530000  0.63000000  1.0 -0.1610620052
C  C106  1  0.18500000  0.65750000  0.63640000  1.0 0.0708734257
C  C107  1  0.22100000  0.35460000  0.69890000  1.0 0.0319561054
C  C108  1  0.75000000  0.63950000  0.86500000  1.0 -0.1499848946
C  C109  1  0.72900000  0.59950000  0.69510000  1.0 0.0099784756
C  C110  1  0.88800000  0.26990000  0.66490000  1.0 0.0812928373
C  C111  1  0.72100000  0.53690000  0.63460000  1.0 0.0167884933
C  C112  1  0.29000000  0.59740000  0.35240000  1.0 0.0392222194
C  C113  1  0.57800000  0.52820000  0.64450000  1.0 -0.1610620052
C  C114  1  0.28300000  0.36220000  0.66170000  1.0 -0.1499848946
C  C115  1  0.70100000  0.64760000  0.82410000  1.0 0.0493280456
C  C116  1  0.64600000  0.27010000  0.65700000  1.0 0.0708734257
C  C117  1  0.52000000  0.55680000  0.68030000  1.0 0.1085732207
C  C118  1  0.24500000  0.57040000  0.39070000  1.0 -0.1499848946
C  C119  1  0.53100000  0.59790000  0.88620000  1.0 -0.1420407301
C  C120  1  0.90000000  0.66100000  0.39050000  1.0 0.0392222194
C  C121  1  0.67500000  0.61320000  0.89650000  1.0 0.0099784756
C  C122  1  0.43600000  0.52400000  0.33770000  1.0 0.089503162
C  C123  1  0.17900000  0.61490000  0.60590000  1.0 -0.1610620052
C  C124  1  0.76300000  0.59390000  0.43640000  1.0 -0.0260476094
C  C125  1  0.90200000  0.62590000  0.42830000  1.0 -0.1499848946
C  C126  1  0.64800000  0.60900000  0.41170000  1.0 -0.1499848946
C  C127  1  0.74800000  0.44330000  0.97360000  1.0 0.6109773287
C  C128  1  0.84100000  0.69720000  0.11880000  1.0 -0.168070845
C  C129  1  0.77000000  0.40420000  0.44000000  1.0 0.6292224084
C  C130  1  0.01600000  0.38870000  0.34500000  1.0 0.0554880308
C  C131  1  0.26000000  0.59210000  0.13340000  1.0 0.0319561054
C  C132  1  0.24400000  0.51380000  0.94240000  1.0 0.6292224084
C  C133  1  0.19800000  0.48340000  0.90320000  1.0 0.0099784756
C  C134  1  0.69900000  0.64300000  0.06470000  1.0 0.6292224084
C  C135  1  0.41100000  0.56140000  0.19200000  1.0 0.0812928373
C  C136  1  0.70900000  0.67510000  0.10630000  1.0 0.0167884933
C  C137  1  0.71200000  0.49080000  0.09600000  1.0 0.6109773287
C  C138  1  0.08800000  0.32120000  0.12190000  1.0 0.0493280456
C  C139  1  0.19700000  0.44460000  0.04910000  1.0 0.6292224084
C  C140  1  0.19700000  0.39900000  0.08270000  1.0 0.0018945815
C  C141  1  0.84000000  0.35390000  0.87700000  1.0 0.089503162
C  C142  1  0.35600000  0.55230000  0.15320000  1.0 -0.1610620052
C  C143  1  0.07700000  0.36440000  0.09160000  1.0 -0.1499848946
C  C144  1  0.70300000  0.42490000  0.16180000  1.0 -0.1499848946
C  C145  1  0.19900000  0.58490000  0.08930000  1.0 0.5963189671
C  C146  1  0.10100000  0.50940000  0.87430000  1.0 -0.168070845
C  C147  1  0.59800000  0.69470000  0.13000000  1.0 -0.1610620052
C  C148  1  0.31500000  0.34250000  0.13640000  1.0 0.0708734257
C  C149  1  0.27900000  0.64540000  0.19890000  1.0 0.0319561054
C  C150  1  0.75000000  0.36050000  0.36500000  1.0 -0.1499848946
C  C151  1  0.77100000  0.40050000  0.19510000  1.0 0.0099784756
C  C152  1  0.61200000  0.73010000  0.16490000  1.0 0.0812928373
C  C153  1  0.77900000  0.46310000  0.13460000  1.0 0.0167884933
C  C154  1  0.21000000  0.40260000  0.85240000  1.0 0.0392222194
C  C155  1  0.92200000  0.47180000  0.14450000  1.0 -0.1610620052
C  C156  1  0.21700000  0.63780000  0.16170000  1.0 -0.1499848946
C  C157  1  0.79900000  0.35240000  0.32410000  1.0 0.0493280456
C  C158  1  0.85400000  0.72990000  0.15700000  1.0 0.0708734257
C  C159  1  0.98000000  0.44320000  0.18030000  1.0 0.1085732207
C  C160  1  0.25500000  0.42960000  0.89070000  1.0 -0.1499848946
C  C161  1  0.96900000  0.40210000  0.38620000  1.0 -0.1420407301
C  C162  1  0.60000000  0.33900000  0.89050000  1.0 0.0392222194
C  C163  1  0.82500000  0.38680000  0.39650000  1.0 0.0099784756
C  C164  1  0.06400000  0.47600000  0.83770000  1.0 0.089503162
C  C165  1  0.32100000  0.38510000  0.10590000  1.0 -0.1610620052
C  C166  1  0.73700000  0.40610000  0.93640000  1.0 -0.0260476094
C  C167  1  0.59800000  0.37410000  0.92830000  1.0 -0.1499848946
C  C168  1  0.85200000  0.39100000  0.91170000  1.0 -0.1499848946
I  I1  1  0.48588000  0.25460000  0.76994000  1.0 -0.400264897
I  I2  1  0.97280000  0.27070000  0.78184000  1.0 -0.4079512587
I  I3  1  0.79040000  0.10509000  0.74580000  1.0 -0.4483547738
I  I4  1  0.01412000  0.74540000  0.26994000  1.0 -0.400264897
I  I5  1  0.52720000  0.72930000  0.28184000  1.0 -0.4079512587
I  I6  1  0.70960000  0.89491000  0.24580000  1.0 -0.4483547738
I  I7  1  0.51412000  0.75460000  0.73006000  1.0 -0.400264897
I  I8  1  0.02720000  0.77070000  0.71816000  1.0 -0.4079512587
I  I9  1  0.20960000  0.60509000  0.75420000  1.0 -0.4483547738
I  I10  1  0.98588000  0.24540000  0.23006000  1.0 -0.400264897
I  I11  1  0.47280000  0.22930000  0.21816000  1.0 -0.4079512587
I  I12  1  0.29040000  0.39491000  0.25420000  1.0 -0.4483547738
N  N1  1  0.70500000  0.19120000  0.85510000  1.0 -0.1929803571
N  N2  1  0.23700000  0.75450000  0.82030000  1.0 -0.168070845
N  N3  1  0.41700000  0.09310000  0.79590000  1.0 -0.168070845
N  N4  1  0.22100000  0.17270000  0.13410000  1.0 -0.1802962894
N  N5  1  0.43600000  0.13460000  0.68710000  1.0 -0.1929803571
N  N6  1  0.61300000  0.07300000  0.17340000  1.0 -0.1610620052
N  N7  1  0.87800000  0.89380000  0.78340000  1.0 -0.1802962894
N  N8  1  0.79500000  0.80880000  0.35510000  1.0 -0.1929803571
N  N9  1  0.26300000  0.24550000  0.32030000  1.0 -0.168070845
N  N10  1  0.08300000  0.90690000  0.29590000  1.0 -0.168070845
N  N11  1  0.27900000  0.82730000  0.63410000  1.0 -0.1802962894
N  N12  1  0.06400000  0.86540000  0.18710000  1.0 -0.1929803571
N  N13  1  0.88700000  0.92700000  0.67340000  1.0 -0.168070845
N  N14  1  0.62200000  0.10620000  0.28340000  1.0 -0.1802962894
N  N15  1  0.29500000  0.69120000  0.64490000  1.0 -0.1929803571
N  N16  1  0.76300000  0.25450000  0.67970000  1.0 -0.168070845
N  N17  1  0.58300000  0.59310000  0.70410000  1.0 -0.168070845
N  N18  1  0.77900000  0.67270000  0.36590000  1.0 -0.1802962894
N  N19  1  0.56400000  0.63460000  0.81290000  1.0 -0.1929803571
N  N20  1  0.38700000  0.57300000  0.32660000  1.0 -0.168070845
N  N21  1  0.12200000  0.39380000  0.71660000  1.0 -0.1802962894
N  N22  1  0.20500000  0.30880000  0.14490000  1.0 -0.1929803571
N  N23  1  0.73700000  0.74550000  0.17970000  1.0 -0.168070845
N  N24  1  0.91700000  0.40690000  0.20410000  1.0 -0.168070845
N  N25  1  0.72100000  0.32730000  0.86590000  1.0 -0.1802962894
N  N26  1  0.93600000  0.36540000  0.31290000  1.0 -0.1929803571
N  N27  1  0.11300000  0.42700000  0.82660000  1.0 -0.1610620052
N  N28  1  0.37800000  0.60620000  0.21660000  1.0 -0.1802962894
O  O1  1  0.07790000  0.01910000  0.91040000  1.0 -0.6585454325
O  O2  1  0.30290000  0.86480000  0.95800000  1.0 -0.5870383164
O  O3  1  0.81800000  0.04620000  0.96640000  1.0 -0.6184933713
O  O4  1  0.13910000  0.09780000  0.55380000  1.0 -0.5982676154
O  O5  1  0.64670000  0.95880000  0.03760000  1.0 -0.6585454325
O  O6  1  0.07500000  0.88140000  0.94200000  1.0 -0.6691010228
O  O7  1  0.35600000  0.02630000  0.02260000  1.0 -0.5982676154
O  O8  1  0.57630000  0.02980000  0.95750000  1.0 -0.6585454325
O  O9  1  0.28700000  0.98160000  0.93060000  1.0 -0.6435795443
O  O10  1  0.57200000  0.91090000  0.91480000  1.0 -0.5659471681
O  O11  1  0.36090000  0.07710000  0.53300000  1.0 -0.681002081
O  O12  1  0.87500000  0.98840000  0.04670000  1.0 -0.6435795443
O  O13  1  0.78790000  0.93000000  0.94010000  1.0 -0.681002081
O  O14  1  0.13700000  0.04970000  0.00380000  1.0 -0.6277751854
O  O15  1  0.42210000  0.98090000  0.41040000  1.0 -0.6585454325
O  O16  1  0.19710000  0.13520000  0.45800000  1.0 -0.5870383164
O  O17  1  0.68200000  0.95380000  0.46640000  1.0 -0.6184933713
O  O18  1  0.36090000  0.90220000  0.05380000  1.0 -0.5982676154
O  O19  1  0.85330000  0.04120000  0.53760000  1.0 -0.6585454325
O  O20  1  0.42500000  0.11860000  0.44200000  1.0 -0.6691010228
O  O21  1  0.14400000  0.97370000  0.52260000  1.0 -0.5982676154
O  O22  1  0.92370000  0.97020000  0.45750000  1.0 -0.6585454325
O  O23  1  0.21300000  0.01840000  0.43060000  1.0 -0.6435795443
O  O24  1  0.92800000  0.08910000  0.41480000  1.0 -0.5639114907
O  O25  1  0.13910000  0.92290000  0.03300000  1.0 -0.681002081
O  O26  1  0.62500000  0.01160000  0.54670000  1.0 -0.6435795443
O  O27  1  0.71210000  0.07000000  0.44010000  1.0 -0.681002081
O  O28  1  0.36300000  0.95030000  0.50380000  1.0 -0.6277751854
O  O29  1  0.92210000  0.51910000  0.58960000  1.0 -0.6585454325
O  O30  1  0.69710000  0.36480000  0.54200000  1.0 -0.5870383164
O  O31  1  0.18200000  0.54620000  0.53360000  1.0 -0.6184933713
O  O32  1  0.86090000  0.59780000  0.94620000  1.0 -0.5982676154
O  O33  1  0.35330000  0.45880000  0.46240000  1.0 -0.6585454325
O  O34  1  0.92500000  0.38140000  0.55800000  1.0 -0.6691010228
O  O35  1  0.64400000  0.52630000  0.47740000  1.0 -0.5982676154
O  O36  1  0.42370000  0.52980000  0.54250000  1.0 -0.6585454325
O  O37  1  0.71300000  0.48160000  0.56940000  1.0 -0.6451921394
O  O38  1  0.42800000  0.41090000  0.58520000  1.0 -0.5639114907
O  O39  1  0.63910000  0.57710000  0.96700000  1.0 -0.681002081
O  O40  1  0.12500000  0.48840000  0.45330000  1.0 -0.6435795443
O  O41  1  0.21210000  0.43000000  0.55990000  1.0 -0.681002081
O  O42  1  0.86300000  0.54970000  0.49620000  1.0 -0.6277751854
O  O43  1  0.57790000  0.48090000  0.08960000  1.0 -0.6585454325
O  O44  1  0.80290000  0.63520000  0.04200000  1.0 -0.5870383164
O  O45  1  0.31800000  0.45380000  0.03360000  1.0 -0.6184933713
O  O46  1  0.63910000  0.40220000  0.44620000  1.0 -0.5982676154
O  O47  1  0.14670000  0.54120000  0.96240000  1.0 -0.6585454325
O  O48  1  0.57500000  0.61860000  0.05800000  1.0 -0.6691010228
O  O49  1  0.85600000  0.47370000  0.97740000  1.0 -0.5982676154
O  O50  1  0.07630000  0.47020000  0.04250000  1.0 -0.6585454325
O  O51  1  0.78700000  0.51840000  0.06940000  1.0 -0.6435795443
O  O52  1  0.07200000  0.58910000  0.08520000  1.0 -0.5659471681
O  O53  1  0.86090000  0.42290000  0.46700000  1.0 -0.681002081
O  O54  1  0.37500000  0.51160000  0.95330000  1.0 -0.6435795443
O  O55  1  0.28790000  0.57000000  0.05990000  1.0 -0.681002081
O  O56  1  0.63700000  0.45030000  0.99620000  1.0 -0.6277751854
