# DDEC6 charges by PACMAN v1.1 (https://github.com/mtap-research/PACMAN-charge/)
data_TEBLOE_ASR_pacman
_symmetry_space_group_name_H-M   'P 1'
_cell_length_a   9.29700000
_cell_length_b   23.19800000
_cell_length_c   30.67200000
_cell_angle_alpha   90.00000000
_cell_angle_beta   90.00000000
_cell_angle_gamma   90.00000000
_symmetry_Int_Tables_number   1
_chemical_formula_structural   Gd2Cu4H28C42I3(NO2)7
_chemical_formula_sum   'Gd8 Cu16 H112 C168 I12 N28 O56'
_cell_volume   6615.08563363
_cell_formula_units_Z   4
loop_
 _symmetry_equiv_pos_site_id
 _symmetry_equiv_pos_as_xyz
  1  'x, y, z'
loop_
 _atom_site_type_symbol
 _atom_site_label
 _atom_site_symmetry_multiplicity
 _atom_site_fract_x
 _atom_site_fract_y
 _atom_site_fract_z
 _atom_site_occupancy
 _atom_site_charge
Gd  Gd1  1  0.95690000  0.93919000  0.98432000  1.0 2.1183842033
Gd  Gd2  1  0.48735000  0.96559000  0.97813000  1.0 2.1258776992
Gd  Gd3  1  0.54310000  0.06081000  0.48432000  1.0 2.1183842033
Gd  Gd4  1  0.01265000  0.03441000  0.47813000  1.0 2.1258776992
Gd  Gd5  1  0.04310000  0.43919000  0.51568000  1.0 2.1183842033
Gd  Gd6  1  0.51265000  0.46559000  0.52187000  1.0 2.1258776992
Gd  Gd7  1  0.45690000  0.56081000  0.01568000  1.0 2.1183842033
Gd  Gd8  1  0.98735000  0.53441000  0.02187000  1.0 2.1258776992
Cu  Cu1  1  0.99330000  0.64281000  0.74915000  1.0 0.1924144014
Cu  Cu2  1  0.78050000  0.76527000  0.67676000  1.0 0.1995876491
Cu  Cu3  1  0.45680000  0.88061000  0.72246000  1.0 0.1995876491
Cu  Cu4  1  0.75520000  0.71740000  0.75716000  1.0 0.1834523141
Cu  Cu5  1  0.50670000  0.35719000  0.24915000  1.0 0.1924144014
Cu  Cu6  1  0.71950000  0.23473000  0.17676000  1.0 0.1995876491
Cu  Cu7  1  0.04320000  0.11939000  0.22246000  1.0 0.1995876491
Cu  Cu8  1  0.74480000  0.28260000  0.25716000  1.0 0.1834523141
Cu  Cu9  1  0.00670000  0.14281000  0.75085000  1.0 0.1924144014
Cu  Cu10  1  0.21950000  0.26527000  0.82324000  1.0 0.1995876491
Cu  Cu11  1  0.54320000  0.38061000  0.77754000  1.0 0.1995876491
Cu  Cu12  1  0.24480000  0.21740000  0.74284000  1.0 0.1834523141
Cu  Cu13  1  0.49330000  0.85719000  0.25085000  1.0 0.1924144014
Cu  Cu14  1  0.28050000  0.73473000  0.32324000  1.0 0.1995876491
Cu  Cu15  1  0.95680000  0.61939000  0.27754000  1.0 0.1995876491
Cu  Cu16  1  0.25520000  0.78260000  0.24284000  1.0 0.1834523141
H  H1  1  0.92340000  0.81840000  0.89400000  1.0 0.1399562334
H  H2  1  0.07520000  0.05490000  0.81650000  1.0 0.09937176
H  H3  1  0.95430000  0.59610000  0.90610000  1.0 0.1480957627
H  H4  1  0.98550000  0.82610000  0.61610000  1.0 0.0923778418
H  H5  1  0.47210000  0.96210000  0.79590000  1.0 0.1103403674
H  H6  1  0.49720000  0.81810000  0.87910000  1.0 0.1326831862
H  H7  1  0.23070000  0.13760000  0.14310000  1.0 0.1103403674
H  H8  1  0.88880000  0.61170000  0.83580000  1.0 0.09937176
H  H9  1  0.14670000  0.83650000  0.85080000  1.0 0.1326831862
H  H10  1  0.94320000  0.75540000  0.83320000  1.0 0.0923778418
H  H11  1  0.70370000  0.12070000  0.78730000  1.0 0.1103403674
H  H12  1  0.55700000  0.90740000  0.57840000  1.0 0.1326831862
H  H13  1  0.26780000  0.66350000  0.80370000  1.0 0.1103403674
H  H14  1  0.52300000  0.76120000  0.81710000  1.0 0.09937176
H  H15  1  0.24890000  0.82030000  0.78340000  1.0 0.09937176
H  H16  1  0.01880000  0.00680000  0.18720000  1.0 0.09937176
H  H17  1  0.29550000  0.08740000  0.08220000  1.0 0.1399562334
H  H18  1  0.35110000  0.65060000  0.87250000  1.0 0.1399562334
H  H19  1  0.40330000  0.09010000  0.90060000  1.0 0.1326831862
H  H20  1  0.98160000  0.00590000  0.87520000  1.0 0.1399562334
H  H21  1  0.39990000  0.16820000  0.85410000  1.0 0.09937176
H  H22  1  0.07140000  0.94860000  0.12590000  1.0 0.1480957627
H  H23  1  0.39500000  0.98060000  0.86460000  1.0 0.1399562334
H  H24  1  0.99610000  0.13250000  0.93180000  1.0 0.1399562334
H  H25  1  0.00840000  0.20410000  0.88030000  1.0 0.09937176
H  H26  1  0.59800000  0.07560000  0.84490000  1.0 0.1399562334
H  H27  1  0.97480000  0.89290000  0.55650000  1.0 0.1399562334
H  H28  1  0.57070000  0.84290000  0.63270000  1.0 0.0923778418
H  H29  1  0.57660000  0.18160000  0.39400000  1.0 0.1399562334
H  H30  1  0.42480000  0.94510000  0.31650000  1.0 0.09937176
H  H31  1  0.54570000  0.40390000  0.40610000  1.0 0.1480957627
H  H32  1  0.51450000  0.17390000  0.11610000  1.0 0.0923778418
H  H33  1  0.02790000  0.03790000  0.29590000  1.0 0.1103403674
H  H34  1  0.00280000  0.18190000  0.37910000  1.0 0.1326831862
H  H35  1  0.26930000  0.86240000  0.64310000  1.0 0.1103403674
H  H36  1  0.61120000  0.38830000  0.33580000  1.0 0.09937176
H  H37  1  0.35330000  0.16350000  0.35080000  1.0 0.1326831862
H  H38  1  0.55680000  0.24460000  0.33320000  1.0 0.0923778418
H  H39  1  0.79630000  0.87930000  0.28730000  1.0 0.1103403674
H  H40  1  0.94300000  0.09260000  0.07840000  1.0 0.1326831862
H  H41  1  0.23220000  0.33650000  0.30370000  1.0 0.1103403674
H  H42  1  0.97700000  0.23880000  0.31710000  1.0 0.09937176
H  H43  1  0.25110000  0.17970000  0.28340000  1.0 0.09937176
H  H44  1  0.48120000  0.99320000  0.68720000  1.0 0.09937176
H  H45  1  0.20450000  0.91260000  0.58220000  1.0 0.1399562334
H  H46  1  0.14890000  0.34940000  0.37250000  1.0 0.1399562334
H  H47  1  0.09670000  0.90990000  0.40060000  1.0 0.1326831862
H  H48  1  0.51840000  0.99410000  0.37520000  1.0 0.1399562334
H  H49  1  0.10010000  0.83180000  0.35410000  1.0 0.09937176
H  H50  1  0.42860000  0.05140000  0.62590000  1.0 0.1480957627
H  H51  1  0.10500000  0.01940000  0.36460000  1.0 0.1399562334
H  H52  1  0.50390000  0.86750000  0.43180000  1.0 0.1399562334
H  H53  1  0.49160000  0.79590000  0.38030000  1.0 0.09937176
H  H54  1  0.90200000  0.92440000  0.34490000  1.0 0.1399562334
H  H55  1  0.52520000  0.10710000  0.05650000  1.0 0.1399562334
H  H56  1  0.92930000  0.15710000  0.13270000  1.0 0.0923778418
H  H57  1  0.07660000  0.31840000  0.60600000  1.0 0.1399562334
H  H58  1  0.92480000  0.55490000  0.68350000  1.0 0.09937176
H  H59  1  0.04570000  0.09610000  0.59390000  1.0 0.1480957627
H  H60  1  0.01450000  0.32610000  0.88390000  1.0 0.0923778418
H  H61  1  0.52790000  0.46210000  0.70410000  1.0 0.1103403674
H  H62  1  0.50280000  0.31810000  0.62090000  1.0 0.1326831862
H  H63  1  0.76930000  0.63760000  0.35690000  1.0 0.1103403674
H  H64  1  0.11120000  0.11170000  0.66420000  1.0 0.09937176
H  H65  1  0.85330000  0.33650000  0.64920000  1.0 0.1326831862
H  H66  1  0.05680000  0.25540000  0.66680000  1.0 0.0923778418
H  H67  1  0.29630000  0.62070000  0.71270000  1.0 0.1103403674
H  H68  1  0.44300000  0.40740000  0.92160000  1.0 0.1326831862
H  H69  1  0.73220000  0.16350000  0.69630000  1.0 0.1103403674
H  H70  1  0.47700000  0.26120000  0.68290000  1.0 0.09937176
H  H71  1  0.75110000  0.32030000  0.71660000  1.0 0.09937176
H  H72  1  0.98120000  0.50680000  0.31280000  1.0 0.09937176
H  H73  1  0.70450000  0.58740000  0.41780000  1.0 0.1399562334
H  H74  1  0.64890000  0.15060000  0.62750000  1.0 0.1399562334
H  H75  1  0.59670000  0.59010000  0.59940000  1.0 0.1326831862
H  H76  1  0.01840000  0.50590000  0.62480000  1.0 0.1399562334
H  H77  1  0.60010000  0.66820000  0.64590000  1.0 0.09937176
H  H78  1  0.92860000  0.44860000  0.37410000  1.0 0.1480957627
H  H79  1  0.60500000  0.48060000  0.63540000  1.0 0.1399562334
H  H80  1  0.00390000  0.63250000  0.56820000  1.0 0.1399562334
H  H81  1  0.99160000  0.70410000  0.61970000  1.0 0.09937176
H  H82  1  0.40200000  0.57560000  0.65510000  1.0 0.1399562334
H  H83  1  0.02520000  0.39290000  0.94350000  1.0 0.1399562334
H  H84  1  0.42930000  0.34290000  0.86730000  1.0 0.0923778418
H  H85  1  0.42340000  0.68160000  0.10600000  1.0 0.1399562334
H  H86  1  0.57520000  0.44510000  0.18350000  1.0 0.09937176
H  H87  1  0.45430000  0.90390000  0.09390000  1.0 0.1480957627
H  H88  1  0.48550000  0.67390000  0.38390000  1.0 0.0923778418
H  H89  1  0.97210000  0.53790000  0.20410000  1.0 0.1103403674
H  H90  1  0.99720000  0.68190000  0.12090000  1.0 0.1326831862
H  H91  1  0.73070000  0.36240000  0.85690000  1.0 0.1103403674
H  H92  1  0.38880000  0.88830000  0.16420000  1.0 0.09937176
H  H93  1  0.64670000  0.66350000  0.14920000  1.0 0.1326831862
H  H94  1  0.44320000  0.74460000  0.16680000  1.0 0.0923778418
H  H95  1  0.20370000  0.37930000  0.21270000  1.0 0.1103403674
H  H96  1  0.05700000  0.59260000  0.42160000  1.0 0.1326831862
H  H97  1  0.76780000  0.83650000  0.19630000  1.0 0.1103403674
H  H98  1  0.02300000  0.73880000  0.18290000  1.0 0.09937176
H  H99  1  0.74890000  0.67970000  0.21660000  1.0 0.09937176
H  H100  1  0.51880000  0.49320000  0.81280000  1.0 0.09937176
H  H101  1  0.79550000  0.41260000  0.91780000  1.0 0.1399562334
H  H102  1  0.85110000  0.84940000  0.12750000  1.0 0.1399562334
H  H103  1  0.90330000  0.40990000  0.09940000  1.0 0.1326831862
H  H104  1  0.48160000  0.49410000  0.12480000  1.0 0.1399562334
H  H105  1  0.89990000  0.33180000  0.14590000  1.0 0.09937176
H  H106  1  0.57140000  0.55140000  0.87410000  1.0 0.1480957627
H  H107  1  0.89500000  0.51940000  0.13540000  1.0 0.1399562334
H  H108  1  0.49610000  0.36750000  0.06820000  1.0 0.1399562334
H  H109  1  0.50840000  0.29590000  0.11970000  1.0 0.09937176
H  H110  1  0.09800000  0.42440000  0.15510000  1.0 0.1399562334
H  H111  1  0.47480000  0.60710000  0.44350000  1.0 0.1399562334
H  H112  1  0.07070000  0.65710000  0.36730000  1.0 0.0923778418
C  C1  1  0.69800000  0.86200000  0.93370000  1.0 0.6456289857
C  C2  1  0.22900000  0.97990000  0.05610000  1.0 0.6405314813
C  C3  1  0.84100000  0.80630000  0.87930000  1.0 -0.1418212683
C  C4  1  0.25900000  0.90940000  0.86610000  1.0 0.0200554696
C  C5  1  0.70900000  0.82310000  0.89280000  1.0 0.0200554696
C  C6  1  0.97800000  0.05950000  0.82290000  1.0 0.0923778418
C  C7  1  0.02200000  0.60850000  0.88570000  1.0 -0.1500403704
C  C8  1  0.19500000  0.10020000  0.92310000  1.0 -0.0515172199
C  C9  1  0.76900000  0.91370000  0.56530000  1.0 0.0108858871
C  C10  1  0.89900000  0.84410000  0.60960000  1.0 0.0586327904
C  C11  1  0.21300000  0.60140000  0.94350000  1.0 0.6456289857
C  C12  1  0.40600000  0.93640000  0.80770000  1.0 0.0688635417
C  C13  1  0.19900000  0.01480000  0.09610000  1.0 0.0200554696
C  C14  1  0.76400000  0.95450000  0.52730000  1.0 0.6405314813
C  C15  1  0.58800000  0.80660000  0.87000000  1.0 -0.1418212683
C  C16  1  0.20000000  0.09970000  0.13980000  1.0 0.0361153431
C  C17  1  0.98400000  0.61930000  0.84330000  1.0 0.0797743782
C  C18  1  0.77500000  0.03660000  0.86760000  1.0 0.0108858871
C  C19  1  0.16500000  0.61690000  0.89680000  1.0 0.0264114126
C  C20  1  0.21500000  0.86200000  0.84020000  1.0 -0.1623489748
C  C21  1  0.71100000  0.00820000  0.90650000  1.0 0.6227065533
C  C22  1  0.85300000  0.76900000  0.84140000  1.0 0.0688635417
C  C23  1  0.76000000  0.09820000  0.80580000  1.0 0.0542956947
C  C24  1  0.20100000  0.91680000  0.91120000  1.0 0.6227065533
C  C25  1  0.64700000  0.89360000  0.58670000  1.0 -0.1500403704
C  C26  1  0.20500000  0.64950000  0.82490000  1.0 0.0108858871
C  C27  1  0.60500000  0.77190000  0.83250000  1.0 0.0586327904
C  C28  1  0.19700000  0.05200000  0.95190000  1.0 0.627161926
C  C29  1  0.27400000  0.85310000  0.79920000  1.0 0.0586327904
C  C30  1  0.07500000  0.02280000  0.16530000  1.0 0.09937176
C  C31  1  0.23900000  0.06920000  0.10300000  1.0 -0.1500403704
C  C32  1  0.25700000  0.64090000  0.86550000  1.0 -0.1500403704
C  C33  1  0.32100000  0.11260000  0.89810000  1.0 -0.1500403704
C  C34  1  0.92300000  0.02960000  0.85830000  1.0 -0.1500403704
C  C35  1  0.31600000  0.16000000  0.86960000  1.0 0.0688635417
C  C36  1  0.10600000  0.98600000  0.12880000  1.0 -0.1623489748
C  C37  1  0.36200000  0.94890000  0.84900000  1.0 -0.1712280319
C  C38  1  0.08000000  0.13720000  0.91590000  1.0 -0.1418212683
C  C39  1  0.09000000  0.18180000  0.88500000  1.0 0.0797743782
C  C40  1  0.69600000  0.07090000  0.84010000  1.0 -0.1418212683
C  C41  1  0.89400000  0.88590000  0.57340000  1.0 -0.1418212683
C  C42  1  0.65600000  0.85450000  0.61940000  1.0 0.0688635417
C  C43  1  0.80200000  0.13800000  0.43370000  1.0 0.6456289857
C  C44  1  0.27100000  0.02010000  0.55610000  1.0 0.6456289857
C  C45  1  0.65900000  0.19370000  0.37930000  1.0 -0.1418212683
C  C46  1  0.24100000  0.09060000  0.36610000  1.0 0.0200554696
C  C47  1  0.79100000  0.17690000  0.39280000  1.0 0.0200554696
C  C48  1  0.52200000  0.94050000  0.32290000  1.0 0.0923778418
C  C49  1  0.47800000  0.39150000  0.38570000  1.0 -0.1500403704
C  C50  1  0.30500000  0.89980000  0.42310000  1.0 -0.0515172199
C  C51  1  0.73100000  0.08630000  0.06530000  1.0 0.0108858871
C  C52  1  0.60100000  0.15590000  0.10960000  1.0 0.0542956947
C  C53  1  0.28700000  0.39860000  0.44350000  1.0 0.6456289857
C  C54  1  0.09400000  0.06360000  0.30770000  1.0 0.0688635417
C  C55  1  0.30100000  0.98520000  0.59610000  1.0 0.0200554696
C  C56  1  0.73600000  0.04550000  0.02730000  1.0 0.6405314813
C  C57  1  0.91200000  0.19340000  0.37000000  1.0 -0.1418212683
C  C58  1  0.30000000  0.90030000  0.63980000  1.0 0.0361153431
C  C59  1  0.51600000  0.38070000  0.34330000  1.0 0.0797743782
C  C60  1  0.72500000  0.96340000  0.36760000  1.0 0.0108858871
C  C61  1  0.33500000  0.38310000  0.39680000  1.0 0.0264114126
C  C62  1  0.28500000  0.13800000  0.34020000  1.0 -0.1623489748
C  C63  1  0.78900000  0.99180000  0.40650000  1.0 0.6227065533
C  C64  1  0.64700000  0.23100000  0.34140000  1.0 0.0688635417
C  C65  1  0.74000000  0.90180000  0.30580000  1.0 0.0542956947
C  C66  1  0.29900000  0.08320000  0.41120000  1.0 0.6227065533
C  C67  1  0.85300000  0.10640000  0.08670000  1.0 -0.1500403704
C  C68  1  0.29500000  0.35050000  0.32490000  1.0 0.0108858871
C  C69  1  0.89500000  0.22810000  0.33250000  1.0 0.0586327904
C  C70  1  0.30300000  0.94800000  0.45190000  1.0 0.627161926
C  C71  1  0.22600000  0.14690000  0.29920000  1.0 0.0586327904
C  C72  1  0.42500000  0.97720000  0.66530000  1.0 0.09937176
C  C73  1  0.26100000  0.93080000  0.60300000  1.0 -0.1500403704
C  C74  1  0.24300000  0.35910000  0.36550000  1.0 -0.1500403704
C  C75  1  0.17900000  0.88740000  0.39810000  1.0 -0.1500403704
C  C76  1  0.57700000  0.97040000  0.35830000  1.0 -0.1500403704
C  C77  1  0.18400000  0.84000000  0.36960000  1.0 0.0688635417
C  C78  1  0.39400000  0.01400000  0.62880000  1.0 -0.1712280319
C  C79  1  0.13800000  0.05110000  0.34900000  1.0 -0.1712280319
C  C80  1  0.42000000  0.86280000  0.41590000  1.0 -0.1418212683
C  C81  1  0.41000000  0.81820000  0.38500000  1.0 0.0797743782
C  C82  1  0.80400000  0.92910000  0.34010000  1.0 -0.1418212683
C  C83  1  0.60600000  0.11410000  0.07340000  1.0 -0.1418212683
C  C84  1  0.84400000  0.14550000  0.11940000  1.0 0.0688635417
C  C85  1  0.30200000  0.36200000  0.56630000  1.0 0.6456289857
C  C86  1  0.77100000  0.47990000  0.44390000  1.0 0.6456289857
C  C87  1  0.15900000  0.30630000  0.62070000  1.0 -0.1418212683
C  C88  1  0.74100000  0.40940000  0.63390000  1.0 0.0200554696
C  C89  1  0.29100000  0.32310000  0.60720000  1.0 0.0200554696
C  C90  1  0.02200000  0.55950000  0.67710000  1.0 0.0923778418
C  C91  1  0.97800000  0.10850000  0.61430000  1.0 -0.1500403704
C  C92  1  0.80500000  0.60020000  0.57690000  1.0 -0.0515172199
C  C93  1  0.23100000  0.41370000  0.93470000  1.0 0.0108858871
C  C94  1  0.10100000  0.34410000  0.89040000  1.0 0.0542956947
C  C95  1  0.78700000  0.10140000  0.55650000  1.0 0.6456289857
C  C96  1  0.59400000  0.43640000  0.69230000  1.0 0.0688635417
C  C97  1  0.80100000  0.51480000  0.40390000  1.0 0.0200554696
C  C98  1  0.23600000  0.45450000  0.97270000  1.0 0.6405314813
C  C99  1  0.41200000  0.30660000  0.63000000  1.0 -0.1418212683
C  C100  1  0.80000000  0.59970000  0.36020000  1.0 0.0361153431
C  C101  1  0.01600000  0.11930000  0.65670000  1.0 0.0797743782
C  C102  1  0.22500000  0.53660000  0.63240000  1.0 0.0108858871
C  C103  1  0.83500000  0.11690000  0.60320000  1.0 0.0264114126
C  C104  1  0.78500000  0.36200000  0.65980000  1.0 -0.1623489748
C  C105  1  0.28900000  0.50820000  0.59350000  1.0 0.6227065533
C  C106  1  0.14700000  0.26900000  0.65860000  1.0 0.0688635417
C  C107  1  0.24000000  0.59820000  0.69420000  1.0 0.0542956947
C  C108  1  0.79900000  0.41680000  0.58880000  1.0 0.6227065533
C  C109  1  0.35300000  0.39360000  0.91330000  1.0 -0.1500403704
C  C110  1  0.79500000  0.14950000  0.67510000  1.0 0.0108858871
C  C111  1  0.39500000  0.27190000  0.66750000  1.0 0.0586327904
C  C112  1  0.80300000  0.55200000  0.54810000  1.0 0.627161926
C  C113  1  0.72600000  0.35310000  0.70080000  1.0 0.0586327904
C  C114  1  0.92500000  0.52280000  0.33470000  1.0 0.09937176
C  C115  1  0.76100000  0.56920000  0.39700000  1.0 -0.1500403704
C  C116  1  0.74300000  0.14090000  0.63450000  1.0 -0.1500403704
C  C117  1  0.67900000  0.61260000  0.60190000  1.0 -0.1500403704
C  C118  1  0.07700000  0.52960000  0.64170000  1.0 -0.1500403704
C  C119  1  0.68400000  0.66000000  0.63040000  1.0 0.0688635417
C  C120  1  0.89400000  0.48600000  0.37120000  1.0 -0.1623489748
C  C121  1  0.63800000  0.44890000  0.65100000  1.0 -0.1712280319
C  C122  1  0.92000000  0.63720000  0.58410000  1.0 -0.1418212683
C  C123  1  0.91000000  0.68180000  0.61500000  1.0 0.0797743782
C  C124  1  0.30400000  0.57090000  0.65990000  1.0 -0.1418212683
C  C125  1  0.10600000  0.38590000  0.92660000  1.0 -0.1418212683
C  C126  1  0.34400000  0.35450000  0.88060000  1.0 0.0688635417
C  C127  1  0.19800000  0.63800000  0.06630000  1.0 0.6456289857
C  C128  1  0.72900000  0.52010000  0.94390000  1.0 0.6405314813
C  C129  1  0.34100000  0.69370000  0.12070000  1.0 -0.1418212683
C  C130  1  0.75900000  0.59060000  0.13390000  1.0 0.0200554696
C  C131  1  0.20900000  0.67690000  0.10720000  1.0 0.0200554696
C  C132  1  0.47800000  0.44050000  0.17710000  1.0 0.0923778418
C  C133  1  0.52200000  0.89150000  0.11430000  1.0 -0.1500403704
C  C134  1  0.69500000  0.39980000  0.07690000  1.0 -0.0515172199
C  C135  1  0.26900000  0.58630000  0.43470000  1.0 0.0108858871
C  C136  1  0.39900000  0.65590000  0.39040000  1.0 0.0542956947
C  C137  1  0.71300000  0.89860000  0.05650000  1.0 0.6456289857
C  C138  1  0.90600000  0.56360000  0.19230000  1.0 0.0688635417
C  C139  1  0.69900000  0.48520000  0.90390000  1.0 0.0200554696
C  C140  1  0.26400000  0.54550000  0.47270000  1.0 0.6405314813
C  C141  1  0.08800000  0.69340000  0.13000000  1.0 -0.1418212683
C  C142  1  0.70000000  0.40030000  0.86020000  1.0 0.0361153431
C  C143  1  0.48400000  0.88070000  0.15670000  1.0 0.0797743782
C  C144  1  0.27500000  0.46340000  0.13240000  1.0 0.0108858871
C  C145  1  0.66500000  0.88310000  0.10320000  1.0 0.0264114126
C  C146  1  0.71500000  0.63800000  0.15980000  1.0 -0.1623489748
C  C147  1  0.21100000  0.49180000  0.09350000  1.0 0.6227065533
C  C148  1  0.35300000  0.73100000  0.15860000  1.0 0.0688635417
C  C149  1  0.26000000  0.40180000  0.19420000  1.0 0.0542956947
C  C150  1  0.70100000  0.58320000  0.08880000  1.0 0.6227065533
C  C151  1  0.14700000  0.60640000  0.41330000  1.0 -0.1500403704
C  C152  1  0.70500000  0.85050000  0.17510000  1.0 0.0108858871
C  C153  1  0.10500000  0.72810000  0.16750000  1.0 0.0586327904
C  C154  1  0.69700000  0.44800000  0.04810000  1.0 0.627161926
C  C155  1  0.77400000  0.64690000  0.20080000  1.0 0.0586327904
C  C156  1  0.57500000  0.47720000  0.83470000  1.0 0.09937176
C  C157  1  0.73900000  0.43080000  0.89700000  1.0 -0.1500403704
C  C158  1  0.75700000  0.85910000  0.13450000  1.0 -0.1500403704
C  C159  1  0.82100000  0.38740000  0.10190000  1.0 -0.1500403704
C  C160  1  0.42300000  0.47040000  0.14170000  1.0 -0.1500403704
C  C161  1  0.81600000  0.34000000  0.13040000  1.0 0.0688635417
C  C162  1  0.60600000  0.51400000  0.87120000  1.0 -0.1712280319
C  C163  1  0.86200000  0.55110000  0.15100000  1.0 -0.1712280319
C  C164  1  0.58000000  0.36280000  0.08410000  1.0 -0.1418212683
C  C165  1  0.59000000  0.31820000  0.11500000  1.0 0.0797743782
C  C166  1  0.19600000  0.42910000  0.15990000  1.0 -0.1418212683
C  C167  1  0.39400000  0.61410000  0.42660000  1.0 -0.1418212683
C  C168  1  0.15600000  0.64550000  0.38060000  1.0 0.0688635417
I  I1  1  0.01341000  0.75538000  0.72492000  1.0 -0.3893716127
I  I2  1  0.52270000  0.77004000  0.71440000  1.0 -0.4058610142
I  I3  1  0.71124000  0.60762000  0.75094000  1.0 -0.453864643
I  I4  1  0.48659000  0.24462000  0.22492000  1.0 -0.3893716127
I  I5  1  0.97730000  0.22996000  0.21440000  1.0 -0.4058610142
I  I6  1  0.78876000  0.39238000  0.25094000  1.0 -0.453864643
I  I7  1  0.98659000  0.25538000  0.77508000  1.0 -0.3893716127
I  I8  1  0.47730000  0.27004000  0.78560000  1.0 -0.4058610142
I  I9  1  0.28876000  0.10762000  0.74906000  1.0 -0.453864643
I  I10  1  0.51341000  0.74462000  0.27508000  1.0 -0.3893716127
I  I11  1  0.02270000  0.72996000  0.28560000  1.0 -0.4058610142
I  I12  1  0.21124000  0.89238000  0.24906000  1.0 -0.453864643
N  N1  1  0.73620000  0.75320000  0.81760000  1.0 -0.1811298771
N  N2  1  0.06500000  0.63890000  0.81300000  1.0 -0.1811298771
N  N3  1  0.11700000  0.07490000  0.17140000  1.0 -0.1811298771
N  N4  1  0.77900000  0.83110000  0.63410000  1.0 -0.1811298771
N  N5  1  0.36900000  0.89260000  0.78160000  1.0 -0.1865927611
N  N6  1  0.20400000  0.19420000  0.86260000  1.0 -0.1865927611
N  N7  1  0.90300000  0.09340000  0.79810000  1.0 -0.1712280319
N  N8  1  0.76380000  0.24680000  0.31760000  1.0 -0.1811298771
N  N9  1  0.43500000  0.36110000  0.31300000  1.0 -0.1811298771
N  N10  1  0.38300000  0.92510000  0.67140000  1.0 -0.1811298771
N  N11  1  0.72100000  0.16890000  0.13410000  1.0 -0.1811298771
N  N12  1  0.13100000  0.10740000  0.28160000  1.0 -0.1865927611
N  N13  1  0.29600000  0.80580000  0.36260000  1.0 -0.1865927611
N  N14  1  0.59700000  0.90660000  0.29810000  1.0 -0.1712280319
N  N15  1  0.26380000  0.25320000  0.68240000  1.0 -0.1811298771
N  N16  1  0.93500000  0.13890000  0.68700000  1.0 -0.1811298771
N  N17  1  0.88300000  0.57490000  0.32860000  1.0 -0.1811298771
N  N18  1  0.22100000  0.33110000  0.86590000  1.0 -0.1811298771
N  N19  1  0.63100000  0.39260000  0.71840000  1.0 -0.1865927611
N  N20  1  0.79600000  0.69420000  0.63740000  1.0 -0.1865927611
N  N21  1  0.09700000  0.59340000  0.70190000  1.0 -0.1712280319
N  N22  1  0.23620000  0.74680000  0.18240000  1.0 -0.1811298771
N  N23  1  0.56500000  0.86110000  0.18700000  1.0 -0.1811298771
N  N24  1  0.61700000  0.42510000  0.82860000  1.0 -0.1811298771
N  N25  1  0.27900000  0.66890000  0.36590000  1.0 -0.1811298771
N  N26  1  0.86900000  0.60740000  0.21840000  1.0 -0.1865927611
N  N27  1  0.70400000  0.30580000  0.13740000  1.0 -0.1865927611
N  N28  1  0.40300000  0.40660000  0.20190000  1.0 -0.1712280319
O  O1  1  0.87650000  0.96340000  0.50720000  1.0 -0.6309515971
O  O2  1  0.13020000  0.95490000  0.03730000  1.0 -0.6309515971
O  O3  1  0.80480000  0.86600000  0.95630000  1.0 -0.5895765216
O  O4  1  0.31920000  0.03900000  0.96970000  1.0 -0.6969242484
O  O5  1  0.08230000  0.02550000  0.95880000  1.0 -0.6247728855
O  O6  1  0.06770000  0.91260000  0.91640000  1.0 -0.6398310155
O  O7  1  0.65040000  0.98260000  0.52310000  1.0 -0.6309515971
O  O8  1  0.57230000  0.88540000  0.93870000  1.0 -0.6826562971
O  O9  1  0.35000000  0.60180000  0.95040000  1.0 -0.6739040107
O  O10  1  0.36110000  0.97450000  0.04540000  1.0 -0.6590038032
O  O11  1  0.79370000  0.98250000  0.93300000  1.0 -0.6826562971
O  O12  1  0.11900000  0.58550000  0.97040000  1.0 -0.689718777
O  O13  1  0.57810000  0.01180000  0.91260000  1.0 -0.6309515971
O  O14  1  0.28790000  0.92620000  0.94210000  1.0 -0.689718777
O  O15  1  0.62350000  0.03660000  0.00720000  1.0 -0.6309515971
O  O16  1  0.36980000  0.04510000  0.53730000  1.0 -0.6309515971
O  O17  1  0.69520000  0.13400000  0.45630000  1.0 -0.5895765216
O  O18  1  0.18080000  0.96100000  0.46970000  1.0 -0.6969242484
O  O19  1  0.41770000  0.97450000  0.45880000  1.0 -0.6309515971
O  O20  1  0.43230000  0.08740000  0.41640000  1.0 -0.6398310155
O  O21  1  0.84960000  0.01740000  0.02310000  1.0 -0.6309515971
O  O22  1  0.92770000  0.11460000  0.43870000  1.0 -0.6826562971
O  O23  1  0.15000000  0.39820000  0.45040000  1.0 -0.6739040107
O  O24  1  0.13890000  0.02550000  0.54540000  1.0 -0.6590038032
O  O25  1  0.70630000  0.01750000  0.43300000  1.0 -0.6826562971
O  O26  1  0.38100000  0.41450000  0.47040000  1.0 -0.689718777
O  O27  1  0.92190000  0.98820000  0.41260000  1.0 -0.6309515971
O  O28  1  0.21210000  0.07380000  0.44210000  1.0 -0.689718777
O  O29  1  0.12350000  0.46340000  0.99280000  1.0 -0.6309515971
O  O30  1  0.86980000  0.45490000  0.46270000  1.0 -0.6309515971
O  O31  1  0.19520000  0.36600000  0.54370000  1.0 -0.5895765216
O  O32  1  0.68080000  0.53900000  0.53030000  1.0 -0.6969242484
O  O33  1  0.91770000  0.52550000  0.54120000  1.0 -0.6309515971
O  O34  1  0.93230000  0.41260000  0.58360000  1.0 -0.6398310155
O  O35  1  0.34960000  0.48260000  0.97690000  1.0 -0.6309515971
O  O36  1  0.42770000  0.38540000  0.56130000  1.0 -0.6826562971
O  O37  1  0.65000000  0.10180000  0.54960000  1.0 -0.6739040107
O  O38  1  0.63890000  0.47450000  0.45460000  1.0 -0.6590038032
O  O39  1  0.20630000  0.48250000  0.56700000  1.0 -0.6826562971
O  O40  1  0.88100000  0.08550000  0.52960000  1.0 -0.689718777
O  O41  1  0.42190000  0.51180000  0.58740000  1.0 -0.6309515971
O  O42  1  0.71210000  0.42620000  0.55790000  1.0 -0.689718777
O  O43  1  0.37650000  0.53660000  0.49280000  1.0 -0.6309515971
O  O44  1  0.63020000  0.54510000  0.96270000  1.0 -0.6309515971
O  O45  1  0.30480000  0.63400000  0.04370000  1.0 -0.5895765216
O  O46  1  0.81920000  0.46100000  0.03030000  1.0 -0.6969242484
O  O47  1  0.58230000  0.47450000  0.04120000  1.0 -0.6309515971
O  O48  1  0.56770000  0.58740000  0.08360000  1.0 -0.6398310155
O  O49  1  0.15040000  0.51740000  0.47690000  1.0 -0.6309515971
O  O50  1  0.07230000  0.61460000  0.06130000  1.0 -0.6826562971
O  O51  1  0.85000000  0.89820000  0.04960000  1.0 -0.6739040107
O  O52  1  0.86110000  0.52550000  0.95460000  1.0 -0.6590038032
O  O53  1  0.29370000  0.51750000  0.06700000  1.0 -0.6826562971
O  O54  1  0.61900000  0.91450000  0.02960000  1.0 -0.689718777
O  O55  1  0.07810000  0.48820000  0.08740000  1.0 -0.6309515971
O  O56  1  0.78790000  0.57380000  0.05790000  1.0 -0.689718777
