# DDEC6 charges by PACMAN v1.1 (https://github.com/mtap-research/PACMAN-charge/)
data_TEJCET_ASR_pacman
_symmetry_space_group_name_H-M   'P 1'
_cell_length_a   18.48420000
_cell_length_b   18.48420000
_cell_length_c   18.48420000
_cell_angle_alpha   59.99940000
_cell_angle_beta   59.99940000
_cell_angle_gamma   59.99940000
_symmetry_Int_Tables_number   1
_chemical_formula_structural   CuH11C19(NO2)3
_chemical_formula_sum   'Cu6 H66 C114 N18 O36'
_cell_volume   4465.61287280
_cell_formula_units_Z   6
loop_
 _symmetry_equiv_pos_site_id
 _symmetry_equiv_pos_as_xyz
  1  'x, y, z'
loop_
 _atom_site_type_symbol
 _atom_site_label
 _atom_site_symmetry_multiplicity
 _atom_site_fract_x
 _atom_site_fract_y
 _atom_site_fract_z
 _atom_site_occupancy
 _atom_site_charge
Cu  Cu1  1  0.07255000  0.49920000  0.49920000  1.0 0.8594910635
Cu  Cu2  1  0.49920000  0.07255000  0.49920000  1.0 0.8594910635
Cu  Cu3  1  0.49920000  0.49920000  0.07255000  1.0 0.8594910635
Cu  Cu4  1  0.50080000  0.92745000  0.50080000  1.0 0.8594910635
Cu  Cu5  1  0.92745000  0.50080000  0.50080000  1.0 0.8594910635
Cu  Cu6  1  0.50080000  0.50080000  0.92745000  1.0 0.8594910635
H  H1  1  0.05170000  0.45910000  0.11840000  1.0 0.0815422767
H  H2  1  0.02320000  0.52180000  0.21500000  1.0 0.1037171392
H  H3  1  0.09110000  0.55060000  0.84800000  1.0 0.0928916443
H  H4  1  0.01720000  0.53230000  0.81900000  1.0 0.1164456602
H  H5  1  0.98690000  0.41360000  0.10270000  1.0 0.0574344326
H  H6  1  0.11840000  0.05170000  0.45910000  1.0 0.0815422767
H  H7  1  0.21500000  0.02320000  0.52180000  1.0 0.1037171392
H  H8  1  0.84800000  0.09110000  0.55060000  1.0 0.0928916443
H  H9  1  0.81900000  0.01720000  0.53230000  1.0 0.1164456602
H  H10  1  0.10270000  0.98690000  0.41360000  1.0 0.0574344326
H  H11  1  0.45910000  0.11840000  0.05170000  1.0 0.0815422767
H  H12  1  0.52180000  0.21500000  0.02320000  1.0 0.1037171392
H  H13  1  0.55060000  0.84800000  0.09110000  1.0 0.0928916443
H  H14  1  0.53230000  0.81900000  0.01720000  1.0 0.1164456602
H  H15  1  0.41360000  0.10270000  0.98690000  1.0 0.0574344326
H  H16  1  0.54090000  0.94830000  0.88160000  1.0 0.0815422767
H  H17  1  0.47820000  0.97680000  0.78500000  1.0 0.1037171392
H  H18  1  0.44940000  0.90890000  0.15200000  1.0 0.0928916443
H  H19  1  0.46770000  0.98280000  0.18100000  1.0 0.1164456602
H  H20  1  0.58640000  0.01310000  0.89730000  1.0 0.0574344326
H  H21  1  0.94830000  0.88160000  0.54090000  1.0 0.0815422767
H  H22  1  0.97680000  0.78500000  0.47820000  1.0 0.1037171392
H  H23  1  0.90890000  0.15200000  0.44940000  1.0 0.0928916443
H  H24  1  0.98280000  0.18100000  0.46770000  1.0 0.1164456602
H  H25  1  0.01310000  0.89730000  0.58640000  1.0 0.0574344326
H  H26  1  0.88160000  0.54090000  0.94830000  1.0 0.0815422767
H  H27  1  0.78500000  0.47820000  0.97680000  1.0 0.1037171392
H  H28  1  0.15200000  0.44940000  0.90890000  1.0 0.0928916443
H  H29  1  0.18100000  0.46770000  0.98280000  1.0 0.1164456602
H  H30  1  0.89730000  0.58640000  0.01310000  1.0 0.0574344326
H  H31  1  0.94830000  0.54090000  0.88160000  1.0 0.0815422767
H  H32  1  0.97680000  0.47820000  0.78500000  1.0 0.1037171392
H  H33  1  0.90890000  0.44940000  0.15200000  1.0 0.0928916443
H  H34  1  0.98280000  0.46770000  0.18100000  1.0 0.1164456602
H  H35  1  0.01310000  0.58640000  0.89730000  1.0 0.0574344326
H  H36  1  0.88160000  0.94830000  0.54090000  1.0 0.0815422767
H  H37  1  0.78500000  0.97680000  0.47820000  1.0 0.1037171392
H  H38  1  0.15200000  0.90890000  0.44940000  1.0 0.0928916443
H  H39  1  0.18100000  0.98280000  0.46770000  1.0 0.1164456602
H  H40  1  0.89730000  0.01310000  0.58640000  1.0 0.0574344326
H  H41  1  0.54090000  0.88160000  0.94830000  1.0 0.0815422767
H  H42  1  0.47820000  0.78500000  0.97680000  1.0 0.1037171392
H  H43  1  0.44940000  0.15200000  0.90890000  1.0 0.0928916443
H  H44  1  0.46770000  0.18100000  0.98280000  1.0 0.1164456602
H  H45  1  0.58640000  0.89730000  0.01310000  1.0 0.0574344326
H  H46  1  0.45910000  0.05170000  0.11840000  1.0 0.0815422767
H  H47  1  0.52180000  0.02320000  0.21500000  1.0 0.1037171392
H  H48  1  0.55060000  0.09110000  0.84800000  1.0 0.0928916443
H  H49  1  0.53230000  0.01720000  0.81900000  1.0 0.1164456602
H  H50  1  0.41360000  0.98690000  0.10270000  1.0 0.0574344326
H  H51  1  0.05170000  0.11840000  0.45910000  1.0 0.0815422767
H  H52  1  0.02320000  0.21500000  0.52180000  1.0 0.1037171392
H  H53  1  0.09110000  0.84800000  0.55060000  1.0 0.0928916443
H  H54  1  0.01720000  0.81900000  0.53230000  1.0 0.1164456602
H  H55  1  0.98690000  0.10270000  0.41360000  1.0 0.0574344326
H  H56  1  0.11840000  0.45910000  0.05170000  1.0 0.0815422767
H  H57  1  0.21500000  0.52180000  0.02320000  1.0 0.1037171392
H  H58  1  0.84800000  0.55060000  0.09110000  1.0 0.0928916443
H  H59  1  0.81900000  0.53230000  0.01720000  1.0 0.1164456602
H  H60  1  0.10270000  0.41360000  0.98690000  1.0 0.0574344326
H  H61  1  0.22680000  0.52960000  0.22680000  1.0 0.1411238371
H  H62  1  0.22680000  0.22680000  0.52960000  1.0 0.1411238371
H  H63  1  0.52960000  0.22680000  0.22680000  1.0 0.1411238371
H  H64  1  0.47040000  0.77320000  0.77320000  1.0 0.1411238371
H  H65  1  0.77320000  0.77320000  0.47040000  1.0 0.1411238371
H  H66  1  0.77320000  0.47040000  0.77320000  1.0 0.1411238371
C  C1  1  0.06913000  0.52213000  0.33653000  1.0 0.5744243198
C  C2  1  0.11108000  0.52988000  0.24378000  1.0 -0.0189424219
C  C3  1  0.06938000  0.52758000  0.19928000  1.0 -0.2163997824
C  C4  1  0.10790000  0.49200000  0.00350000  1.0 0.0310426192
C  C5  1  0.04760000  0.48260000  0.97960000  1.0 0.0190136084
C  C6  1  0.05670000  0.51230000  0.89130000  1.0 0.0037837267
C  C7  1  0.00040000  0.50330000  0.87020000  1.0 0.0110751603
C  C8  1  0.98340000  0.44520000  0.04400000  1.0 -0.0037289648
C  C9  1  0.33653000  0.06913000  0.52213000  1.0 0.5744243198
C  C10  1  0.24378000  0.11108000  0.52988000  1.0 -0.0189424219
C  C11  1  0.19928000  0.06938000  0.52758000  1.0 -0.2163997824
C  C12  1  0.00350000  0.10790000  0.49200000  1.0 0.0310426192
C  C13  1  0.97960000  0.04760000  0.48260000  1.0 0.0190136084
C  C14  1  0.89130000  0.05670000  0.51230000  1.0 0.0110751603
C  C15  1  0.87020000  0.00040000  0.50330000  1.0 0.0110751603
C  C16  1  0.04400000  0.98340000  0.44520000  1.0 -0.0037289648
C  C17  1  0.52213000  0.33653000  0.06913000  1.0 0.5744243198
C  C18  1  0.52988000  0.24378000  0.11108000  1.0 -0.0189424219
C  C19  1  0.52758000  0.19928000  0.06938000  1.0 -0.2163997824
C  C20  1  0.49200000  0.00350000  0.10790000  1.0 0.0310426192
C  C21  1  0.48260000  0.97960000  0.04760000  1.0 0.0190136084
C  C22  1  0.51230000  0.89130000  0.05670000  1.0 0.0037837267
C  C23  1  0.50330000  0.87020000  0.00040000  1.0 0.0110751603
C  C24  1  0.44520000  0.04400000  0.98340000  1.0 -0.0037289648
C  C25  1  0.47787000  0.93087000  0.66347000  1.0 0.5744243198
C  C26  1  0.47012000  0.88892000  0.75622000  1.0 -0.0189424219
C  C27  1  0.47242000  0.93062000  0.80072000  1.0 -0.2163997824
C  C28  1  0.50800000  0.89210000  0.99650000  1.0 0.0310426192
C  C29  1  0.51740000  0.95240000  0.02040000  1.0 0.0190136084
C  C30  1  0.48770000  0.94330000  0.10870000  1.0 0.0037837267
C  C31  1  0.49670000  0.99960000  0.12980000  1.0 0.0110751603
C  C32  1  0.55480000  0.01660000  0.95600000  1.0 -0.0037289648
C  C33  1  0.93087000  0.66347000  0.47787000  1.0 0.5744243198
C  C34  1  0.88892000  0.75622000  0.47012000  1.0 -0.0189424219
C  C35  1  0.93062000  0.80072000  0.47242000  1.0 -0.2163997824
C  C36  1  0.89210000  0.99650000  0.50800000  1.0 0.0310426192
C  C37  1  0.95240000  0.02040000  0.51740000  1.0 0.0190136084
C  C38  1  0.94330000  0.10870000  0.48770000  1.0 0.0110751603
C  C39  1  0.99960000  0.12980000  0.49670000  1.0 0.0110751603
C  C40  1  0.01660000  0.95600000  0.55480000  1.0 -0.0037289648
C  C41  1  0.66347000  0.47787000  0.93087000  1.0 0.5744243198
C  C42  1  0.75622000  0.47012000  0.88892000  1.0 -0.0189424219
C  C43  1  0.80072000  0.47242000  0.93062000  1.0 -0.2163997824
C  C44  1  0.99650000  0.50800000  0.89210000  1.0 0.0310426192
C  C45  1  0.02040000  0.51740000  0.95240000  1.0 0.0190136084
C  C46  1  0.10870000  0.48770000  0.94330000  1.0 0.0037837267
C  C47  1  0.12980000  0.49670000  0.99960000  1.0 0.0110751603
C  C48  1  0.95600000  0.55480000  0.01660000  1.0 -0.0037289648
C  C49  1  0.93087000  0.47787000  0.66347000  1.0 0.5744243198
C  C50  1  0.88892000  0.47012000  0.75622000  1.0 -0.0189424219
C  C51  1  0.93062000  0.47242000  0.80072000  1.0 -0.2163997824
C  C52  1  0.89210000  0.50800000  0.99650000  1.0 0.0310426192
C  C53  1  0.95240000  0.51740000  0.02040000  1.0 0.0190136084
C  C54  1  0.94330000  0.48770000  0.10870000  1.0 0.0110751603
C  C55  1  0.99960000  0.49670000  0.12980000  1.0 0.0110751603
C  C56  1  0.01660000  0.55480000  0.95600000  1.0 -0.0037289648
C  C57  1  0.66347000  0.93087000  0.47787000  1.0 0.5744243198
C  C58  1  0.75622000  0.88892000  0.47012000  1.0 -0.0189424219
C  C59  1  0.80072000  0.93062000  0.47242000  1.0 -0.2163997824
C  C60  1  0.99650000  0.89210000  0.50800000  1.0 0.0310426192
C  C61  1  0.02040000  0.95240000  0.51740000  1.0 0.0190136084
C  C62  1  0.10870000  0.94330000  0.48770000  1.0 0.0037837267
C  C63  1  0.12980000  0.99960000  0.49670000  1.0 0.0110751603
C  C64  1  0.95600000  0.01660000  0.55480000  1.0 -0.0037289648
C  C65  1  0.47787000  0.66347000  0.93087000  1.0 0.5744243198
C  C66  1  0.47012000  0.75622000  0.88892000  1.0 -0.0189424219
C  C67  1  0.47242000  0.80072000  0.93062000  1.0 -0.2163997824
C  C68  1  0.50800000  0.99650000  0.89210000  1.0 0.0310426192
C  C69  1  0.51740000  0.02040000  0.95240000  1.0 0.0190136084
C  C70  1  0.48770000  0.10870000  0.94330000  1.0 0.0037837267
C  C71  1  0.49670000  0.12980000  0.99960000  1.0 0.0110751603
C  C72  1  0.55480000  0.95600000  0.01660000  1.0 -0.0037289648
C  C73  1  0.52213000  0.06913000  0.33653000  1.0 0.5744243198
C  C74  1  0.52988000  0.11108000  0.24378000  1.0 -0.0189424219
C  C75  1  0.52758000  0.06938000  0.19928000  1.0 -0.2163997824
C  C76  1  0.49200000  0.10790000  0.00350000  1.0 0.0310426192
C  C77  1  0.48260000  0.04760000  0.97960000  1.0 0.0190136084
C  C78  1  0.51230000  0.05670000  0.89130000  1.0 0.0037837267
C  C79  1  0.50330000  0.00040000  0.87020000  1.0 0.0110751603
C  C80  1  0.44520000  0.98340000  0.04400000  1.0 -0.0037289648
C  C81  1  0.06913000  0.33653000  0.52213000  1.0 0.5744243198
C  C82  1  0.11108000  0.24378000  0.52988000  1.0 -0.0189424219
C  C83  1  0.06938000  0.19928000  0.52758000  1.0 -0.21346377
C  C84  1  0.10790000  0.00350000  0.49200000  1.0 0.0310426192
C  C85  1  0.04760000  0.97960000  0.48260000  1.0 0.0190136084
C  C86  1  0.05670000  0.89130000  0.51230000  1.0 0.0037837267
C  C87  1  0.00040000  0.87020000  0.50330000  1.0 0.0110751603
C  C88  1  0.98340000  0.04400000  0.44520000  1.0 -0.0037289648
C  C89  1  0.33653000  0.52213000  0.06913000  1.0 0.5744243198
C  C90  1  0.24378000  0.52988000  0.11108000  1.0 -0.0189424219
C  C91  1  0.19928000  0.52758000  0.06938000  1.0 -0.2163997824
C  C92  1  0.00350000  0.49200000  0.10790000  1.0 0.0310426192
C  C93  1  0.97960000  0.48260000  0.04760000  1.0 0.0190136084
C  C94  1  0.89130000  0.51230000  0.05670000  1.0 0.0037837267
C  C95  1  0.87020000  0.50330000  0.00040000  1.0 0.0110751603
C  C96  1  0.04400000  0.44520000  0.98340000  1.0 -0.0037289648
C  C97  1  0.19769000  0.52974000  0.19769000  1.0 -0.0785477427
C  C98  1  0.11327000  0.52617000  0.11327000  1.0 -0.0131275487
C  C99  1  0.93540000  0.46500000  0.93540000  1.0 0.0574344326
C  C100  1  0.19769000  0.19769000  0.52974000  1.0 -0.0785477427
C  C101  1  0.11327000  0.11327000  0.52617000  1.0 -0.0131275487
C  C102  1  0.93540000  0.93540000  0.46500000  1.0 0.0574344326
C  C103  1  0.52974000  0.19769000  0.19769000  1.0 -0.0785477427
C  C104  1  0.52617000  0.11327000  0.11327000  1.0 -0.0189424219
C  C105  1  0.46500000  0.93540000  0.93540000  1.0 0.0574344326
C  C106  1  0.47026000  0.80231000  0.80231000  1.0 -0.0785477427
C  C107  1  0.47383000  0.88673000  0.88673000  1.0 -0.0189424219
C  C108  1  0.53500000  0.06460000  0.06460000  1.0 0.0574344326
C  C109  1  0.80231000  0.80231000  0.47026000  1.0 -0.0785477427
C  C110  1  0.88673000  0.88673000  0.47383000  1.0 -0.0131275487
C  C111  1  0.06460000  0.06460000  0.53500000  1.0 0.0574344326
C  C112  1  0.80231000  0.47026000  0.80231000  1.0 -0.0785477427
C  C113  1  0.88673000  0.47383000  0.88673000  1.0 -0.0131275487
C  C114  1  0.06460000  0.53500000  0.06460000  1.0 0.0574344326
N  N1  1  0.92690000  0.43620000  0.02250000  1.0 -0.1114317749
N  N2  1  0.02250000  0.92690000  0.43620000  1.0 -0.1020531537
N  N3  1  0.43620000  0.02250000  0.92690000  1.0 -0.1114317749
N  N4  1  0.56380000  0.07310000  0.97750000  1.0 -0.1020531537
N  N5  1  0.07310000  0.97750000  0.56380000  1.0 -0.1020531537
N  N6  1  0.97750000  0.56380000  0.07310000  1.0 -0.1114317749
N  N7  1  0.07310000  0.56380000  0.97750000  1.0 -0.1114317749
N  N8  1  0.97750000  0.07310000  0.56380000  1.0 -0.1114317749
N  N9  1  0.56380000  0.97750000  0.07310000  1.0 -0.1114317749
N  N10  1  0.43620000  0.92690000  0.02250000  1.0 -0.1020531537
N  N11  1  0.92690000  0.02250000  0.43620000  1.0 -0.1114317749
N  N12  1  0.02250000  0.43620000  0.92690000  1.0 -0.1020531537
N  N13  1  0.08145000  0.49480000  0.08145000  1.0 -0.0436763407
N  N14  1  0.08145000  0.08145000  0.49480000  1.0 -0.0496443042
N  N15  1  0.49480000  0.08145000  0.08145000  1.0 -0.0496443042
N  N16  1  0.50520000  0.91855000  0.91855000  1.0 -0.0496443042
N  N17  1  0.91855000  0.91855000  0.50520000  1.0 -0.0496443042
N  N18  1  0.91855000  0.50520000  0.91855000  1.0 -0.0496443042
O  O1  1  0.11347000  0.52157000  0.37177000  1.0 -0.532821195
O  O2  1  0.99095000  0.52105000  0.37385000  1.0 -0.5092677267
O  O3  1  0.17660000  0.50380000  0.94160000  1.0 -0.1623318984
O  O4  1  0.37177000  0.11347000  0.52157000  1.0 -0.532821195
O  O5  1  0.37385000  0.99095000  0.52105000  1.0 -0.5092677267
O  O6  1  0.94160000  0.17660000  0.50380000  1.0 -0.1661138402
O  O7  1  0.52157000  0.37177000  0.11347000  1.0 -0.532821195
O  O8  1  0.52105000  0.37385000  0.99095000  1.0 -0.5092677267
O  O9  1  0.50380000  0.94160000  0.17660000  1.0 -0.1623318984
O  O10  1  0.47843000  0.88653000  0.62823000  1.0 -0.532821195
O  O11  1  0.47895000  0.00905000  0.62615000  1.0 -0.5092677267
O  O12  1  0.49620000  0.82340000  0.05840000  1.0 -0.1623318984
O  O13  1  0.88653000  0.62823000  0.47843000  1.0 -0.532821195
O  O14  1  0.00905000  0.62615000  0.47895000  1.0 -0.5092677267
O  O15  1  0.82340000  0.05840000  0.49620000  1.0 -0.1623318984
O  O16  1  0.62823000  0.47843000  0.88653000  1.0 -0.532821195
O  O17  1  0.62615000  0.47895000  0.00905000  1.0 -0.5092677267
O  O18  1  0.05840000  0.49620000  0.82340000  1.0 -0.1623318984
O  O19  1  0.88653000  0.47843000  0.62823000  1.0 -0.532821195
O  O20  1  0.00905000  0.47895000  0.62615000  1.0 -0.5092677267
O  O21  1  0.82340000  0.49620000  0.05840000  1.0 -0.1623318984
O  O22  1  0.62823000  0.88653000  0.47843000  1.0 -0.532821195
O  O23  1  0.62615000  0.00905000  0.47895000  1.0 -0.5092677267
O  O24  1  0.05840000  0.82340000  0.49620000  1.0 -0.1623318984
O  O25  1  0.47843000  0.62823000  0.88653000  1.0 -0.532821195
O  O26  1  0.47895000  0.62615000  0.00905000  1.0 -0.5092677267
O  O27  1  0.49620000  0.05840000  0.82340000  1.0 -0.1623318984
O  O28  1  0.52157000  0.11347000  0.37177000  1.0 -0.532821195
O  O29  1  0.52105000  0.99095000  0.37385000  1.0 -0.5092677267
O  O30  1  0.50380000  0.17660000  0.94160000  1.0 -0.1623318984
O  O31  1  0.11347000  0.37177000  0.52157000  1.0 -0.532821195
O  O32  1  0.99095000  0.37385000  0.52105000  1.0 -0.5092677267
O  O33  1  0.17660000  0.94160000  0.50380000  1.0 -0.1623318984
O  O34  1  0.37177000  0.52157000  0.11347000  1.0 -0.532821195
O  O35  1  0.37385000  0.52105000  0.99095000  1.0 -0.5092677267
O  O36  1  0.94160000  0.50380000  0.17660000  1.0 -0.1623318984
