# DDEC6 charges by PACMAN v1.1 (https://github.com/mtap-research/PACMAN-charge/)
data_TEKMUV_ASR_pacman
_symmetry_space_group_name_H-M   'P 1'
_cell_length_a   14.44260000
_cell_length_b   14.44260000
_cell_length_c   10.23660000
_cell_angle_alpha   90.00000000
_cell_angle_beta   90.00000000
_cell_angle_gamma   90.00000000
_symmetry_Int_Tables_number   1
_chemical_formula_structural   Mn6H16C16N24Cl5
_chemical_formula_sum   'Mn12 H32 C32 N48 Cl10'
_cell_volume   2135.23903278
_cell_formula_units_Z   2
loop_
 _symmetry_equiv_pos_site_id
 _symmetry_equiv_pos_as_xyz
  1  'x, y, z'
loop_
 _atom_site_type_symbol
 _atom_site_label
 _atom_site_symmetry_multiplicity
 _atom_site_fract_x
 _atom_site_fract_y
 _atom_site_fract_z
 _atom_site_occupancy
 _atom_site_charge
Mn  Mn1  1  0.25000000  0.75000000  0.25000000  1.0 0.6461038192
Mn  Mn2  1  0.75000000  0.25000000  0.25000000  1.0 0.6461038192
Mn  Mn3  1  0.25000000  0.25000000  0.75000000  1.0 0.6461038192
Mn  Mn4  1  0.75000000  0.75000000  0.75000000  1.0 0.6461038192
Mn  Mn5  1  0.36802000  0.36802000  0.01908000  1.0 0.6264555951
Mn  Mn6  1  0.63198000  0.63198000  0.01908000  1.0 0.6264555951
Mn  Mn7  1  0.86802000  0.13198000  0.51908000  1.0 0.6264555951
Mn  Mn8  1  0.13198000  0.86802000  0.51908000  1.0 0.6264555951
Mn  Mn9  1  0.36802000  0.63198000  0.98092000  1.0 0.6264555951
Mn  Mn10  1  0.63198000  0.36802000  0.98092000  1.0 0.6264555951
Mn  Mn11  1  0.86802000  0.86802000  0.48092000  1.0 0.6264555951
Mn  Mn12  1  0.13198000  0.13198000  0.48092000  1.0 0.6264555951
H  H1  1  0.23150000  0.38030000  0.29700000  1.0 0.1211605271
H  H2  1  0.17440000  0.54810000  0.38300000  1.0 0.1261697611
H  H3  1  0.76850000  0.61970000  0.29700000  1.0 0.1211605271
H  H4  1  0.82560000  0.45190000  0.38300000  1.0 0.1261697611
H  H5  1  0.88030000  0.26850000  0.79700000  1.0 0.1211605271
H  H6  1  0.04810000  0.32560000  0.88300000  1.0 0.1261697611
H  H7  1  0.11970000  0.73150000  0.79700000  1.0 0.1211605271
H  H8  1  0.95190000  0.67440000  0.88300000  1.0 0.1261697611
H  H9  1  0.23150000  0.61970000  0.70300000  1.0 0.1211605271
H  H10  1  0.17440000  0.45190000  0.61700000  1.0 0.1261697611
H  H11  1  0.76850000  0.38030000  0.70300000  1.0 0.1211605271
H  H12  1  0.82560000  0.54810000  0.61700000  1.0 0.1261697611
H  H13  1  0.88030000  0.73150000  0.20300000  1.0 0.1211605271
H  H14  1  0.04810000  0.67440000  0.11700000  1.0 0.1261697611
H  H15  1  0.11970000  0.26850000  0.20300000  1.0 0.1211605271
H  H16  1  0.95190000  0.32560000  0.11700000  1.0 0.1261697611
H  H17  1  0.26850000  0.11970000  0.20300000  1.0 0.1211605271
H  H18  1  0.32560000  0.95190000  0.11700000  1.0 0.1261697611
H  H19  1  0.73150000  0.88030000  0.20300000  1.0 0.1211605271
H  H20  1  0.67440000  0.04810000  0.11700000  1.0 0.1261697611
H  H21  1  0.61970000  0.23150000  0.70300000  1.0 0.1211605271
H  H22  1  0.45190000  0.17440000  0.61700000  1.0 0.1261697611
H  H23  1  0.38030000  0.76850000  0.70300000  1.0 0.1211605271
H  H24  1  0.54810000  0.82560000  0.61700000  1.0 0.1261697611
H  H25  1  0.26850000  0.88030000  0.79700000  1.0 0.1211605271
H  H26  1  0.32560000  0.04810000  0.88300000  1.0 0.1261697611
H  H27  1  0.73150000  0.11970000  0.79700000  1.0 0.1211605271
H  H28  1  0.67440000  0.95190000  0.88300000  1.0 0.1261697611
H  H29  1  0.61970000  0.76850000  0.29700000  1.0 0.1211605271
H  H30  1  0.45190000  0.82560000  0.38300000  1.0 0.1261697611
H  H31  1  0.38030000  0.23150000  0.29700000  1.0 0.1211605271
H  H32  1  0.54810000  0.17440000  0.38300000  1.0 0.1261697611
C  C1  1  0.21355000  0.52950000  0.31146000  1.0 -0.0590556851
C  C2  1  0.24268000  0.44476000  0.26500000  1.0 -0.0590556851
C  C3  1  0.78645000  0.47050000  0.31146000  1.0 -0.0590556851
C  C4  1  0.75732000  0.55524000  0.26500000  1.0 -0.0590556851
C  C5  1  0.02950000  0.28645000  0.81146000  1.0 -0.0590556851
C  C6  1  0.94476000  0.25732000  0.76500000  1.0 -0.0590556851
C  C7  1  0.97050000  0.71355000  0.81146000  1.0 -0.0590556851
C  C8  1  0.05524000  0.74268000  0.76500000  1.0 -0.0590556851
C  C9  1  0.21355000  0.47050000  0.68854000  1.0 -0.0590556851
C  C10  1  0.24268000  0.55524000  0.73500000  1.0 -0.0590556851
C  C11  1  0.78645000  0.52950000  0.68854000  1.0 -0.0590556851
C  C12  1  0.75732000  0.44476000  0.73500000  1.0 -0.0590556851
C  C13  1  0.02950000  0.71355000  0.18854000  1.0 -0.0590556851
C  C14  1  0.94476000  0.74268000  0.23500000  1.0 -0.0590556851
C  C15  1  0.97050000  0.28645000  0.18854000  1.0 -0.0590556851
C  C16  1  0.05524000  0.25732000  0.23500000  1.0 -0.0590556851
C  C17  1  0.28645000  0.97050000  0.18854000  1.0 -0.0590556851
C  C18  1  0.25732000  0.05524000  0.23500000  1.0 -0.0590556851
C  C19  1  0.71355000  0.02950000  0.18854000  1.0 -0.0590556851
C  C20  1  0.74268000  0.94476000  0.23500000  1.0 -0.0590556851
C  C21  1  0.47050000  0.21355000  0.68854000  1.0 -0.0590556851
C  C22  1  0.55524000  0.24268000  0.73500000  1.0 -0.0590556851
C  C23  1  0.52950000  0.78645000  0.68854000  1.0 -0.0590556851
C  C24  1  0.44476000  0.75732000  0.73500000  1.0 -0.0590556851
C  C25  1  0.28645000  0.02950000  0.81146000  1.0 -0.0590556851
C  C26  1  0.25732000  0.94476000  0.76500000  1.0 -0.0590556851
C  C27  1  0.71355000  0.97050000  0.81146000  1.0 -0.0590556851
C  C28  1  0.74268000  0.05524000  0.76500000  1.0 -0.0590556851
C  C29  1  0.47050000  0.78645000  0.31146000  1.0 -0.0590556851
C  C30  1  0.55524000  0.75732000  0.26500000  1.0 -0.0590556851
C  C31  1  0.52950000  0.21355000  0.31146000  1.0 -0.0590556851
C  C32  1  0.44476000  0.24268000  0.26500000  1.0 -0.0590556851
N  N1  1  0.29992000  0.55232000  0.14319000  1.0 -0.0222672242
N  N2  1  0.29644000  0.46083000  0.16038000  1.0 -0.1349471757
N  N3  1  0.25054000  0.59525000  0.23495000  1.0 -0.1464289815
N  N4  1  0.70008000  0.44768000  0.14319000  1.0 -0.0222672242
N  N5  1  0.70356000  0.53917000  0.16038000  1.0 -0.1349471757
N  N6  1  0.74946000  0.40475000  0.23495000  1.0 -0.1464289815
N  N7  1  0.05232000  0.20008000  0.64319000  1.0 -0.0222672242
N  N8  1  0.96083000  0.20356000  0.66038000  1.0 -0.1357894192
N  N9  1  0.09525000  0.24946000  0.73495000  1.0 -0.1464289815
N  N10  1  0.94768000  0.79992000  0.64319000  1.0 -0.0222672242
N  N11  1  0.03917000  0.79644000  0.66038000  1.0 -0.1357894192
N  N12  1  0.90475000  0.75054000  0.73495000  1.0 -0.1464289815
N  N13  1  0.29992000  0.44768000  0.85681000  1.0 -0.0222672242
N  N14  1  0.29644000  0.53917000  0.83962000  1.0 -0.1349471757
N  N15  1  0.25054000  0.40475000  0.76505000  1.0 -0.1464289815
N  N16  1  0.70008000  0.55232000  0.85681000  1.0 -0.0222672242
N  N17  1  0.70356000  0.46083000  0.83962000  1.0 -0.1349471757
N  N18  1  0.74946000  0.59525000  0.76505000  1.0 -0.1464289815
N  N19  1  0.05232000  0.79992000  0.35681000  1.0 -0.0222672242
N  N20  1  0.96083000  0.79644000  0.33962000  1.0 -0.1349471757
N  N21  1  0.09525000  0.75054000  0.26505000  1.0 -0.1464289815
N  N22  1  0.94768000  0.20008000  0.35681000  1.0 -0.0222672242
N  N23  1  0.03917000  0.20356000  0.33962000  1.0 -0.1357894192
N  N24  1  0.90475000  0.24946000  0.26505000  1.0 -0.1464289815
N  N25  1  0.20008000  0.94768000  0.35681000  1.0 -0.0222672242
N  N26  1  0.20356000  0.03917000  0.33962000  1.0 -0.1357894192
N  N27  1  0.24946000  0.90475000  0.26505000  1.0 -0.1464289815
N  N28  1  0.79992000  0.05232000  0.35681000  1.0 -0.0222672242
N  N29  1  0.79644000  0.96083000  0.33962000  1.0 -0.1349471757
N  N30  1  0.75054000  0.09525000  0.26505000  1.0 -0.1464289815
N  N31  1  0.44768000  0.29992000  0.85681000  1.0 -0.0222672242
N  N32  1  0.53917000  0.29644000  0.83962000  1.0 -0.1349471757
N  N33  1  0.40475000  0.25054000  0.76505000  1.0 -0.1464289815
N  N34  1  0.55232000  0.70008000  0.85681000  1.0 -0.0222672242
N  N35  1  0.46083000  0.70356000  0.83962000  1.0 -0.1349471757
N  N36  1  0.59525000  0.74946000  0.76505000  1.0 -0.1464289815
N  N37  1  0.20008000  0.05232000  0.64319000  1.0 -0.0222672242
N  N38  1  0.20356000  0.96083000  0.66038000  1.0 -0.1357894192
N  N39  1  0.24946000  0.09525000  0.73495000  1.0 -0.1464289815
N  N40  1  0.79992000  0.94768000  0.64319000  1.0 -0.0222672242
N  N41  1  0.79644000  0.03917000  0.66038000  1.0 -0.1349471757
N  N42  1  0.75054000  0.90475000  0.73495000  1.0 -0.1464289815
N  N43  1  0.44768000  0.70008000  0.14319000  1.0 -0.0222672242
N  N44  1  0.53917000  0.70356000  0.16038000  1.0 -0.1349471757
N  N45  1  0.40475000  0.74946000  0.23495000  1.0 -0.1464289815
N  N46  1  0.55232000  0.29992000  0.14319000  1.0 -0.0222672242
N  N47  1  0.46083000  0.29644000  0.16038000  1.0 -0.1349471757
N  N48  1  0.59525000  0.25054000  0.23495000  1.0 -0.1464289815
Cl  Cl1  1  0.24642000  0.24642000  0.00333000  1.0 -0.4835887899
Cl  Cl2  1  0.75358000  0.75358000  0.00333000  1.0 -0.4851933519
Cl  Cl3  1  0.74642000  0.25358000  0.50333000  1.0 -0.4835887899
Cl  Cl4  1  0.25358000  0.74642000  0.50333000  1.0 -0.4835887899
Cl  Cl5  1  0.24642000  0.75358000  0.99667000  1.0 -0.4851933519
Cl  Cl6  1  0.75358000  0.24642000  0.99667000  1.0 -0.4835887899
Cl  Cl7  1  0.74642000  0.74642000  0.49667000  1.0 -0.4835887899
Cl  Cl8  1  0.25358000  0.25358000  0.49667000  1.0 -0.4835887899
Cl  Cl9  1  0.50000000  0.50000000  0.00000000  1.0 -0.4635893205
Cl  Cl10  1  0.00000000  0.00000000  0.50000000  1.0 -0.4655486444
