# DDEC6 charges by PACMAN v1.1 (https://github.com/mtap-research/PACMAN-charge/)
data_TELTOW_FSR_pacman
_symmetry_space_group_name_H-M   'P 1'
_cell_length_a   13.60210000
_cell_length_b   13.60210000
_cell_length_c   14.30400000
_cell_angle_alpha   74.26550000
_cell_angle_beta   105.73400000
_cell_angle_gamma   129.47400000
_symmetry_Int_Tables_number   1
_chemical_formula_structural   CdH14C15(NO)4
_chemical_formula_sum   'Cd4 H56 C60 N16 O16'
_cell_volume   1948.85440556
_cell_formula_units_Z   4
loop_
 _symmetry_equiv_pos_site_id
 _symmetry_equiv_pos_as_xyz
  1  'x, y, z'
loop_
 _atom_site_type_symbol
 _atom_site_label
 _atom_site_symmetry_multiplicity
 _atom_site_fract_x
 _atom_site_fract_y
 _atom_site_fract_z
 _atom_site_occupancy
 _atom_site_charge
Cd  Cd1  1  0.05583000  0.50177000  0.63939000  1.0 0.8495480789
Cd  Cd2  1  0.50177000  0.05583000  0.86061000  1.0 0.8495480789
Cd  Cd3  1  0.94417000  0.49823000  0.36061000  1.0 0.8495480789
Cd  Cd4  1  0.49823000  0.94417000  0.13939000  1.0 0.8495480789
H  H1  1  0.83999000  0.02009000  0.61860000  1.0 0.1385184599
H  H2  1  0.22463000  0.24941000  0.63684000  1.0 0.1385184599
H  H3  1  0.28716000  0.99526000  0.62439000  1.0 0.1498770675
H  H4  1  0.85354000  0.19600000  0.62535000  1.0 0.1098499408
H  H5  1  0.22682000  0.41690000  0.64638000  1.0 0.1184101222
H  H6  1  0.26448000  0.81090000  0.62886000  1.0 0.1277306152
H  H7  1  0.36878000  0.65326000  0.02950000  1.0 0.1385184599
H  H8  1  0.23240000  0.60744000  0.97458000  1.0 0.1498770675
H  H9  1  0.90761000  0.77437000  0.63226000  1.0 0.1277306152
H  H10  1  0.89814000  0.59900000  0.63799000  1.0 0.1184101222
H  H11  1  0.41644000  0.65044000  0.88070000  1.0 0.0922324656
H  H12  1  0.36551000  0.48265000  0.00643000  1.0 0.1184101222
H  H13  1  0.32273000  0.43751000  0.90343000  1.0 0.1184101222
H  H14  1  0.22060000  0.40612000  0.96073000  1.0 0.1184101222
H  H15  1  0.02009000  0.83999000  0.88140000  1.0 0.1385184599
H  H16  1  0.24941000  0.22463000  0.86316000  1.0 0.1385184599
H  H17  1  0.99526000  0.28716000  0.87561000  1.0 0.1498770675
H  H18  1  0.19600000  0.85354000  0.87465000  1.0 0.1098499408
H  H19  1  0.41690000  0.22682000  0.85362000  1.0 0.1184101222
H  H20  1  0.81090000  0.26448000  0.87114000  1.0 0.1277306152
H  H21  1  0.65326000  0.36878000  0.47050000  1.0 0.1385184599
H  H22  1  0.60744000  0.23240000  0.52542000  1.0 0.1498770675
H  H23  1  0.77437000  0.90761000  0.86774000  1.0 0.1277306152
H  H24  1  0.59900000  0.89814000  0.86201000  1.0 0.1184101222
H  H25  1  0.65044000  0.41644000  0.61930000  1.0 0.0922324656
H  H26  1  0.48265000  0.36551000  0.49357000  1.0 0.1184101222
H  H27  1  0.43751000  0.32273000  0.59657000  1.0 0.1184101222
H  H28  1  0.40613000  0.22060000  0.53927000  1.0 0.1184101222
H  H29  1  0.16001000  0.97991000  0.38140000  1.0 0.1385184599
H  H30  1  0.77537000  0.75059000  0.36316000  1.0 0.1385184599
H  H31  1  0.71284000  0.00474000  0.37561000  1.0 0.1498770675
H  H32  1  0.14646000  0.80400000  0.37465000  1.0 0.1098499408
H  H33  1  0.77318000  0.58310000  0.35362000  1.0 0.1184101222
H  H34  1  0.73552000  0.18910000  0.37114000  1.0 0.1277306152
H  H35  1  0.63122000  0.34674000  0.97050000  1.0 0.1385184599
H  H36  1  0.76760000  0.39256000  0.02542000  1.0 0.1498770675
H  H37  1  0.09239000  0.22563000  0.36774000  1.0 0.1277306152
H  H38  1  0.10186000  0.40100000  0.36201000  1.0 0.1184101222
H  H39  1  0.58356000  0.34956000  0.11930000  1.0 0.0922324656
H  H40  1  0.63449000  0.51735000  0.99357000  1.0 0.1184101222
H  H41  1  0.67727000  0.56249000  0.09657000  1.0 0.1184101222
H  H42  1  0.77939000  0.59388000  0.03927000  1.0 0.1184101222
H  H43  1  0.97991000  0.16001000  0.11860000  1.0 0.1385184599
H  H44  1  0.75059000  0.77537000  0.13684000  1.0 0.1385184599
H  H45  1  0.00474000  0.71284000  0.12439000  1.0 0.1498770675
H  H46  1  0.80400000  0.14646000  0.12535000  1.0 0.1098499408
H  H47  1  0.58310000  0.77318000  0.14638000  1.0 0.1184101222
H  H48  1  0.18910000  0.73552000  0.12886000  1.0 0.1277306152
H  H49  1  0.34674000  0.63122000  0.52950000  1.0 0.1385184599
H  H50  1  0.39256000  0.76760000  0.47458000  1.0 0.1498770675
H  H51  1  0.22563000  0.09239000  0.13226000  1.0 0.1277306152
H  H52  1  0.40100000  0.10186000  0.13799000  1.0 0.1184101222
H  H53  1  0.34956000  0.58356000  0.38070000  1.0 0.0922324656
H  H54  1  0.51735000  0.63449000  0.50643000  1.0 0.1184101222
H  H55  1  0.56249000  0.67727000  0.40343000  1.0 0.1184101222
H  H56  1  0.59388000  0.77939000  0.46073000  1.0 0.1184101222
C  C1  1  0.03120000  0.11640000  0.62730000  1.0 0.1721303014
C  C2  1  0.91958000  0.10022000  0.62398000  1.0 -0.2001950072
C  C3  1  0.09900000  0.90400000  0.62840000  1.0 0.1721303014
C  C4  1  0.14827000  0.23633000  0.63517000  1.0 -0.2062183993
C  C5  1  0.20696000  0.91544000  0.62676000  1.0 -0.1919691304
C  C6  1  0.92869000  0.20611000  0.62869000  1.0 0.0922324656
C  C7  1  0.14841000  0.33599000  0.64061000  1.0 0.0771090908
C  C8  1  0.23670000  0.56710000  0.80410000  1.0 0.5730826033
C  C9  1  0.19193000  0.80407000  0.62873000  1.0 0.1098499408
C  C10  1  0.32149000  0.65611000  0.96579000  1.0 -0.3626838552
C  C11  1  0.98162000  0.78418000  0.63162000  1.0 -0.2001950072
C  C12  1  0.97689000  0.68011000  0.63389000  1.0 0.0704125798
C  C13  1  0.32922000  0.59138000  0.89872000  1.0 -0.0311319998
C  C14  1  0.30760000  0.46860000  0.94650000  1.0 -0.4008801209
C  C15  1  0.37368000  0.79332000  0.92808000  1.0 0.6063307298
C  C16  1  0.11640000  0.03120000  0.87270000  1.0 0.1721303014
C  C17  1  0.10022000  0.91958000  0.87602000  1.0 -0.2001950072
C  C18  1  0.90400000  0.09900000  0.87160000  1.0 0.1721303014
C  C19  1  0.23633000  0.14827000  0.86483000  1.0 -0.2062183993
C  C20  1  0.91544000  0.20696000  0.87324000  1.0 -0.1919691304
C  C21  1  0.20611000  0.92869000  0.87131000  1.0 0.0922324656
C  C22  1  0.33599000  0.14841000  0.85939000  1.0 0.0771090908
C  C23  1  0.56710000  0.23670000  0.69590000  1.0 0.5730826033
C  C24  1  0.80407000  0.19193000  0.87127000  1.0 0.1098499408
C  C25  1  0.65611000  0.32149000  0.53421000  1.0 -0.3626838552
C  C26  1  0.78418000  0.98162000  0.86838000  1.0 -0.2001950072
C  C27  1  0.68011000  0.97689000  0.86611000  1.0 0.0704125798
C  C28  1  0.59138000  0.32922000  0.60128000  1.0 -0.0311319998
C  C29  1  0.46860000  0.30760000  0.55350000  1.0 -0.4008801209
C  C30  1  0.79332000  0.37368000  0.57192000  1.0 0.6063307298
C  C31  1  0.96880000  0.88360000  0.37270000  1.0 0.1721303014
C  C32  1  0.08042000  0.89978000  0.37602000  1.0 -0.2001950072
C  C33  1  0.90100000  0.09600000  0.37160000  1.0 0.1721303014
C  C34  1  0.85173000  0.76367000  0.36483000  1.0 -0.2062183993
C  C35  1  0.79304000  0.08456000  0.37324000  1.0 -0.1919691304
C  C36  1  0.07131000  0.79389000  0.37131000  1.0 0.0922324656
C  C37  1  0.85159000  0.66401000  0.35939000  1.0 0.0771090908
C  C38  1  0.76330000  0.43290000  0.19590000  1.0 0.5730826033
C  C39  1  0.80807000  0.19593000  0.37127000  1.0 0.1098499408
C  C40  1  0.67851000  0.34389000  0.03421000  1.0 -0.3626838552
C  C41  1  0.01838000  0.21582000  0.36838000  1.0 -0.2001950072
C  C42  1  0.02311000  0.31989000  0.36611000  1.0 0.0704125798
C  C43  1  0.67078000  0.40862000  0.10128000  1.0 -0.0311319998
C  C44  1  0.69240000  0.53140000  0.05350000  1.0 -0.4008801209
C  C45  1  0.62632000  0.20668000  0.07192000  1.0 0.6063307298
C  C46  1  0.88360000  0.96880000  0.12730000  1.0 0.1721303014
C  C47  1  0.89978000  0.08042000  0.12398000  1.0 -0.2001950072
C  C48  1  0.09600000  0.90100000  0.12840000  1.0 0.1721303014
C  C49  1  0.76367000  0.85173000  0.13517000  1.0 -0.2062183993
C  C50  1  0.08456000  0.79304000  0.12676000  1.0 -0.1919691304
C  C51  1  0.79389000  0.07131000  0.12869000  1.0 0.0922324656
C  C52  1  0.66401000  0.85159000  0.14061000  1.0 0.0771090908
C  C53  1  0.43290000  0.76330000  0.30410000  1.0 0.5730826033
C  C54  1  0.19593000  0.80807000  0.12873000  1.0 0.1098499408
C  C55  1  0.34389000  0.67851000  0.46579000  1.0 -0.3626838552
C  C56  1  0.21582000  0.01838000  0.13162000  1.0 -0.2001950072
C  C57  1  0.31989000  0.02311000  0.13389000  1.0 0.0704125798
C  C58  1  0.40862000  0.67078000  0.39872000  1.0 -0.0311319998
C  C59  1  0.53140000  0.69240000  0.44650000  1.0 -0.4008801209
C  C60  1  0.20668000  0.62632000  0.42808000  1.0 0.6063307298
N  N1  1  0.07977000  0.68883000  0.63057000  1.0 -0.223572083
N  N2  1  0.04048000  0.32172000  0.63788000  1.0 -0.2257981228
N  N3  1  0.01559000  0.00261000  0.62449000  1.0 -0.10808568
N  N4  1  0.11694000  0.02006000  0.62754000  1.0 -0.10808568
N  N5  1  0.68883000  0.07977000  0.86943000  1.0 -0.223572083
N  N6  1  0.32172000  0.04048000  0.86212000  1.0 -0.2257981228
N  N7  1  0.00261000  0.01559000  0.87551000  1.0 -0.10808568
N  N8  1  0.02006000  0.11694000  0.87246000  1.0 -0.10808568
N  N9  1  0.92023000  0.31117000  0.36943000  1.0 -0.223572083
N  N10  1  0.95952000  0.67828000  0.36212000  1.0 -0.2257981228
N  N11  1  0.98441000  0.99739000  0.37551000  1.0 -0.10808568
N  N12  1  0.88306000  0.97994000  0.37246000  1.0 -0.10808568
N  N13  1  0.31117000  0.92023000  0.13057000  1.0 -0.223572083
N  N14  1  0.67828000  0.95952000  0.13788000  1.0 -0.2257981228
N  N15  1  0.99739000  0.98441000  0.12449000  1.0 -0.10808568
N  N16  1  0.97994000  0.88306000  0.12754000  1.0 -0.10808568
O  O1  1  0.12132000  0.51628000  0.80872000  1.0 -0.5616339671
O  O2  1  0.27364000  0.59096000  0.72454000  1.0 -0.5684363695
O  O3  1  0.37524000  0.83196000  0.83864000  1.0 -0.5304080622
O  O4  1  0.41830000  0.86970000  0.98790000  1.0 -0.5684363695
O  O5  1  0.51628000  0.12132000  0.69128000  1.0 -0.5616339671
O  O6  1  0.59096000  0.27364000  0.77546000  1.0 -0.5684363695
O  O7  1  0.83196000  0.37524000  0.66136000  1.0 -0.5304080622
O  O8  1  0.86970000  0.41830000  0.51210000  1.0 -0.5684363695
O  O9  1  0.87868000  0.48372000  0.19128000  1.0 -0.5616339671
O  O10  1  0.72636000  0.40904000  0.27546000  1.0 -0.5684363695
O  O11  1  0.62476000  0.16804000  0.16136000  1.0 -0.5304080622
O  O12  1  0.58170000  0.13030000  0.01210000  1.0 -0.5684363695
O  O13  1  0.48372000  0.87868000  0.30872000  1.0 -0.5616339671
O  O14  1  0.40904000  0.72636000  0.22454000  1.0 -0.5684363695
O  O15  1  0.16804000  0.62476000  0.33864000  1.0 -0.5304080622
O  O16  1  0.13030000  0.58170000  0.48790000  1.0 -0.5684363695
