# DDEC6 charges by PACMAN v1.1 (https://github.com/mtap-research/PACMAN-charge/)
data_TELTUC_FSR_pacman
_symmetry_space_group_name_H-M   'P 1'
_cell_length_a   13.57830000
_cell_length_b   13.57830000
_cell_length_c   13.71200000
_cell_angle_alpha   77.50130000
_cell_angle_beta   102.49900000
_cell_angle_gamma   116.57500000
_symmetry_Int_Tables_number   1
_chemical_formula_structural   CdH16C16(NO)4
_chemical_formula_sum   'Cd4 H64 C64 N16 O16'
_cell_volume   2186.60059421
_cell_formula_units_Z   4
loop_
 _symmetry_equiv_pos_site_id
 _symmetry_equiv_pos_as_xyz
  1  'x, y, z'
loop_
 _atom_site_type_symbol
 _atom_site_label
 _atom_site_symmetry_multiplicity
 _atom_site_fract_x
 _atom_site_fract_y
 _atom_site_fract_z
 _atom_site_occupancy
 _atom_site_charge
Cd  Cd1  1  0.43945000  0.01533000  0.35804000  1.0 0.8535118928
Cd  Cd2  1  0.01533000  0.43945000  0.14196000  1.0 0.8535118928
Cd  Cd3  1  0.56055000  0.98467000  0.64196000  1.0 0.8535118928
Cd  Cd4  1  0.98467000  0.56055000  0.85804000  1.0 0.8535118928
H  H1  1  0.08734000  0.81810000  0.18684000  1.0 0.0793674878
H  H2  1  0.29297000  0.30697000  0.37141000  1.0 0.1396683721
H  H3  1  0.13115000  0.01519000  0.12788000  1.0 0.1299572473
H  H4  1  0.19696000  0.00842000  0.05051000  1.0 0.1299572473
H  H5  1  0.62503000  0.44013000  0.40209000  1.0 0.1396683721
H  H6  1  0.61501000  0.26765000  0.39827000  1.0 0.1112496291
H  H7  1  0.98668000  0.86920000  0.99132000  1.0 0.1299572473
H  H8  1  0.93330000  0.75764000  0.06256000  1.0 0.1112496291
H  H9  1  0.94908000  0.86990000  0.09141000  1.0 0.1299572473
H  H10  1  0.26036000  0.76382000  0.34785000  1.0 0.1201166839
H  H11  1  0.57611000  0.88167000  0.33856000  1.0 0.1201166839
H  H12  1  0.22549000  0.82151000  0.09947000  1.0 0.1396683721
H  H13  1  0.14286000  0.81846000  0.99967000  1.0 0.1473401716
H  H14  1  0.29177000  0.13739000  0.36858000  1.0 0.1201166839
H  H15  1  0.56726000  0.70956000  0.34621000  1.0 0.1299572473
H  H16  1  0.24069000  0.58585000  0.34848000  1.0 0.1550858995
H  H17  1  0.81810000  0.08734000  0.31316000  1.0 0.0793674878
H  H18  1  0.30697000  0.29297000  0.12859000  1.0 0.1396683721
H  H19  1  0.01519000  0.13115000  0.37212000  1.0 0.1299572473
H  H20  1  0.00842000  0.19696000  0.44949000  1.0 0.1299572473
H  H21  1  0.44013000  0.62503000  0.09791000  1.0 0.1396683721
H  H22  1  0.26765000  0.61501000  0.10173000  1.0 0.1112496291
H  H23  1  0.86920000  0.98668000  0.50868000  1.0 0.1299572473
H  H24  1  0.75764000  0.93330000  0.43744000  1.0 0.1112496291
H  H25  1  0.86990000  0.94908000  0.40859000  1.0 0.1299572473
H  H26  1  0.76382000  0.26036000  0.15215000  1.0 0.1201166839
H  H27  1  0.88167000  0.57611000  0.16144000  1.0 0.1201166839
H  H28  1  0.82151000  0.22549000  0.40053000  1.0 0.1396683721
H  H29  1  0.81846000  0.14286000  0.50033000  1.0 0.1473401716
H  H30  1  0.13739000  0.29177000  0.13142000  1.0 0.1201166839
H  H31  1  0.70956000  0.56726000  0.15379000  1.0 0.1299572473
H  H32  1  0.58585000  0.24069000  0.15152000  1.0 0.1550858995
H  H33  1  0.91266000  0.18190000  0.81316000  1.0 0.0793674878
H  H34  1  0.70703000  0.69303000  0.62859000  1.0 0.1396683721
H  H35  1  0.86885000  0.98481000  0.87212000  1.0 0.1299572473
H  H36  1  0.80304000  0.99158000  0.94949000  1.0 0.1299572473
H  H37  1  0.37497000  0.55987000  0.59791000  1.0 0.1396683721
H  H38  1  0.38499000  0.73235000  0.60173000  1.0 0.1112496291
H  H39  1  0.01332000  0.13080000  0.00868000  1.0 0.1299572473
H  H40  1  0.06670000  0.24236000  0.93744000  1.0 0.1112496291
H  H41  1  0.05092000  0.13010000  0.90859000  1.0 0.1299572473
H  H42  1  0.73964000  0.23618000  0.65215000  1.0 0.1201166839
H  H43  1  0.42389000  0.11833000  0.66144000  1.0 0.1201166839
H  H44  1  0.77451000  0.17849000  0.90053000  1.0 0.1396683721
H  H45  1  0.85714000  0.18154000  0.00033000  1.0 0.1473401716
H  H46  1  0.70823000  0.86261000  0.63142000  1.0 0.1201166839
H  H47  1  0.43274000  0.29044000  0.65379000  1.0 0.1299572473
H  H48  1  0.75931000  0.41415000  0.65152000  1.0 0.1550858995
H  H49  1  0.18190000  0.91266000  0.68684000  1.0 0.0793674878
H  H50  1  0.69303000  0.70703000  0.87141000  1.0 0.1396683721
H  H51  1  0.98481000  0.86885000  0.62788000  1.0 0.1299572473
H  H52  1  0.99158000  0.80304000  0.55051000  1.0 0.1299572473
H  H53  1  0.55987000  0.37497000  0.90209000  1.0 0.1396683721
H  H54  1  0.73235000  0.38499000  0.89827000  1.0 0.1112496291
H  H55  1  0.13080000  0.01332000  0.49132000  1.0 0.1299572473
H  H56  1  0.24236000  0.06670000  0.56256000  1.0 0.1112496291
H  H57  1  0.13010000  0.05092000  0.59141000  1.0 0.1299572473
H  H58  1  0.23618000  0.73964000  0.84785000  1.0 0.1201166839
H  H59  1  0.11833000  0.42389000  0.83856000  1.0 0.1201166839
H  H60  1  0.17849000  0.77451000  0.59947000  1.0 0.1396683721
H  H61  1  0.18154000  0.85714000  0.49967000  1.0 0.1473401716
H  H62  1  0.86261000  0.70823000  0.86858000  1.0 0.1201166839
H  H63  1  0.29044000  0.43274000  0.84621000  1.0 0.1299572473
H  H64  1  0.41415000  0.75931000  0.84848000  1.0 0.1550858995
C  C1  1  0.09560000  0.85220000  0.11670000  1.0 0.1396683721
C  C2  1  0.35930000  0.30070000  0.37590000  1.0 -0.1991716469
C  C3  1  0.40290000  0.62870000  0.34960000  1.0 0.1709379057
C  C4  1  0.17270000  0.97730000  0.11630000  1.0 -0.3804179872
C  C5  1  0.55630000  0.37970000  0.39410000  1.0 -0.1991716469
C  C6  1  0.54940000  0.27600000  0.39150000  1.0 0.0793674878
C  C7  1  0.45940000  0.39180000  0.38460000  1.0 0.1709379057
C  C8  1  0.98050000  0.83570000  0.06030000  1.0 -0.4368167589
C  C9  1  0.32290000  0.75250000  0.34740000  1.0 0.0941048344
C  C10  1  0.50780000  0.82080000  0.34300000  1.0 0.0793674878
C  C11  1  0.27280000  0.99800000  0.19540000  1.0 0.6095050802
C  C12  1  0.14740000  0.79580000  0.07200000  1.0 -0.3906638095
C  C13  1  0.35950000  0.19950000  0.37400000  1.0 0.0793674878
C  C14  1  0.50320000  0.71840000  0.34620000  1.0 -0.2071020672
C  C15  1  0.09370000  0.67130000  0.09200000  1.0 0.6184798112
C  C16  1  0.31050000  0.64530000  0.34850000  1.0 -0.1886562774
C  C17  1  0.85220000  0.09560000  0.38330000  1.0 0.1396683721
C  C18  1  0.30070000  0.35930000  0.12410000  1.0 -0.1991716469
C  C19  1  0.62870000  0.40290000  0.15040000  1.0 0.1709379057
C  C20  1  0.97730000  0.17270000  0.38370000  1.0 -0.3804179872
C  C21  1  0.37970000  0.55630000  0.10590000  1.0 -0.1991716469
C  C22  1  0.27600000  0.54940000  0.10850000  1.0 0.0793674878
C  C23  1  0.39180000  0.45940000  0.11540000  1.0 0.1709379057
C  C24  1  0.83570000  0.98050000  0.43970000  1.0 -0.4368167589
C  C25  1  0.75250000  0.32290000  0.15260000  1.0 0.0941048344
C  C26  1  0.82080000  0.50780000  0.15700000  1.0 0.0793674878
C  C27  1  0.99800000  0.27280000  0.30460000  1.0 0.6095050802
C  C28  1  0.79580000  0.14740000  0.42800000  1.0 -0.3906638095
C  C29  1  0.19950000  0.35950000  0.12600000  1.0 0.0793674878
C  C30  1  0.71840000  0.50320000  0.15380000  1.0 -0.2071020672
C  C31  1  0.67130000  0.09370000  0.40800000  1.0 0.6184798112
C  C32  1  0.64530000  0.31050000  0.15150000  1.0 -0.1886562774
C  C33  1  0.90440000  0.14780000  0.88330000  1.0 0.1396683721
C  C34  1  0.64070000  0.69930000  0.62410000  1.0 -0.1991716469
C  C35  1  0.59710000  0.37130000  0.65040000  1.0 0.1709379057
C  C36  1  0.82730000  0.02270000  0.88370000  1.0 -0.3804179872
C  C37  1  0.44370000  0.62030000  0.60590000  1.0 -0.1991716469
C  C38  1  0.45060000  0.72400000  0.60850000  1.0 0.0793674878
C  C39  1  0.54060000  0.60820000  0.61540000  1.0 0.1709379057
C  C40  1  0.01950000  0.16430000  0.93970000  1.0 -0.4368167589
C  C41  1  0.67710000  0.24750000  0.65260000  1.0 0.0941048344
C  C42  1  0.49220000  0.17920000  0.65700000  1.0 0.0793674878
C  C43  1  0.72720000  0.00200000  0.80460000  1.0 0.6095050802
C  C44  1  0.85260000  0.20420000  0.92800000  1.0 -0.3906638095
C  C45  1  0.64050000  0.80050000  0.62600000  1.0 0.0793674878
C  C46  1  0.49680000  0.28160000  0.65380000  1.0 -0.2071020672
C  C47  1  0.90630000  0.32870000  0.90800000  1.0 0.6184798112
C  C48  1  0.68950000  0.35470000  0.65150000  1.0 -0.1886562774
C  C49  1  0.14780000  0.90440000  0.61670000  1.0 0.1396683721
C  C50  1  0.69930000  0.64070000  0.87590000  1.0 -0.1991716469
C  C51  1  0.37130000  0.59710000  0.84960000  1.0 0.1709379057
C  C52  1  0.02270000  0.82730000  0.61630000  1.0 -0.3804179872
C  C53  1  0.62030000  0.44370000  0.89410000  1.0 -0.1991716469
C  C54  1  0.72400000  0.45060000  0.89150000  1.0 0.0793674878
C  C55  1  0.60820000  0.54060000  0.88460000  1.0 0.1709379057
C  C56  1  0.16430000  0.01950000  0.56030000  1.0 -0.4368167589
C  C57  1  0.24750000  0.67710000  0.84740000  1.0 0.0941048344
C  C58  1  0.17920000  0.49220000  0.84300000  1.0 0.0793674878
C  C59  1  0.00200000  0.72720000  0.69540000  1.0 0.6095050802
C  C60  1  0.20420000  0.85260000  0.57200000  1.0 -0.3906638095
C  C61  1  0.80050000  0.64050000  0.87400000  1.0 0.0793674878
C  C62  1  0.28160000  0.49680000  0.84620000  1.0 -0.2071020672
C  C63  1  0.32870000  0.90630000  0.59200000  1.0 0.6184798112
C  C64  1  0.35470000  0.68950000  0.84850000  1.0 -0.1886562774
N  N1  1  0.45293000  0.18687000  0.37960000  1.0 -0.2264728205
N  N2  1  0.42063000  0.83937000  0.34570000  1.0 -0.2212063143
N  N3  1  0.47209000  0.50251000  0.38280000  1.0 -0.0976973096
N  N4  1  0.38578000  0.51542000  0.35320000  1.0 -0.0976973096
N  N5  1  0.18687000  0.45293000  0.12040000  1.0 -0.2264728205
N  N6  1  0.83937000  0.42063000  0.15430000  1.0 -0.2212063143
N  N7  1  0.50251000  0.47209000  0.11720000  1.0 -0.0976973096
N  N8  1  0.51542000  0.38578000  0.14680000  1.0 -0.0976973096
N  N9  1  0.54707000  0.81313000  0.62040000  1.0 -0.2264728205
N  N10  1  0.57937000  0.16063000  0.65430000  1.0 -0.2212063143
N  N11  1  0.52791000  0.49749000  0.61720000  1.0 -0.0976973096
N  N12  1  0.61422000  0.48458000  0.64680000  1.0 -0.0976973096
N  N13  1  0.81313000  0.54707000  0.87960000  1.0 -0.2264728205
N  N14  1  0.16063000  0.57937000  0.84570000  1.0 -0.2212063143
N  N15  1  0.49749000  0.52791000  0.88280000  1.0 -0.0976973096
N  N16  1  0.48458000  0.61422000  0.85320000  1.0 -0.0976973096
O  O1  1  0.25438000  0.96362000  0.28700000  1.0 -0.5887865791
O  O2  1  0.36980000  0.04700000  0.17460000  1.0 -0.5689586172
O  O3  1  0.09088000  0.62392000  0.18220000  1.0 -0.5506607065
O  O4  1  0.05560000  0.61380000  0.02120000  1.0 -0.5752026359
O  O5  1  0.96362000  0.25438000  0.21300000  1.0 -0.5887865791
O  O6  1  0.04700000  0.36980000  0.32540000  1.0 -0.5689586172
O  O7  1  0.62392000  0.09088000  0.31780000  1.0 -0.5506607065
O  O8  1  0.61380000  0.05560000  0.47880000  1.0 -0.5752026359
O  O9  1  0.74562000  0.03638000  0.71300000  1.0 -0.5887865791
O  O10  1  0.63020000  0.95300000  0.82540000  1.0 -0.5689586172
O  O11  1  0.90912000  0.37608000  0.81780000  1.0 -0.5506607065
O  O12  1  0.94440000  0.38620000  0.97880000  1.0 -0.5752026359
O  O13  1  0.03638000  0.74562000  0.78700000  1.0 -0.5887865791
O  O14  1  0.95300000  0.63020000  0.67460000  1.0 -0.5689586172
O  O15  1  0.37608000  0.90912000  0.68220000  1.0 -0.5506607065
O  O16  1  0.38620000  0.94440000  0.52120000  1.0 -0.5752026359
