# DDEC6 charges by PACMAN v1.1 (https://github.com/mtap-research/PACMAN-charge/)
data_TEMDIB_FSR_pacman
_symmetry_space_group_name_H-M   'P 1'
_cell_length_a   7.87920000
_cell_length_b   10.12610000
_cell_length_c   13.41540000
_cell_angle_alpha   68.82500000
_cell_angle_beta   79.86800000
_cell_angle_gamma   71.23500000
_symmetry_Int_Tables_number   1
_chemical_formula_structural   Cd3H40C40(N2O7)2
_chemical_formula_sum   'Cd3 H40 C40 N4 O14'
_cell_volume   942.87006801
_cell_formula_units_Z   1
loop_
 _symmetry_equiv_pos_site_id
 _symmetry_equiv_pos_as_xyz
  1  'x, y, z'
loop_
 _atom_site_type_symbol
 _atom_site_label
 _atom_site_symmetry_multiplicity
 _atom_site_fract_x
 _atom_site_fract_y
 _atom_site_fract_z
 _atom_site_occupancy
 _atom_site_charge
Cd  Cd1  1  0.66690000  0.83995000  0.45855000  1.0 0.9132125993
Cd  Cd2  1  0.33310000  0.16005000  0.54145000  1.0 0.9132125993
Cd  Cd3  1  0.00000000  0.50000000  0.50000000  1.0 0.9386066516
H  H1  1  0.65210000  0.35910000  0.43990000  1.0 0.1279305611
H  H2  1  0.68050000  0.67670000  0.15770000  1.0 0.1279305611
H  H3  1  0.71400000  0.26510000  0.17260000  1.0 0.1380279084
H  H4  1  0.57680000  0.72370000  0.99580000  1.0 0.1456199159
H  H5  1  0.61390000  0.79030000  0.81580000  1.0 0.1188825984
H  H6  1  0.94380000  0.38980000  0.84760000  1.0 0.1079859008
H  H7  1  0.09270000  0.72680000  0.28420000  1.0 0.0719844755
H  H8  1  0.28870000  0.84100000  0.16600000  1.0 0.0890460764
H  H9  1  0.31130000  0.98240000  0.17850000  1.0 0.0797765609
H  H10  1  0.13850000  0.99120000  0.13080000  1.0 0.0719844755
H  H11  1  0.00520000  0.08100000  0.31690000  1.0 0.0797765609
H  H12  1  0.21430000  0.04670000  0.31430000  1.0 0.0890460764
H  H13  1  0.11020000  0.96100000  0.41440000  1.0 0.0797765609
H  H14  1  0.06770000  0.87230000  0.44810000  1.0 0.0890460764
H  H15  1  0.13090000  0.79500000  0.18340000  1.0 0.0797765609
H  H16  1  0.24200000  0.68610000  0.28180000  1.0 0.0719844755
H  H17  1  0.32440000  0.80140000  0.19060000  1.0 0.0890460764
H  H18  1  0.31720000  0.96340000  0.32580000  1.0 0.0988295172
H  H19  1  0.15160000  0.09120000  0.27290000  1.0 0.0797765609
H  H20  1  0.29920000  0.01170000  0.20230000  1.0 0.0719844755
H  H21  1  0.34790000  0.64090000  0.56010000  1.0 0.1279305611
H  H22  1  0.31950000  0.32330000  0.84230000  1.0 0.1279305611
H  H23  1  0.28600000  0.73490000  0.82740000  1.0 0.1380279084
H  H24  1  0.42320000  0.27630000  0.00420000  1.0 0.1456199159
H  H25  1  0.38610000  0.20970000  0.18420000  1.0 0.1188825984
H  H26  1  0.05620000  0.61020000  0.15240000  1.0 0.1079859008
H  H27  1  0.90730000  0.27320000  0.71580000  1.0 0.0719844755
H  H28  1  0.71130000  0.15900000  0.83400000  1.0 0.0797765609
H  H29  1  0.68870000  0.01760000  0.82150000  1.0 0.0797765609
H  H30  1  0.86150000  0.00880000  0.86920000  1.0 0.0719844755
H  H31  1  0.99480000  0.91900000  0.68310000  1.0 0.0797765609
H  H32  1  0.78570000  0.95330000  0.68570000  1.0 0.0890460764
H  H33  1  0.88980000  0.03900000  0.58560000  1.0 0.0797765609
H  H34  1  0.93230000  0.12770000  0.55190000  1.0 0.0890460764
H  H35  1  0.86910000  0.20500000  0.81660000  1.0 0.0797765609
H  H36  1  0.75800000  0.31390000  0.71820000  1.0 0.0719844755
H  H37  1  0.67560000  0.19860000  0.80940000  1.0 0.0890460764
H  H38  1  0.68280000  0.03660000  0.67420000  1.0 0.0988295172
H  H39  1  0.84840000  0.90880000  0.72710000  1.0 0.0797765609
H  H40  1  0.70080000  0.98830000  0.79770000  1.0 0.0719844755
C  C1  1  0.66500000  0.14110000  0.37750000  1.0 0.517971607
C  C2  1  0.67700000  0.29440000  0.31330000  1.0 -0.0159168345
C  C3  1  0.66200000  0.39060000  0.36550000  1.0 -0.1604399737
C  C4  1  0.66100000  0.53520000  0.30860000  1.0 -0.0035078582
C  C5  1  0.65500000  0.64050000  0.36710000  1.0 0.525886627
C  C6  1  0.68100000  0.58000000  0.19700000  1.0 -0.1896252389
C  C7  1  0.70000000  0.47920000  0.14500000  1.0 0.0567832162
C  C8  1  0.69900000  0.33410000  0.20640000  1.0 -0.1437011118
C  C9  1  0.73300000  0.52410000  0.02580000  1.0 0.1700183173
C  C10  1  0.65100000  0.65500000  0.96420000  1.0 -0.1776309814
C  C11  1  0.67200000  0.69500000  0.85720000  1.0 -0.1061319578
C  C12  1  0.77800000  0.59490000  0.80810000  1.0 -0.0743822734
C  C13  1  0.86200000  0.45800000  0.87700000  1.0 0.0381987636
C  C14  1  0.81100000  0.62600000  0.69020000  1.0 0.5543759186
C  C15  1  0.07600000  0.78600000  0.32600000  1.0 0.1079859008
C  C16  1  0.22700000  0.93000000  0.18200000  1.0 -0.1695720758
C  C17  1  0.11500000  0.00500000  0.33800000  1.0 -0.1776309814
C  C18  1  0.05900000  0.83500000  0.39600000  1.0 0.0797765609
C  C19  1  0.21600000  0.78400000  0.23100000  1.0 -0.1896252389
C  C20  1  0.23400000  0.99900000  0.27100000  1.0 -0.1437011118
C  C21  1  0.33500000  0.85890000  0.62250000  1.0 0.517971607
C  C22  1  0.32300000  0.70560000  0.68670000  1.0 -0.0159168345
C  C23  1  0.33800000  0.60940000  0.63450000  1.0 -0.1604399737
C  C24  1  0.33900000  0.46480000  0.69140000  1.0 -0.0035078582
C  C25  1  0.34500000  0.35950000  0.63290000  1.0 0.525886627
C  C26  1  0.31900000  0.42000000  0.80300000  1.0 -0.1896252389
C  C27  1  0.30000000  0.52080000  0.85500000  1.0 0.0567832162
C  C28  1  0.30100000  0.66590000  0.79360000  1.0 -0.1437011118
C  C29  1  0.26700000  0.47590000  0.97420000  1.0 0.1700183173
C  C30  1  0.34900000  0.34500000  0.03580000  1.0 -0.1776309814
C  C31  1  0.32800000  0.30500000  0.14280000  1.0 -0.1061319578
C  C32  1  0.22200000  0.40510000  0.19190000  1.0 -0.0743822734
C  C33  1  0.13800000  0.54200000  0.12300000  1.0 0.0381987636
C  C34  1  0.18900000  0.37400000  0.30980000  1.0 0.5543759186
C  C35  1  0.92400000  0.21400000  0.67400000  1.0 0.1079859008
C  C36  1  0.77300000  0.07000000  0.81800000  1.0 -0.1695720758
C  C37  1  0.88500000  0.99500000  0.66200000  1.0 -0.1776309814
C  C38  1  0.94100000  0.16500000  0.60400000  1.0 0.0890460764
C  C39  1  0.78400000  0.21600000  0.76900000  1.0 -0.1896252389
C  C40  1  0.76600000  0.00100000  0.72900000  1.0 -0.1437011118
N  N1  1  0.83200000  0.41800000  0.98410000  1.0 -0.2916262279
N  N2  1  0.13800000  0.89410000  0.28970000  1.0 0.0890460764
N  N3  1  0.16800000  0.58200000  0.01590000  1.0 -0.2916262279
N  N4  1  0.86200000  0.10590000  0.71030000  1.0 0.0890460764
O  O1  1  0.70040000  0.04690000  0.32770000  1.0 -0.538501827
O  O2  1  0.62130000  0.10260000  0.47700000  1.0 -0.553886054
O  O3  1  0.70430000  0.58740000  0.46250000  1.0 -0.5801148991
O  O4  1  0.62000000  0.77330000  0.31440000  1.0 -0.5047971289
O  O5  1  0.91880000  0.52530000  0.65640000  1.0 -0.5583008806
O  O6  1  0.72100000  0.75600000  0.62890000  1.0 -0.5900317709
O  O7  1  0.99050000  0.74930000  0.41990000  1.0 -0.2616464626
O  O8  1  0.29960000  0.95310000  0.67230000  1.0 -0.538501827
O  O9  1  0.37870000  0.89740000  0.52300000  1.0 -0.553886054
O  O10  1  0.29570000  0.41260000  0.53750000  1.0 -0.5801148991
O  O11  1  0.38000000  0.22670000  0.68560000  1.0 -0.5047971289
O  O12  1  0.08120000  0.47470000  0.34360000  1.0 -0.5583008806
O  O13  1  0.27900000  0.24400000  0.37110000  1.0 -0.5900317709
O  O14  1  0.00950000  0.25070000  0.58010000  1.0 -0.2616464626
