# DDEC6 charges by PACMAN v1.1 (https://github.com/mtap-research/PACMAN-charge/)
data_TEPJAB_FSR_pacman
_symmetry_space_group_name_H-M   'P 1'
_cell_length_a   6.63950000
_cell_length_b   20.96170000
_cell_length_c   21.10060000
_cell_angle_alpha   67.81360000
_cell_angle_beta   89.15290000
_cell_angle_gamma   89.59280000
_symmetry_Int_Tables_number   1
_chemical_formula_structural   AlH13C8N4O5
_chemical_formula_sum   'Al8 H104 C64 N32 O40'
_cell_volume   2718.94840522
_cell_formula_units_Z   8
loop_
 _symmetry_equiv_pos_site_id
 _symmetry_equiv_pos_as_xyz
  1  'x, y, z'
loop_
 _atom_site_type_symbol
 _atom_site_label
 _atom_site_symmetry_multiplicity
 _atom_site_fract_x
 _atom_site_fract_y
 _atom_site_fract_z
 _atom_site_occupancy
 _atom_site_charge
Al  Al1  1  0.00000000  0.00000000  0.00000000  1.0 1.493387462
Al  Al2  1  0.46589000  0.99846000  0.49404000  1.0 1.4620596184
Al  Al3  1  0.96312000  0.48991000  0.49977000  1.0 1.5617159022
Al  Al4  1  0.48519000  0.50534000  0.01309000  1.0 1.4753652824
Al  Al5  1  0.42903000  0.00138000  0.99198000  1.0 1.3295310749
Al  Al6  1  0.99448000  0.98066000  0.51889000  1.0 1.3980749859
Al  Al7  1  0.46821000  0.49363000  0.52095000  1.0 1.4694769396
Al  Al8  1  0.99944000  0.49334000  0.00689000  1.0 1.5617159022
H  H1  1  0.75000000  0.07030000  0.92970000  1.0 0.411543907
H  H2  1  0.25000000  0.07030000  0.42970000  1.0 0.3984445049
H  H3  1  0.75000000  0.57030000  0.42970000  1.0 0.411543907
H  H4  1  0.25000000  0.57030000  0.92970000  1.0 0.4208177938
H  H5  1  0.25000000  0.92970000  0.07030000  1.0 0.4208177938
H  H6  1  0.75000000  0.92970000  0.57030000  1.0 0.3893981291
H  H7  1  0.25000000  0.42970000  0.57030000  1.0 0.3893981291
H  H8  1  0.75000000  0.42970000  0.07030000  1.0 0.4208177938
H  H9  1  0.90533000  0.01424000  0.87344000  1.0 0.2300635627
H  H10  1  0.78267000  0.98602000  0.82654000  1.0 0.1202345578
H  H11  1  0.33674000  0.00831000  0.35667000  1.0 0.2001493847
H  H12  1  0.25761000  0.97295000  0.30812000  1.0 0.1791757259
H  H13  1  0.88705000  0.52745000  0.12781000  1.0 0.2494454427
H  H14  1  0.80293000  0.56408000  0.17439000  1.0 0.2083446521
H  H15  1  0.40082000  0.53437000  0.85591000  1.0 0.2399969944
H  H16  1  0.27749000  0.50766000  0.80799000  1.0 0.1493818425
H  H17  1  0.60855000  0.35962000  0.99157000  1.0 0.2494454427
H  H18  1  0.70328000  0.31336000  0.95627000  1.0 0.1917733861
H  H19  1  0.08550000  0.33583000  0.53899000  1.0 0.2609160854
H  H20  1  0.19654000  0.28408000  0.51396000  1.0 0.2083446521
H  H21  1  0.58311000  0.64996000  0.48107000  1.0 0.2399969944
H  H22  1  0.67826000  0.69971000  0.51246000  1.0 0.1605476266
H  H23  1  0.10132000  0.64330000  0.98060000  1.0 0.2300635627
H  H24  1  0.19951000  0.68706000  0.01818000  1.0 0.1605476266
H  H25  1  0.95116000  0.01449000  0.81808000  1.0 0.0978375919
H  H26  1  0.53559000  0.01124000  0.79489000  1.0 0.0978375919
H  H27  1  0.90651000  0.01785000  0.70908000  1.0 0.0978375919
H  H28  1  0.49094000  0.01461000  0.68588000  1.0 0.0978375919
H  H29  1  0.62485000  0.00692000  0.84600000  1.0 0.2001493847
H  H30  1  0.69668000  0.98432000  0.78713000  1.0 0.1417165672
H  H31  1  0.81711000  0.01886000  0.65907000  1.0 0.2083446521
H  H32  1  0.74827000  0.04814000  0.71357000  1.0 0.1417165672
H  H33  1  0.53677000  0.01486000  0.63052000  1.0 0.2300635627
H  H34  1  0.65942000  0.04308000  0.67741000  1.0 0.1260049654
H  H35  1  0.41741000  0.00498000  0.30704000  1.0 0.0978375919
H  H36  1  0.00512000  0.01193000  0.31913000  1.0 0.0978375919
H  H37  1  0.44331000  0.99856000  0.20127000  1.0 0.0978375919
H  H38  1  0.03101000  0.00551000  0.21336000  1.0 0.0919510671
H  H39  1  0.06080000  0.01354000  0.37295000  1.0 0.221130437
H  H40  1  0.17755000  0.98702000  0.32375000  1.0 0.1417165672
H  H41  1  0.38800000  0.99362000  0.14884000  1.0 0.2300635627
H  H42  1  0.27456000  0.02671000  0.19342000  1.0 0.1493818425
H  H43  1  0.11169000  0.00218000  0.16373000  1.0 0.221130437
H  H44  1  0.19081000  0.03754000  0.21228000  1.0 0.1791757259
H  H45  1  0.94856000  0.52363000  0.18292000  1.0 0.0919510671
H  H46  1  0.52621000  0.48288000  0.20535000  1.0 0.0919510671
H  H47  1  0.93646000  0.52344000  0.29159000  1.0 0.0919510671
H  H48  1  0.51411000  0.48268000  0.31403000  1.0 0.0919510671
H  H49  1  0.60030000  0.48052000  0.15428000  1.0 0.2399969944
H  H50  1  0.70484000  0.49703000  0.21265000  1.0 0.1791757259
H  H51  1  0.86432000  0.52905000  0.34151000  1.0 0.2494454427
H  H52  1  0.75916000  0.50578000  0.28757000  1.0 0.1791757259
H  H53  1  0.57562000  0.47886000  0.36914000  1.0 0.2609160854
H  H54  1  0.65974000  0.44223000  0.32256000  1.0 0.2001493847
H  H55  1  0.45493000  0.52818000  0.80405000  1.0 0.0919510671
H  H56  1  0.03583000  0.49601000  0.80314000  1.0 0.0978375919
H  H57  1  0.42895000  0.52517000  0.69682000  1.0 0.0978375919
H  H58  1  0.00984000  0.49299000  0.69592000  1.0 0.0919510671
H  H59  1  0.11472000  0.49146000  0.85610000  1.0 0.221130437
H  H60  1  0.18757000  0.46053000  0.80332000  1.0 0.1493818425
H  H61  1  0.34867000  0.52643000  0.64516000  1.0 0.2083446521
H  H62  1  0.28166000  0.56368000  0.69338000  1.0 0.1493818425
H  H63  1  0.06396000  0.48681000  0.64405000  1.0 0.2300635627
H  H64  1  0.18729000  0.51352000  0.69197000  1.0 0.1417165672
H  H65  1  0.54556000  0.30595000  0.99051000  1.0 0.0919510671
H  H66  1  0.95833000  0.29272000  0.00720000  1.0 0.0978375919
H  H67  1  0.55624000  0.19794000  0.98642000  1.0 0.0978375919
H  H68  1  0.96902000  0.18471000  0.00312000  1.0 0.0978375919
H  H69  1  0.88457000  0.34464000  0.00884000  1.0 0.2399969944
H  H70  1  0.78528000  0.28937000  0.98559000  1.0 0.1605476266
H  H71  1  0.62913000  0.14733000  0.98151000  1.0 0.2399969944
H  H72  1  0.72681000  0.19792000  0.01135000  1.0 0.1605476266
H  H73  1  0.90603000  0.13104000  0.00206000  1.0 0.2300635627
H  H74  1  0.81130000  0.17730000  0.03736000  1.0 0.1791757259
H  H75  1  0.01638000  0.28743000  0.52853000  1.0 0.0978375919
H  H76  1  0.44570000  0.31407000  0.47710000  1.0 0.0919510671
H  H77  1  0.00851000  0.18075000  0.52125000  1.0 0.0919510671
H  H78  1  0.43785000  0.20739000  0.46983000  1.0 0.0919510671
H  H79  1  0.38508000  0.36997000  0.47248000  1.0 0.2494454427
H  H80  1  0.30093000  0.32247000  0.43654000  1.0 0.221130437
H  H81  1  0.07143000  0.12619000  0.52268000  1.0 0.2494454427
H  H82  1  0.14737000  0.16921000  0.56456000  1.0 0.221130437
H  H83  1  0.36873000  0.15899000  0.45937000  1.0 0.2609160854
H  H84  1  0.25767000  0.21074000  0.48439000  1.0 0.2083446521
H  H85  1  0.50776000  0.69943000  0.48760000  1.0 0.0919510671
H  H86  1  0.92122000  0.68242000  0.50518000  1.0 0.0919510671
H  H87  1  0.49182000  0.80605000  0.49479000  1.0 0.0978375919
H  H88  1  0.90528000  0.78903000  0.51238000  1.0 0.0978375919
H  H89  1  0.86165000  0.62763000  0.50600000  1.0 0.2399969944
H  H90  1  0.75918000  0.67641000  0.53683000  1.0 0.1791757259
H  H91  1  0.55217000  0.85945000  0.49725000  1.0 0.2399969944
H  H92  1  0.64922000  0.81528000  0.46011000  1.0 0.2001493847
H  H93  1  0.82992000  0.83850000  0.51890000  1.0 0.2300635627
H  H94  1  0.73478000  0.78876000  0.48751000  1.0 0.1678836135
H  H95  1  0.03211000  0.69240000  0.98959000  1.0 0.0978375919
H  H96  1  0.44277000  0.68769000  0.99565000  1.0 0.0978375919
H  H97  1  0.02981000  0.79546000  0.00459000  1.0 0.0919510671
H  H98  1  0.44047000  0.79075000  0.01065000  1.0 0.0919510671
H  H99  1  0.37586000  0.63590000  0.99134000  1.0 0.2083446521
H  H100  1  0.27686000  0.68317000  0.02468000  1.0 0.1678836135
H  H101  1  0.09696000  0.84565000  0.01218000  1.0 0.221130437
H  H102  1  0.19187000  0.80344000  0.97261000  1.0 0.1493818425
H  H103  1  0.37127000  0.83985000  0.01965000  1.0 0.2300635627
H  H104  1  0.27307000  0.79609000  0.98207000  1.0 0.1493818425
C  C1  1  0.27772000  0.01028000  0.89034000  1.0 0.2916371538
C  C2  1  0.24819000  0.01250000  0.81825000  1.0 -0.2183624493
C  C3  1  0.05705000  0.01452000  0.79204000  1.0 0.0482974727
C  C4  1  0.41209000  0.01254000  0.77795000  1.0 0.0482974727
C  C5  1  0.02999000  0.01655000  0.72601000  1.0 0.0303926509
C  C6  1  0.38505000  0.01458000  0.71192000  1.0 0.0606038434
C  C7  1  0.19390000  0.01660000  0.68570000  1.0 -0.2297727452
C  C8  1  0.16437000  0.01882000  0.61361000  1.0 0.377940209
C  C9  1  0.69134000  0.01339000  0.39447000  1.0 0.3893981291
C  C10  1  0.70847000  0.00915000  0.32451000  1.0 -0.2297727452
C  C11  1  0.53784000  0.00508000  0.28856000  1.0 -0.0052346704
C  C12  1  0.89489000  0.00930000  0.29591000  1.0 0.009607789
C  C13  1  0.55354000  0.00119000  0.22449000  1.0 0.009607789
C  C14  1  0.91058000  0.00541000  0.23184000  1.0 0.0203150611
C  C15  1  0.73995000  0.00134000  0.19589000  1.0 -0.2119597482
C  C16  1  0.75708000  0.99710000  0.12593000  1.0 0.4999742223
C  C17  1  0.24669000  0.50341000  0.11051000  1.0 0.298747511
C  C18  1  0.23869000  0.50328000  0.18239000  1.0 -0.2297727452
C  C19  1  0.05953000  0.51560000  0.20873000  1.0 0.0606038434
C  C20  1  0.41046000  0.49084000  0.22236000  1.0 0.0818398459
C  C21  1  0.05220000  0.51548000  0.27457000  1.0 0.0818398459
C  C22  1  0.40313000  0.49072000  0.28820000  1.0 0.0482974727
C  C23  1  0.22399000  0.50304000  0.31455000  1.0 -0.2381344648
C  C24  1  0.21598000  0.50291000  0.38643000  1.0 0.4911570264
C  C25  1  0.76537000  0.51441000  0.88610000  1.0 0.5178301944
C  C26  1  0.74819000  0.51242000  0.81518000  1.0 -0.2381344648
C  C27  1  0.56381000  0.52127000  0.78274000  1.0 0.0606038434
C  C28  1  0.91672000  0.50173000  0.78219000  1.0 0.0482974727
C  C29  1  0.54807000  0.51945000  0.71778000  1.0 0.0606038434
C  C30  1  0.90097000  0.49990000  0.71723000  1.0 0.0702097399
C  C31  1  0.71660000  0.50876000  0.68479000  1.0 -0.2297727452
C  C32  1  0.69942000  0.50677000  0.61387000  1.0 0.377940209
C  C33  1  0.24374000  0.38243000  0.00201000  1.0 0.4794852449
C  C34  1  0.25080000  0.31100000  0.99930000  1.0 -0.2119597482
C  C35  1  0.43243000  0.28206000  0.99299000  1.0 0.009607789
C  C36  1  0.07568000  0.27403000  0.00312000  1.0 0.0303926509
C  C37  1  0.43890000  0.21663000  0.99051000  1.0 0.0303926509
C  C38  1  0.08215000  0.20860000  0.00064000  1.0 -0.0025518593
C  C39  1  0.26378000  0.17966000  0.99433000  1.0 -0.2183624493
C  C40  1  0.27085000  0.10823000  0.99162000  1.0 0.4315737201
C  C41  1  0.73708000  0.38282000  0.50842000  1.0 0.450367601
C  C42  1  0.73189000  0.31227000  0.50360000  1.0 -0.2474931391
C  C43  1  0.90283000  0.27163000  0.51700000  1.0 0.0702097399
C  C44  1  0.55615000  0.28781000  0.48577000  1.0 0.0702097399
C  C45  1  0.89808000  0.20700000  0.51260000  1.0 0.0702097399
C  C46  1  0.55138000  0.22319000  0.48135000  1.0 0.0702097399
C  C47  1  0.72233000  0.18255000  0.49475000  1.0 -0.2474931391
C  C48  1  0.71713000  0.11199000  0.48994000  1.0 0.4999742223
C  C49  1  0.22677000  0.60890000  0.49086000  1.0 0.5114092244
C  C50  1  0.21622000  0.67941000  0.49562000  1.0 -0.2183624493
C  C51  1  0.38952000  0.71711000  0.49247000  1.0 0.0303926509
C  C52  1  0.03318000  0.70677000  0.50315000  1.0 -0.0025518593
C  C53  1  0.37986000  0.78169000  0.49683000  1.0 0.009607789
C  C54  1  0.02352000  0.77136000  0.50750000  1.0 0.0203150611
C  C55  1  0.19682000  0.80905000  0.50436000  1.0 -0.2119597482
C  C56  1  0.18627000  0.87956000  0.50912000  1.0 0.320355059
C  C57  1  0.73922000  0.61076000  0.98108000  1.0 0.435611607
C  C58  1  0.73769000  0.67892000  0.99100000  1.0 -0.2183624493
C  C59  1  0.91601000  0.71179000  0.99374000  1.0 0.0203150611
C  C60  1  0.55797000  0.70893000  0.99742000  1.0 -0.0247663041
C  C61  1  0.91461000  0.77422000  0.00283000  1.0 -0.0052346704
C  C62  1  0.55658000  0.77136000  0.00651000  1.0 0.009607789
C  C63  1  0.73489000  0.80423000  0.00925000  1.0 -0.2119597482
C  C64  1  0.73337000  0.87240000  0.01916000  1.0 0.5325243486
N  N1  1  0.89627000  0.00366000  0.83577000  1.0 -0.3642863916
N  N2  1  0.35623000  0.99417000  0.32165000  1.0 -0.3509388189
N  N3  1  0.89763000  0.53837000  0.16523000  1.0 -0.4190701034
N  N4  1  0.39428000  0.52108000  0.81988000  1.0 -0.3873003857
N  N5  1  0.60108000  0.32314000  0.97859000  1.0 -0.3404976663
N  N6  1  0.08258000  0.30055000  0.52415000  1.0 -0.4457405792
N  N7  1  0.57152000  0.68521000  0.49571000  1.0 -0.3509388189
N  N8  1  0.09290000  0.67662000  0.99800000  1.0 -0.3315448152
N  N9  1  0.59975000  0.99977000  0.80709000  1.0 -0.3509388189
N  N10  1  0.84337000  0.02934000  0.69606000  1.0 -0.3509388189
N  N11  1  0.54582000  0.02544000  0.66818000  1.0 -0.3689673083
N  N12  1  0.06415000  0.00250000  0.33548000  1.0 -0.3509388189
N  N13  1  0.38581000  0.00796000  0.18422000  1.0 -0.3509388189
N  N14  1  0.09220000  0.01632000  0.19875000  1.0 -0.3404976663
N  N15  1  0.59317000  0.48928000  0.19301000  1.0 -0.4190701034
N  N16  1  0.87075000  0.51694000  0.30474000  1.0 -0.4078889674
N  N17  1  0.56505000  0.46795000  0.33171000  1.0 -0.4078889674
N  N18  1  0.09363000  0.48231000  0.81805000  1.0 -0.3689673083
N  N19  1  0.37231000  0.53877000  0.68118000  1.0 -0.3873003857
N  N20  1  0.07051000  0.50010000  0.68009000  1.0 -0.3950622963
N  N21  1  0.89400000  0.30646000  0.99867000  1.0 -0.3315448152
N  N22  1  0.61932000  0.18342000  0.99498000  1.0 -0.3509388189
N  N23  1  0.91350000  0.16752000  0.01504000  1.0 -0.3404976663
N  N24  1  0.39530000  0.33189000  0.46218000  1.0 -0.4190701034
N  N25  1  0.05755000  0.16225000  0.53601000  1.0 -0.4302252021
N  N26  1  0.37164000  0.19427000  0.47420000  1.0 -0.4412135618
N  N27  1  0.86508000  0.66545000  0.51694000  1.0 -0.3404976663
N  N28  1  0.54651000  0.82371000  0.48313000  1.0 -0.3509388189
N  N29  1  0.84152000  0.80326000  0.50426000  1.0 -0.3509388189
N  N30  1  0.38318000  0.67165000  0.00541000  1.0 -0.3404976663
N  N31  1  0.08803000  0.81220000  0.99495000  1.0 -0.3404976663
N  N32  1  0.37968000  0.80653000  0.00225000  1.0 -0.3315448152
O  O1  1  0.75000000  0.03750000  0.96250000  1.0 -0.8854734884
O  O2  1  0.25000000  0.03750000  0.46250000  1.0 -0.7762314664
O  O3  1  0.75000000  0.53750000  0.46250000  1.0 -0.8692068444
O  O4  1  0.25000000  0.53750000  0.96250000  1.0 -0.9039115297
O  O5  1  0.25000000  0.96250000  0.03750000  1.0 -0.8218889223
O  O6  1  0.75000000  0.96250000  0.53750000  1.0 -0.7851788388
O  O7  1  0.25000000  0.46250000  0.53750000  1.0 -0.8010692583
O  O8  1  0.75000000  0.46250000  0.03750000  1.0 -0.9324096428
O  O9  1  0.12937000  0.01024000  0.92683000  1.0 -0.5604525672
O  O10  1  0.45075000  0.00846000  0.91407000  1.0 -0.4962716239
O  O11  1  0.31273000  0.01886000  0.57713000  1.0 -0.5099655874
O  O12  1  0.99135000  0.02064000  0.58989000  1.0 -0.4302252021
O  O13  1  0.52259000  0.01325000  0.42035000  1.0 -0.4412135618
O  O14  1  0.84578000  0.01707000  0.42701000  1.0 -0.5099655874
O  O15  1  0.92583000  0.99723000  0.10005000  1.0 -0.5099655874
O  O16  1  0.60264000  0.99341000  0.09340000  1.0 -0.4844138907
O  O17  1  0.09121000  0.51467000  0.07433000  1.0 -0.5900199996
O  O18  1  0.40887000  0.49225000  0.08668000  1.0 -0.5099655874
O  O19  1  0.37147000  0.49165000  0.42261000  1.0 -0.4962716239
O  O20  1  0.05381000  0.51406000  0.41027000  1.0 -0.5604525672
O  O21  1  0.61283000  0.52409000  0.91596000  1.0 -0.4302252021
O  O22  1  0.93226000  0.50639000  0.91546000  1.0 -0.5429754244
O  O23  1  0.85196000  0.49709000  0.58401000  1.0 -0.5507758843
O  O24  1  0.53252000  0.51478000  0.58451000  1.0 -0.5237954246
O  O25  1  0.40224000  0.41590000  0.99854000  1.0 -0.531559168
O  O26  1  0.07933000  0.40863000  0.00772000  1.0 -0.5700468408
O  O27  1  0.11233000  0.07476000  0.99508000  1.0 -0.5700468408
O  O28  1  0.43525000  0.08203000  0.98591000  1.0 -0.5099655874
O  O29  1  0.89617000  0.40496000  0.52457000  1.0 -0.5839101063
O  O30  1  0.58235000  0.41961000  0.49629000  1.0 -0.5604525672
O  O31  1  0.55804000  0.08986000  0.47378000  1.0 -0.5604525672
O  O32  1  0.87186000  0.07521000  0.50206000  1.0 -0.4078889674
O  O33  1  0.39245000  0.58414000  0.48404000  1.0 -0.5604525672
O  O34  1  0.06990000  0.57478000  0.49371000  1.0 -0.5700468408
O  O35  1  0.02059000  0.90433000  0.51593000  1.0 -0.5099655874
O  O36  1  0.34314000  0.91368000  0.50627000  1.0 -0.6032442437
O  O37  1  0.90189000  0.58359000  0.97527000  1.0 -0.5507758843
O  O38  1  0.57781000  0.58100000  0.97860000  1.0 -0.4655911909
O  O39  1  0.57068000  0.89956000  0.02497000  1.0 -0.4879256176
O  O40  1  0.89477000  0.90215000  0.02164000  1.0 -0.5507758843
