# DDEC6 charges by PACMAN v1.1 (https://github.com/mtap-research/PACMAN-charge/)
data_TEPMUZ_ASR_pacman
_symmetry_space_group_name_H-M   'P 1'
_cell_length_a   20.82430000
_cell_length_b   20.82430000
_cell_length_c   29.63500000
_cell_angle_alpha   51.86210000
_cell_angle_beta   128.13800000
_cell_angle_gamma   153.93700000
_symmetry_Int_Tables_number   1
_chemical_formula_structural   Zn2H11C25N2O7
_chemical_formula_sum   'Zn8 H44 C100 N8 O28'
_cell_volume   4367.03237820
_cell_formula_units_Z   4
loop_
 _symmetry_equiv_pos_site_id
 _symmetry_equiv_pos_as_xyz
  1  'x, y, z'
loop_
 _atom_site_type_symbol
 _atom_site_label
 _atom_site_symmetry_multiplicity
 _atom_site_fract_x
 _atom_site_fract_y
 _atom_site_fract_z
 _atom_site_occupancy
 _atom_site_charge
Zn  Zn1  1  0.40594000  0.36546000  0.48916000  1.0 0.9225416829
Zn  Zn2  1  0.96472000  0.46528000  0.50360000  1.0 0.3616098513
Zn  Zn3  1  0.36546000  0.40594000  0.01084000  1.0 0.9225416829
Zn  Zn4  1  0.46528000  0.96472000  0.99640000  1.0 0.3616098513
Zn  Zn5  1  0.59406000  0.63454000  0.51084000  1.0 0.9225416829
Zn  Zn6  1  0.03528000  0.53472000  0.49640000  1.0 0.3616098513
Zn  Zn7  1  0.63454000  0.59406000  0.98916000  1.0 0.9225416829
Zn  Zn8  1  0.53472000  0.03528000  0.00360000  1.0 0.3616098513
H  H1  1  0.99000000  0.91280000  0.49110000  1.0 0.1416104337
H  H2  1  0.76870000  0.54430000  0.49560000  1.0 0.120784203
H  H3  1  0.11670000  0.72890000  0.60480000  1.0 0.126627182
H  H4  1  0.20280000  0.93660000  0.48930000  1.0 0.120784203
H  H5  1  0.13000000  0.30540000  0.61980000  1.0 0.126627182
H  H6  1  0.53020000  0.68020000  0.79890000  1.0 0.120784203
H  H7  1  0.20700000  0.66180000  0.68120000  1.0 0.120784203
H  H8  1  0.42800000  0.67520000  0.70010000  1.0 0.120784203
H  H9  1  0.05920000  0.39640000  0.73660000  1.0 0.120784203
H  H10  1  0.15930000  0.39990000  0.83420000  1.0 0.126627182
H  H11  1  0.18750000  0.37970000  0.69140000  1.0 0.120784203
H  H12  1  0.91280000  0.99000000  0.00890000  1.0 0.1416104337
H  H13  1  0.54430000  0.76870000  0.00440000  1.0 0.120784203
H  H14  1  0.72890000  0.11670000  0.89520000  1.0 0.126627182
H  H15  1  0.93660000  0.20280000  0.01070000  1.0 0.120784203
H  H16  1  0.30540000  0.13000000  0.88020000  1.0 0.126627182
H  H17  1  0.68020000  0.53020000  0.70110000  1.0 0.120784203
H  H18  1  0.66180000  0.20700000  0.81880000  1.0 0.120784203
H  H19  1  0.67520000  0.42800000  0.79990000  1.0 0.120784203
H  H20  1  0.39640000  0.05920000  0.76340000  1.0 0.120784203
H  H21  1  0.39990000  0.15930000  0.66580000  1.0 0.126627182
H  H22  1  0.37970000  0.18750000  0.80860000  1.0 0.120784203
H  H23  1  0.01000000  0.08720000  0.50890000  1.0 0.1416104337
H  H24  1  0.23130000  0.45570000  0.50440000  1.0 0.120784203
H  H25  1  0.88330000  0.27110000  0.39520000  1.0 0.126627182
H  H26  1  0.79720000  0.06340000  0.51070000  1.0 0.120784203
H  H27  1  0.87000000  0.69460000  0.38020000  1.0 0.126627182
H  H28  1  0.46980000  0.31980000  0.20110000  1.0 0.120784203
H  H29  1  0.79300000  0.33820000  0.31880000  1.0 0.120784203
H  H30  1  0.57200000  0.32480000  0.29990000  1.0 0.120784203
H  H31  1  0.94080000  0.60360000  0.26340000  1.0 0.120784203
H  H32  1  0.84070000  0.60010000  0.16580000  1.0 0.126627182
H  H33  1  0.81250000  0.62030000  0.30860000  1.0 0.120784203
H  H34  1  0.08720000  0.01000000  0.99110000  1.0 0.1416104337
H  H35  1  0.45570000  0.23130000  0.99560000  1.0 0.120784203
H  H36  1  0.27110000  0.88330000  0.10480000  1.0 0.126627182
H  H37  1  0.06340000  0.79720000  0.98930000  1.0 0.120784203
H  H38  1  0.69460000  0.87000000  0.11980000  1.0 0.126627182
H  H39  1  0.31980000  0.46980000  0.29890000  1.0 0.120784203
H  H40  1  0.33820000  0.79300000  0.18120000  1.0 0.120784203
H  H41  1  0.32480000  0.57200000  0.20010000  1.0 0.120784203
H  H42  1  0.60360000  0.94080000  0.23660000  1.0 0.120784203
H  H43  1  0.60010000  0.84070000  0.33420000  1.0 0.126627182
H  H44  1  0.62030000  0.81250000  0.19140000  1.0 0.120784203
C  C1  1  0.85940000  0.71920000  0.49180000  1.0 -0.013070245
C  C2  1  0.98710000  0.86530000  0.49040000  1.0 -0.0988716135
C  C3  1  0.98420000  0.73020000  0.49170000  1.0 0.0850438972
C  C4  1  0.05070000  0.63930000  0.54840000  1.0 0.1487859127
C  C5  1  0.12840000  0.57800000  0.61600000  1.0 0.1551418652
C  C6  1  0.98830000  0.65690000  0.49670000  1.0 -0.0592121786
C  C7  1  0.71850000  0.62690000  0.49350000  1.0 0.5919163872
C  C8  1  0.06910000  0.38010000  0.55690000  1.0 0.1487859127
C  C9  1  0.11470000  0.94830000  0.48780000  1.0 -0.0674884749
C  C10  1  0.41430000  0.53170000  0.88910000  1.0 0.5830740382
C  C11  1  0.85820000  0.64880000  0.49340000  1.0 -0.1292599316
C  C12  1  0.23470000  0.53670000  0.70770000  1.0 0.082217181
C  C13  1  0.35390000  0.53570000  0.82750000  1.0 -0.0809604625
C  C14  1  0.16360000  0.52520000  0.64540000  1.0 -0.0674884749
C  C15  1  0.11150000  0.68270000  0.60040000  1.0 -0.189104973
C  C16  1  0.13830000  0.46510000  0.61890000  1.0 0.1487859127
C  C17  1  0.11380000  0.88000000  0.48960000  1.0 -0.1503005165
C  C18  1  0.12170000  0.34950000  0.61220000  1.0 -0.182524542
C  C19  1  0.43280000  0.62000000  0.78640000  1.0 -0.0809604625
C  C20  1  0.16040000  0.64580000  0.64210000  1.0 -0.189104973
C  C21  1  0.37240000  0.61840000  0.72720000  1.0 -0.1503005165
C  C22  1  0.15520000  0.45380000  0.74930000  1.0 -0.1374936203
C  C23  1  0.21400000  0.45480000  0.80710000  1.0 -0.0809604625
C  C24  1  0.15630000  0.39290000  0.65050000  1.0 -0.1714158456
C  C25  1  0.24910000  0.10890000  0.48160000  1.0 0.436278974
C  C26  1  0.71920000  0.85940000  0.00820000  1.0 -0.013070245
C  C27  1  0.86530000  0.98710000  0.00960000  1.0 -0.0988716135
C  C28  1  0.73020000  0.98420000  0.00830000  1.0 0.082217181
C  C29  1  0.63930000  0.05070000  0.95160000  1.0 0.1487859127
C  C30  1  0.57800000  0.12840000  0.88400000  1.0 0.1551418652
C  C31  1  0.65690000  0.98830000  0.00330000  1.0 -0.0592121786
C  C32  1  0.62690000  0.71850000  0.00650000  1.0 0.5919163872
C  C33  1  0.38010000  0.06910000  0.94310000  1.0 0.1487859127
C  C34  1  0.94830000  0.11470000  0.01220000  1.0 -0.0674884749
C  C35  1  0.53170000  0.41430000  0.61090000  1.0 0.5830740382
C  C36  1  0.64880000  0.85820000  0.00660000  1.0 -0.1292599316
C  C37  1  0.53670000  0.23470000  0.79230000  1.0 0.082217181
C  C38  1  0.53570000  0.35390000  0.67250000  1.0 -0.0809604625
C  C39  1  0.52520000  0.16360000  0.85460000  1.0 -0.0674884749
C  C40  1  0.68270000  0.11150000  0.89960000  1.0 -0.189104973
C  C41  1  0.46510000  0.13830000  0.88110000  1.0 0.1487859127
C  C42  1  0.88000000  0.11380000  0.01040000  1.0 -0.1503005165
C  C43  1  0.34950000  0.12170000  0.88780000  1.0 -0.182524542
C  C44  1  0.62000000  0.43280000  0.71360000  1.0 -0.0809604625
C  C45  1  0.64580000  0.16040000  0.85790000  1.0 -0.189104973
C  C46  1  0.61840000  0.37240000  0.77280000  1.0 -0.1503005165
C  C47  1  0.45380000  0.15520000  0.75070000  1.0 -0.1374936203
C  C48  1  0.45480000  0.21400000  0.69290000  1.0 -0.0809604625
C  C49  1  0.39290000  0.15630000  0.84950000  1.0 -0.1714158456
C  C50  1  0.10890000  0.24910000  0.01840000  1.0 0.436278974
C  C51  1  0.14060000  0.28080000  0.50820000  1.0 -0.013070245
C  C52  1  0.01290000  0.13470000  0.50960000  1.0 -0.0988716135
C  C53  1  0.01580000  0.26980000  0.50830000  1.0 0.082217181
C  C54  1  0.94930000  0.36070000  0.45160000  1.0 0.1487859127
C  C55  1  0.87160000  0.42200000  0.38400000  1.0 0.1551418652
C  C56  1  0.01170000  0.34310000  0.50330000  1.0 -0.0592121786
C  C57  1  0.28150000  0.37310000  0.50650000  1.0 0.5919163872
C  C58  1  0.93090000  0.61990000  0.44310000  1.0 0.1487859127
C  C59  1  0.88530000  0.05170000  0.51220000  1.0 -0.0674884749
C  C60  1  0.58570000  0.46830000  0.11090000  1.0 0.5830740382
C  C61  1  0.14180000  0.35120000  0.50660000  1.0 -0.1292599316
C  C62  1  0.76530000  0.46330000  0.29230000  1.0 0.082217181
C  C63  1  0.64610000  0.46430000  0.17250000  1.0 -0.0809604625
C  C64  1  0.83640000  0.47480000  0.35460000  1.0 -0.0674884749
C  C65  1  0.88850000  0.31730000  0.39960000  1.0 -0.189104973
C  C66  1  0.86170000  0.53490000  0.38110000  1.0 0.1487859127
C  C67  1  0.88620000  0.12000000  0.51040000  1.0 -0.1503005165
C  C68  1  0.87830000  0.65050000  0.38780000  1.0 -0.182524542
C  C69  1  0.56720000  0.38000000  0.21360000  1.0 -0.0809604625
C  C70  1  0.83960000  0.35420000  0.35790000  1.0 -0.189104973
C  C71  1  0.62760000  0.38160000  0.27280000  1.0 -0.1503005165
C  C72  1  0.84480000  0.54620000  0.25070000  1.0 -0.1374936203
C  C73  1  0.78600000  0.54520000  0.19290000  1.0 -0.0809604625
C  C74  1  0.84370000  0.60710000  0.34950000  1.0 -0.1714158456
C  C75  1  0.75090000  0.89110000  0.51840000  1.0 0.436278974
C  C76  1  0.28080000  0.14060000  0.99180000  1.0 -0.013070245
C  C77  1  0.13470000  0.01290000  0.99040000  1.0 -0.0988716135
C  C78  1  0.26980000  0.01580000  0.99170000  1.0 0.082217181
C  C79  1  0.36070000  0.94930000  0.04840000  1.0 0.1487859127
C  C80  1  0.42200000  0.87160000  0.11600000  1.0 0.1551418652
C  C81  1  0.34310000  0.01170000  0.99670000  1.0 -0.0592121786
C  C82  1  0.37310000  0.28150000  0.99350000  1.0 0.5919163872
C  C83  1  0.61990000  0.93090000  0.05690000  1.0 0.1487859127
C  C84  1  0.05170000  0.88530000  0.98780000  1.0 -0.0674884749
C  C85  1  0.46830000  0.58570000  0.38910000  1.0 0.5830740382
C  C86  1  0.35120000  0.14180000  0.99340000  1.0 -0.1292599316
C  C87  1  0.46330000  0.76530000  0.20770000  1.0 0.082217181
C  C88  1  0.46430000  0.64610000  0.32750000  1.0 -0.0809604625
C  C89  1  0.47480000  0.83640000  0.14540000  1.0 -0.0674884749
C  C90  1  0.31730000  0.88850000  0.10040000  1.0 -0.189104973
C  C91  1  0.53490000  0.86170000  0.11890000  1.0 0.1487859127
C  C92  1  0.12000000  0.88620000  0.98960000  1.0 -0.1503005165
C  C93  1  0.65050000  0.87830000  0.11220000  1.0 -0.182524542
C  C94  1  0.38000000  0.56720000  0.28640000  1.0 -0.0809604625
C  C95  1  0.35420000  0.83960000  0.14210000  1.0 -0.189104973
C  C96  1  0.38160000  0.62760000  0.22720000  1.0 -0.1503005165
C  C97  1  0.54620000  0.84480000  0.24930000  1.0 -0.1374936203
C  C98  1  0.54520000  0.78600000  0.30710000  1.0 -0.0809604625
C  C99  1  0.60710000  0.84370000  0.15050000  1.0 -0.1714158456
C  C100  1  0.89110000  0.75090000  0.98160000  1.0 0.436278974
N  N1  1  0.06328000  0.57652000  0.55930000  1.0 -0.3032955974
N  N2  1  0.07816000  0.44924000  0.56240000  1.0 -0.3054464708
N  N3  1  0.57652000  0.06328000  0.94070000  1.0 -0.3032955974
N  N4  1  0.44924000  0.07816000  0.93760000  1.0 -0.3054464708
N  N5  1  0.93672000  0.42348000  0.44070000  1.0 -0.3032955974
N  N6  1  0.92184000  0.55076000  0.43760000  1.0 -0.3032955974
N  N7  1  0.42348000  0.93672000  0.05930000  1.0 -0.3032955974
N  N8  1  0.55076000  0.92184000  0.06240000  1.0 -0.3032955974
O  O1  1  0.25042000  0.17218000  0.47920000  1.0 -0.4575441281
O  O2  1  0.73710000  0.69390000  0.50360000  1.0 -0.5435180018
O  O3  1  0.53600000  0.59800000  0.90520000  1.0 -0.5274651349
O  O4  1  0.59920000  0.49640000  0.48680000  1.0 -0.5274651349
O  O5  1  0.34500000  0.46620000  0.92300000  1.0 -0.5274651349
O  O6  1  0.36350000  0.19970000  0.46340000  1.0 0.045821966
O  O7  1  0.38830000  0.18490000  0.50460000  1.0 -0.0343340153
O  O8  1  0.17218000  0.25042000  0.02080000  1.0 -0.4575441281
O  O9  1  0.69390000  0.73710000  0.99640000  1.0 -0.5435180018
O  O10  1  0.59800000  0.53600000  0.59480000  1.0 -0.5274651349
O  O11  1  0.49640000  0.59920000  0.01320000  1.0 -0.5274651349
O  O12  1  0.46620000  0.34500000  0.57700000  1.0 -0.5274651349
O  O13  1  0.19970000  0.36350000  0.03660000  1.0 0.045821966
O  O14  1  0.18490000  0.38830000  0.99540000  1.0 -0.0343340153
O  O15  1  0.74958000  0.82782000  0.52080000  1.0 -0.4575441281
O  O16  1  0.26290000  0.30610000  0.49640000  1.0 -0.5435180018
O  O17  1  0.46400000  0.40200000  0.09480000  1.0 -0.5274651349
O  O18  1  0.40080000  0.50360000  0.51320000  1.0 -0.5274651349
O  O19  1  0.65500000  0.53380000  0.07700000  1.0 -0.5274651349
O  O20  1  0.63650000  0.80030000  0.53660000  1.0 0.0440430244
O  O21  1  0.61170000  0.81510000  0.49540000  1.0 -0.0343340153
O  O22  1  0.82782000  0.74958000  0.97920000  1.0 -0.4575441281
O  O23  1  0.30610000  0.26290000  0.00360000  1.0 -0.5435180018
O  O24  1  0.40200000  0.46400000  0.40520000  1.0 -0.5274651349
O  O25  1  0.50360000  0.40080000  0.98680000  1.0 -0.5274651349
O  O26  1  0.53380000  0.65500000  0.42300000  1.0 -0.5274651349
O  O27  1  0.80030000  0.63650000  0.96340000  1.0 0.0440430244
O  O28  1  0.81510000  0.61170000  0.00460000  1.0 -0.0343340153
