# DDEC6 charges by PACMAN v1.1 (https://github.com/mtap-research/PACMAN-charge/)
data_TEPMOT_ASR_pacman
_symmetry_space_group_name_H-M   'P 1'
_cell_length_a   9.83820000
_cell_length_b   29.13100000
_cell_length_c   33.60100000
_cell_angle_alpha   90.00000000
_cell_angle_beta   90.00000000
_cell_angle_gamma   90.00000000
_symmetry_Int_Tables_number   1
_chemical_formula_structural   Zn2Co3H25C50(N2O7)2
_chemical_formula_sum   'Zn8 Co12 H100 C200 N16 O56'
_cell_volume   9629.93249772
_cell_formula_units_Z   4
loop_
 _symmetry_equiv_pos_site_id
 _symmetry_equiv_pos_as_xyz
  1  'x, y, z'
loop_
 _atom_site_type_symbol
 _atom_site_label
 _atom_site_symmetry_multiplicity
 _atom_site_fract_x
 _atom_site_fract_y
 _atom_site_fract_z
 _atom_site_occupancy
 _atom_site_charge
Zn  Zn1  1  0.46140000  0.50430000  0.50130000  1.0 0.3547040577
Zn  Zn2  1  0.96140000  0.99570000  0.49870000  1.0 0.3547040577
Zn  Zn3  1  0.53860000  0.49570000  0.00130000  1.0 0.3547040577
Zn  Zn4  1  0.03860000  0.00430000  0.99870000  1.0 0.3547040577
Zn  Zn5  1  0.53860000  0.49570000  0.49870000  1.0 0.3547040577
Zn  Zn6  1  0.03860000  0.00430000  0.50130000  1.0 0.3547040577
Zn  Zn7  1  0.46140000  0.50430000  0.99870000  1.0 0.3547040577
Zn  Zn8  1  0.96140000  0.99570000  0.00130000  1.0 0.3547040577
Co  Co1  1  0.16470000  0.67185000  0.69942000  1.0 0.9325767512
Co  Co2  1  0.66470000  0.82815000  0.30058000  1.0 0.9325767512
Co  Co3  1  0.83530000  0.32815000  0.19942000  1.0 0.9325767512
Co  Co4  1  0.33530000  0.17185000  0.80058000  1.0 0.9325767512
Co  Co5  1  0.83530000  0.32815000  0.30058000  1.0 0.9325767512
Co  Co6  1  0.33530000  0.17185000  0.69942000  1.0 0.9325767512
Co  Co7  1  0.16470000  0.67185000  0.80058000  1.0 0.9325767512
Co  Co8  1  0.66470000  0.82815000  0.19942000  1.0 0.9325767512
Co  Co9  1  0.37790000  0.73958000  0.75000000  1.0 1.109208485
Co  Co10  1  0.87790000  0.76042000  0.25000000  1.0 1.109208485
Co  Co11  1  0.62210000  0.26042000  0.25000000  1.0 1.109208485
Co  Co12  1  0.12210000  0.23958000  0.75000000  1.0 1.109208485
H  H1  1  0.45040000  0.60910000  0.62720000  1.0 0.1320480138
H  H2  1  0.16440000  0.35070000  0.66680000  1.0 0.123948207
H  H3  1  0.69660000  0.67960000  0.69240000  1.0 0.1466660331
H  H4  1  0.30190000  0.34710000  0.45040000  1.0 0.1320480138
H  H5  1  0.85410000  0.59560000  0.60980000  1.0 0.1320480138
H  H6  1  0.29600000  0.34040000  0.52360000  1.0 0.123948207
H  H7  1  0.23180000  0.41140000  0.62180000  1.0 0.1111146727
H  H8  1  0.50960000  0.43970000  0.64390000  1.0 0.1320480138
H  H9  1  0.58560000  0.51800000  0.64750000  1.0 0.1320480138
H  H10  1  0.46470000  0.26810000  0.61740000  1.0 0.1320480138
H  H11  1  0.53870000  0.33710000  0.58170000  1.0 0.1111146727
H  H12  1  0.95040000  0.89090000  0.37280000  1.0 0.1320480138
H  H13  1  0.66440000  0.14930000  0.33320000  1.0 0.123948207
H  H14  1  0.19660000  0.82040000  0.30760000  1.0 0.1466660331
H  H15  1  0.80190000  0.15290000  0.54960000  1.0 0.1320480138
H  H16  1  0.35410000  0.90440000  0.39020000  1.0 0.1320480138
H  H17  1  0.79600000  0.15960000  0.47640000  1.0 0.123948207
H  H18  1  0.73180000  0.08860000  0.37820000  1.0 0.1111146727
H  H19  1  0.00960000  0.06030000  0.35610000  1.0 0.1320480138
H  H20  1  0.08560000  0.98200000  0.35250000  1.0 0.1320480138
H  H21  1  0.96470000  0.23190000  0.38260000  1.0 0.1320480138
H  H22  1  0.03870000  0.16290000  0.41830000  1.0 0.1111146727
H  H23  1  0.54960000  0.39090000  0.12720000  1.0 0.1320480138
H  H24  1  0.83560000  0.64930000  0.16680000  1.0 0.123948207
H  H25  1  0.30340000  0.32040000  0.19240000  1.0 0.1466660331
H  H26  1  0.69810000  0.65290000  0.95040000  1.0 0.1320480138
H  H27  1  0.14590000  0.40440000  0.10980000  1.0 0.1320480138
H  H28  1  0.70400000  0.65960000  0.02360000  1.0 0.123948207
H  H29  1  0.76820000  0.58860000  0.12180000  1.0 0.1111146727
H  H30  1  0.49040000  0.56030000  0.14390000  1.0 0.1320480138
H  H31  1  0.41440000  0.48200000  0.14750000  1.0 0.1320480138
H  H32  1  0.53530000  0.73190000  0.11740000  1.0 0.1320480138
H  H33  1  0.46130000  0.66290000  0.08170000  1.0 0.1111146727
H  H34  1  0.04960000  0.10910000  0.87280000  1.0 0.1320480138
H  H35  1  0.33560000  0.85070000  0.83320000  1.0 0.123948207
H  H36  1  0.80340000  0.17960000  0.80760000  1.0 0.1466660331
H  H37  1  0.19810000  0.84710000  0.04960000  1.0 0.1320480138
H  H38  1  0.64590000  0.09560000  0.89020000  1.0 0.1320480138
H  H39  1  0.20400000  0.84040000  0.97640000  1.0 0.123948207
H  H40  1  0.26820000  0.91140000  0.87820000  1.0 0.1111146727
H  H41  1  0.99040000  0.93970000  0.85610000  1.0 0.1320480138
H  H42  1  0.91440000  0.01800000  0.85250000  1.0 0.1320480138
H  H43  1  0.03530000  0.76810000  0.88260000  1.0 0.1320480138
H  H44  1  0.96130000  0.83710000  0.91830000  1.0 0.1111146727
H  H45  1  0.54960000  0.39090000  0.37280000  1.0 0.1320480138
H  H46  1  0.83560000  0.64930000  0.33320000  1.0 0.123948207
H  H47  1  0.30340000  0.32040000  0.30760000  1.0 0.1466660331
H  H48  1  0.69810000  0.65290000  0.54960000  1.0 0.1320480138
H  H49  1  0.14590000  0.40440000  0.39020000  1.0 0.1320480138
H  H50  1  0.70400000  0.65960000  0.47640000  1.0 0.123948207
H  H51  1  0.76820000  0.58860000  0.37820000  1.0 0.1111146727
H  H52  1  0.49040000  0.56030000  0.35610000  1.0 0.1320480138
H  H53  1  0.41440000  0.48200000  0.35250000  1.0 0.1320480138
H  H54  1  0.53530000  0.73190000  0.38260000  1.0 0.1320480138
H  H55  1  0.46130000  0.66290000  0.41830000  1.0 0.1111146727
H  H56  1  0.04960000  0.10910000  0.62720000  1.0 0.1320480138
H  H57  1  0.33560000  0.85070000  0.66680000  1.0 0.123948207
H  H58  1  0.80340000  0.17960000  0.69240000  1.0 0.1466660331
H  H59  1  0.19810000  0.84710000  0.45040000  1.0 0.1320480138
H  H60  1  0.64590000  0.09560000  0.60980000  1.0 0.1320480138
H  H61  1  0.20400000  0.84040000  0.52360000  1.0 0.123948207
H  H62  1  0.26820000  0.91140000  0.62180000  1.0 0.1111146727
H  H63  1  0.99040000  0.93970000  0.64390000  1.0 0.1320480138
H  H64  1  0.91440000  0.01800000  0.64750000  1.0 0.1320480138
H  H65  1  0.03530000  0.76810000  0.61740000  1.0 0.1320480138
H  H66  1  0.96130000  0.83710000  0.58170000  1.0 0.1111146727
H  H67  1  0.45040000  0.60910000  0.87280000  1.0 0.1320480138
H  H68  1  0.16440000  0.35070000  0.83320000  1.0 0.123948207
H  H69  1  0.69660000  0.67960000  0.80760000  1.0 0.1466660331
H  H70  1  0.30190000  0.34710000  0.04960000  1.0 0.1320480138
H  H71  1  0.85410000  0.59560000  0.89020000  1.0 0.1320480138
H  H72  1  0.29600000  0.34040000  0.97640000  1.0 0.123948207
H  H73  1  0.23180000  0.41140000  0.87820000  1.0 0.1111146727
H  H74  1  0.50960000  0.43970000  0.85610000  1.0 0.1320480138
H  H75  1  0.58560000  0.51800000  0.85250000  1.0 0.1320480138
H  H76  1  0.46470000  0.26810000  0.88260000  1.0 0.1320480138
H  H77  1  0.53870000  0.33710000  0.91830000  1.0 0.1111146727
H  H78  1  0.95040000  0.89090000  0.12720000  1.0 0.1320480138
H  H79  1  0.66440000  0.14930000  0.16680000  1.0 0.123948207
H  H80  1  0.19660000  0.82040000  0.19240000  1.0 0.1466660331
H  H81  1  0.80190000  0.15290000  0.95040000  1.0 0.1320480138
H  H82  1  0.35410000  0.90440000  0.10980000  1.0 0.1320480138
H  H83  1  0.79600000  0.15960000  0.02360000  1.0 0.123948207
H  H84  1  0.73180000  0.08860000  0.12180000  1.0 0.1111146727
H  H85  1  0.00960000  0.06030000  0.14390000  1.0 0.1320480138
H  H86  1  0.08560000  0.98200000  0.14750000  1.0 0.1320480138
H  H87  1  0.96470000  0.23190000  0.11740000  1.0 0.1320480138
H  H88  1  0.03870000  0.16290000  0.08170000  1.0 0.1111146727
H  H89  1  0.12770000  0.73050000  0.75000000  1.0 0.4080652103
H  H90  1  0.06430000  0.59810000  0.75000000  1.0 0.4080652103
H  H91  1  0.22930000  0.59370000  0.75000000  1.0 0.4080652103
H  H92  1  0.62770000  0.76950000  0.25000000  1.0 0.4080652103
H  H93  1  0.56430000  0.90190000  0.25000000  1.0 0.4080652103
H  H94  1  0.72930000  0.90630000  0.25000000  1.0 0.4080652103
H  H95  1  0.87230000  0.26950000  0.25000000  1.0 0.4080652103
H  H96  1  0.93570000  0.40190000  0.25000000  1.0 0.4080652103
H  H97  1  0.77070000  0.40630000  0.25000000  1.0 0.4080652103
H  H98  1  0.37230000  0.23050000  0.75000000  1.0 0.4080652103
H  H99  1  0.43570000  0.09810000  0.75000000  1.0 0.4080652103
H  H100  1  0.27070000  0.09370000  0.75000000  1.0 0.4080652103
C  C1  1  0.55710000  0.64840000  0.66360000  1.0 0.0043112469
C  C2  1  0.54080000  0.61800000  0.63350000  1.0 -0.2041635757
C  C3  1  0.23730000  0.34690000  0.64860000  1.0 -0.113268803
C  C4  1  0.68280000  0.65770000  0.67190000  1.0 -0.152632996
C  C5  1  0.61420000  0.56520000  0.57700000  1.0 -0.0914413204
C  C6  1  0.65060000  0.59770000  0.60970000  1.0 0.0986027176
C  C7  1  0.37230000  0.41610000  0.45930000  1.0 0.1621894462
C  C8  1  0.46560000  0.45520000  0.57950000  1.0 0.1466660331
C  C9  1  0.80040000  0.63980000  0.65480000  1.0 0.0396695713
C  C10  1  0.39410000  0.40640000  0.52600000  1.0 0.1621894462
C  C11  1  0.32800000  0.37010000  0.46890000  1.0 -0.1725028
C  C12  1  0.30990000  0.30830000  0.64660000  1.0 -0.0036623095
C  C13  1  0.42770000  0.66110000  0.68650000  1.0 0.5673722828
C  C14  1  0.57130000  0.52460000  0.58490000  1.0 0.165560847
C  C15  1  0.77780000  0.60890000  0.62270000  1.0 -0.1797363508
C  C16  1  0.37590000  0.37750000  0.59380000  1.0 0.0633109854
C  C17  1  0.33030000  0.36580000  0.50900000  1.0 -0.1725028
C  C18  1  0.27780000  0.38280000  0.62070000  1.0 -0.152632996
C  C19  1  0.41780000  0.41470000  0.56640000  1.0 -0.0960314787
C  C20  1  0.51350000  0.46130000  0.62280000  1.0 -0.113268803
C  C21  1  0.27900000  0.26600000  0.67460000  1.0 0.5784944798
C  C22  1  0.95800000  0.64770000  0.66880000  1.0 0.5153440142
C  C23  1  0.56040000  0.50300000  0.62350000  1.0 -0.1797363508
C  C24  1  0.42200000  0.29720000  0.61950000  1.0 -0.1309293603
C  C25  1  0.45600000  0.33760000  0.59630000  1.0 -0.152632996
C  C26  1  0.05710000  0.85160000  0.33640000  1.0 0.0043112469
C  C27  1  0.04080000  0.88200000  0.36650000  1.0 -0.2041635757
C  C28  1  0.73730000  0.15310000  0.35140000  1.0 -0.113268803
C  C29  1  0.18280000  0.84230000  0.32810000  1.0 -0.152632996
C  C30  1  0.11420000  0.93480000  0.42300000  1.0 -0.0914413204
C  C31  1  0.15060000  0.90230000  0.39030000  1.0 0.0986027176
C  C32  1  0.87230000  0.08390000  0.54070000  1.0 0.1621894462
C  C33  1  0.96560000  0.04480000  0.42050000  1.0 0.1466660331
C  C34  1  0.30040000  0.86020000  0.34520000  1.0 0.0396695713
C  C35  1  0.89410000  0.09360000  0.47400000  1.0 0.1621894462
C  C36  1  0.82800000  0.12990000  0.53110000  1.0 -0.1725028
C  C37  1  0.80990000  0.19170000  0.35340000  1.0 -0.0036623095
C  C38  1  0.92770000  0.83890000  0.31350000  1.0 0.5673722828
C  C39  1  0.07130000  0.97540000  0.41510000  1.0 0.1621894462
C  C40  1  0.27780000  0.89110000  0.37730000  1.0 -0.1797363508
C  C41  1  0.87590000  0.12250000  0.40620000  1.0 0.0633109854
C  C42  1  0.83030000  0.13420000  0.49100000  1.0 -0.1725028
C  C43  1  0.77780000  0.11720000  0.37930000  1.0 -0.152632996
C  C44  1  0.91780000  0.08530000  0.43360000  1.0 -0.0960314787
C  C45  1  0.01350000  0.03870000  0.37720000  1.0 -0.113268803
C  C46  1  0.77900000  0.23400000  0.32540000  1.0 0.5784944798
C  C47  1  0.45800000  0.85230000  0.33120000  1.0 0.5153440142
C  C48  1  0.06040000  0.99700000  0.37650000  1.0 -0.1797363508
C  C49  1  0.92200000  0.20280000  0.38050000  1.0 -0.1309293603
C  C50  1  0.95600000  0.16240000  0.40370000  1.0 -0.152632996
C  C51  1  0.44290000  0.35160000  0.16360000  1.0 0.0043112469
C  C52  1  0.45920000  0.38200000  0.13350000  1.0 -0.2041635757
C  C53  1  0.76270000  0.65310000  0.14860000  1.0 -0.113268803
C  C54  1  0.31720000  0.34230000  0.17190000  1.0 -0.152632996
C  C55  1  0.38580000  0.43480000  0.07700000  1.0 -0.0914413204
C  C56  1  0.34940000  0.40230000  0.10970000  1.0 0.0986027176
C  C57  1  0.62770000  0.58390000  0.95930000  1.0 0.1621894462
C  C58  1  0.53440000  0.54480000  0.07950000  1.0 0.1466660331
C  C59  1  0.19960000  0.36020000  0.15480000  1.0 0.0396695713
C  C60  1  0.60590000  0.59360000  0.02600000  1.0 0.1621894462
C  C61  1  0.67200000  0.62990000  0.96890000  1.0 -0.1725028
C  C62  1  0.69010000  0.69170000  0.14660000  1.0 -0.0036623095
C  C63  1  0.57230000  0.33890000  0.18650000  1.0 0.5673722828
C  C64  1  0.42870000  0.47540000  0.08490000  1.0 0.165560847
C  C65  1  0.22220000  0.39110000  0.12270000  1.0 -0.1797363508
C  C66  1  0.62410000  0.62250000  0.09380000  1.0 0.0633109854
C  C67  1  0.66970000  0.63420000  0.00900000  1.0 -0.1725028
C  C68  1  0.72220000  0.61720000  0.12070000  1.0 -0.152632996
C  C69  1  0.58220000  0.58530000  0.06640000  1.0 -0.0960314787
C  C70  1  0.48650000  0.53870000  0.12280000  1.0 -0.113268803
C  C71  1  0.72100000  0.73400000  0.17460000  1.0 0.5784944798
C  C72  1  0.04200000  0.35230000  0.16880000  1.0 0.5153440142
C  C73  1  0.43960000  0.49700000  0.12350000  1.0 -0.1797363508
C  C74  1  0.57800000  0.70280000  0.11950000  1.0 -0.1309293603
C  C75  1  0.54400000  0.66240000  0.09630000  1.0 -0.152632996
C  C76  1  0.94290000  0.14840000  0.83640000  1.0 0.0043112469
C  C77  1  0.95920000  0.11800000  0.86650000  1.0 -0.2041635757
C  C78  1  0.26270000  0.84690000  0.85140000  1.0 -0.113268803
C  C79  1  0.81720000  0.15770000  0.82810000  1.0 -0.152632996
C  C80  1  0.88580000  0.06520000  0.92300000  1.0 -0.0914413204
C  C81  1  0.84940000  0.09770000  0.89030000  1.0 0.0986027176
C  C82  1  0.12770000  0.91610000  0.04070000  1.0 0.1621894462
C  C83  1  0.03440000  0.95520000  0.92050000  1.0 0.1466660331
C  C84  1  0.69960000  0.13980000  0.84520000  1.0 0.0396695713
C  C85  1  0.10590000  0.90640000  0.97400000  1.0 0.1621894462
C  C86  1  0.17200000  0.87010000  0.03110000  1.0 -0.1725028
C  C87  1  0.19010000  0.80830000  0.85340000  1.0 -0.0036623095
C  C88  1  0.07230000  0.16110000  0.81350000  1.0 0.5673722828
C  C89  1  0.92870000  0.02460000  0.91510000  1.0 0.165560847
C  C90  1  0.72220000  0.10890000  0.87730000  1.0 -0.1797363508
C  C91  1  0.12410000  0.87750000  0.90620000  1.0 0.0633109854
C  C92  1  0.16970000  0.86580000  0.99100000  1.0 -0.1725028
C  C93  1  0.22220000  0.88280000  0.87930000  1.0 -0.152632996
C  C94  1  0.08220000  0.91470000  0.93360000  1.0 -0.0960314787
C  C95  1  0.98650000  0.96130000  0.87720000  1.0 -0.113268803
C  C96  1  0.22100000  0.76600000  0.82540000  1.0 0.5784944798
C  C97  1  0.54200000  0.14770000  0.83120000  1.0 0.5153440142
C  C98  1  0.93960000  0.00300000  0.87650000  1.0 -0.1797363508
C  C99  1  0.07800000  0.79720000  0.88050000  1.0 -0.1309293603
C  C100  1  0.04400000  0.83760000  0.90370000  1.0 -0.152632996
C  C101  1  0.44290000  0.35160000  0.33640000  1.0 0.0043112469
C  C102  1  0.45920000  0.38200000  0.36650000  1.0 -0.2041635757
C  C103  1  0.76270000  0.65310000  0.35140000  1.0 -0.113268803
C  C104  1  0.31720000  0.34230000  0.32810000  1.0 -0.152632996
C  C105  1  0.38580000  0.43480000  0.42300000  1.0 -0.0914413204
C  C106  1  0.34940000  0.40230000  0.39030000  1.0 0.0986027176
C  C107  1  0.62770000  0.58390000  0.54070000  1.0 0.1621894462
C  C108  1  0.53440000  0.54480000  0.42050000  1.0 0.1466660331
C  C109  1  0.19960000  0.36020000  0.34520000  1.0 0.0396695713
C  C110  1  0.60590000  0.59360000  0.47400000  1.0 0.1621894462
C  C111  1  0.67200000  0.62990000  0.53110000  1.0 -0.1725028
C  C112  1  0.69010000  0.69170000  0.35340000  1.0 -0.0036623095
C  C113  1  0.57230000  0.33890000  0.31350000  1.0 0.5673722828
C  C114  1  0.42870000  0.47540000  0.41510000  1.0 0.165560847
C  C115  1  0.22220000  0.39110000  0.37730000  1.0 -0.1797363508
C  C116  1  0.62410000  0.62250000  0.40620000  1.0 0.0633109854
C  C117  1  0.66970000  0.63420000  0.49100000  1.0 -0.1725028
C  C118  1  0.72220000  0.61720000  0.37930000  1.0 -0.152632996
C  C119  1  0.58220000  0.58530000  0.43360000  1.0 -0.0960314787
C  C120  1  0.48650000  0.53870000  0.37720000  1.0 -0.113268803
C  C121  1  0.72100000  0.73400000  0.32540000  1.0 0.5784944798
C  C122  1  0.04200000  0.35230000  0.33120000  1.0 0.5153440142
C  C123  1  0.43960000  0.49700000  0.37650000  1.0 -0.1797363508
C  C124  1  0.57800000  0.70280000  0.38050000  1.0 -0.1309293603
C  C125  1  0.54400000  0.66240000  0.40370000  1.0 -0.152632996
C  C126  1  0.94290000  0.14840000  0.66360000  1.0 0.0043112469
C  C127  1  0.95920000  0.11800000  0.63350000  1.0 -0.2041635757
C  C128  1  0.26270000  0.84690000  0.64860000  1.0 -0.113268803
C  C129  1  0.81720000  0.15770000  0.67190000  1.0 -0.152632996
C  C130  1  0.88580000  0.06520000  0.57700000  1.0 -0.0914413204
C  C131  1  0.84940000  0.09770000  0.60970000  1.0 0.0986027176
C  C132  1  0.12770000  0.91610000  0.45930000  1.0 0.1621894462
C  C133  1  0.03440000  0.95520000  0.57950000  1.0 0.1466660331
C  C134  1  0.69960000  0.13980000  0.65480000  1.0 0.0396695713
C  C135  1  0.10590000  0.90640000  0.52600000  1.0 0.1621894462
C  C136  1  0.17200000  0.87010000  0.46890000  1.0 -0.1725028
C  C137  1  0.19010000  0.80830000  0.64660000  1.0 -0.0036623095
C  C138  1  0.07230000  0.16110000  0.68650000  1.0 0.5673722828
C  C139  1  0.92870000  0.02460000  0.58490000  1.0 0.165560847
C  C140  1  0.72220000  0.10890000  0.62270000  1.0 -0.1797363508
C  C141  1  0.12410000  0.87750000  0.59380000  1.0 0.0633109854
C  C142  1  0.16970000  0.86580000  0.50900000  1.0 -0.1725028
C  C143  1  0.22220000  0.88280000  0.62070000  1.0 -0.152632996
C  C144  1  0.08220000  0.91470000  0.56640000  1.0 -0.0960314787
C  C145  1  0.98650000  0.96130000  0.62280000  1.0 -0.113268803
C  C146  1  0.22100000  0.76600000  0.67460000  1.0 0.5784944798
C  C147  1  0.54200000  0.14770000  0.66880000  1.0 0.5153440142
C  C148  1  0.93960000  0.00300000  0.62350000  1.0 -0.1797363508
C  C149  1  0.07800000  0.79720000  0.61950000  1.0 -0.1309293603
C  C150  1  0.04400000  0.83760000  0.59630000  1.0 -0.152632996
C  C151  1  0.55710000  0.64840000  0.83640000  1.0 0.0043112469
C  C152  1  0.54080000  0.61800000  0.86650000  1.0 -0.2041635757
C  C153  1  0.23730000  0.34690000  0.85140000  1.0 -0.113268803
C  C154  1  0.68280000  0.65770000  0.82810000  1.0 -0.152632996
C  C155  1  0.61420000  0.56520000  0.92300000  1.0 -0.0914413204
C  C156  1  0.65060000  0.59770000  0.89030000  1.0 0.0986027176
C  C157  1  0.37230000  0.41610000  0.04070000  1.0 0.1621894462
C  C158  1  0.46560000  0.45520000  0.92050000  1.0 0.1466660331
C  C159  1  0.80040000  0.63980000  0.84520000  1.0 0.0396695713
C  C160  1  0.39410000  0.40640000  0.97400000  1.0 0.1621894462
C  C161  1  0.32800000  0.37010000  0.03110000  1.0 -0.1725028
C  C162  1  0.30990000  0.30830000  0.85340000  1.0 -0.0036623095
C  C163  1  0.42770000  0.66110000  0.81350000  1.0 0.5673722828
C  C164  1  0.57130000  0.52460000  0.91510000  1.0 0.165560847
C  C165  1  0.77780000  0.60890000  0.87730000  1.0 -0.1797363508
C  C166  1  0.37590000  0.37750000  0.90620000  1.0 0.0633109854
C  C167  1  0.33030000  0.36580000  0.99100000  1.0 -0.1725028
C  C168  1  0.27780000  0.38280000  0.87930000  1.0 -0.152632996
C  C169  1  0.41780000  0.41470000  0.93360000  1.0 -0.0960314787
C  C170  1  0.51350000  0.46130000  0.87720000  1.0 -0.113268803
C  C171  1  0.27900000  0.26600000  0.82540000  1.0 0.5784944798
C  C172  1  0.95800000  0.64770000  0.83120000  1.0 0.5153440142
C  C173  1  0.56040000  0.50300000  0.87650000  1.0 -0.1797363508
C  C174  1  0.42200000  0.29720000  0.88050000  1.0 -0.1309293603
C  C175  1  0.45600000  0.33760000  0.90370000  1.0 -0.152632996
C  C176  1  0.05710000  0.85160000  0.16360000  1.0 0.0043112469
C  C177  1  0.04080000  0.88200000  0.13350000  1.0 -0.2041635757
C  C178  1  0.73730000  0.15310000  0.14860000  1.0 -0.113268803
C  C179  1  0.18280000  0.84230000  0.17190000  1.0 -0.152632996
C  C180  1  0.11420000  0.93480000  0.07700000  1.0 -0.0914413204
C  C181  1  0.15060000  0.90230000  0.10970000  1.0 0.0986027176
C  C182  1  0.87230000  0.08390000  0.95930000  1.0 0.1621894462
C  C183  1  0.96560000  0.04480000  0.07950000  1.0 0.1466660331
C  C184  1  0.30040000  0.86020000  0.15480000  1.0 0.0396695713
C  C185  1  0.89410000  0.09360000  0.02600000  1.0 0.1621894462
C  C186  1  0.82800000  0.12990000  0.96890000  1.0 -0.1725028
C  C187  1  0.80990000  0.19170000  0.14660000  1.0 -0.0036623095
C  C188  1  0.92770000  0.83890000  0.18650000  1.0 0.5673722828
C  C189  1  0.07130000  0.97540000  0.08490000  1.0 0.165560847
C  C190  1  0.27780000  0.89110000  0.12270000  1.0 -0.1797363508
C  C191  1  0.87590000  0.12250000  0.09380000  1.0 0.0633109854
C  C192  1  0.83030000  0.13420000  0.00900000  1.0 -0.1725028
C  C193  1  0.77780000  0.11720000  0.12070000  1.0 -0.152632996
C  C194  1  0.91780000  0.08530000  0.06640000  1.0 -0.0960314787
C  C195  1  0.01350000  0.03870000  0.12280000  1.0 -0.113268803
C  C196  1  0.77900000  0.23400000  0.17460000  1.0 0.5784944798
C  C197  1  0.45800000  0.85230000  0.16880000  1.0 0.5153440142
C  C198  1  0.06040000  0.99700000  0.12350000  1.0 -0.1797363508
C  C199  1  0.92200000  0.20280000  0.11950000  1.0 -0.1309293603
C  C200  1  0.95600000  0.16240000  0.09630000  1.0 -0.152632996
N  N1  1  0.51800000  0.49280000  0.55960000  1.0 -0.2627463137
N  N2  1  0.41360000  0.43810000  0.49410000  1.0 -0.30773885
N  N3  1  0.01800000  0.00720000  0.44040000  1.0 -0.2627463137
N  N4  1  0.91360000  0.06190000  0.50590000  1.0 -0.30773885
N  N5  1  0.48200000  0.50720000  0.05960000  1.0 -0.2627463137
N  N6  1  0.58640000  0.56190000  0.99410000  1.0 -0.30773885
N  N7  1  0.98200000  0.99280000  0.94040000  1.0 -0.2627463137
N  N8  1  0.08640000  0.93810000  0.00590000  1.0 -0.30773885
N  N9  1  0.48200000  0.50720000  0.44040000  1.0 -0.2627463137
N  N10  1  0.58640000  0.56190000  0.50590000  1.0 -0.30773885
N  N11  1  0.98200000  0.99280000  0.55960000  1.0 -0.2627463137
N  N12  1  0.08640000  0.93810000  0.49410000  1.0 -0.30773885
N  N13  1  0.51800000  0.49280000  0.94040000  1.0 -0.2627463137
N  N14  1  0.41360000  0.43810000  0.00590000  1.0 -0.30773885
N  N15  1  0.01800000  0.00720000  0.05960000  1.0 -0.2627463137
N  N16  1  0.91360000  0.06190000  0.99410000  1.0 -0.30773885
O  O1  1  0.20410000  0.28080000  0.70460000  1.0 -0.6137994324
O  O2  1  0.46770000  0.69790000  0.70590000  1.0 -0.5793245231
O  O3  1  0.31850000  0.22820000  0.66560000  1.0 -0.4919895848
O  O4  1  0.04480000  0.63330000  0.65050000  1.0 -0.4444572126
O  O5  1  0.32750000  0.64630000  0.68220000  1.0 -0.3559083028
O  O6  1  0.96120000  0.67920000  0.69670000  1.0 -0.5503995066
O  O7  1  0.70410000  0.21920000  0.29540000  1.0 -0.6137994324
O  O8  1  0.96770000  0.80210000  0.29410000  1.0 -0.5793245231
O  O9  1  0.81850000  0.27180000  0.33440000  1.0 -0.4919895848
O  O10  1  0.54480000  0.86670000  0.34950000  1.0 -0.4444572126
O  O11  1  0.82750000  0.85370000  0.31780000  1.0 -0.3559083028
O  O12  1  0.46120000  0.82080000  0.30330000  1.0 -0.5503995066
O  O13  1  0.79590000  0.71920000  0.20460000  1.0 -0.6137994324
O  O14  1  0.53230000  0.30210000  0.20590000  1.0 -0.5793245231
O  O15  1  0.68150000  0.77180000  0.16560000  1.0 -0.4919895848
O  O16  1  0.95520000  0.36670000  0.15050000  1.0 -0.4444572126
O  O17  1  0.67250000  0.35370000  0.18220000  1.0 -0.3559083028
O  O18  1  0.03880000  0.32080000  0.19670000  1.0 -0.5503995066
O  O19  1  0.29590000  0.78080000  0.79540000  1.0 -0.6137994324
O  O20  1  0.03230000  0.19790000  0.79410000  1.0 -0.5793245231
O  O21  1  0.18150000  0.72820000  0.83440000  1.0 -0.4919895848
O  O22  1  0.45520000  0.13330000  0.84950000  1.0 -0.4444572126
O  O23  1  0.17250000  0.14630000  0.81780000  1.0 -0.3559083028
O  O24  1  0.53880000  0.17920000  0.80330000  1.0 -0.5503995066
O  O25  1  0.79590000  0.71920000  0.29540000  1.0 -0.6137994324
O  O26  1  0.53230000  0.30210000  0.29410000  1.0 -0.5793245231
O  O27  1  0.68150000  0.77180000  0.33440000  1.0 -0.4919895848
O  O28  1  0.95520000  0.36670000  0.34950000  1.0 -0.4444572126
O  O29  1  0.67250000  0.35370000  0.31780000  1.0 -0.3559083028
O  O30  1  0.03880000  0.32080000  0.30330000  1.0 -0.5503995066
O  O31  1  0.29590000  0.78080000  0.70460000  1.0 -0.6137994324
O  O32  1  0.03230000  0.19790000  0.70590000  1.0 -0.5793245231
O  O33  1  0.18150000  0.72820000  0.66560000  1.0 -0.4919895848
O  O34  1  0.45520000  0.13330000  0.65050000  1.0 -0.4444572126
O  O35  1  0.17250000  0.14630000  0.68220000  1.0 -0.3559083028
O  O36  1  0.53880000  0.17920000  0.69670000  1.0 -0.5503995066
O  O37  1  0.20410000  0.28080000  0.79540000  1.0 -0.6137994324
O  O38  1  0.46770000  0.69790000  0.79410000  1.0 -0.5793245231
O  O39  1  0.31850000  0.22820000  0.83440000  1.0 -0.4919895848
O  O40  1  0.04480000  0.63330000  0.84950000  1.0 -0.4444572126
O  O41  1  0.32750000  0.64630000  0.81780000  1.0 -0.3559083028
O  O42  1  0.96120000  0.67920000  0.80330000  1.0 -0.5503995066
O  O43  1  0.70410000  0.21920000  0.20460000  1.0 -0.6137994324
O  O44  1  0.96770000  0.80210000  0.20590000  1.0 -0.5793245231
O  O45  1  0.81850000  0.27180000  0.16560000  1.0 -0.4919895848
O  O46  1  0.54480000  0.86670000  0.15050000  1.0 -0.4444572126
O  O47  1  0.82750000  0.85370000  0.18220000  1.0 -0.3559083028
O  O48  1  0.46120000  0.82080000  0.19670000  1.0 -0.5503995066
O  O49  1  0.19760000  0.70560000  0.75000000  1.0 -0.8979288732
O  O50  1  0.15100000  0.61510000  0.75000000  1.0 -0.79176257
O  O51  1  0.69760000  0.79440000  0.25000000  1.0 -0.8979288732
O  O52  1  0.65100000  0.88490000  0.25000000  1.0 -0.79176257
O  O53  1  0.80240000  0.29440000  0.25000000  1.0 -0.8979288732
O  O54  1  0.84900000  0.38490000  0.25000000  1.0 -0.79176257
O  O55  1  0.30240000  0.20560000  0.75000000  1.0 -0.8979288732
O  O56  1  0.34900000  0.11510000  0.75000000  1.0 -0.79176257
