# DDEC6 charges by PACMAN v1.1 (https://github.com/mtap-research/PACMAN-charge/)
data_TEPNOU_ASR_pacman
_symmetry_space_group_name_H-M   'P 1'
_cell_length_a   16.21490000
_cell_length_b   16.85060000
_cell_length_c   31.86060000
_cell_angle_alpha   90.00000000
_cell_angle_beta   96.94800000
_cell_angle_gamma   90.00000000
_symmetry_Int_Tables_number   1
_chemical_formula_structural   Na2GdZnH27C50(N2O7)2
_chemical_formula_sum   'Na8 Gd4 Zn4 H108 C200 N16 O56'
_cell_volume   8641.36836109
_cell_formula_units_Z   4
loop_
 _symmetry_equiv_pos_site_id
 _symmetry_equiv_pos_as_xyz
  1  'x, y, z'
loop_
 _atom_site_type_symbol
 _atom_site_label
 _atom_site_symmetry_multiplicity
 _atom_site_fract_x
 _atom_site_fract_y
 _atom_site_fract_z
 _atom_site_occupancy
 _atom_site_charge
Na  Na1  1  0.15240000  0.57130000  0.25927000  1.0 0.8713105972
Na  Na2  1  0.93290000  0.88300000  0.26626000  1.0 0.8754294399
Na  Na3  1  0.84760000  0.07130000  0.24073000  1.0 0.8713105972
Na  Na4  1  0.06710000  0.38300000  0.23374000  1.0 0.8713105972
Na  Na5  1  0.84760000  0.42870000  0.74073000  1.0 0.8713105972
Na  Na6  1  0.06710000  0.11700000  0.73374000  1.0 0.8713105972
Na  Na7  1  0.15240000  0.92870000  0.75927000  1.0 0.8713105972
Na  Na8  1  0.93290000  0.61700000  0.76626000  1.0 0.8713105972
Gd  Gd1  1  0.88128000  0.23094000  0.70431000  1.0 1.9174883846
Gd  Gd2  1  0.11872000  0.73094000  0.79569000  1.0 1.9174883846
Gd  Gd3  1  0.11872000  0.76906000  0.29569000  1.0 1.9174883846
Gd  Gd4  1  0.88128000  0.26906000  0.20431000  1.0 1.9174883846
Zn  Zn1  1  0.38293000  0.26782000  0.45412000  1.0 0.6760666552
Zn  Zn2  1  0.61707000  0.76782000  0.04588000  1.0 0.6760666552
Zn  Zn3  1  0.61707000  0.73218000  0.54588000  1.0 0.6760666552
Zn  Zn4  1  0.38293000  0.23218000  0.95412000  1.0 0.6760666552
H  H1  1  0.06550000  0.52550000  0.17750000  1.0 0.4022241938
H  H2  1  0.15850000  0.48850000  0.17950000  1.0 0.4022241938
H  H3  1  0.26140000  0.40230000  0.36260000  1.0 0.3213939923
H  H4  1  0.94970000  0.97640000  0.19200000  1.0 0.4202979091
H  H5  1  0.85750000  0.93770000  0.18490000  1.0 0.3886361304
H  H6  1  0.87240000  0.75870000  0.67850000  1.0 0.1198068595
H  H7  1  0.78220000  0.97380000  0.64080000  1.0 0.1270242543
H  H8  1  0.95970000  0.95500000  0.74100000  1.0 0.1117088754
H  H9  1  0.36460000  0.72650000  0.40140000  1.0 0.1270242543
H  H10  1  0.86500000  0.85160000  0.35780000  1.0 0.0922259856
H  H11  1  0.43570000  0.52040000  0.45740000  1.0 0.1370332423
H  H12  1  0.90850000  0.85220000  0.59010000  1.0 0.1198068595
H  H13  1  0.76570000  0.84470000  0.40520000  1.0 0.1117088754
H  H14  1  0.90040000  0.67600000  0.47270000  1.0 0.1198068595
H  H15  1  0.00020000  0.68210000  0.42590000  1.0 0.1198068595
H  H16  1  0.30700000  0.70690000  0.56820000  1.0 0.1270242543
H  H17  1  0.91070000  0.81810000  0.51490000  1.0 0.1198068595
H  H18  1  0.53110000  0.81550000  0.68960000  1.0 0.1270242543
H  H19  1  0.25720000  0.52060000  0.35720000  1.0 0.0994761033
H  H20  1  0.54100000  0.65810000  0.38890000  1.0 0.1270242543
H  H21  1  0.68120000  0.84780000  0.69610000  1.0 0.1270242543
H  H22  1  0.31160000  0.65990000  0.49500000  1.0 0.1270242543
H  H23  1  0.24260000  0.84970000  0.67340000  1.0 0.0994761033
H  H24  1  0.68670000  0.70170000  0.39230000  1.0 0.1198068595
H  H25  1  0.33990000  0.85850000  0.62460000  1.0 0.1117088754
H  H26  1  0.34650000  0.64540000  0.71770000  1.0 0.1270242543
H  H27  1  0.44040000  0.65200000  0.66666667  1.0 0.1198068595
H  H28  1  0.93450000  0.02550000  0.32250000  1.0 0.4022241938
H  H29  1  0.84150000  0.98850000  0.32050000  1.0 0.4022241938
H  H30  1  0.73860000  0.90230000  0.13740000  1.0 0.3213939923
H  H31  1  0.05030000  0.47640000  0.30800000  1.0 0.4202979091
H  H32  1  0.14250000  0.43770000  0.31510000  1.0 0.3886361304
H  H33  1  0.12760000  0.25870000  0.82150000  1.0 0.1198068595
H  H34  1  0.21780000  0.47380000  0.85920000  1.0 0.1270242543
H  H35  1  0.04030000  0.45500000  0.75900000  1.0 0.1117088754
H  H36  1  0.63540000  0.22650000  0.09860000  1.0 0.1270242543
H  H37  1  0.13500000  0.35160000  0.14220000  1.0 0.0922259856
H  H38  1  0.56430000  0.02040000  0.04260000  1.0 0.1370332423
H  H39  1  0.09150000  0.35220000  0.90990000  1.0 0.1198068595
H  H40  1  0.23430000  0.34470000  0.09480000  1.0 0.1117088754
H  H41  1  0.09960000  0.17600000  0.02730000  1.0 0.1198068595
H  H42  1  0.99980000  0.18210000  0.07410000  1.0 0.1198068595
H  H43  1  0.69300000  0.20690000  0.93180000  1.0 0.1270242543
H  H44  1  0.08930000  0.31810000  0.98510000  1.0 0.1198068595
H  H45  1  0.46890000  0.31550000  0.81040000  1.0 0.1270242543
H  H46  1  0.74280000  0.02060000  0.14280000  1.0 0.0994761033
H  H47  1  0.45900000  0.15810000  0.11110000  1.0 0.1270242543
H  H48  1  0.31880000  0.34780000  0.80390000  1.0 0.1270242543
H  H49  1  0.68840000  0.15990000  0.00500000  1.0 0.1270242543
H  H50  1  0.75740000  0.34970000  0.82660000  1.0 0.0994761033
H  H51  1  0.31330000  0.20170000  0.10770000  1.0 0.1198068595
H  H52  1  0.66010000  0.35850000  0.87540000  1.0 0.1117088754
H  H53  1  0.65350000  0.14540000  0.78230000  1.0 0.1270242543
H  H54  1  0.55960000  0.15200000  0.83340000  1.0 0.1198068595
H  H55  1  0.93450000  0.47450000  0.82250000  1.0 0.4022241938
H  H56  1  0.84150000  0.51150000  0.82050000  1.0 0.4022241938
H  H57  1  0.73860000  0.59770000  0.63740000  1.0 0.3213939923
H  H58  1  0.05030000  0.02360000  0.80800000  1.0 0.4202979091
H  H59  1  0.14250000  0.06230000  0.81510000  1.0 0.3886361304
H  H60  1  0.12760000  0.24130000  0.32150000  1.0 0.1198068595
H  H61  1  0.21780000  0.02620000  0.35920000  1.0 0.1270242543
H  H62  1  0.04030000  0.04500000  0.25900000  1.0 0.1117088754
H  H63  1  0.63540000  0.27350000  0.59860000  1.0 0.1270242543
H  H64  1  0.13500000  0.14840000  0.64220000  1.0 0.0922259856
H  H65  1  0.56430000  0.47960000  0.54260000  1.0 0.1370332423
H  H66  1  0.09150000  0.14780000  0.40990000  1.0 0.1198068595
H  H67  1  0.23430000  0.15530000  0.59480000  1.0 0.1117088754
H  H68  1  0.09960000  0.32400000  0.52730000  1.0 0.1198068595
H  H69  1  0.99980000  0.31790000  0.57410000  1.0 0.1198068595
H  H70  1  0.69300000  0.29310000  0.43180000  1.0 0.1270242543
H  H71  1  0.08930000  0.18190000  0.48510000  1.0 0.1198068595
H  H72  1  0.46890000  0.18450000  0.31040000  1.0 0.1270242543
H  H73  1  0.74280000  0.47940000  0.64280000  1.0 0.0994761033
H  H74  1  0.45900000  0.34190000  0.61110000  1.0 0.1270242543
H  H75  1  0.31880000  0.15220000  0.30390000  1.0 0.1270242543
H  H76  1  0.68840000  0.34010000  0.50500000  1.0 0.1270242543
H  H77  1  0.75740000  0.15030000  0.32660000  1.0 0.0994761033
H  H78  1  0.31330000  0.29830000  0.60770000  1.0 0.1198068595
H  H79  1  0.66010000  0.14150000  0.37540000  1.0 0.1117088754
H  H80  1  0.65350000  0.35460000  0.28230000  1.0 0.1270242543
H  H81  1  0.55960000  0.34800000  0.33340000  1.0 0.1198068595
H  H82  1  0.06550000  0.97450000  0.67750000  1.0 0.4022241938
H  H83  1  0.15850000  0.01150000  0.67950000  1.0 0.4022241938
H  H84  1  0.26140000  0.09770000  0.86260000  1.0 0.3213939923
H  H85  1  0.94970000  0.52360000  0.69200000  1.0 0.4202979091
H  H86  1  0.85750000  0.56230000  0.68490000  1.0 0.3886361304
H  H87  1  0.87240000  0.74130000  0.17850000  1.0 0.1198068595
H  H88  1  0.78220000  0.52620000  0.14080000  1.0 0.1270242543
H  H89  1  0.95970000  0.54500000  0.24100000  1.0 0.1117088754
H  H90  1  0.36460000  0.77350000  0.90140000  1.0 0.1270242543
H  H91  1  0.86500000  0.64840000  0.85780000  1.0 0.0922259856
H  H92  1  0.43570000  0.97960000  0.95740000  1.0 0.1370332423
H  H93  1  0.90850000  0.64780000  0.09010000  1.0 0.1198068595
H  H94  1  0.76570000  0.65530000  0.90520000  1.0 0.1117088754
H  H95  1  0.90040000  0.82400000  0.97270000  1.0 0.1198068595
H  H96  1  0.00020000  0.81790000  0.92590000  1.0 0.1198068595
H  H97  1  0.30700000  0.79310000  0.06820000  1.0 0.1270242543
H  H98  1  0.91070000  0.68190000  0.01490000  1.0 0.1198068595
H  H99  1  0.53110000  0.68450000  0.18960000  1.0 0.1270242543
H  H100  1  0.25720000  0.97940000  0.85720000  1.0 0.0994761033
H  H101  1  0.54100000  0.84190000  0.88890000  1.0 0.1270242543
H  H102  1  0.68120000  0.65220000  0.19610000  1.0 0.1270242543
H  H103  1  0.31160000  0.84010000  0.99500000  1.0 0.1270242543
H  H104  1  0.24260000  0.65030000  0.17340000  1.0 0.0994761033
H  H105  1  0.68670000  0.79830000  0.89230000  1.0 0.1198068595
H  H106  1  0.33990000  0.64150000  0.12460000  1.0 0.1117088754
H  H107  1  0.34650000  0.85460000  0.21770000  1.0 0.1270242543
H  H108  1  0.44040000  0.84800000  0.16660000  1.0 0.1198068595
C  C1  1  0.28650000  0.74670000  0.69924000  1.0 -0.0155140133
C  C2  1  0.87210000  0.97760000  0.69119000  1.0 -0.0301394373
C  C3  1  0.87160000  0.81470000  0.68205000  1.0 -0.1479981297
C  C4  1  0.94250000  0.76690000  0.38687000  1.0 -0.0301394373
C  C5  1  0.81820000  0.94190000  0.65949000  1.0 -0.129216962
C  C6  1  0.75520000  0.82380000  0.62133000  1.0 -0.0599422465
C  C7  1  0.81660000  0.86040000  0.65502000  1.0 0.0612812541
C  C8  1  0.30120000  0.62980000  0.37474000  1.0 -0.008004155
C  C9  1  0.92480000  0.84960000  0.71391000  1.0 -0.0301394373
C  C10  1  0.87540000  0.06570000  0.69575000  1.0 0.5833523009
C  C11  1  0.00600000  0.77040000  0.35694000  1.0 0.5903846903
C  C12  1  0.78280000  0.81060000  0.58160000  1.0 0.1790934894
C  C13  1  0.39890000  0.75500000  0.64090000  1.0 0.0794447066
C  C14  1  0.75880000  0.75610000  0.47340000  1.0 -0.0599422465
C  C15  1  0.67900000  0.73030000  0.45735000  1.0 0.1711691018
C  C16  1  0.92420000  0.93080000  0.71870000  1.0 -0.1558490772
C  C17  1  0.35960000  0.67050000  0.40322000  1.0 -0.129216962
C  C18  1  0.22610000  0.74130000  0.73191000  1.0 0.5833523009
C  C19  1  0.98630000  0.80350000  0.74293000  1.0 0.5903846903
C  C20  1  0.40920000  0.62940000  0.43347000  1.0 0.074439663
C  C21  1  0.82320000  0.75890000  0.44370000  1.0 0.0794447066
C  C22  1  0.43730000  0.73380000  0.56850000  1.0 0.1790934894
C  C23  1  0.87230000  0.81570000  0.38100000  1.0 -0.116320942
C  C24  1  0.40150000  0.54840000  0.43598000  1.0 -0.1479981297
C  C25  1  0.54270000  0.78340000  0.62627000  1.0 0.1790934894
C  C26  1  0.46960000  0.67350000  0.46480000  1.0 -0.0599422465
C  C27  1  0.67450000  0.81230000  0.63108000  1.0 0.1711691018
C  C28  1  0.46150000  0.75910000  0.61030000  1.0 -0.0484924069
C  C29  1  0.78470000  0.78030000  0.51480000  1.0 0.1790934894
C  C30  1  0.54820000  0.68980000  0.45380000  1.0 0.1869801465
C  C31  1  0.24470000  0.67610000  0.34403000  1.0 0.5903846903
C  C32  1  0.86400000  0.83030000  0.57150000  1.0 -0.197007487
C  C33  1  0.44120000  0.69350000  0.50353000  1.0 0.1790934894
C  C34  1  0.81330000  0.81150000  0.40920000  1.0 -0.1479981297
C  C35  1  0.89290000  0.71150000  0.44940000  1.0 -0.1479981297
C  C36  1  0.33540000  0.41640000  0.41220000  1.0 0.5550696138
C  C37  1  0.34450000  0.50580000  0.40790000  1.0 -0.0301394373
C  C38  1  0.95240000  0.71510000  0.42150000  1.0 -0.0910982996
C  C39  1  0.35400000  0.70670000  0.55310000  1.0 -0.1902462267
C  C40  1  0.86500000  0.81170000  0.53060000  1.0 -0.1902462267
C  C41  1  0.56640000  0.81070000  0.66810000  1.0 -0.197007487
C  C42  1  0.29540000  0.54810000  0.37700000  1.0 -0.1737861898
C  C43  1  0.57410000  0.67880000  0.41310000  1.0 -0.197007487
C  C44  1  0.64790000  0.82850000  0.67160000  1.0 -0.197007487
C  C45  1  0.35660000  0.68150000  0.51330000  1.0 -0.1902462267
C  C46  1  0.28330000  0.80940000  0.67240000  1.0 -0.106556809
C  C47  1  0.65340000  0.70270000  0.41480000  1.0 -0.1902462267
C  C48  1  0.34090000  0.81420000  0.64310000  1.0 -0.1479981297
C  C49  1  0.34420000  0.68840000  0.69830000  1.0 -0.0836764876
C  C50  1  0.40060000  0.69300000  0.66800000  1.0 -0.1479981297
C  C51  1  0.71350000  0.24670000  0.80076000  1.0 -0.0155140133
C  C52  1  0.12790000  0.47760000  0.80881000  1.0 -0.0301394373
C  C53  1  0.12840000  0.31470000  0.81795000  1.0 -0.1479981297
C  C54  1  0.05750000  0.26690000  0.11313000  1.0 -0.0301394373
C  C55  1  0.18180000  0.44190000  0.84051000  1.0 -0.129216962
C  C56  1  0.24480000  0.32380000  0.87867000  1.0 -0.0599422465
C  C57  1  0.18340000  0.36040000  0.84498000  1.0 0.0612812541
C  C58  1  0.69880000  0.12980000  0.12526000  1.0 -0.008004155
C  C59  1  0.07520000  0.34960000  0.78609000  1.0 -0.0301394373
C  C60  1  0.12460000  0.56570000  0.80425000  1.0 0.5833523009
C  C61  1  0.99400000  0.27040000  0.14306000  1.0 0.5903846903
C  C62  1  0.21720000  0.31060000  0.91840000  1.0 0.1790934894
C  C63  1  0.60110000  0.25500000  0.85910000  1.0 0.0794447066
C  C64  1  0.24120000  0.25610000  0.02660000  1.0 -0.0599422465
C  C65  1  0.32100000  0.23030000  0.04265000  1.0 0.1711691018
C  C66  1  0.07580000  0.43080000  0.78130000  1.0 -0.1558490772
C  C67  1  0.64040000  0.17050000  0.09678000  1.0 -0.129216962
C  C68  1  0.77390000  0.24130000  0.76809000  1.0 0.5833523009
C  C69  1  0.01370000  0.30350000  0.75707000  1.0 0.5903846903
C  C70  1  0.59080000  0.12940000  0.06653000  1.0 0.074439663
C  C71  1  0.17680000  0.25890000  0.05630000  1.0 0.0794447066
C  C72  1  0.56270000  0.23380000  0.93150000  1.0 0.1790934894
C  C73  1  0.12770000  0.31570000  0.11900000  1.0 -0.116320942
C  C74  1  0.59850000  0.04840000  0.06402000  1.0 -0.1479981297
C  C75  1  0.45730000  0.28340000  0.87373000  1.0 0.1790934894
C  C76  1  0.53040000  0.17350000  0.03520000  1.0 -0.0599422465
C  C77  1  0.32550000  0.31230000  0.86892000  1.0 0.1711691018
C  C78  1  0.53850000  0.25910000  0.88970000  1.0 -0.0484924069
C  C79  1  0.21530000  0.28030000  0.98520000  1.0 0.1790934894
C  C80  1  0.45180000  0.18980000  0.04620000  1.0 0.1869801465
C  C81  1  0.75530000  0.17610000  0.15597000  1.0 0.5903846903
C  C82  1  0.13600000  0.33030000  0.92850000  1.0 -0.197007487
C  C83  1  0.55880000  0.19350000  0.99647000  1.0 0.1790934894
C  C84  1  0.18670000  0.31150000  0.09080000  1.0 -0.1479981297
C  C85  1  0.10710000  0.21150000  0.05060000  1.0 -0.1479981297
C  C86  1  0.66460000  0.91640000  0.08780000  1.0 0.5550696138
C  C87  1  0.65550000  0.00580000  0.09210000  1.0 -0.0301394373
C  C88  1  0.04760000  0.21510000  0.07850000  1.0 -0.0910982996
C  C89  1  0.64600000  0.20670000  0.94690000  1.0 -0.1902462267
C  C90  1  0.13500000  0.31170000  0.96940000  1.0 -0.1902462267
C  C91  1  0.43360000  0.31070000  0.83190000  1.0 -0.197007487
C  C92  1  0.70460000  0.04810000  0.12300000  1.0 -0.1737861898
C  C93  1  0.42590000  0.17880000  0.08690000  1.0 -0.197007487
C  C94  1  0.35210000  0.32850000  0.82840000  1.0 -0.197007487
C  C95  1  0.64340000  0.18150000  0.98670000  1.0 -0.1902462267
C  C96  1  0.71670000  0.30940000  0.82760000  1.0 -0.106556809
C  C97  1  0.34660000  0.20270000  0.08520000  1.0 -0.1902462267
C  C98  1  0.65910000  0.31420000  0.85690000  1.0 -0.1479981297
C  C99  1  0.65580000  0.18840000  0.80170000  1.0 -0.0836764876
C  C100  1  0.59940000  0.19300000  0.83200000  1.0 -0.1479981297
C  C101  1  0.71350000  0.25330000  0.30076000  1.0 -0.0155140133
C  C102  1  0.12790000  0.02240000  0.30881000  1.0 -0.0301394373
C  C103  1  0.12840000  0.18530000  0.31795000  1.0 -0.1479981297
C  C104  1  0.05750000  0.23310000  0.61313000  1.0 -0.0301394373
C  C105  1  0.18180000  0.05810000  0.34051000  1.0 -0.129216962
C  C106  1  0.24480000  0.17620000  0.37867000  1.0 -0.0599422465
C  C107  1  0.18340000  0.13960000  0.34498000  1.0 0.0612812541
C  C108  1  0.69880000  0.37020000  0.62526000  1.0 -0.008004155
C  C109  1  0.07520000  0.15040000  0.28609000  1.0 -0.0301394373
C  C110  1  0.12460000  0.93430000  0.30425000  1.0 0.5833523009
C  C111  1  0.99400000  0.22960000  0.64306000  1.0 0.5903846903
C  C112  1  0.21720000  0.18940000  0.41840000  1.0 0.1790934894
C  C113  1  0.60110000  0.24500000  0.35910000  1.0 0.0794447066
C  C114  1  0.24120000  0.24390000  0.52660000  1.0 -0.0599422465
C  C115  1  0.32100000  0.26970000  0.54265000  1.0 0.1711691018
C  C116  1  0.07580000  0.06920000  0.28130000  1.0 -0.1558490772
C  C117  1  0.64040000  0.32950000  0.59678000  1.0 -0.129216962
C  C118  1  0.77390000  0.25870000  0.26809000  1.0 0.5833523009
C  C119  1  0.01370000  0.19650000  0.25707000  1.0 0.5903846903
C  C120  1  0.59080000  0.37060000  0.56653000  1.0 0.074439663
C  C121  1  0.17680000  0.24110000  0.55630000  1.0 0.0794447066
C  C122  1  0.56270000  0.26620000  0.43150000  1.0 0.1790934894
C  C123  1  0.12770000  0.18430000  0.61900000  1.0 -0.116320942
C  C124  1  0.59850000  0.45160000  0.56402000  1.0 -0.1479981297
C  C125  1  0.45730000  0.21660000  0.37373000  1.0 0.1790934894
C  C126  1  0.53040000  0.32650000  0.53520000  1.0 -0.0599422465
C  C127  1  0.32550000  0.18770000  0.36892000  1.0 0.1711691018
C  C128  1  0.53850000  0.24090000  0.38970000  1.0 -0.0484924069
C  C129  1  0.21530000  0.21970000  0.48520000  1.0 0.1790934894
C  C130  1  0.45180000  0.31020000  0.54620000  1.0 0.1869801465
C  C131  1  0.75530000  0.32390000  0.65597000  1.0 0.5903846903
C  C132  1  0.13600000  0.16970000  0.42850000  1.0 -0.197007487
C  C133  1  0.55880000  0.30650000  0.49647000  1.0 0.1790934894
C  C134  1  0.18670000  0.18850000  0.59080000  1.0 -0.1479981297
C  C135  1  0.10710000  0.28850000  0.55060000  1.0 -0.1479981297
C  C136  1  0.66460000  0.58360000  0.58780000  1.0 0.5550696138
C  C137  1  0.65550000  0.49420000  0.59210000  1.0 -0.0301394373
C  C138  1  0.04760000  0.28490000  0.57850000  1.0 -0.0910982996
C  C139  1  0.64600000  0.29330000  0.44690000  1.0 -0.1902462267
C  C140  1  0.13500000  0.18830000  0.46940000  1.0 -0.1902462267
C  C141  1  0.43360000  0.18930000  0.33190000  1.0 -0.197007487
C  C142  1  0.70460000  0.45190000  0.62300000  1.0 -0.1737861898
C  C143  1  0.42590000  0.32120000  0.58690000  1.0 -0.197007487
C  C144  1  0.35210000  0.17150000  0.32840000  1.0 -0.197007487
C  C145  1  0.64340000  0.31850000  0.48670000  1.0 -0.1902462267
C  C146  1  0.71670000  0.19060000  0.32760000  1.0 -0.106556809
C  C147  1  0.34660000  0.29730000  0.58520000  1.0 -0.1902462267
C  C148  1  0.65910000  0.18580000  0.35690000  1.0 -0.1479981297
C  C149  1  0.65580000  0.31160000  0.30170000  1.0 -0.0836764876
C  C150  1  0.59940000  0.30700000  0.33200000  1.0 -0.1479981297
C  C151  1  0.28650000  0.75330000  0.19924000  1.0 -0.0155140133
C  C152  1  0.87210000  0.52240000  0.19119000  1.0 -0.0301394373
C  C153  1  0.87160000  0.68530000  0.18205000  1.0 -0.1479981297
C  C154  1  0.94250000  0.73310000  0.88687000  1.0 -0.0301394373
C  C155  1  0.81820000  0.55810000  0.15949000  1.0 -0.129216962
C  C156  1  0.75520000  0.67620000  0.12133000  1.0 -0.0599422465
C  C157  1  0.81660000  0.63960000  0.15502000  1.0 0.0612812541
C  C158  1  0.30120000  0.87020000  0.87474000  1.0 -0.008004155
C  C159  1  0.92480000  0.65040000  0.21391000  1.0 -0.0301394373
C  C160  1  0.87540000  0.43430000  0.19575000  1.0 0.5833523009
C  C161  1  0.00600000  0.72960000  0.85694000  1.0 0.5903846903
C  C162  1  0.78280000  0.68940000  0.08160000  1.0 0.1790934894
C  C163  1  0.39890000  0.74500000  0.14090000  1.0 0.0794447066
C  C164  1  0.75880000  0.74390000  0.97340000  1.0 -0.0599422465
C  C165  1  0.67900000  0.76970000  0.95735000  1.0 0.1711691018
C  C166  1  0.92420000  0.56920000  0.21870000  1.0 -0.1558490772
C  C167  1  0.35960000  0.82950000  0.90322000  1.0 -0.129216962
C  C168  1  0.22610000  0.75870000  0.23191000  1.0 0.5833523009
C  C169  1  0.98630000  0.69650000  0.24293000  1.0 0.5903846903
C  C170  1  0.40920000  0.87060000  0.93347000  1.0 0.074439663
C  C171  1  0.82320000  0.74110000  0.94370000  1.0 0.0922259856
C  C172  1  0.43730000  0.76620000  0.06850000  1.0 0.1790934894
C  C173  1  0.87230000  0.68430000  0.88100000  1.0 -0.116320942
C  C174  1  0.40150000  0.95160000  0.93598000  1.0 -0.1479981297
C  C175  1  0.54270000  0.71660000  0.12627000  1.0 0.1790934894
C  C176  1  0.46960000  0.82650000  0.96480000  1.0 -0.0599422465
C  C177  1  0.67450000  0.68770000  0.13108000  1.0 0.1711691018
C  C178  1  0.46150000  0.74090000  0.11030000  1.0 -0.0484924069
C  C179  1  0.78470000  0.71970000  0.01480000  1.0 0.1790934894
C  C180  1  0.54820000  0.81020000  0.95380000  1.0 0.1869801465
C  C181  1  0.24470000  0.82390000  0.84403000  1.0 0.5903846903
C  C182  1  0.86400000  0.66970000  0.07150000  1.0 -0.197007487
C  C183  1  0.44120000  0.80650000  0.00353000  1.0 0.1790934894
C  C184  1  0.81330000  0.68850000  0.90920000  1.0 -0.1479981297
C  C185  1  0.89290000  0.78850000  0.94940000  1.0 -0.1479981297
C  C186  1  0.33540000  0.08360000  0.91220000  1.0 0.5550696138
C  C187  1  0.34450000  0.99420000  0.90790000  1.0 -0.0301394373
C  C188  1  0.95240000  0.78490000  0.92150000  1.0 -0.0910982996
C  C189  1  0.35400000  0.79330000  0.05310000  1.0 -0.1902462267
C  C190  1  0.86500000  0.68830000  0.03060000  1.0 -0.1902462267
C  C191  1  0.56640000  0.68930000  0.16810000  1.0 -0.197007487
C  C192  1  0.29540000  0.95190000  0.87700000  1.0 -0.1737861898
C  C193  1  0.57410000  0.82120000  0.91310000  1.0 -0.197007487
C  C194  1  0.64790000  0.67150000  0.17160000  1.0 -0.197007487
C  C195  1  0.35660000  0.81850000  0.01330000  1.0 -0.1902462267
C  C196  1  0.28330000  0.69060000  0.17240000  1.0 -0.106556809
C  C197  1  0.65340000  0.79730000  0.91480000  1.0 -0.1902462267
C  C198  1  0.34090000  0.68580000  0.14310000  1.0 -0.1479981297
C  C199  1  0.34420000  0.81160000  0.19830000  1.0 -0.0836764876
C  C200  1  0.40060000  0.80700000  0.16800000  1.0 -0.1479981297
N  N1  1  0.61090000  0.72380000  0.48051000  1.0 -0.373857167
N  N2  1  0.73530000  0.78030000  0.54719000  1.0 -0.3805552837
N  N3  1  0.48770000  0.72680000  0.53801000  1.0 -0.3536212038
N  N4  1  0.60890000  0.78540000  0.60405000  1.0 -0.373857167
N  N5  1  0.38910000  0.22380000  0.01949000  1.0 -0.373857167
N  N6  1  0.26470000  0.28030000  0.95281000  1.0 -0.3805552837
N  N7  1  0.51230000  0.22680000  0.96199000  1.0 -0.3536212038
N  N8  1  0.39110000  0.28540000  0.89595000  1.0 -0.373857167
N  N9  1  0.38910000  0.27620000  0.51949000  1.0 -0.373857167
N  N10  1  0.26470000  0.21970000  0.45281000  1.0 -0.3805552837
N  N11  1  0.51230000  0.27320000  0.46199000  1.0 -0.3536212038
N  N12  1  0.39110000  0.21460000  0.39595000  1.0 -0.373857167
N  N13  1  0.61090000  0.77620000  0.98051000  1.0 -0.373857167
N  N14  1  0.73530000  0.71970000  0.04719000  1.0 -0.3805552837
N  N15  1  0.48770000  0.77320000  0.03801000  1.0 -0.3536212038
N  N16  1  0.60890000  0.71460000  0.10405000  1.0 -0.373857167
O  O1  1  0.91760000  0.09490000  0.72774000  1.0 -0.6714507532
O  O2  1  0.83540000  0.10810000  0.66757000  1.0 -0.5721821901
O  O3  1  0.99820000  0.73170000  0.73555000  1.0 -0.6294574257
O  O4  1  0.37050000  0.38690000  0.44259000  1.0 -0.4294699099
O  O5  1  0.07410000  0.73370000  0.36507000  1.0 -0.5840515014
O  O6  1  0.99040000  0.81090000  0.32392000  1.0 -0.6989390455
O  O7  1  0.02650000  0.83930000  0.77324000  1.0 -0.6413637515
O  O8  1  0.17270000  0.79420000  0.73373000  1.0 -0.6714507532
O  O9  1  0.23080000  0.68370000  0.75683000  1.0 -0.5721821901
O  O10  1  0.24940000  0.75020000  0.34303000  1.0 -0.5574806448
O  O11  1  0.18900000  0.64170000  0.31912000  1.0 -0.6989390455
O  O12  1  0.11160000  0.49990000  0.19580000  1.0 -0.8611003127
O  O13  1  0.29100000  0.38130000  0.38350000  1.0 -0.3805552837
O  O14  1  0.90000000  0.96240000  0.20570000  1.0 -0.8611003127
O  O15  1  0.08240000  0.59490000  0.77226000  1.0 -0.6714507532
O  O16  1  0.16460000  0.60810000  0.83243000  1.0 -0.5721821901
O  O17  1  0.00180000  0.23170000  0.76445000  1.0 -0.6294574257
O  O18  1  0.62950000  0.88690000  0.05741000  1.0 -0.4294699099
O  O19  1  0.92590000  0.23370000  0.13493000  1.0 -0.5840515014
O  O20  1  0.00960000  0.31090000  0.17608000  1.0 -0.6989390455
O  O21  1  0.97350000  0.33930000  0.72676000  1.0 -0.6413637515
O  O22  1  0.82730000  0.29420000  0.76627000  1.0 -0.6714507532
O  O23  1  0.76920000  0.18370000  0.74317000  1.0 -0.5721821901
O  O24  1  0.75060000  0.25020000  0.15697000  1.0 -0.5574806448
O  O25  1  0.81100000  0.14170000  0.18088000  1.0 -0.6989390455
O  O26  1  0.88840000  0.99990000  0.30420000  1.0 -0.8611003127
O  O27  1  0.70900000  0.88130000  0.11650000  1.0 -0.3805552837
O  O28  1  0.10000000  0.46240000  0.29430000  1.0 -0.8611003127
O  O29  1  0.08240000  0.90510000  0.27226000  1.0 -0.6714507532
O  O30  1  0.16460000  0.89190000  0.33243000  1.0 -0.5721821901
O  O31  1  0.00180000  0.26830000  0.26445000  1.0 -0.6294574257
O  O32  1  0.62950000  0.61310000  0.55741000  1.0 -0.4294699099
O  O33  1  0.92590000  0.26630000  0.63493000  1.0 -0.5840515014
O  O34  1  0.00960000  0.18910000  0.67608000  1.0 -0.6989390455
O  O35  1  0.97350000  0.16070000  0.22676000  1.0 -0.6413637515
O  O36  1  0.82730000  0.20580000  0.26627000  1.0 -0.6714507532
O  O37  1  0.76920000  0.31630000  0.24317000  1.0 -0.5721821901
O  O38  1  0.75060000  0.24980000  0.65697000  1.0 -0.5574806448
O  O39  1  0.81100000  0.35830000  0.68088000  1.0 -0.6989390455
O  O40  1  0.88840000  0.50010000  0.80420000  1.0 -0.8611003127
O  O41  1  0.70900000  0.61870000  0.61650000  1.0 -0.3805552837
O  O42  1  0.10000000  0.03760000  0.79430000  1.0 -0.8611003127
O  O43  1  0.91760000  0.40510000  0.22774000  1.0 -0.6714507532
O  O44  1  0.83540000  0.39190000  0.16757000  1.0 -0.5721821901
O  O45  1  0.99820000  0.76830000  0.23555000  1.0 -0.6294574257
O  O46  1  0.37050000  0.11310000  0.94259000  1.0 -0.4294699099
O  O47  1  0.07410000  0.76630000  0.86507000  1.0 -0.5840515014
O  O48  1  0.99040000  0.68910000  0.82392000  1.0 -0.6947304126
O  O49  1  0.02650000  0.66070000  0.27324000  1.0 -0.6413637515
O  O50  1  0.17270000  0.70580000  0.23373000  1.0 -0.6714507532
O  O51  1  0.23080000  0.81630000  0.25683000  1.0 -0.5721821901
O  O52  1  0.24940000  0.74980000  0.84303000  1.0 -0.5574806448
O  O53  1  0.18900000  0.85830000  0.81912000  1.0 -0.6989390455
O  O54  1  0.11160000  0.00010000  0.69580000  1.0 -0.8611003127
O  O55  1  0.29100000  0.11870000  0.88350000  1.0 -0.3805552837
O  O56  1  0.90000000  0.53760000  0.70570000  1.0 -0.8611003127
