# DDEC6 charges by PACMAN v1.1 (https://github.com/mtap-research/PACMAN-charge/)
data_TEPNIO_ASR_pacman
_symmetry_space_group_name_H-M   'P 1'
_cell_length_a   16.41860000
_cell_length_b   16.94210000
_cell_length_c   31.71450000
_cell_angle_alpha   90.00000000
_cell_angle_beta   96.86700000
_cell_angle_gamma   90.00000000
_symmetry_Int_Tables_number   1
_chemical_formula_structural   Na2PrZnH27C50(N2O7)2
_chemical_formula_sum   'Na8 Pr4 Zn4 H108 C200 N16 O56'
_cell_volume   8758.59684392
_cell_formula_units_Z   4
loop_
 _symmetry_equiv_pos_site_id
 _symmetry_equiv_pos_as_xyz
  1  'x, y, z'
loop_
 _atom_site_type_symbol
 _atom_site_label
 _atom_site_symmetry_multiplicity
 _atom_site_fract_x
 _atom_site_fract_y
 _atom_site_fract_z
 _atom_site_occupancy
 _atom_site_charge
Na  Na1  1  0.15250000  0.56585000  0.25795000  1.0 0.8780240871
Na  Na2  1  0.93506000  0.87811000  0.26780000  1.0 0.8737741071
Na  Na3  1  0.84750000  0.06585000  0.24205000  1.0 0.8780240871
Na  Na4  1  0.06494000  0.37811000  0.23220000  1.0 0.8737741071
Na  Na5  1  0.84750000  0.43415000  0.74205000  1.0 0.8780240871
Na  Na6  1  0.06494000  0.12189000  0.73220000  1.0 0.8780240871
Na  Na7  1  0.15250000  0.93415000  0.75795000  1.0 0.8780240871
Na  Na8  1  0.93506000  0.62189000  0.76780000  1.0 0.8780240871
Pr  Pr1  1  0.87878000  0.23738000  0.70446000  1.0 2.004343744
Pr  Pr2  1  0.12122000  0.73738000  0.79554000  1.0 2.004343744
Pr  Pr3  1  0.12122000  0.76262000  0.29554000  1.0 2.004343744
Pr  Pr4  1  0.87878000  0.26262000  0.20446000  1.0 2.004343744
Zn  Zn1  1  0.38171000  0.26422000  0.45409000  1.0 0.6646357733
Zn  Zn2  1  0.61829000  0.76422000  0.04591000  1.0 0.6655784804
Zn  Zn3  1  0.61829000  0.73578000  0.54591000  1.0 0.6655784804
Zn  Zn4  1  0.38171000  0.23578000  0.95409000  1.0 0.6646357733
H  H1  1  0.06380000  0.52080000  0.17610000  1.0 0.4027438718
H  H2  1  0.15510000  0.48310000  0.17730000  1.0 0.4027438718
H  H3  1  0.28560000  0.32620000  0.38320000  1.0 0.347177926
H  H4  1  0.85510000  0.93130000  0.18630000  1.0 0.4058835465
H  H5  1  0.94590000  0.97050000  0.19170000  1.0 0.4184056032
H  H6  1  0.87100000  0.76230000  0.67940000  1.0 0.1200000232
H  H7  1  0.77600000  0.97420000  0.64130000  1.0 0.1295926025
H  H8  1  0.95760000  0.96150000  0.74000000  1.0 0.1123066726
H  H9  1  0.37000000  0.72250000  0.40250000  1.0 0.1295926025
H  H10  1  0.86960000  0.84110000  0.36060000  1.0 0.0986751612
H  H11  1  0.44590000  0.51390000  0.45610000  1.0 0.1295926025
H  H12  1  0.90860000  0.84380000  0.59180000  1.0 0.1295926025
H  H13  1  0.77180000  0.83400000  0.40780000  1.0 0.1123066726
H  H14  1  0.90290000  0.66430000  0.47420000  1.0 0.1200000232
H  H15  1  0.00160000  0.67160000  0.42830000  1.0 0.1295926025
H  H16  1  0.31110000  0.71750000  0.56400000  1.0 0.1295926025
H  H17  1  0.91350000  0.80440000  0.51860000  1.0 0.1295926025
H  H18  1  0.52790000  0.82740000  0.68710000  1.0 0.1295926025
H  H19  1  0.26500000  0.51800000  0.35700000  1.0 0.1123066726
H  H20  1  0.54980000  0.64850000  0.38970000  1.0 0.1295926025
H  H21  1  0.67890000  0.85390000  0.69640000  1.0 0.1295926025
H  H22  1  0.31960000  0.66120000  0.49330000  1.0 0.1295926025
H  H23  1  0.24580000  0.85640000  0.67010000  1.0 0.0986751612
H  H24  1  0.69510000  0.68970000  0.39440000  1.0 0.1200000232
H  H25  1  0.34140000  0.86600000  0.62200000  1.0 0.1200000232
H  H26  1  0.35130000  0.65450000  0.71690000  1.0 0.1200000232
H  H27  1  0.44530000  0.66240000  0.66640000  1.0 0.1200000232
H  H28  1  0.93620000  0.02080000  0.32390000  1.0 0.4027438718
H  H29  1  0.84490000  0.98310000  0.32270000  1.0 0.4027438718
H  H30  1  0.71440000  0.82620000  0.11680000  1.0 0.347177926
H  H31  1  0.14490000  0.43130000  0.31370000  1.0 0.4058835465
H  H32  1  0.05410000  0.47050000  0.30830000  1.0 0.4184056032
H  H33  1  0.12900000  0.26230000  0.82060000  1.0 0.1200000232
H  H34  1  0.22400000  0.47420000  0.85870000  1.0 0.1295926025
H  H35  1  0.04240000  0.46150000  0.76000000  1.0 0.1123066726
H  H36  1  0.63000000  0.22250000  0.09750000  1.0 0.1295926025
H  H37  1  0.13040000  0.34110000  0.13940000  1.0 0.0986751612
H  H38  1  0.55410000  0.01390000  0.04390000  1.0 0.1295926025
H  H39  1  0.09140000  0.34380000  0.90820000  1.0 0.1295926025
H  H40  1  0.22820000  0.33400000  0.09220000  1.0 0.1123066726
H  H41  1  0.09710000  0.16430000  0.02580000  1.0 0.1200000232
H  H42  1  0.99840000  0.17160000  0.07170000  1.0 0.1295926025
H  H43  1  0.68890000  0.21750000  0.93600000  1.0 0.1295926025
H  H44  1  0.08650000  0.30440000  0.98140000  1.0 0.1295926025
H  H45  1  0.47210000  0.32740000  0.81290000  1.0 0.1295926025
H  H46  1  0.73500000  0.01800000  0.14300000  1.0 0.1123066726
H  H47  1  0.45020000  0.14850000  0.11030000  1.0 0.1295926025
H  H48  1  0.32110000  0.35390000  0.80360000  1.0 0.1295926025
H  H49  1  0.68040000  0.16120000  0.00670000  1.0 0.1295926025
H  H50  1  0.75420000  0.35640000  0.82990000  1.0 0.0986751612
H  H51  1  0.30490000  0.18970000  0.10560000  1.0 0.1200000232
H  H52  1  0.65860000  0.36600000  0.87800000  1.0 0.1200000232
H  H53  1  0.64870000  0.15450000  0.78310000  1.0 0.1200000232
H  H54  1  0.55470000  0.16240000  0.83360000  1.0 0.1200000232
H  H55  1  0.93620000  0.47920000  0.82390000  1.0 0.4027438718
H  H56  1  0.84490000  0.51690000  0.82270000  1.0 0.4027438718
H  H57  1  0.71440000  0.67380000  0.61680000  1.0 0.347177926
H  H58  1  0.14490000  0.06870000  0.81370000  1.0 0.4058835465
H  H59  1  0.05410000  0.02950000  0.80830000  1.0 0.4184056032
H  H60  1  0.12900000  0.23770000  0.32060000  1.0 0.1200000232
H  H61  1  0.22400000  0.02580000  0.35870000  1.0 0.1295926025
H  H62  1  0.04240000  0.03850000  0.26000000  1.0 0.1123066726
H  H63  1  0.63000000  0.27750000  0.59750000  1.0 0.1295926025
H  H64  1  0.13040000  0.15890000  0.63940000  1.0 0.0986751612
H  H65  1  0.55410000  0.48610000  0.54390000  1.0 0.1295926025
H  H66  1  0.09140000  0.15620000  0.40820000  1.0 0.1295926025
H  H67  1  0.22820000  0.16600000  0.59220000  1.0 0.1123066726
H  H68  1  0.09710000  0.33570000  0.52580000  1.0 0.1200000232
H  H69  1  0.99840000  0.32840000  0.57170000  1.0 0.1295926025
H  H70  1  0.68890000  0.28250000  0.43600000  1.0 0.1295926025
H  H71  1  0.08650000  0.19560000  0.48140000  1.0 0.1295926025
H  H72  1  0.47210000  0.17260000  0.31290000  1.0 0.1295926025
H  H73  1  0.73500000  0.48200000  0.64300000  1.0 0.1123066726
H  H74  1  0.45020000  0.35150000  0.61030000  1.0 0.1295926025
H  H75  1  0.32110000  0.14610000  0.30360000  1.0 0.1295926025
H  H76  1  0.68040000  0.33880000  0.50670000  1.0 0.1295926025
H  H77  1  0.75420000  0.14360000  0.32990000  1.0 0.0986751612
H  H78  1  0.30490000  0.31030000  0.60560000  1.0 0.1200000232
H  H79  1  0.65860000  0.13400000  0.37800000  1.0 0.1200000232
H  H80  1  0.64870000  0.34550000  0.28310000  1.0 0.1200000232
H  H81  1  0.55470000  0.33760000  0.33360000  1.0 0.1200000232
H  H82  1  0.06380000  0.97920000  0.67610000  1.0 0.4058835465
H  H83  1  0.15510000  0.01690000  0.67730000  1.0 0.4027438718
H  H84  1  0.28560000  0.17380000  0.88320000  1.0 0.347177926
H  H85  1  0.85510000  0.56870000  0.68630000  1.0 0.4058835465
H  H86  1  0.94590000  0.52950000  0.69170000  1.0 0.4184056032
H  H87  1  0.87100000  0.73770000  0.17940000  1.0 0.1200000232
H  H88  1  0.77600000  0.52580000  0.14130000  1.0 0.1295926025
H  H89  1  0.95760000  0.53850000  0.24000000  1.0 0.1123066726
H  H90  1  0.37000000  0.77750000  0.90250000  1.0 0.1295926025
H  H91  1  0.86960000  0.65890000  0.86060000  1.0 0.0986751612
H  H92  1  0.44590000  0.98610000  0.95610000  1.0 0.1295926025
H  H93  1  0.90860000  0.65620000  0.09180000  1.0 0.1295926025
H  H94  1  0.77180000  0.66600000  0.90780000  1.0 0.1123066726
H  H95  1  0.90290000  0.83570000  0.97420000  1.0 0.1200000232
H  H96  1  0.00160000  0.82840000  0.92830000  1.0 0.1295926025
H  H97  1  0.31110000  0.78250000  0.06400000  1.0 0.1295926025
H  H98  1  0.91350000  0.69560000  0.01860000  1.0 0.1295926025
H  H99  1  0.52790000  0.67260000  0.18710000  1.0 0.1295926025
H  H100  1  0.26500000  0.98200000  0.85700000  1.0 0.1123066726
H  H101  1  0.54980000  0.85150000  0.88970000  1.0 0.1295926025
H  H102  1  0.67890000  0.64610000  0.19640000  1.0 0.1295926025
H  H103  1  0.31960000  0.83880000  0.99330000  1.0 0.1295926025
H  H104  1  0.24580000  0.64360000  0.17010000  1.0 0.0986751612
H  H105  1  0.69510000  0.81030000  0.89440000  1.0 0.1200000232
H  H106  1  0.34140000  0.63400000  0.12200000  1.0 0.1200000232
H  H107  1  0.35130000  0.84550000  0.21690000  1.0 0.1200000232
H  H108  1  0.44530000  0.83760000  0.16640000  1.0 0.1200000232
C  C1  1  0.28670000  0.75360000  0.69720000  1.0 -0.0428865966
C  C2  1  0.86850000  0.98180000  0.69100000  1.0 -0.0484632714
C  C3  1  0.86920000  0.81790000  0.68270000  1.0 -0.1556932819
C  C4  1  0.94680000  0.75690000  0.39010000  1.0 -0.0225525214
C  C5  1  0.81330000  0.94370000  0.65980000  1.0 -0.1290030279
C  C6  1  0.75430000  0.82560000  0.62203000  1.0 -0.0894773446
C  C7  1  0.81320000  0.86270000  0.65630000  1.0 0.0654507312
C  C8  1  0.30840000  0.62610000  0.37330000  1.0 -0.0484632714
C  C9  1  0.92210000  0.85490000  0.71380000  1.0 -0.0225525214
C  C10  1  0.87060000  0.06780000  0.69500000  1.0 0.5816567549
C  C11  1  0.00920000  0.76280000  0.35930000  1.0 0.5894996631
C  C12  1  0.78270000  0.80750000  0.58290000  1.0 0.1703367341
C  C13  1  0.40080000  0.76380000  0.63840000  1.0 0.0866539577
C  C14  1  0.76260000  0.74730000  0.47560000  1.0 -0.0718005229
C  C15  1  0.68390000  0.72290000  0.45940000  1.0 0.1813390425
C  C16  1  0.92160000  0.93670000  0.71830000  1.0 -0.1504073346
C  C17  1  0.36600000  0.66666667  0.40340000  1.0 -0.1364575554
C  C18  1  0.22730000  0.74750000  0.72870000  1.0 0.5816567549
C  C19  1  0.98630000  0.80950000  0.74250000  1.0 0.5894996631
C  C20  1  0.41490000  0.62500000  0.43300000  1.0 0.079780336
C  C21  1  0.82790000  0.74890000  0.44570000  1.0 0.0866539577
C  C22  1  0.44130000  0.73940000  0.56760000  1.0 0.1813390425
C  C23  1  0.87680000  0.80550000  0.38390000  1.0 -0.1135509875
C  C24  1  0.41100000  0.54200000  0.43520000  1.0 -0.1504073346
C  C25  1  0.54320000  0.78830000  0.62460000  1.0 0.1997267562
C  C26  1  0.47580000  0.67060000  0.46530000  1.0 -0.0894773446
C  C27  1  0.67400000  0.81700000  0.63050000  1.0 0.1703367341
C  C28  1  0.46300000  0.76520000  0.60810000  1.0 -0.0804961738
C  C29  1  0.78690000  0.77240000  0.51750000  1.0 0.1813390425
C  C30  1  0.55390000  0.68600000  0.45530000  1.0 0.1929254155
C  C31  1  0.25150000  0.67170000  0.34510000  1.0 0.5816567549
C  C32  1  0.86460000  0.82250000  0.57310000  1.0 -0.1880701834
C  C33  1  0.44640000  0.69680000  0.50200000  1.0 0.1929254155
C  C34  1  0.81880000  0.80090000  0.41180000  1.0 -0.1504073346
C  C35  1  0.89630000  0.70070000  0.45120000  1.0 -0.1504073346
C  C36  1  0.34520000  0.41240000  0.40920000  1.0 0.5613999921
C  C37  1  0.35400000  0.50110000  0.40570000  1.0 -0.0225525214
C  C38  1  0.95480000  0.70490000  0.42390000  1.0 -0.0894773446
C  C39  1  0.35910000  0.71400000  0.55010000  1.0 -0.1807009368
C  C40  1  0.86710000  0.80130000  0.53380000  1.0 -0.1807009368
C  C41  1  0.56450000  0.81930000  0.66650000  1.0 -0.2026860383
C  C42  1  0.30410000  0.54510000  0.37620000  1.0 -0.1290030279
C  C43  1  0.58170000  0.67040000  0.41390000  1.0 -0.1880701834
C  C44  1  0.64670000  0.83510000  0.67160000  1.0 -0.1880701834
C  C45  1  0.36310000  0.68500000  0.51130000  1.0 -0.1807009368
C  C46  1  0.28600000  0.81620000  0.66940000  1.0 -0.1010587555
C  C47  1  0.66070000  0.69280000  0.41640000  1.0 -0.1807009368
C  C48  1  0.34270000  0.82180000  0.64050000  1.0 -0.1504073346
C  C49  1  0.34780000  0.69660000  0.69700000  1.0 -0.0804961738
C  C50  1  0.40430000  0.70180000  0.66700000  1.0 -0.1504073346
C  C51  1  0.71330000  0.25360000  0.80280000  1.0 -0.0428865966
C  C52  1  0.13150000  0.48180000  0.80900000  1.0 -0.0484632714
C  C53  1  0.13080000  0.31790000  0.81730000  1.0 -0.1556932819
C  C54  1  0.05320000  0.25690000  0.10990000  1.0 -0.0225525214
C  C55  1  0.18670000  0.44370000  0.84020000  1.0 -0.1290030279
C  C56  1  0.24570000  0.32560000  0.87797000  1.0 -0.0894773446
C  C57  1  0.18680000  0.36270000  0.84370000  1.0 0.0654507312
C  C58  1  0.69160000  0.12610000  0.12670000  1.0 -0.0484632714
C  C59  1  0.07790000  0.35490000  0.78620000  1.0 -0.0225525214
C  C60  1  0.12940000  0.56780000  0.80500000  1.0 0.5816567549
C  C61  1  0.99080000  0.26280000  0.14070000  1.0 0.5894996631
C  C62  1  0.21730000  0.30750000  0.91710000  1.0 0.1703367341
C  C63  1  0.59920000  0.26380000  0.86160000  1.0 0.0866539577
C  C64  1  0.23740000  0.24730000  0.02440000  1.0 -0.0718005229
C  C65  1  0.31610000  0.22290000  0.04060000  1.0 0.1813390425
C  C66  1  0.07840000  0.43670000  0.78170000  1.0 -0.1504073346
C  C67  1  0.63400000  0.16660000  0.09660000  1.0 -0.1364575554
C  C68  1  0.77270000  0.24750000  0.77130000  1.0 0.5816567549
C  C69  1  0.01370000  0.30950000  0.75750000  1.0 0.5894996631
C  C70  1  0.58510000  0.12500000  0.06700000  1.0 0.079780336
C  C71  1  0.17210000  0.24890000  0.05430000  1.0 0.0866539577
C  C72  1  0.55870000  0.23940000  0.93240000  1.0 0.1813390425
C  C73  1  0.12320000  0.30550000  0.11610000  1.0 -0.1135509875
C  C74  1  0.58900000  0.04200000  0.06480000  1.0 -0.1504073346
C  C75  1  0.45680000  0.28830000  0.87540000  1.0 0.1997267562
C  C76  1  0.52420000  0.17060000  0.03470000  1.0 -0.0894773446
C  C77  1  0.32600000  0.31700000  0.86950000  1.0 0.1703367341
C  C78  1  0.53700000  0.26520000  0.89190000  1.0 -0.0804961738
C  C79  1  0.21310000  0.27240000  0.98250000  1.0 0.1813390425
C  C80  1  0.44610000  0.18600000  0.04470000  1.0 0.1929254155
C  C81  1  0.74850000  0.17170000  0.15490000  1.0 0.5816567549
C  C82  1  0.13540000  0.32250000  0.92690000  1.0 -0.1880701834
C  C83  1  0.55360000  0.19680000  0.99800000  1.0 0.1929254155
C  C84  1  0.18120000  0.30090000  0.08820000  1.0 -0.1504073346
C  C85  1  0.10370000  0.20070000  0.04880000  1.0 -0.1504073346
C  C86  1  0.65480000  0.91240000  0.09080000  1.0 0.5613999921
C  C87  1  0.64600000  0.00110000  0.09430000  1.0 -0.0225525214
C  C88  1  0.04520000  0.20490000  0.07610000  1.0 -0.0894773446
C  C89  1  0.64090000  0.21400000  0.94990000  1.0 -0.1807009368
C  C90  1  0.13290000  0.30130000  0.96620000  1.0 -0.1807009368
C  C91  1  0.43550000  0.31930000  0.83350000  1.0 -0.2026860383
C  C92  1  0.69590000  0.04510000  0.12380000  1.0 -0.1290030279
C  C93  1  0.41830000  0.17040000  0.08610000  1.0 -0.1880701834
C  C94  1  0.35330000  0.33510000  0.82840000  1.0 -0.1880701834
C  C95  1  0.63690000  0.18500000  0.98870000  1.0 -0.1807009368
C  C96  1  0.71400000  0.31620000  0.83060000  1.0 -0.1010587555
C  C97  1  0.33930000  0.19280000  0.08360000  1.0 -0.1807009368
C  C98  1  0.65730000  0.32180000  0.85950000  1.0 -0.1504073346
C  C99  1  0.65220000  0.19660000  0.80300000  1.0 -0.0804961738
C  C100  1  0.59570000  0.20180000  0.83300000  1.0 -0.1504073346
C  C101  1  0.71330000  0.24640000  0.30280000  1.0 -0.0428865966
C  C102  1  0.13150000  0.01820000  0.30900000  1.0 -0.0484632714
C  C103  1  0.13080000  0.18210000  0.31730000  1.0 -0.1556932819
C  C104  1  0.05320000  0.24310000  0.60990000  1.0 -0.0225525214
C  C105  1  0.18670000  0.05630000  0.34020000  1.0 -0.1290030279
C  C106  1  0.24570000  0.17440000  0.37797000  1.0 -0.0894773446
C  C107  1  0.18680000  0.13730000  0.34370000  1.0 0.0654507312
C  C108  1  0.69160000  0.37390000  0.62670000  1.0 -0.0484632714
C  C109  1  0.07790000  0.14510000  0.28620000  1.0 -0.0225525214
C  C110  1  0.12940000  0.93220000  0.30500000  1.0 0.5816567549
C  C111  1  0.99080000  0.23720000  0.64070000  1.0 0.5894996631
C  C112  1  0.21730000  0.19250000  0.41710000  1.0 0.1703367341
C  C113  1  0.59920000  0.23620000  0.36160000  1.0 0.0866539577
C  C114  1  0.23740000  0.25270000  0.52440000  1.0 -0.0718005229
C  C115  1  0.31610000  0.27710000  0.54060000  1.0 0.1813390425
C  C116  1  0.07840000  0.06330000  0.28170000  1.0 -0.1504073346
C  C117  1  0.63400000  0.33340000  0.59660000  1.0 -0.1364575554
C  C118  1  0.77270000  0.25250000  0.27130000  1.0 0.5816567549
C  C119  1  0.01370000  0.19050000  0.25750000  1.0 0.5894996631
C  C120  1  0.58510000  0.37500000  0.56700000  1.0 0.079780336
C  C121  1  0.17210000  0.25110000  0.55430000  1.0 0.0866539577
C  C122  1  0.55870000  0.26060000  0.43240000  1.0 0.1813390425
C  C123  1  0.12320000  0.19450000  0.61610000  1.0 -0.1135509875
C  C124  1  0.58900000  0.45800000  0.56480000  1.0 -0.1504073346
C  C125  1  0.45680000  0.21170000  0.37540000  1.0 0.1997267562
C  C126  1  0.52420000  0.32940000  0.53470000  1.0 -0.0894773446
C  C127  1  0.32600000  0.18300000  0.36950000  1.0 0.1703367341
C  C128  1  0.53700000  0.23480000  0.39190000  1.0 -0.0804961738
C  C129  1  0.21310000  0.22760000  0.48250000  1.0 0.1813390425
C  C130  1  0.44610000  0.31400000  0.54470000  1.0 0.1929254155
C  C131  1  0.74850000  0.32830000  0.65490000  1.0 0.5816567549
C  C132  1  0.13540000  0.17750000  0.42690000  1.0 -0.1880701834
C  C133  1  0.55360000  0.30320000  0.49800000  1.0 0.1929254155
C  C134  1  0.18120000  0.19910000  0.58820000  1.0 -0.1504073346
C  C135  1  0.10370000  0.29930000  0.54880000  1.0 -0.1504073346
C  C136  1  0.65480000  0.58760000  0.59080000  1.0 0.5613999921
C  C137  1  0.64600000  0.49890000  0.59430000  1.0 -0.0225525214
C  C138  1  0.04520000  0.29510000  0.57610000  1.0 -0.0894773446
C  C139  1  0.64090000  0.28600000  0.44990000  1.0 -0.1807009368
C  C140  1  0.13290000  0.19870000  0.46620000  1.0 -0.1807009368
C  C141  1  0.43550000  0.18070000  0.33350000  1.0 -0.2026860383
C  C142  1  0.69590000  0.45490000  0.62380000  1.0 -0.1290030279
C  C143  1  0.41830000  0.32960000  0.58610000  1.0 -0.1880701834
C  C144  1  0.35330000  0.16490000  0.32840000  1.0 -0.1880701834
C  C145  1  0.63690000  0.31500000  0.48870000  1.0 -0.1807009368
C  C146  1  0.71400000  0.18380000  0.33060000  1.0 -0.1010587555
C  C147  1  0.33930000  0.30720000  0.58360000  1.0 -0.1807009368
C  C148  1  0.65730000  0.17820000  0.35950000  1.0 -0.1504073346
C  C149  1  0.65220000  0.30340000  0.30300000  1.0 -0.0804961738
C  C150  1  0.59570000  0.29820000  0.33300000  1.0 -0.1504073346
C  C151  1  0.28670000  0.74640000  0.19720000  1.0 -0.0428865966
C  C152  1  0.86850000  0.51820000  0.19100000  1.0 -0.0484632714
C  C153  1  0.86920000  0.68210000  0.18270000  1.0 -0.1504073346
C  C154  1  0.94680000  0.74310000  0.89010000  1.0 -0.0225525214
C  C155  1  0.81330000  0.55630000  0.15980000  1.0 -0.1290030279
C  C156  1  0.75430000  0.67440000  0.12203000  1.0 -0.0894773446
C  C157  1  0.81320000  0.63730000  0.15630000  1.0 0.0654507312
C  C158  1  0.30840000  0.87390000  0.87330000  1.0 -0.0484632714
C  C159  1  0.92210000  0.64510000  0.21380000  1.0 -0.0225525214
C  C160  1  0.87060000  0.43220000  0.19500000  1.0 0.5816567549
C  C161  1  0.00920000  0.73720000  0.85930000  1.0 0.5894996631
C  C162  1  0.78270000  0.69250000  0.08290000  1.0 0.1703367341
C  C163  1  0.40080000  0.73620000  0.13840000  1.0 0.0866539577
C  C164  1  0.76260000  0.75270000  0.97560000  1.0 -0.0718005229
C  C165  1  0.68390000  0.77710000  0.95940000  1.0 0.1813390425
C  C166  1  0.92160000  0.56330000  0.21830000  1.0 -0.1504073346
C  C167  1  0.36600000  0.83340000  0.90340000  1.0 -0.1364575554
C  C168  1  0.22730000  0.75250000  0.22870000  1.0 0.5816567549
C  C169  1  0.98630000  0.69050000  0.24250000  1.0 0.5894996631
C  C170  1  0.41490000  0.87500000  0.93300000  1.0 0.079780336
C  C171  1  0.82790000  0.75110000  0.94570000  1.0 0.0866539577
C  C172  1  0.44130000  0.76060000  0.06760000  1.0 0.1813390425
C  C173  1  0.87680000  0.69450000  0.88390000  1.0 -0.1135509875
C  C174  1  0.41100000  0.95800000  0.93520000  1.0 -0.1504073346
C  C175  1  0.54320000  0.71170000  0.12460000  1.0 0.1997267562
C  C176  1  0.47580000  0.82940000  0.96530000  1.0 -0.0894773446
C  C177  1  0.67400000  0.68300000  0.13050000  1.0 0.1703367341
C  C178  1  0.46300000  0.73480000  0.10810000  1.0 -0.0804961738
C  C179  1  0.78690000  0.72760000  0.01750000  1.0 0.1813390425
C  C180  1  0.55390000  0.81400000  0.95530000  1.0 0.1929254155
C  C181  1  0.25150000  0.82830000  0.84510000  1.0 0.5816567549
C  C182  1  0.86460000  0.67750000  0.07310000  1.0 -0.1880701834
C  C183  1  0.44640000  0.80320000  0.00200000  1.0 0.1929254155
C  C184  1  0.81880000  0.69910000  0.91180000  1.0 -0.1504073346
C  C185  1  0.89630000  0.79930000  0.95120000  1.0 -0.1504073346
C  C186  1  0.34520000  0.08760000  0.90920000  1.0 0.5613999921
C  C187  1  0.35400000  0.99890000  0.90570000  1.0 -0.0225525214
C  C188  1  0.95480000  0.79510000  0.92390000  1.0 -0.0894773446
C  C189  1  0.35910000  0.78600000  0.05010000  1.0 -0.1807009368
C  C190  1  0.86710000  0.69870000  0.03380000  1.0 -0.1807009368
C  C191  1  0.56450000  0.68070000  0.16650000  1.0 -0.2026860383
C  C192  1  0.30410000  0.95490000  0.87620000  1.0 -0.1290030279
C  C193  1  0.58170000  0.82960000  0.91390000  1.0 -0.1880701834
C  C194  1  0.64670000  0.66490000  0.17160000  1.0 -0.1880701834
C  C195  1  0.36310000  0.81500000  0.01130000  1.0 -0.1807009368
C  C196  1  0.28600000  0.68380000  0.16940000  1.0 -0.1010587555
C  C197  1  0.66070000  0.80720000  0.91640000  1.0 -0.1807009368
C  C198  1  0.34270000  0.67820000  0.14050000  1.0 -0.1504073346
C  C199  1  0.34780000  0.80340000  0.19700000  1.0 -0.0804961738
C  C200  1  0.40430000  0.79820000  0.16700000  1.0 -0.1504073346
N  N1  1  0.61710000  0.71960000  0.48182000  1.0 -0.354617734
N  N2  1  0.73620000  0.77590000  0.54861000  1.0 -0.3850192767
N  N3  1  0.49230000  0.72910000  0.53649000  1.0 -0.3648226899
N  N4  1  0.61010000  0.79060000  0.60372000  1.0 -0.3678008434
N  N5  1  0.38290000  0.21960000  0.01818000  1.0 -0.354617734
N  N6  1  0.26380000  0.27590000  0.95139000  1.0 -0.3850192767
N  N7  1  0.50770000  0.22910000  0.96351000  1.0 -0.3648226899
N  N8  1  0.38990000  0.29060000  0.89628000  1.0 -0.3678008434
N  N9  1  0.38290000  0.28040000  0.51818000  1.0 -0.354617734
N  N10  1  0.26380000  0.22410000  0.45139000  1.0 -0.3850192767
N  N11  1  0.50770000  0.27090000  0.46351000  1.0 -0.3648226899
N  N12  1  0.38990000  0.20940000  0.39628000  1.0 -0.3678008434
N  N13  1  0.61710000  0.78040000  0.98182000  1.0 -0.354617734
N  N14  1  0.73620000  0.72410000  0.04861000  1.0 -0.3834928316
N  N15  1  0.49230000  0.77090000  0.03649000  1.0 -0.3648226899
N  N16  1  0.61010000  0.70940000  0.10372000  1.0 -0.3678008434
O  O1  1  0.91640000  0.09870000  0.72658000  1.0 -0.7036496443
O  O2  1  0.82760000  0.11180000  0.66825000  1.0 -0.5844022673
O  O3  1  0.99580000  0.73770000  0.73721000  1.0 -0.6300188345
O  O4  1  0.37250000  0.38100000  0.44047000  1.0 -0.4433841821
O  O5  1  0.07630000  0.72430000  0.36705000  1.0 -0.599893142
O  O6  1  0.99390000  0.80390000  0.32674000  1.0 -0.6816988629
O  O7  1  0.02970000  0.84890000  0.77131000  1.0 -0.6730161351
O  O8  1  0.17460000  0.80080000  0.73044000  1.0 -0.6816988629
O  O9  1  0.23350000  0.69160000  0.75507000  1.0 -0.5878906143
O  O10  1  0.25480000  0.74580000  0.34510000  1.0 -0.5585709852
O  O11  1  0.19710000  0.63660000  0.31780000  1.0 -0.7368690115
O  O12  1  0.10950000  0.49470000  0.19414000  1.0 -0.8615066281
O  O13  1  0.30520000  0.37900000  0.37750000  1.0 -0.4126128596
O  O14  1  0.89810000  0.95650000  0.20640000  1.0 -0.8615066281
O  O15  1  0.08360000  0.59870000  0.77342000  1.0 -0.7036496443
O  O16  1  0.17240000  0.61180000  0.83175000  1.0 -0.5844022673
O  O17  1  0.00420000  0.23770000  0.76279000  1.0 -0.6300188345
O  O18  1  0.62750000  0.88100000  0.05953000  1.0 -0.4433841821
O  O19  1  0.92370000  0.22430000  0.13295000  1.0 -0.599893142
O  O20  1  0.00610000  0.30390000  0.17326000  1.0 -0.6866734666
O  O21  1  0.97030000  0.34890000  0.72869000  1.0 -0.6730161351
O  O22  1  0.82540000  0.30080000  0.76956000  1.0 -0.6816988629
O  O23  1  0.76650000  0.19160000  0.74493000  1.0 -0.5878906143
O  O24  1  0.74520000  0.24580000  0.15490000  1.0 -0.5585709852
O  O25  1  0.80290000  0.13660000  0.18220000  1.0 -0.7368690115
O  O26  1  0.89050000  0.99470000  0.30586000  1.0 -0.8615066281
O  O27  1  0.69480000  0.87900000  0.12250000  1.0 -0.4126128596
O  O28  1  0.10190000  0.45650000  0.29360000  1.0 -0.8615066281
O  O29  1  0.08360000  0.90130000  0.27342000  1.0 -0.7036496443
O  O30  1  0.17240000  0.88820000  0.33175000  1.0 -0.5844022673
O  O31  1  0.00420000  0.26230000  0.26279000  1.0 -0.6300188345
O  O32  1  0.62750000  0.61900000  0.55953000  1.0 -0.4433841821
O  O33  1  0.92370000  0.27570000  0.63295000  1.0 -0.599893142
O  O34  1  0.00610000  0.19610000  0.67326000  1.0 -0.6816988629
O  O35  1  0.97030000  0.15110000  0.22869000  1.0 -0.6730161351
O  O36  1  0.82540000  0.19920000  0.26956000  1.0 -0.6816988629
O  O37  1  0.76650000  0.30840000  0.24493000  1.0 -0.5878906143
O  O38  1  0.74520000  0.25420000  0.65490000  1.0 -0.5585709852
O  O39  1  0.80290000  0.36340000  0.68220000  1.0 -0.7368690115
O  O40  1  0.89050000  0.50530000  0.80586000  1.0 -0.8653198522
O  O41  1  0.69480000  0.62100000  0.62250000  1.0 -0.4126128596
O  O42  1  0.10190000  0.04350000  0.79360000  1.0 -0.8615066281
O  O43  1  0.91640000  0.40130000  0.22658000  1.0 -0.7036496443
O  O44  1  0.82760000  0.38820000  0.16825000  1.0 -0.5844022673
O  O45  1  0.99580000  0.76230000  0.23721000  1.0 -0.6300188345
O  O46  1  0.37250000  0.11900000  0.94047000  1.0 -0.4433841821
O  O47  1  0.07630000  0.77570000  0.86705000  1.0 -0.599893142
O  O48  1  0.99390000  0.69610000  0.82674000  1.0 -0.6816988629
O  O49  1  0.02970000  0.65110000  0.27131000  1.0 -0.6730161351
O  O50  1  0.17460000  0.69920000  0.23044000  1.0 -0.6816988629
O  O51  1  0.23350000  0.80840000  0.25507000  1.0 -0.5878906143
O  O52  1  0.25480000  0.75420000  0.84510000  1.0 -0.5585709852
O  O53  1  0.19710000  0.86340000  0.81780000  1.0 -0.7368690115
O  O54  1  0.10950000  0.00530000  0.69414000  1.0 -0.8615066281
O  O55  1  0.30520000  0.12100000  0.87750000  1.0 -0.4126128596
O  O56  1  0.89810000  0.54350000  0.70640000  1.0 -0.8615066281
