# DDEC6 charges by PACMAN v1.1 (https://github.com/mtap-research/PACMAN-charge/)
data_TEPNAG_ASR_pacman
_symmetry_space_group_name_H-M   'P 1'
_cell_length_a   15.83800000
_cell_length_b   16.58520000
_cell_length_c   31.82300000
_cell_angle_alpha   90.00000000
_cell_angle_beta   97.70700000
_cell_angle_gamma   90.00000000
_symmetry_Int_Tables_number   1
_chemical_formula_structural   Na2ZnInH22C50N4O13
_chemical_formula_sum   'Na8 Zn4 In4 H88 C200 N16 O52'
_cell_volume   8283.64130875
_cell_formula_units_Z   4
loop_
 _symmetry_equiv_pos_site_id
 _symmetry_equiv_pos_as_xyz
  1  'x, y, z'
loop_
 _atom_site_type_symbol
 _atom_site_label
 _atom_site_symmetry_multiplicity
 _atom_site_fract_x
 _atom_site_fract_y
 _atom_site_fract_z
 _atom_site_occupancy
 _atom_site_charge
Na  Na1  1  0.08980000  0.60300000  0.76406000  1.0 0.8708059791
Na  Na2  1  0.90630000  0.88530000  0.29870000  1.0 0.8482569459
Na  Na3  1  0.91020000  0.10300000  0.73594000  1.0 0.8708059791
Na  Na4  1  0.09370000  0.38530000  0.20130000  1.0 0.8482569459
Na  Na5  1  0.91020000  0.39700000  0.23594000  1.0 0.8708059791
Na  Na6  1  0.09370000  0.11470000  0.70130000  1.0 0.8482569459
Na  Na7  1  0.08980000  0.89700000  0.26406000  1.0 0.8708059791
Na  Na8  1  0.90630000  0.61470000  0.79870000  1.0 0.8482569459
Zn  Zn1  1  0.41164000  0.75454000  0.45770000  1.0 0.6968386623
Zn  Zn2  1  0.58836000  0.25454000  0.04230000  1.0 0.6968386623
Zn  Zn3  1  0.58836000  0.24546000  0.54230000  1.0 0.6968386623
Zn  Zn4  1  0.41164000  0.74546000  0.95770000  1.0 0.6968386623
In  In1  1  0.90252000  0.77069000  0.20316000  1.0 1.3823985461
In  In2  1  0.09748000  0.27069000  0.29684000  1.0 1.3823985461
In  In3  1  0.09748000  0.22931000  0.79684000  1.0 1.3823985461
In  In4  1  0.90252000  0.72931000  0.70316000  1.0 1.3823985461
H  H1  1  0.21810000  0.50530000  0.36280000  1.0 0.1295153962
H  H2  1  0.02650000  0.55620000  0.26860000  1.0 0.1409440305
H  H3  1  0.58490000  0.98770000  0.54170000  1.0 0.1295153962
H  H4  1  0.14270000  0.74040000  0.34030000  1.0 0.1409440305
H  H5  1  0.69670000  0.78550000  0.59330000  1.0 0.1295153962
H  H6  1  0.32350000  0.63940000  0.30800000  1.0 0.1295153962
H  H7  1  0.36580000  0.78850000  0.61550000  1.0 0.1295153962
H  H8  1  0.04270000  0.77160000  0.59670000  1.0 0.1409440305
H  H9  1  0.79060000  0.00820000  0.62940000  1.0 0.1465691629
H  H10  1  0.72330000  0.78770000  0.42770000  1.0 0.1295153962
H  H11  1  0.47600000  0.67070000  0.30960000  1.0 0.1295153962
H  H12  1  0.11680000  0.62200000  0.42360000  1.0 0.1295153962
H  H13  1  0.51090000  0.84400000  0.61330000  1.0 0.1409440305
H  H14  1  0.21810000  0.63170000  0.66390000  1.0 0.1189740815
H  H15  1  0.72480000  0.84760000  0.29820000  1.0 0.1189740815
H  H16  1  0.13640000  0.78830000  0.54490000  1.0 0.1189740815
H  H17  1  0.63270000  0.85060000  0.34940000  1.0 0.1295153962
H  H18  1  0.72390000  0.84640000  0.49740000  1.0 0.1409440305
H  H19  1  0.12890000  0.64740000  0.50280000  1.0 0.1295153962
H  H20  1  0.30210000  0.63160000  0.60850000  1.0 0.1189740815
H  H21  1  0.71110000  0.60620000  0.29800000  1.0 0.1409440305
H  H22  1  0.62750000  0.61150000  0.35190000  1.0 0.1295153962
H  H23  1  0.78190000  0.00530000  0.13720000  1.0 0.1295153962
H  H24  1  0.97350000  0.05620000  0.23140000  1.0 0.1409440305
H  H25  1  0.41510000  0.48770000  0.95830000  1.0 0.1295153962
H  H26  1  0.85730000  0.24040000  0.15970000  1.0 0.1409440305
H  H27  1  0.30330000  0.28550000  0.90670000  1.0 0.1295153962
H  H28  1  0.67650000  0.13940000  0.19200000  1.0 0.1295153962
H  H29  1  0.63420000  0.28850000  0.88450000  1.0 0.1295153962
H  H30  1  0.95730000  0.27160000  0.90330000  1.0 0.1409440305
H  H31  1  0.20940000  0.50820000  0.87060000  1.0 0.1465691629
H  H32  1  0.27670000  0.28770000  0.07230000  1.0 0.1295153962
H  H33  1  0.52400000  0.17070000  0.19040000  1.0 0.1295153962
H  H34  1  0.88320000  0.12200000  0.07640000  1.0 0.1295153962
H  H35  1  0.48910000  0.34400000  0.88670000  1.0 0.1409440305
H  H36  1  0.78190000  0.13170000  0.83610000  1.0 0.1189740815
H  H37  1  0.27520000  0.34760000  0.20180000  1.0 0.1189740815
H  H38  1  0.86360000  0.28830000  0.95510000  1.0 0.1189740815
H  H39  1  0.36730000  0.35060000  0.15060000  1.0 0.1295153962
H  H40  1  0.27610000  0.34640000  0.00260000  1.0 0.1409440305
H  H41  1  0.87110000  0.14740000  0.99720000  1.0 0.1295153962
H  H42  1  0.69790000  0.13160000  0.89150000  1.0 0.1189740815
H  H43  1  0.28890000  0.10620000  0.20200000  1.0 0.1409440305
H  H44  1  0.37250000  0.11150000  0.14810000  1.0 0.1295153962
H  H45  1  0.78190000  0.49470000  0.63720000  1.0 0.1295153962
H  H46  1  0.97350000  0.44380000  0.73140000  1.0 0.1409440305
H  H47  1  0.41510000  0.01230000  0.45830000  1.0 0.1295153962
H  H48  1  0.85730000  0.25960000  0.65970000  1.0 0.1409440305
H  H49  1  0.30330000  0.21450000  0.40670000  1.0 0.1295153962
H  H50  1  0.67650000  0.36060000  0.69200000  1.0 0.1295153962
H  H51  1  0.63420000  0.21150000  0.38450000  1.0 0.1295153962
H  H52  1  0.95730000  0.22840000  0.40330000  1.0 0.1409440305
H  H53  1  0.20940000  0.99180000  0.37060000  1.0 0.1465691629
H  H54  1  0.27670000  0.21230000  0.57230000  1.0 0.1295153962
H  H55  1  0.52400000  0.32930000  0.69040000  1.0 0.1295153962
H  H56  1  0.88320000  0.37800000  0.57640000  1.0 0.1295153962
H  H57  1  0.48910000  0.15600000  0.38670000  1.0 0.1409440305
H  H58  1  0.78190000  0.36830000  0.33610000  1.0 0.1189740815
H  H59  1  0.27520000  0.15240000  0.70180000  1.0 0.1189740815
H  H60  1  0.86360000  0.21170000  0.45510000  1.0 0.1189740815
H  H61  1  0.36730000  0.14940000  0.65060000  1.0 0.1295153962
H  H62  1  0.27610000  0.15360000  0.50260000  1.0 0.1409440305
H  H63  1  0.87110000  0.35260000  0.49720000  1.0 0.1295153962
H  H64  1  0.69790000  0.36840000  0.39150000  1.0 0.1189740815
H  H65  1  0.28890000  0.39380000  0.70200000  1.0 0.1409440305
H  H66  1  0.37250000  0.38850000  0.64810000  1.0 0.1295153962
H  H67  1  0.21810000  0.99470000  0.86280000  1.0 0.1295153962
H  H68  1  0.02650000  0.94380000  0.76860000  1.0 0.1409440305
H  H69  1  0.58490000  0.51230000  0.04170000  1.0 0.1295153962
H  H70  1  0.14270000  0.75960000  0.84030000  1.0 0.1409440305
H  H71  1  0.69670000  0.71450000  0.09330000  1.0 0.1295153962
H  H72  1  0.32350000  0.86060000  0.80800000  1.0 0.1295153962
H  H73  1  0.36580000  0.71150000  0.11550000  1.0 0.1295153962
H  H74  1  0.04270000  0.72840000  0.09670000  1.0 0.1409440305
H  H75  1  0.79060000  0.49180000  0.12940000  1.0 0.1465691629
H  H76  1  0.72330000  0.71230000  0.92770000  1.0 0.1295153962
H  H77  1  0.47600000  0.82930000  0.80960000  1.0 0.1295153962
H  H78  1  0.11680000  0.87800000  0.92360000  1.0 0.1295153962
H  H79  1  0.51090000  0.65600000  0.11330000  1.0 0.1409440305
H  H80  1  0.21810000  0.86830000  0.16390000  1.0 0.1189740815
H  H81  1  0.72480000  0.65240000  0.79820000  1.0 0.1189740815
H  H82  1  0.13640000  0.71170000  0.04490000  1.0 0.1189740815
H  H83  1  0.63270000  0.64940000  0.84940000  1.0 0.1295153962
H  H84  1  0.72390000  0.65360000  0.99740000  1.0 0.1409440305
H  H85  1  0.12890000  0.85260000  0.00280000  1.0 0.1295153962
H  H86  1  0.30210000  0.86840000  0.10850000  1.0 0.1189740815
H  H87  1  0.71110000  0.89380000  0.79800000  1.0 0.1409440305
H  H88  1  0.62750000  0.88850000  0.85190000  1.0 0.1295153962
C  C1  1  0.12500000  0.52030000  0.31440000  1.0 -0.0073130834
C  C2  1  0.18440000  0.54410000  0.34620000  1.0 -0.158801017
C  C3  1  0.26180000  0.65620000  0.38800000  1.0 -0.0532439785
C  C4  1  0.11270000  0.43190000  0.30560000  1.0 0.5692925158
C  C5  1  0.06970000  0.57450000  0.29010000  1.0 -0.1216750216
C  C6  1  0.24470000  0.66580000  0.42900000  1.0 0.2128923688
C  C7  1  0.19600000  0.62630000  0.35440000  1.0 0.076647011
C  C8  1  0.59210000  0.76270000  0.42840000  1.0 0.1623350683
C  C9  1  0.63280000  0.87630000  0.56210000  1.0 0.076647011
C  C10  1  0.47950000  0.70500000  0.37570000  1.0 0.1874685141
C  C11  1  0.34280000  0.67170000  0.37440000  1.0 0.2128923688
C  C12  1  0.55920000  0.73380000  0.38820000  1.0 -0.0720352837
C  C13  1  0.36570000  0.75410000  0.54980000  1.0 0.2128923688
C  C14  1  0.62870000  0.96240000  0.56050000  1.0 -0.1428093714
C  C15  1  0.08150000  0.65550000  0.29910000  1.0 0.0040661025
C  C16  1  0.14020000  0.68500000  0.33260000  1.0 -0.1428093714
C  C17  1  0.56930000  0.82600000  0.53290000  1.0 -0.0720352837
C  C18  1  0.59330000  0.80840000  0.49300000  1.0 0.2174717861
C  C19  1  0.25520000  0.69600000  0.49720000  1.0 0.1988362897
C  C20  1  0.69440000  0.84260000  0.59100000  1.0 -0.1696514931
C  C21  1  0.02540000  0.71800000  0.27430000  1.0 0.5824728611
C  C22  1  0.68740000  0.01010000  0.58580000  1.0 -0.0073130834
C  C23  1  0.28630000  0.72050000  0.53760000  1.0 -0.0986577372
C  C24  1  0.49570000  0.80740000  0.54700000  1.0 0.1874685141
C  C25  1  0.67950000  0.10040000  0.58340000  1.0 0.5692925158
C  C26  1  0.72600000  0.72790000  0.29390000  1.0 -0.0287325155
C  C27  1  0.06800000  0.69660000  0.66970000  1.0 0.6051348451
C  C28  1  0.36160000  0.65760000  0.33170000  1.0 -0.158801017
C  C29  1  0.39610000  0.78820000  0.59170000  1.0 -0.1805325557
C  C30  1  0.09680000  0.74590000  0.60030000  1.0 -0.0765300539
C  C31  1  0.74940000  0.97560000  0.61290000  1.0 -0.0986577372
C  C32  1  0.67590000  0.79070000  0.44300000  1.0 -0.1805325557
C  C33  1  0.12080000  0.70350000  0.63390000  1.0 -0.020121175
C  C34  1  0.62200000  0.73260000  0.35570000  1.0 0.0859670176
C  C35  1  0.75320000  0.88770000  0.61690000  1.0 0.0311473798
C  C36  1  0.22690000  0.71530000  0.57020000  1.0 0.076647011
C  C37  1  0.44450000  0.67580000  0.33290000  1.0 -0.1805325557
C  C38  1  0.16460000  0.64320000  0.44140000  1.0 -0.1696514931
C  C39  1  0.47540000  0.81940000  0.59050000  1.0 -0.1428093714
C  C40  1  0.20040000  0.66130000  0.63870000  1.0 -0.0893761438
C  C41  1  0.70400000  0.79880000  0.30860000  1.0 -0.1060833276
C  C42  1  0.15310000  0.75380000  0.56830000  1.0 -0.1428093714
C  C43  1  0.65010000  0.80010000  0.33950000  1.0 -0.1428093714
C  C44  1  0.82360000  0.84980000  0.64790000  1.0 0.5378939513
C  C45  1  0.67700000  0.82090000  0.48090000  1.0 -0.1805325557
C  C46  1  0.17060000  0.65860000  0.48480000  1.0 -0.1805325557
C  C47  1  0.25180000  0.66340000  0.60670000  1.0 -0.1487661597
C  C48  1  0.78180000  0.72660000  0.25970000  1.0 0.5824728611
C  C49  1  0.69640000  0.65660000  0.30920000  1.0 -0.0720352837
C  C50  1  0.64620000  0.66010000  0.34040000  1.0 -0.1428093714
C  C51  1  0.87500000  0.02030000  0.18560000  1.0 -0.0073130834
C  C52  1  0.81560000  0.04410000  0.15380000  1.0 -0.158801017
C  C53  1  0.73820000  0.15620000  0.11200000  1.0 -0.0532439785
C  C54  1  0.88730000  0.93190000  0.19440000  1.0 0.5692925158
C  C55  1  0.93030000  0.07450000  0.20990000  1.0 -0.1216750216
C  C56  1  0.75530000  0.16580000  0.07100000  1.0 0.2128923688
C  C57  1  0.80400000  0.12630000  0.14560000  1.0 0.076647011
C  C58  1  0.40790000  0.26270000  0.07160000  1.0 0.1623350683
C  C59  1  0.36720000  0.37630000  0.93790000  1.0 0.076647011
C  C60  1  0.52050000  0.20500000  0.12430000  1.0 0.1874685141
C  C61  1  0.65720000  0.17170000  0.12560000  1.0 0.2128923688
C  C62  1  0.44080000  0.23380000  0.11180000  1.0 -0.0720352837
C  C63  1  0.63430000  0.25410000  0.95020000  1.0 0.2128923688
C  C64  1  0.37130000  0.46240000  0.93950000  1.0 -0.1428093714
C  C65  1  0.91850000  0.15550000  0.20090000  1.0 0.0040661025
C  C66  1  0.85980000  0.18500000  0.16740000  1.0 -0.1428093714
C  C67  1  0.43070000  0.32600000  0.96710000  1.0 -0.0720352837
C  C68  1  0.40670000  0.30840000  0.00700000  1.0 0.2174717861
C  C69  1  0.74480000  0.19600000  0.00280000  1.0 0.1988362897
C  C70  1  0.30560000  0.34260000  0.90900000  1.0 -0.1696514931
C  C71  1  0.97460000  0.21800000  0.22570000  1.0 0.5824728611
C  C72  1  0.31260000  0.51010000  0.91420000  1.0 -0.0073130834
C  C73  1  0.71370000  0.22050000  0.96240000  1.0 -0.0986577372
C  C74  1  0.50430000  0.30740000  0.95300000  1.0 0.1874685141
C  C75  1  0.32050000  0.60040000  0.91660000  1.0 0.5692925158
C  C76  1  0.27400000  0.22790000  0.20610000  1.0 -0.0287325155
C  C77  1  0.93200000  0.19660000  0.83030000  1.0 0.6051348451
C  C78  1  0.63840000  0.15760000  0.16830000  1.0 -0.158801017
C  C79  1  0.60390000  0.28820000  0.90830000  1.0 -0.1805325557
C  C80  1  0.90320000  0.24590000  0.89970000  1.0 -0.0765300539
C  C81  1  0.25060000  0.47560000  0.88710000  1.0 -0.0986577372
C  C82  1  0.32410000  0.29070000  0.05700000  1.0 -0.1805325557
C  C83  1  0.87920000  0.20350000  0.86610000  1.0 -0.020121175
C  C84  1  0.37800000  0.23260000  0.14430000  1.0 0.0859670176
C  C85  1  0.24680000  0.38770000  0.88310000  1.0 0.0311473798
C  C86  1  0.77310000  0.21530000  0.92980000  1.0 0.076647011
C  C87  1  0.55550000  0.17580000  0.16710000  1.0 -0.1805325557
C  C88  1  0.83540000  0.14320000  0.05860000  1.0 -0.1696514931
C  C89  1  0.52460000  0.31940000  0.90950000  1.0 -0.1428093714
C  C90  1  0.79960000  0.16130000  0.86130000  1.0 -0.0893761438
C  C91  1  0.29600000  0.29880000  0.19140000  1.0 -0.1060833276
C  C92  1  0.84690000  0.25380000  0.93170000  1.0 -0.1428093714
C  C93  1  0.34990000  0.30010000  0.16050000  1.0 -0.1428093714
C  C94  1  0.17640000  0.34980000  0.85210000  1.0 0.5378939513
C  C95  1  0.32300000  0.32090000  0.01910000  1.0 -0.1805325557
C  C96  1  0.82940000  0.15860000  0.01520000  1.0 -0.1805325557
C  C97  1  0.74820000  0.16340000  0.89330000  1.0 -0.1487661597
C  C98  1  0.21820000  0.22660000  0.24030000  1.0 0.5824728611
C  C99  1  0.30360000  0.15660000  0.19080000  1.0 -0.0720352837
C  C100  1  0.35380000  0.16010000  0.15960000  1.0 -0.1428093714
C  C101  1  0.87500000  0.47970000  0.68560000  1.0 -0.0073130834
C  C102  1  0.81560000  0.45590000  0.65380000  1.0 -0.158801017
C  C103  1  0.73820000  0.34380000  0.61200000  1.0 -0.0532439785
C  C104  1  0.88730000  0.56810000  0.69440000  1.0 0.5692925158
C  C105  1  0.93030000  0.42550000  0.70990000  1.0 -0.1216750216
C  C106  1  0.75530000  0.33420000  0.57100000  1.0 0.2128923688
C  C107  1  0.80400000  0.37370000  0.64560000  1.0 0.0746089968
C  C108  1  0.40790000  0.23730000  0.57160000  1.0 0.1623350683
C  C109  1  0.36720000  0.12370000  0.43790000  1.0 0.076647011
C  C110  1  0.52050000  0.29500000  0.62430000  1.0 0.1874685141
C  C111  1  0.65720000  0.32830000  0.62560000  1.0 0.2128923688
C  C112  1  0.44080000  0.26620000  0.61180000  1.0 -0.0720352837
C  C113  1  0.63430000  0.24590000  0.45020000  1.0 0.2128923688
C  C114  1  0.37130000  0.03760000  0.43950000  1.0 -0.1428093714
C  C115  1  0.91850000  0.34450000  0.70090000  1.0 0.0040661025
C  C116  1  0.85980000  0.31500000  0.66740000  1.0 -0.1428093714
C  C117  1  0.43070000  0.17400000  0.46710000  1.0 -0.0720352837
C  C118  1  0.40670000  0.19160000  0.50700000  1.0 0.2174717861
C  C119  1  0.74480000  0.30400000  0.50280000  1.0 0.1988362897
C  C120  1  0.30560000  0.15740000  0.40900000  1.0 -0.1696514931
C  C121  1  0.97460000  0.28200000  0.72570000  1.0 0.5824728611
C  C122  1  0.31260000  0.98990000  0.41420000  1.0 -0.0073130834
C  C123  1  0.71370000  0.27950000  0.46240000  1.0 -0.0986577372
C  C124  1  0.50430000  0.19260000  0.45300000  1.0 0.1874685141
C  C125  1  0.32050000  0.89960000  0.41660000  1.0 0.5692925158
C  C126  1  0.27400000  0.27210000  0.70610000  1.0 -0.0287325155
C  C127  1  0.93200000  0.30340000  0.33030000  1.0 0.6051348451
C  C128  1  0.63840000  0.34240000  0.66830000  1.0 -0.158801017
C  C129  1  0.60390000  0.21180000  0.40830000  1.0 -0.1805325557
C  C130  1  0.90320000  0.25410000  0.39970000  1.0 -0.0765300539
C  C131  1  0.25060000  0.02440000  0.38710000  1.0 -0.0986577372
C  C132  1  0.32410000  0.20930000  0.55700000  1.0 -0.1805325557
C  C133  1  0.87920000  0.29650000  0.36610000  1.0 -0.020121175
C  C134  1  0.37800000  0.26740000  0.64430000  1.0 0.0859670176
C  C135  1  0.24680000  0.11230000  0.38310000  1.0 0.0311473798
C  C136  1  0.77310000  0.28470000  0.42980000  1.0 0.076647011
C  C137  1  0.55550000  0.32420000  0.66710000  1.0 -0.1805325557
C  C138  1  0.83540000  0.35680000  0.55860000  1.0 -0.1696514931
C  C139  1  0.52460000  0.18060000  0.40950000  1.0 -0.1428093714
C  C140  1  0.79960000  0.33870000  0.36130000  1.0 -0.0893761438
C  C141  1  0.29600000  0.20120000  0.69140000  1.0 -0.1060833276
C  C142  1  0.84690000  0.24620000  0.43170000  1.0 -0.1428093714
C  C143  1  0.34990000  0.19990000  0.66050000  1.0 -0.1428093714
C  C144  1  0.17640000  0.15020000  0.35210000  1.0 0.5378939513
C  C145  1  0.32300000  0.17910000  0.51910000  1.0 -0.1805325557
C  C146  1  0.82940000  0.34140000  0.51520000  1.0 -0.1805325557
C  C147  1  0.74820000  0.33660000  0.39330000  1.0 -0.1487661597
C  C148  1  0.21820000  0.27340000  0.74030000  1.0 0.5824728611
C  C149  1  0.30360000  0.34340000  0.69080000  1.0 -0.0720352837
C  C150  1  0.35380000  0.33990000  0.65960000  1.0 -0.1428093714
C  C151  1  0.12500000  0.97970000  0.81440000  1.0 -0.0073130834
C  C152  1  0.18440000  0.95590000  0.84620000  1.0 -0.158801017
C  C153  1  0.26180000  0.84380000  0.88800000  1.0 -0.0532439785
C  C154  1  0.11270000  0.06810000  0.80560000  1.0 0.5692925158
C  C155  1  0.06970000  0.92550000  0.79010000  1.0 -0.1216750216
C  C156  1  0.24470000  0.83420000  0.92900000  1.0 0.2128923688
C  C157  1  0.19600000  0.87370000  0.85440000  1.0 0.076647011
C  C158  1  0.59210000  0.73730000  0.92840000  1.0 0.1623350683
C  C159  1  0.63280000  0.62370000  0.06210000  1.0 0.076647011
C  C160  1  0.47950000  0.79500000  0.87570000  1.0 0.1874685141
C  C161  1  0.34280000  0.82830000  0.87440000  1.0 0.2128923688
C  C162  1  0.55920000  0.76620000  0.88820000  1.0 -0.0720352837
C  C163  1  0.36570000  0.74590000  0.04980000  1.0 0.2128923688
C  C164  1  0.62870000  0.53760000  0.06050000  1.0 -0.1428093714
C  C165  1  0.08150000  0.84450000  0.79910000  1.0 0.0040661025
C  C166  1  0.14020000  0.81500000  0.83260000  1.0 -0.1428093714
C  C167  1  0.56930000  0.67400000  0.03290000  1.0 -0.0720352837
C  C168  1  0.59330000  0.69160000  0.99300000  1.0 0.2174717861
C  C169  1  0.25520000  0.80400000  0.99720000  1.0 0.1988362897
C  C170  1  0.69440000  0.65740000  0.09100000  1.0 -0.1696514931
C  C171  1  0.02540000  0.78200000  0.77430000  1.0 0.5824728611
C  C172  1  0.68740000  0.48990000  0.08580000  1.0 -0.0073130834
C  C173  1  0.28630000  0.77950000  0.03760000  1.0 -0.0986577372
C  C174  1  0.49570000  0.69260000  0.04700000  1.0 0.1874685141
C  C175  1  0.67950000  0.39960000  0.08340000  1.0 0.5692925158
C  C176  1  0.72600000  0.77210000  0.79390000  1.0 -0.0287325155
C  C177  1  0.06800000  0.80340000  0.16970000  1.0 0.6051348451
C  C178  1  0.36160000  0.84240000  0.83170000  1.0 -0.158801017
C  C179  1  0.39610000  0.71180000  0.09170000  1.0 -0.1805325557
C  C180  1  0.09680000  0.75410000  0.10030000  1.0 -0.0765300539
C  C181  1  0.74940000  0.52440000  0.11290000  1.0 -0.0986577372
C  C182  1  0.67590000  0.70930000  0.94300000  1.0 -0.1805325557
C  C183  1  0.12080000  0.79650000  0.13390000  1.0 -0.020121175
C  C184  1  0.62200000  0.76740000  0.85570000  1.0 0.0859670176
C  C185  1  0.75320000  0.61230000  0.11690000  1.0 0.0311473798
C  C186  1  0.22690000  0.78470000  0.07020000  1.0 0.076647011
C  C187  1  0.44450000  0.82420000  0.83290000  1.0 -0.1805325557
C  C188  1  0.16460000  0.85680000  0.94140000  1.0 -0.1696514931
C  C189  1  0.47540000  0.68060000  0.09050000  1.0 -0.1428093714
C  C190  1  0.20040000  0.83870000  0.13870000  1.0 -0.0893761438
C  C191  1  0.70400000  0.70120000  0.80860000  1.0 -0.1060833276
C  C192  1  0.15310000  0.74620000  0.06830000  1.0 -0.1428093714
C  C193  1  0.65010000  0.69990000  0.83950000  1.0 -0.1428093714
C  C194  1  0.82360000  0.65020000  0.14790000  1.0 0.5378939513
C  C195  1  0.67700000  0.67910000  0.98090000  1.0 -0.1805325557
C  C196  1  0.17060000  0.84140000  0.98480000  1.0 -0.1805325557
C  C197  1  0.25180000  0.83660000  0.10670000  1.0 -0.1487661597
C  C198  1  0.78180000  0.77340000  0.75970000  1.0 0.5824728611
C  C199  1  0.69640000  0.84340000  0.80920000  1.0 -0.0720352837
C  C200  1  0.64620000  0.83990000  0.84040000  1.0 -0.1428093714
N  N1  1  0.42590000  0.76730000  0.52320000  1.0 -0.3393486027
N  N2  1  0.54240000  0.77400000  0.46130000  1.0 -0.3479199593
N  N3  1  0.29730000  0.69800000  0.46180000  1.0 -0.3393486027
N  N4  1  0.41280000  0.70130000  0.40000000  1.0 -0.3479199593
N  N5  1  0.57410000  0.26730000  0.97680000  1.0 -0.3393486027
N  N6  1  0.45760000  0.27400000  0.03870000  1.0 -0.3479199593
N  N7  1  0.70270000  0.19800000  0.03820000  1.0 -0.3393486027
N  N8  1  0.58720000  0.20130000  0.10000000  1.0 -0.3479199593
N  N9  1  0.57410000  0.23270000  0.47680000  1.0 -0.3393486027
N  N10  1  0.45760000  0.22600000  0.53870000  1.0 -0.3479199593
N  N11  1  0.70270000  0.30200000  0.53820000  1.0 -0.3393486027
N  N12  1  0.58720000  0.29870000  0.60000000  1.0 -0.3479199593
N  N13  1  0.42590000  0.73270000  0.02320000  1.0 -0.3393486027
N  N14  1  0.54240000  0.72600000  0.96130000  1.0 -0.3479199593
N  N15  1  0.29730000  0.80200000  0.96180000  1.0 -0.3393486027
N  N16  1  0.41280000  0.79870000  0.90000000  1.0 -0.3479199593
O  O1  1  0.06070000  0.40560000  0.27530000  1.0 -0.6327399012
O  O2  1  0.15900000  0.38290000  0.32840000  1.0 -0.4881544706
O  O3  1  0.99150000  0.71900000  0.65850000  1.0 -0.5413303849
O  O4  1  0.98340000  0.68990000  0.24010000  1.0 -0.5204497573
O  O5  1  0.62340000  0.12520000  0.55540000  1.0 -0.5413303849
O  O6  1  0.82040000  0.78480000  0.24940000  1.0 -0.5495134191
O  O7  1  0.81350000  0.77850000  0.65590000  1.0 -0.498502582
O  O8  1  0.73190000  0.14440000  0.60760000  1.0 -0.5413303849
O  O9  1  0.01660000  0.78570000  0.28820000  1.0 -0.601167455
O  O10  1  0.10080000  0.67540000  0.70520000  1.0 -0.601167455
O  O11  1  0.88710000  0.89100000  0.66350000  1.0 -0.4380423721
O  O12  1  0.79030000  0.65710000  0.24070000  1.0 -0.5051322278
O  O13  1  0.03970000  0.54400000  0.82260000  1.0 -0.7540386912
O  O14  1  0.93930000  0.90560000  0.22470000  1.0 -0.6327399012
O  O15  1  0.84100000  0.88290000  0.17160000  1.0 -0.4881544706
O  O16  1  0.00850000  0.21900000  0.84150000  1.0 -0.5413303849
O  O17  1  0.01660000  0.18990000  0.25990000  1.0 -0.5204497573
O  O18  1  0.37660000  0.62520000  0.94460000  1.0 -0.5413303849
O  O19  1  0.17960000  0.28480000  0.25060000  1.0 -0.5495134191
O  O20  1  0.18650000  0.27850000  0.84410000  1.0 -0.498502582
O  O21  1  0.26810000  0.64440000  0.89240000  1.0 -0.5413303849
O  O22  1  0.98340000  0.28570000  0.21180000  1.0 -0.601167455
O  O23  1  0.89920000  0.17540000  0.79480000  1.0 -0.601167455
O  O24  1  0.11290000  0.39100000  0.83650000  1.0 -0.4380423721
O  O25  1  0.20970000  0.15710000  0.25930000  1.0 -0.5051322278
O  O26  1  0.96030000  0.04400000  0.67740000  1.0 -0.7540386912
O  O27  1  0.93930000  0.59440000  0.72470000  1.0 -0.6327399012
O  O28  1  0.84100000  0.61710000  0.67160000  1.0 -0.4881544706
O  O29  1  0.00850000  0.28100000  0.34150000  1.0 -0.5413303849
O  O30  1  0.01660000  0.31010000  0.75990000  1.0 -0.5204497573
O  O31  1  0.37660000  0.87480000  0.44460000  1.0 -0.5495134191
O  O32  1  0.17960000  0.21520000  0.75060000  1.0 -0.5495134191
O  O33  1  0.18650000  0.22150000  0.34410000  1.0 -0.498502582
O  O34  1  0.26810000  0.85560000  0.39240000  1.0 -0.5495134191
O  O35  1  0.98340000  0.21430000  0.71180000  1.0 -0.601167455
O  O36  1  0.89920000  0.32460000  0.29480000  1.0 -0.601167455
O  O37  1  0.11290000  0.10900000  0.33650000  1.0 -0.4380423721
O  O38  1  0.20970000  0.34290000  0.75930000  1.0 -0.5051322278
O  O39  1  0.96030000  0.45600000  0.17740000  1.0 -0.7540386912
O  O40  1  0.06070000  0.09440000  0.77530000  1.0 -0.6327399012
O  O41  1  0.15900000  0.11710000  0.82840000  1.0 -0.4881544706
O  O42  1  0.99150000  0.78100000  0.15850000  1.0 -0.5413303849
O  O43  1  0.98340000  0.81010000  0.74010000  1.0 -0.5204497573
O  O44  1  0.62340000  0.37480000  0.05540000  1.0 -0.5413303849
O  O45  1  0.82040000  0.71520000  0.74940000  1.0 -0.5495134191
O  O46  1  0.81350000  0.72150000  0.15590000  1.0 -0.498502582
O  O47  1  0.73190000  0.35560000  0.10760000  1.0 -0.5413303849
O  O48  1  0.01660000  0.71430000  0.78820000  1.0 -0.601167455
O  O49  1  0.10080000  0.82460000  0.20520000  1.0 -0.601167455
O  O50  1  0.88710000  0.60900000  0.16350000  1.0 -0.4380423721
O  O51  1  0.79030000  0.84290000  0.74070000  1.0 -0.5051322278
O  O52  1  0.03970000  0.95600000  0.32260000  1.0 -0.7540386912
