# DDEC6 charges by PACMAN v1.1 (https://github.com/mtap-research/PACMAN-charge/)
data_TEQLIM_ASR_pacman
_symmetry_space_group_name_H-M   'P 1'
_cell_length_a   16.93030000
_cell_length_b   16.93030000
_cell_length_c   17.23800000
_cell_angle_alpha   88.00210000
_cell_angle_beta   91.99790000
_cell_angle_gamma   100.81600000
_symmetry_Int_Tables_number   1
_chemical_formula_structural   Zn4H42C56N2O19
_chemical_formula_sum   'Zn8 H84 C112 N4 O38'
_cell_volume   4848.26819694
_cell_formula_units_Z   2
loop_
 _symmetry_equiv_pos_site_id
 _symmetry_equiv_pos_as_xyz
  1  'x, y, z'
loop_
 _atom_site_type_symbol
 _atom_site_label
 _atom_site_symmetry_multiplicity
 _atom_site_fract_x
 _atom_site_fract_y
 _atom_site_fract_z
 _atom_site_occupancy
 _atom_site_charge
Zn  Zn1  1  0.57838000  0.42162000  0.17032000  1.0 0.9303682447
Zn  Zn2  1  0.70603000  0.43903000  0.30779000  1.0 0.9429369868
Zn  Zn3  1  0.56097000  0.29397000  0.30779000  1.0 0.9429369868
Zn  Zn4  1  0.70014000  0.29986000  0.18464000  1.0 0.9008672834
Zn  Zn5  1  0.42162000  0.57838000  0.82968000  1.0 0.9303682447
Zn  Zn6  1  0.43903000  0.70603000  0.69221000  1.0 0.9429369868
Zn  Zn7  1  0.29397000  0.56097000  0.69221000  1.0 0.9429369868
Zn  Zn8  1  0.29986000  0.70014000  0.81536000  1.0 0.9008672834
H  H1  1  0.67150000  0.67970000  0.35330000  1.0 0.1413454494
H  H2  1  0.32030000  0.32850000  0.35330000  1.0 0.1413454494
H  H3  1  0.56970000  0.80130000  0.13350000  1.0 0.118905336
H  H4  1  0.19870000  0.43030000  0.13350000  1.0 0.118905336
H  H5  1  0.58890000  0.66830000  0.12970000  1.0 0.1075915854
H  H6  1  0.33170000  0.41110000  0.12970000  1.0 0.1075915854
H  H7  1  0.53690000  0.89590000  0.33990000  1.0 0.118905336
H  H8  1  0.10410000  0.46310000  0.33990000  1.0 0.118905336
H  H9  1  0.52330000  0.03070000  0.34240000  1.0 0.118905336
H  H10  1  0.96930000  0.47670000  0.34240000  1.0 0.118905336
H  H11  1  0.65450000  0.07910000  0.14840000  1.0 0.1075915854
H  H12  1  0.92090000  0.34550000  0.14840000  1.0 0.1075915854
H  H13  1  0.66810000  0.94430000  0.14590000  1.0 0.118905336
H  H14  1  0.05570000  0.33190000  0.14590000  1.0 0.118905336
H  H15  1  0.73490000  0.32250000  0.94630000  1.0 0.0999924201
H  H16  1  0.67750000  0.26510000  0.94630000  1.0 0.0999924201
H  H17  1  0.53540000  0.39560000  0.79320000  1.0 0.118905336
H  H18  1  0.60440000  0.46460000  0.79320000  1.0 0.118905336
H  H19  1  0.52820000  0.40040000  0.92260000  1.0 0.1313798094
H  H20  1  0.59960000  0.47180000  0.92260000  1.0 0.1313798094
H  H21  1  0.54850000  0.27070000  0.68640000  1.0 0.1313798094
H  H22  1  0.72930000  0.45150000  0.68640000  1.0 0.1313798094
H  H23  1  0.54710000  0.26570000  0.55170000  1.0 0.1313798094
H  H24  1  0.73430000  0.45290000  0.55170000  1.0 0.1313798094
H  H25  1  0.86740000  0.38600000  0.85660000  1.0 0.1075915854
H  H26  1  0.61400000  0.13260000  0.85660000  1.0 0.1075915854
H  H27  1  0.83810000  0.29270000  0.88030000  1.0 0.0898828209
H  H28  1  0.70730000  0.16190000  0.88030000  1.0 0.0898828209
H  H29  1  0.79700000  0.17820000  0.27610000  1.0 0.0898828209
H  H30  1  0.82180000  0.20300000  0.27610000  1.0 0.0898828209
H  H31  1  0.67630000  0.19810000  0.42450000  1.0 0.1313798094
H  H32  1  0.80190000  0.32370000  0.42450000  1.0 0.1313798094
H  H33  1  0.65470000  0.10450000  0.44810000  1.0 0.1467305869
H  H34  1  0.89550000  0.34530000  0.44810000  1.0 0.1467305869
H  H35  1  0.73250000  0.15990000  0.48610000  1.0 0.1413454494
H  H36  1  0.84010000  0.26750000  0.48610000  1.0 0.1413454494
H  H37  1  0.80910000  0.05950000  0.31760000  1.0 0.118905336
H  H38  1  0.94050000  0.19090000  0.31760000  1.0 0.118905336
H  H39  1  0.82620000  0.05760000  0.40950000  1.0 0.1413454494
H  H40  1  0.94240000  0.17380000  0.40950000  1.0 0.1413454494
H  H41  1  0.74310000  0.00970000  0.37380000  1.0 0.1587319486
H  H42  1  0.99030000  0.25690000  0.37380000  1.0 0.1587319486
H  H43  1  0.67970000  0.67150000  0.64670000  1.0 0.1413454494
H  H44  1  0.32850000  0.32030000  0.64670000  1.0 0.1413454494
H  H45  1  0.80130000  0.56970000  0.86650000  1.0 0.118905336
H  H46  1  0.43030000  0.19870000  0.86650000  1.0 0.118905336
H  H47  1  0.66830000  0.58890000  0.87030000  1.0 0.1075915854
H  H48  1  0.41110000  0.33170000  0.87030000  1.0 0.1075915854
H  H49  1  0.89590000  0.53690000  0.66010000  1.0 0.118905336
H  H50  1  0.46310000  0.10410000  0.66010000  1.0 0.118905336
H  H51  1  0.03070000  0.52330000  0.65760000  1.0 0.118905336
H  H52  1  0.47670000  0.96930000  0.65760000  1.0 0.118905336
H  H53  1  0.07910000  0.65450000  0.85160000  1.0 0.1075915854
H  H54  1  0.34550000  0.92090000  0.85160000  1.0 0.1075915854
H  H55  1  0.94430000  0.66810000  0.85410000  1.0 0.118905336
H  H56  1  0.33190000  0.05570000  0.85410000  1.0 0.118905336
H  H57  1  0.32250000  0.73490000  0.05370000  1.0 0.0999924201
H  H58  1  0.26510000  0.67750000  0.05370000  1.0 0.0999924201
H  H59  1  0.39560000  0.53540000  0.20680000  1.0 0.118905336
H  H60  1  0.46460000  0.60440000  0.20680000  1.0 0.118905336
H  H61  1  0.40040000  0.52820000  0.07740000  1.0 0.1313798094
H  H62  1  0.47180000  0.59960000  0.07740000  1.0 0.1313798094
H  H63  1  0.27070000  0.54850000  0.31360000  1.0 0.1313798094
H  H64  1  0.45150000  0.72930000  0.31360000  1.0 0.1313798094
H  H65  1  0.26570000  0.54710000  0.44830000  1.0 0.1313798094
H  H66  1  0.45290000  0.73430000  0.44830000  1.0 0.1313798094
H  H67  1  0.38600000  0.86740000  0.14340000  1.0 0.1075915854
H  H68  1  0.13260000  0.61400000  0.14340000  1.0 0.1075915854
H  H69  1  0.29270000  0.83810000  0.11970000  1.0 0.0898828209
H  H70  1  0.16190000  0.70730000  0.11970000  1.0 0.0898828209
H  H71  1  0.17820000  0.79700000  0.72390000  1.0 0.0898828209
H  H72  1  0.20300000  0.82180000  0.72390000  1.0 0.0898828209
H  H73  1  0.19810000  0.67630000  0.57550000  1.0 0.1313798094
H  H74  1  0.32370000  0.80190000  0.57550000  1.0 0.1313798094
H  H75  1  0.10450000  0.65470000  0.55190000  1.0 0.1467305869
H  H76  1  0.34530000  0.89550000  0.55190000  1.0 0.1467305869
H  H77  1  0.15990000  0.73250000  0.51390000  1.0 0.1413454494
H  H78  1  0.26750000  0.84010000  0.51390000  1.0 0.1413454494
H  H79  1  0.05950000  0.80910000  0.68240000  1.0 0.118905336
H  H80  1  0.19090000  0.94050000  0.68240000  1.0 0.118905336
H  H81  1  0.05760000  0.82620000  0.59050000  1.0 0.1413454494
H  H82  1  0.17380000  0.94240000  0.59050000  1.0 0.1413454494
H  H83  1  0.00970000  0.74310000  0.62620000  1.0 0.1587319486
H  H84  1  0.25690000  0.99030000  0.62620000  1.0 0.1587319486
C  C1  1  0.63630000  0.57670000  0.24230000  1.0 0.5905153155
C  C2  1  0.42330000  0.36370000  0.24230000  1.0 0.5905153155
C  C3  1  0.63200000  0.66140000  0.24110000  1.0 -0.0562498541
C  C4  1  0.33860000  0.36800000  0.24110000  1.0 -0.0562498541
C  C5  1  0.65080000  0.70440000  0.30870000  1.0 -0.1805980019
C  C6  1  0.29560000  0.34920000  0.30870000  1.0 -0.1805980019
C  C7  1  0.63940000  0.78340000  0.31100000  1.0 0.2449580431
C  C8  1  0.21660000  0.36060000  0.31100000  1.0 0.2451165468
C  C9  1  0.60920000  0.81960000  0.24570000  1.0 -0.0141503009
C  C10  1  0.18040000  0.39080000  0.24570000  1.0 -0.0141503009
C  C11  1  0.59040000  0.77660000  0.17810000  1.0 -0.1595713024
C  C12  1  0.22340000  0.40960000  0.17810000  1.0 -0.1595713024
C  C13  1  0.60180000  0.69760000  0.17580000  1.0 -0.1239736676
C  C14  1  0.30240000  0.39820000  0.17580000  1.0 -0.1239736676
C  C15  1  0.60380000  0.90740000  0.24270000  1.0 0.1075915854
C  C16  1  0.09260000  0.39620000  0.24270000  1.0 0.1075915854
C  C17  1  0.56080000  0.93300000  0.30100000  1.0 -0.1418661922
C  C18  1  0.06700000  0.43920000  0.30100000  1.0 -0.1418661922
C  C19  1  0.55260000  0.01320000  0.30250000  1.0 -0.0791649297
C  C20  1  0.98680000  0.44740000  0.30250000  1.0 -0.0791649297
C  C21  1  0.58760000  0.06760000  0.24560000  1.0 -0.0791649297
C  C22  1  0.93240000  0.41240000  0.24560000  1.0 -0.0791649297
C  C23  1  0.63050000  0.04190000  0.18720000  1.0 -0.095141992
C  C24  1  0.95810000  0.36950000  0.18720000  1.0 -0.095141992
C  C25  1  0.63870000  0.96170000  0.18580000  1.0 -0.1595713024
C  C26  1  0.03830000  0.36130000  0.18580000  1.0 -0.1595713024
C  C27  1  0.58340000  0.15300000  0.24180000  1.0 0.5682605058
C  C28  1  0.84700000  0.41660000  0.24180000  1.0 0.5682605058
C  C29  1  0.63110000  0.36890000  0.03510000  1.0 0.557471633
C  C30  1  0.63270000  0.36730000  0.94680000  1.0 -0.034526281
C  C31  1  0.69670000  0.34290000  0.91360000  1.0 -0.09244439
C  C32  1  0.65710000  0.30330000  0.91360000  1.0 -0.09244439
C  C33  1  0.70780000  0.34740000  0.83130000  1.0 0.0999924201
C  C34  1  0.65260000  0.29220000  0.83130000  1.0 0.0999924201
C  C35  1  0.63850000  0.36150000  0.78960000  1.0 -0.0029130236
C  C36  1  0.57850000  0.38210000  0.82460000  1.0 -0.0447201387
C  C37  1  0.61790000  0.42150000  0.82460000  1.0 -0.0447201387
C  C38  1  0.57380000  0.38520000  0.90080000  1.0 -0.0683933273
C  C39  1  0.61480000  0.42620000  0.90080000  1.0 -0.0683933273
C  C40  1  0.63850000  0.36150000  0.70010000  1.0 0.0646373406
C  C41  1  0.58640000  0.30900000  0.65880000  1.0 -0.149268657
C  C42  1  0.69100000  0.41360000  0.65880000  1.0 -0.149268657
C  C43  1  0.58390000  0.30630000  0.57790000  1.0 -0.0683933273
C  C44  1  0.69370000  0.41610000  0.57790000  1.0 -0.0683933273
C  C45  1  0.63610000  0.36390000  0.53690000  1.0 -0.0493762325
C  C46  1  0.63410000  0.36590000  0.45160000  1.0 0.5827196241
C  C47  1  0.84640000  0.33200000  0.83610000  1.0 -0.0683933273
C  C48  1  0.66800000  0.15360000  0.83610000  1.0 -0.0683933273
C  C49  1  0.91600000  0.30600000  0.77100000  1.0 -0.0240859552
C  C50  1  0.69400000  0.08400000  0.77100000  1.0 -0.0240859552
C  C51  1  0.75800000  0.18560000  0.31200000  1.0 0.1313798094
C  C52  1  0.81440000  0.24200000  0.31200000  1.0 0.1413454494
C  C53  1  0.69870000  0.15010000  0.43900000  1.0 -0.3655235171
C  C54  1  0.84990000  0.30130000  0.43900000  1.0 -0.3655235171
C  C55  1  0.78430000  0.05770000  0.36900000  1.0 -0.3655235171
C  C56  1  0.94230000  0.21570000  0.36900000  1.0 -0.3655235171
C  C57  1  0.57670000  0.63630000  0.75770000  1.0 0.5905153155
C  C58  1  0.36370000  0.42330000  0.75770000  1.0 0.5905153155
C  C59  1  0.66140000  0.63200000  0.75890000  1.0 -0.0562498541
C  C60  1  0.36800000  0.33860000  0.75890000  1.0 -0.0562498541
C  C61  1  0.70440000  0.65080000  0.69130000  1.0 -0.1805980019
C  C62  1  0.34920000  0.29560000  0.69130000  1.0 -0.1805980019
C  C63  1  0.78340000  0.63940000  0.68900000  1.0 0.2449580431
C  C64  1  0.36060000  0.21660000  0.68900000  1.0 0.2449580431
C  C65  1  0.81960000  0.60920000  0.75430000  1.0 -0.0141503009
C  C66  1  0.39080000  0.18040000  0.75430000  1.0 -0.0141503009
C  C67  1  0.77660000  0.59040000  0.82190000  1.0 -0.1595713024
C  C68  1  0.40960000  0.22340000  0.82190000  1.0 -0.1595713024
C  C69  1  0.69760000  0.60180000  0.82420000  1.0 -0.1239736676
C  C70  1  0.39820000  0.30240000  0.82420000  1.0 -0.1239736676
C  C71  1  0.90740000  0.60380000  0.75730000  1.0 0.0999924201
C  C72  1  0.39620000  0.09260000  0.75730000  1.0 0.1075915854
C  C73  1  0.93300000  0.56080000  0.69900000  1.0 -0.1418661922
C  C74  1  0.43920000  0.06700000  0.69900000  1.0 -0.1418661922
C  C75  1  0.01320000  0.55260000  0.69750000  1.0 -0.0791649297
C  C76  1  0.44740000  0.98680000  0.69750000  1.0 -0.0791649297
C  C77  1  0.06760000  0.58760000  0.75440000  1.0 -0.0791649297
C  C78  1  0.41240000  0.93240000  0.75440000  1.0 -0.0791649297
C  C79  1  0.04190000  0.63050000  0.81280000  1.0 -0.095141992
C  C80  1  0.36950000  0.95810000  0.81280000  1.0 -0.095141992
C  C81  1  0.96170000  0.63870000  0.81420000  1.0 -0.1595713024
C  C82  1  0.36130000  0.03830000  0.81420000  1.0 -0.1595713024
C  C83  1  0.15300000  0.58340000  0.75820000  1.0 0.5682605058
C  C84  1  0.41660000  0.84700000  0.75820000  1.0 0.5682605058
C  C85  1  0.36890000  0.63110000  0.96490000  1.0 0.557471633
C  C86  1  0.36730000  0.63270000  0.05320000  1.0 -0.034526281
C  C87  1  0.34290000  0.69670000  0.08640000  1.0 -0.09244439
C  C88  1  0.30330000  0.65710000  0.08640000  1.0 -0.09244439
C  C89  1  0.34740000  0.70780000  0.16870000  1.0 0.0999924201
C  C90  1  0.29220000  0.65260000  0.16870000  1.0 0.0999924201
C  C91  1  0.36150000  0.63850000  0.21040000  1.0 -0.0029130236
C  C92  1  0.38210000  0.57850000  0.17540000  1.0 -0.0447201387
C  C93  1  0.42150000  0.61790000  0.17540000  1.0 -0.0447201387
C  C94  1  0.38520000  0.57380000  0.09920000  1.0 -0.0683933273
C  C95  1  0.42620000  0.61480000  0.09920000  1.0 -0.0683933273
C  C96  1  0.36150000  0.63850000  0.29990000  1.0 0.0646373406
C  C97  1  0.30900000  0.58640000  0.34120000  1.0 -0.149268657
C  C98  1  0.41360000  0.69100000  0.34120000  1.0 -0.149268657
C  C99  1  0.30630000  0.58390000  0.42210000  1.0 -0.0683933273
C  C100  1  0.41610000  0.69370000  0.42210000  1.0 -0.0683933273
C  C101  1  0.36390000  0.63610000  0.46310000  1.0 -0.0493762325
C  C102  1  0.36590000  0.63410000  0.54840000  1.0 0.5827196241
C  C103  1  0.33200000  0.84640000  0.16390000  1.0 -0.0791649297
C  C104  1  0.15360000  0.66800000  0.16390000  1.0 -0.0791649297
C  C105  1  0.30600000  0.91600000  0.22900000  1.0 -0.0240859552
C  C106  1  0.08400000  0.69400000  0.22900000  1.0 -0.0240859552
C  C107  1  0.18560000  0.75800000  0.68800000  1.0 0.1313798094
C  C108  1  0.24200000  0.81440000  0.68800000  1.0 0.1313798094
C  C109  1  0.15010000  0.69870000  0.56100000  1.0 -0.3655235171
C  C110  1  0.30130000  0.84990000  0.56100000  1.0 -0.3655235171
C  C111  1  0.05770000  0.78430000  0.63100000  1.0 -0.3655235171
C  C112  1  0.21570000  0.94230000  0.63100000  1.0 -0.3655235171
N  N1  1  0.74740000  0.13180000  0.37550000  1.0 -0.0447201387
N  N2  1  0.86820000  0.25260000  0.37550000  1.0 -0.0447201387
N  N3  1  0.13180000  0.74740000  0.62450000  1.0 -0.0493762325
N  N4  1  0.25260000  0.86820000  0.62450000  1.0 -0.0493762325
O  O1  1  0.63640000  0.36360000  0.24300000  1.0 -0.988171041
O  O2  1  0.58880000  0.41120000  0.06190000  1.0 -0.4516347646
O  O3  1  0.67160000  0.32840000  0.07150000  1.0 -0.4516347646
O  O4  1  0.58290000  0.31470000  0.41910000  1.0 -0.5151111483
O  O5  1  0.68530000  0.41710000  0.41910000  1.0 -0.5151111483
O  O6  1  0.67840000  0.54740000  0.29440000  1.0 -0.5303421393
O  O7  1  0.45260000  0.32160000  0.29440000  1.0 -0.5303421393
O  O8  1  0.60410000  0.53490000  0.18450000  1.0 -0.5615367293
O  O9  1  0.46510000  0.39590000  0.18450000  1.0 -0.5615367293
O  O10  1  0.55170000  0.18250000  0.30250000  1.0 -0.5664377957
O  O11  1  0.81750000  0.44830000  0.30250000  1.0 -0.5664377957
O  O12  1  0.61480000  0.20220000  0.18750000  1.0 -0.5840809792
O  O13  1  0.79780000  0.38520000  0.18750000  1.0 -0.5840809792
O  O14  1  0.72290000  0.24090000  0.29820000  1.0 0.0499019753
O  O15  1  0.75910000  0.27710000  0.29820000  1.0 0.0499019753
O  O16  1  0.76840000  0.33200000  0.79190000  1.0 -0.1595713024
O  O17  1  0.66800000  0.23160000  0.79190000  1.0 -0.1595713024
O  O18  1  0.64630000  0.81990000  0.38540000  1.0 -0.5303421393
O  O19  1  0.18010000  0.35370000  0.38540000  1.0 -0.5303421393
O  O20  1  0.36360000  0.63640000  0.75700000  1.0 -0.988171041
O  O21  1  0.41120000  0.58880000  0.93810000  1.0 -0.4516347646
O  O22  1  0.32840000  0.67160000  0.92850000  1.0 -0.4516347646
O  O23  1  0.31470000  0.58290000  0.58090000  1.0 -0.5151111483
O  O24  1  0.41710000  0.68530000  0.58090000  1.0 -0.5151111483
O  O25  1  0.54740000  0.67840000  0.70560000  1.0 -0.5303421393
O  O26  1  0.32160000  0.45260000  0.70560000  1.0 -0.5303421393
O  O27  1  0.53490000  0.60410000  0.81550000  1.0 -0.5615367293
O  O28  1  0.39590000  0.46510000  0.81550000  1.0 -0.5615367293
O  O29  1  0.18250000  0.55170000  0.69750000  1.0 -0.5664377957
O  O30  1  0.44830000  0.81750000  0.69750000  1.0 -0.5664377957
O  O31  1  0.20220000  0.61480000  0.81250000  1.0 -0.5840809792
O  O32  1  0.38520000  0.79780000  0.81250000  1.0 -0.5840809792
O  O33  1  0.24090000  0.72290000  0.70180000  1.0 0.0499019753
O  O34  1  0.27710000  0.75910000  0.70180000  1.0 0.0499019753
O  O35  1  0.33200000  0.76840000  0.20810000  1.0 -0.1595713024
O  O36  1  0.23160000  0.66800000  0.20810000  1.0 -0.1595713024
O  O37  1  0.81990000  0.64630000  0.61460000  1.0 -0.5303421393
O  O38  1  0.35370000  0.18010000  0.61460000  1.0 -0.5303421393
