# DDEC6 charges by PACMAN v1.1 (https://github.com/mtap-research/PACMAN-charge/)
data_TEQVOC_ASR_pacman
_symmetry_space_group_name_H-M   'P 1'
_cell_length_a   18.06650000
_cell_length_b   18.06650000
_cell_length_c   6.86270000
_cell_angle_alpha   81.87550000
_cell_angle_beta   98.12450000
_cell_angle_gamma   60.26930000
_symmetry_Int_Tables_number   1
_chemical_formula_structural   Ba2Zn4H68C63O22
_chemical_formula_sum   'Ba2 Zn4 H68 C63 O22'
_cell_volume   1866.45699613
_cell_formula_units_Z   1
loop_
 _symmetry_equiv_pos_site_id
 _symmetry_equiv_pos_as_xyz
  1  'x, y, z'
loop_
 _atom_site_type_symbol
 _atom_site_label
 _atom_site_symmetry_multiplicity
 _atom_site_fract_x
 _atom_site_fract_y
 _atom_site_fract_z
 _atom_site_occupancy
 _atom_site_charge
Ba  Ba1  1  0.01718000  0.39126000  0.81692000  1.0 1.5025805231
Ba  Ba2  1  0.60874000  0.98282000  0.81692000  1.0 1.5025805231
Zn  Zn1  1  0.88892000  0.37274000  0.17765000  1.0 0.9343026872
Zn  Zn2  1  0.62726000  0.11108000  0.17765000  1.0 0.9343026872
Zn  Zn3  1  0.92013000  0.54775000  0.17991000  1.0 0.9741437431
Zn  Zn4  1  0.45225000  0.07987000  0.17991000  1.0 0.9741437431
H  H1  1  0.74380000  0.25620000  0.93890000  1.0 0.1387490347
H  H2  1  0.94030000  0.18730000  0.65840000  1.0 0.1218975559
H  H3  1  0.81270000  0.05970000  0.65840000  1.0 0.1218975559
H  H4  1  0.85570000  0.03650000  0.36080000  1.0 0.1132572835
H  H5  1  0.96350000  0.14430000  0.36080000  1.0 0.1132572835
H  H6  1  0.85930000  0.10550000  0.23340000  1.0 0.0851912047
H  H7  1  0.89450000  0.14070000  0.23340000  1.0 0.0851912047
H  H8  1  0.92580000  0.00400000  0.27370000  1.0 0.0688494244
H  H9  1  0.99600000  0.07420000  0.27370000  1.0 0.0688494244
H  H10  1  0.23670000  0.28430000  0.32610000  1.0 0.1218975559
H  H11  1  0.71570000  0.76330000  0.32610000  1.0 0.1218975559
H  H12  1  0.41780000  0.28600000  0.73080000  1.0 0.1387490347
H  H13  1  0.71400000  0.58220000  0.73080000  1.0 0.1387490347
H  H14  1  0.39650000  0.30830000  0.07950000  1.0 0.1466261442
H  H15  1  0.69170000  0.60350000  0.07950000  1.0 0.1466261442
H  H16  1  0.40130000  0.38530000  0.14800000  1.0 0.1293525849
H  H17  1  0.61470000  0.59870000  0.14800000  1.0 0.1293525849
H  H18  1  0.45080000  0.34340000  0.98570000  1.0 0.1293525849
H  H19  1  0.65660000  0.54920000  0.98570000  1.0 0.1293525849
H  H20  1  0.37250000  0.46310000  0.66620000  1.0 0.1218975559
H  H21  1  0.53690000  0.62750000  0.66620000  1.0 0.1218975559
H  H22  1  0.37050000  0.50250000  0.85620000  1.0 0.1293525849
H  H23  1  0.49750000  0.62950000  0.85620000  1.0 0.1218975559
H  H24  1  0.28400000  0.54200000  0.68570000  1.0 0.1218975559
H  H25  1  0.45800000  0.71600000  0.68570000  1.0 0.1218975559
H  H26  1  0.19280000  0.52160000  0.86490000  1.0 0.1293525849
H  H27  1  0.47840000  0.80720000  0.86490000  1.0 0.1293525849
H  H28  1  0.26170000  0.50130000  0.06290000  1.0 0.1387490347
H  H29  1  0.49870000  0.73830000  0.06290000  1.0 0.1387490347
H  H30  1  0.22970000  0.43610000  0.03650000  1.0 0.1387490347
H  H31  1  0.56390000  0.77030000  0.03650000  1.0 0.1387490347
H  H32  1  0.16250000  0.46710000  0.64920000  1.0 0.1218975559
H  H33  1  0.53290000  0.83750000  0.64920000  1.0 0.1218975559
H  H34  1  0.20610000  0.19490000  0.68910000  1.0 0.1218975559
H  H35  1  0.80510000  0.79390000  0.68910000  1.0 0.1218975559
H  H36  1  0.36790000  0.96670000  0.56160000  1.0 0.1218975559
H  H37  1  0.03330000  0.63210000  0.56160000  1.0 0.1218975559
H  H38  1  0.11940000  0.12240000  0.22860000  1.0 0.1293525849
H  H39  1  0.87760000  0.88060000  0.22860000  1.0 0.1293525849
H  H40  1  0.36840000  0.95400000  0.17840000  1.0 0.1387490347
H  H41  1  0.04600000  0.63160000  0.17840000  1.0 0.1387490347
H  H42  1  0.35450000  0.87890000  0.13010000  1.0 0.1387490347
H  H43  1  0.12110000  0.64550000  0.13010000  1.0 0.1387490347
H  H44  1  0.39380000  0.87360000  0.35400000  1.0 0.1293525849
H  H45  1  0.12640000  0.60620000  0.35400000  1.0 0.1293525849
H  H46  1  0.29550000  0.86050000  0.50460000  1.0 0.1293525849
H  H47  1  0.13950000  0.70450000  0.50460000  1.0 0.1293525849
H  H48  1  0.24350000  0.85670000  0.30710000  1.0 0.1387490347
H  H49  1  0.14330000  0.75650000  0.30710000  1.0 0.1387490347
H  H50  1  0.19340000  0.92520000  0.42970000  1.0 0.1293525849
H  H51  1  0.07480000  0.80660000  0.42970000  1.0 0.1293525849
H  H52  1  0.13820000  0.02220000  0.06740000  1.0 0.1293525849
H  H53  1  0.97780000  0.86180000  0.06740000  1.0 0.1293525849
H  H54  1  0.21160000  0.95200000  0.98310000  1.0 0.1293525849
H  H55  1  0.04800000  0.78840000  0.98310000  1.0 0.1293525849
H  H56  1  0.20180000  0.04360000  0.97470000  1.0 0.1387490347
H  H57  1  0.95640000  0.79820000  0.97470000  1.0 0.1387490347
H  H58  1  0.03210000  0.96790000  0.79100000  1.0 0.1132572835
H  H59  1  0.05260000  0.92660000  0.60300000  1.0 0.0688494244
H  H60  1  0.07340000  0.94740000  0.60300000  1.0 0.0688494244
H  H61  1  0.97210000  0.93510000  0.68210000  1.0 0.0793334961
H  H62  1  0.06490000  0.02790000  0.68210000  1.0 0.0793334961
H  H63  1  0.03130000  0.04810000  0.35200000  1.0 0.0688494244
H  H64  1  0.95190000  0.96870000  0.35200000  1.0 0.0688494244
H  H65  1  0.04310000  0.08050000  0.54780000  1.0 0.0793334961
H  H66  1  0.91950000  0.95690000  0.54780000  1.0 0.0793334961
H  H67  1  0.84600000  0.03900000  0.37460000  1.0 0.1218975559
H  H68  1  0.96100000  0.15400000  0.37460000  1.0 0.1218975559
C  C1  1  0.86218000  0.29858000  0.87920000  1.0 0.5706945654
C  C2  1  0.70142000  0.13782000  0.87920000  1.0 0.5706945654
C  C3  1  0.84375000  0.23315000  0.80580000  1.0 0.0075157961
C  C4  1  0.76685000  0.15625000  0.80580000  1.0 0.0075157961
C  C5  1  0.77890000  0.22110000  0.86290000  1.0 -0.120164739
C  C6  1  0.89669000  0.17929000  0.69510000  1.0 -0.2209838261
C  C7  1  0.82071000  0.10331000  0.69510000  1.0 -0.2209838261
C  C8  1  0.88620000  0.11380000  0.63790000  1.0 -0.0116484497
C  C9  1  0.94680000  0.05320000  0.52190000  1.0 0.2040290083
C  C10  1  0.00590000  0.96190000  0.66200000  1.0 -0.1730864574
C  C11  1  0.03810000  0.99410000  0.66200000  1.0 -0.1730864574
C  C12  1  0.88880000  0.05020000  0.33200000  1.0 -0.2078633015
C  C13  1  0.94980000  0.11120000  0.33200000  1.0 -0.2078633015
C  C14  1  0.09351000  0.42391000  0.33930000  1.0 0.5813808139
C  C15  1  0.57609000  0.90649000  0.33930000  1.0 0.5813808139
C  C16  1  0.18423000  0.38323000  0.46530000  1.0 -0.0416495581
C  C17  1  0.61677000  0.81577000  0.46530000  1.0 -0.0416495581
C  C18  1  0.25078000  0.30918000  0.42350000  1.0 -0.120164739
C  C19  1  0.69082000  0.74922000  0.42350000  1.0 -0.120164739
C  C20  1  0.33765000  0.27185000  0.52410000  1.0 -0.0116484497
C  C21  1  0.72815000  0.66235000  0.52410000  1.0 -0.0116484497
C  C22  1  0.40775000  0.19115000  0.47200000  1.0 0.5813808139
C  C23  1  0.80885000  0.59225000  0.47200000  1.0 0.5813808139
C  C24  1  0.35909000  0.31009000  0.66690000  1.0 -0.1376858022
C  C25  1  0.68991000  0.64091000  0.66690000  1.0 -0.1376858022
C  C26  1  0.29469000  0.38369000  0.71670000  1.0 0.0793334961
C  C27  1  0.61631000  0.70531000  0.71670000  1.0 0.0793334961
C  C28  1  0.31810000  0.42570000  0.86790000  1.0 0.239234298
C  C29  1  0.57430000  0.68190000  0.86790000  1.0 0.239234298
C  C30  1  0.39910000  0.35970000  0.03560000  1.0 -0.4373730872
C  C31  1  0.64030000  0.60090000  0.03560000  1.0 -0.4373730872
C  C32  1  0.33810000  0.48890000  0.75930000  1.0 -0.4373730872
C  C33  1  0.51110000  0.66190000  0.75930000  1.0 -0.4373730872
C  C34  1  0.24380000  0.47580000  0.96720000  1.0 -0.4559035604
C  C35  1  0.52420000  0.75620000  0.96720000  1.0 -0.4559035604
C  C36  1  0.20681000  0.41901000  0.61590000  1.0 -0.1620944668
C  C37  1  0.58099000  0.79319000  0.61590000  1.0 -0.1620944668
C  C38  1  0.06270000  0.25430000  0.40640000  1.0 0.5938557382
C  C39  1  0.74570000  0.93730000  0.40640000  1.0 0.5938557382
C  C40  1  0.15105000  0.17065000  0.45250000  1.0 -0.0263436776
C  C41  1  0.82935000  0.84895000  0.45250000  1.0 -0.0263436776
C  C42  1  0.21670000  0.15450000  0.61040000  1.0 -0.120164739
C  C43  1  0.84550000  0.78330000  0.61040000  1.0 -0.120164739
C  C44  1  0.29960000  0.07760000  0.65420000  1.0 -0.0116484497
C  C45  1  0.92240000  0.70040000  0.65420000  1.0 -0.0116484497
C  C46  1  0.37406000  0.05986000  0.81990000  1.0 0.5706945654
C  C47  1  0.94014000  0.62594000  0.81990000  1.0 0.5706945654
C  C48  1  0.31278000  0.01758000  0.53430000  1.0 -0.1291551818
C  C49  1  0.98242000  0.68722000  0.53430000  1.0 -0.1291551818
C  C50  1  0.24716000  0.03116000  0.37740000  1.0 0.0688494244
C  C51  1  0.96884000  0.75284000  0.37740000  1.0 0.0688494244
C  C52  1  0.16470000  0.11050000  0.33540000  1.0 -0.1376858022
C  C53  1  0.88950000  0.83530000  0.33540000  1.0 -0.1376858022
C  C54  1  0.26070000  0.96150000  0.26100000  1.0 0.270530432
C  C55  1  0.03850000  0.73930000  0.26100000  1.0 0.270530432
C  C56  1  0.35280000  0.91240000  0.22780000  1.0 -0.4700395469
C  C57  1  0.08760000  0.64720000  0.22780000  1.0 -0.4700395469
C  C58  1  0.24700000  0.89480000  0.38730000  1.0 -0.4867041711
C  C59  1  0.10520000  0.75300000  0.38730000  1.0 -0.4867041711
C  C60  1  0.19720000  0.99820000  0.05230000  1.0 -0.4986513857
C  C61  1  0.00180000  0.80280000  0.05230000  1.0 -0.4986513857
C  C62  1  0.00090000  0.08430000  0.43800000  1.0 -0.2209838261
C  C63  1  0.91570000  0.99910000  0.43800000  1.0 -0.2209838261
O  O1  1  0.91188000  0.31708000  0.80850000  1.0 -0.5516361698
O  O2  1  0.68292000  0.08812000  0.80850000  1.0 -0.5516361698
O  O3  1  0.82610000  0.33010000  0.01920000  1.0 -0.5516361698
O  O4  1  0.66990000  0.17390000  0.01920000  1.0 -0.5516361698
O  O5  1  0.88586000  0.47612000  0.04230000  1.0 -0.8887426559
O  O6  1  0.52388000  0.11414000  0.04230000  1.0 -0.8887426559
O  O7  1  0.02960000  0.48320000  0.39850000  1.0 -0.5898387883
O  O8  1  0.51680000  0.97040000  0.39850000  1.0 -0.5898387883
O  O9  1  0.08250000  0.40030000  0.18340000  1.0 -0.5745872263
O  O10  1  0.59970000  0.91750000  0.18340000  1.0 -0.5745872263
O  O11  1  0.48476000  0.14996000  0.58010000  1.0 -0.5633805995
O  O12  1  0.85004000  0.51524000  0.58010000  1.0 -0.5633805995
O  O13  1  0.38259000  0.17319000  0.31330000  1.0 -0.5516361698
O  O14  1  0.82681000  0.61741000  0.31330000  1.0 -0.5516361698
O  O15  1  0.04297000  0.29977000  0.53070000  1.0 -0.5951369409
O  O16  1  0.70023000  0.95703000  0.53070000  1.0 -0.5951369409
O  O17  1  0.01034000  0.27454000  0.23260000  1.0 -0.5898387883
O  O18  1  0.72546000  0.98966000  0.23260000  1.0 -0.5898387883
O  O19  1  0.35450000  0.10350000  0.95630000  1.0 -0.5381073062
O  O20  1  0.89650000  0.64550000  0.95630000  1.0 -0.5381073062
O  O21  1  0.45005000  0.00405000  0.82050000  1.0 -0.581375957
O  O22  1  0.99595000  0.54995000  0.82050000  1.0 -0.581375957
