# DDEC6 charges by PACMAN v1.1 (https://github.com/mtap-research/PACMAN-charge/)
data_TEQVAO_ASR_pacman
_symmetry_space_group_name_H-M   'P 1'
_cell_length_a   13.79090000
_cell_length_b   16.28790000
_cell_length_c   22.01700000
_cell_angle_alpha   90.00000000
_cell_angle_beta   90.00000000
_cell_angle_gamma   90.00000000
_symmetry_Int_Tables_number   1
_chemical_formula_structural   MgZnH12(C9O4)2
_chemical_formula_sum   'Mg8 Zn8 H96 C144 O64'
_cell_volume   4945.56422402
_cell_formula_units_Z   8
loop_
 _symmetry_equiv_pos_site_id
 _symmetry_equiv_pos_as_xyz
  1  'x, y, z'
loop_
 _atom_site_type_symbol
 _atom_site_label
 _atom_site_symmetry_multiplicity
 _atom_site_fract_x
 _atom_site_fract_y
 _atom_site_fract_z
 _atom_site_occupancy
 _atom_site_charge
Mg  Mg1  1  0.22210000  0.55091000  0.75915000  1.0 1.4198538214
Mg  Mg2  1  0.72210000  0.44909000  0.74085000  1.0 1.4198538214
Mg  Mg3  1  0.77790000  0.05091000  0.24085000  1.0 1.4198538214
Mg  Mg4  1  0.27790000  0.94909000  0.25915000  1.0 1.4198538214
Mg  Mg5  1  0.77790000  0.44909000  0.24085000  1.0 1.4198538214
Mg  Mg6  1  0.27790000  0.55091000  0.25915000  1.0 1.4198538214
Mg  Mg7  1  0.22210000  0.94909000  0.75915000  1.0 1.4198538214
Mg  Mg8  1  0.72210000  0.05091000  0.74085000  1.0 1.4198538214
Zn  Zn1  1  0.97979000  0.49791000  0.66883000  1.0 0.9411829562
Zn  Zn2  1  0.47979000  0.50209000  0.83117000  1.0 0.9411829562
Zn  Zn3  1  0.02021000  0.99791000  0.33117000  1.0 0.9411829562
Zn  Zn4  1  0.52021000  0.00209000  0.16883000  1.0 0.9411829562
Zn  Zn5  1  0.02021000  0.50209000  0.33117000  1.0 0.9411829562
Zn  Zn6  1  0.52021000  0.49791000  0.16883000  1.0 0.9411829562
Zn  Zn7  1  0.97979000  0.00209000  0.66883000  1.0 0.9411829562
Zn  Zn8  1  0.47979000  0.99791000  0.83117000  1.0 0.9411829562
H  H1  1  0.35922000  0.58260000  0.61746000  1.0 0.1102212847
H  H2  1  0.49485000  0.66489000  0.56438000  1.0 0.1102212847
H  H3  1  0.52094000  0.63673000  0.48408000  1.0 0.1102212847
H  H4  1  0.53433000  0.55869000  0.54528000  1.0 0.1102212847
H  H5  1  0.39295000  0.58444000  0.42097000  1.0 0.1005345732
H  H6  1  0.11382000  0.51897000  0.50132000  1.0 0.1202549773
H  H7  1  0.75801000  0.61662000  0.84483000  1.0 0.1005345732
H  H8  1  0.66695000  0.68407000  0.91755000  1.0 0.1102212847
H  H9  1  0.17861000  0.38409000  0.85997000  1.0 0.1005345732
H  H10  1  0.31499000  0.28393000  0.91498000  1.0 0.1202549773
H  H11  1  0.85922000  0.41740000  0.88254000  1.0 0.1005345732
H  H12  1  0.01247000  0.39652000  0.92159000  1.0 0.1102212847
H  H13  1  0.03856000  0.42468000  0.00189000  1.0 0.1202549773
H  H14  1  0.99909000  0.31848000  0.98279000  1.0 0.1102212847
H  H15  1  0.89295000  0.41556000  0.07903000  1.0 0.1102212847
H  H16  1  0.61382000  0.48103000  0.99868000  1.0 0.1202549773
H  H17  1  0.25801000  0.38338000  0.65517000  1.0 0.1005345732
H  H18  1  0.16180000  0.18407000  0.58511000  1.0 0.1202549773
H  H19  1  0.67861000  0.61591000  0.64003000  1.0 0.1005345732
H  H20  1  0.75835000  0.68402000  0.56131000  1.0 0.1102212847
H  H21  1  0.64078000  0.08260000  0.38254000  1.0 0.1005345732
H  H22  1  0.46038000  0.05932000  0.48120000  1.0 0.1102212847
H  H23  1  0.49782000  0.13450000  0.42199000  1.0 0.1102212847
H  H24  1  0.49168000  0.16650000  0.50308000  1.0 0.1102212847
H  H25  1  0.60705000  0.08444000  0.57903000  1.0 0.1102212847
H  H26  1  0.88618000  0.01897000  0.49868000  1.0 0.1202549773
H  H27  1  0.24199000  0.11662000  0.15517000  1.0 0.1005345732
H  H28  1  0.28230000  0.28052000  0.05625000  1.0 0.1005345732
H  H29  1  0.82139000  0.88409000  0.14003000  1.0 0.1005345732
H  H30  1  0.79616000  0.78393000  0.03848000  1.0 0.1102212847
H  H31  1  0.14078000  0.91740000  0.11746000  1.0 0.1102212847
H  H32  1  0.96877000  0.89429000  0.98448000  1.0 0.1102212847
H  H33  1  0.97491000  0.92628000  0.06556000  1.0 0.1102212847
H  H34  1  0.00620000  0.81911000  0.04369000  1.0 0.1102212847
H  H35  1  0.10705000  0.91556000  0.92097000  1.0 0.1102212847
H  H36  1  0.38618000  0.98103000  0.00132000  1.0 0.1202549773
H  H37  1  0.74199000  0.88338000  0.34483000  1.0 0.1005345732
H  H38  1  0.83305000  0.68407000  0.41755000  1.0 0.1102212847
H  H39  1  0.32139000  0.11591000  0.35997000  1.0 0.1005345732
H  H40  1  0.23953000  0.18402000  0.43780000  1.0 0.1102212847
H  H41  1  0.64078000  0.41740000  0.38254000  1.0 0.1005345732
H  H42  1  0.50091000  0.31848000  0.48279000  1.0 0.1102212847
H  H43  1  0.48753000  0.39652000  0.42159000  1.0 0.1102212847
H  H44  1  0.46144000  0.42468000  0.50189000  1.0 0.1202549773
H  H45  1  0.60705000  0.41556000  0.57903000  1.0 0.1102212847
H  H46  1  0.88618000  0.48103000  0.49868000  1.0 0.1202549773
H  H47  1  0.24199000  0.38338000  0.15517000  1.0 0.1005345732
H  H48  1  0.33820000  0.18407000  0.08511000  1.0 0.1202549773
H  H49  1  0.82139000  0.61591000  0.14003000  1.0 0.1005345732
H  H50  1  0.74165000  0.68402000  0.06131000  1.0 0.1102212847
H  H51  1  0.14078000  0.58260000  0.11746000  1.0 0.1102212847
H  H52  1  0.97906000  0.63673000  0.98408000  1.0 0.1102212847
H  H53  1  0.00515000  0.66489000  0.06438000  1.0 0.1102212847
H  H54  1  0.96567000  0.55869000  0.04528000  1.0 0.1102212847
H  H55  1  0.10705000  0.58444000  0.92097000  1.0 0.1005345732
H  H56  1  0.38618000  0.51897000  0.00132000  1.0 0.1202549773
H  H57  1  0.74199000  0.61662000  0.34483000  1.0 0.1005345732
H  H58  1  0.88895000  0.78052000  0.38869000  1.0 0.1202549773
H  H59  1  0.32139000  0.38409000  0.35997000  1.0 0.1005345732
H  H60  1  0.18501000  0.28393000  0.41498000  1.0 0.1202549773
H  H61  1  0.35922000  0.91740000  0.61746000  1.0 0.1102212847
H  H62  1  0.52509000  0.92628000  0.56556000  1.0 0.1102212847
H  H63  1  0.53123000  0.89429000  0.48448000  1.0 0.1102212847
H  H64  1  0.49380000  0.81911000  0.54369000  1.0 0.1102212847
H  H65  1  0.39295000  0.91556000  0.42097000  1.0 0.1102212847
H  H66  1  0.11382000  0.98103000  0.50132000  1.0 0.1202549773
H  H67  1  0.75801000  0.88338000  0.84483000  1.0 0.1005345732
H  H68  1  0.61105000  0.78052000  0.88869000  1.0 0.1202549773
H  H69  1  0.17861000  0.11591000  0.85997000  1.0 0.1005345732
H  H70  1  0.26047000  0.18402000  0.93780000  1.0 0.1102212847
H  H71  1  0.85922000  0.08260000  0.88254000  1.0 0.1005345732
H  H72  1  0.00218000  0.13450000  0.92199000  1.0 0.1102212847
H  H73  1  0.00832000  0.16650000  0.00308000  1.0 0.1102212847
H  H74  1  0.03962000  0.05932000  0.98120000  1.0 0.1102212847
H  H75  1  0.89295000  0.08444000  0.07903000  1.0 0.1102212847
H  H76  1  0.61382000  0.01897000  0.99868000  1.0 0.1202549773
H  H77  1  0.25801000  0.11662000  0.65517000  1.0 0.1005345732
H  H78  1  0.21770000  0.28052000  0.55625000  1.0 0.1005345732
H  H79  1  0.67861000  0.88409000  0.64003000  1.0 0.1005345732
H  H80  1  0.70384000  0.78393000  0.53848000  1.0 0.1102212847
H  H81  1  0.93136000  0.74960000  0.71100000  1.0 0.1102212847
H  H82  1  0.43136000  0.25040000  0.78900000  1.0 0.1102212847
H  H83  1  0.06864000  0.25040000  0.28900000  1.0 0.1102212847
H  H84  1  0.56864000  0.74960000  0.21100000  1.0 0.1102212847
H  H85  1  0.01763000  0.24972000  0.72112000  1.0 0.1102212847
H  H86  1  0.51763000  0.75028000  0.77888000  1.0 0.1102212847
H  H87  1  0.98237000  0.75028000  0.27888000  1.0 0.1102212847
H  H88  1  0.48237000  0.24972000  0.22112000  1.0 0.1102212847
H  H89  1  0.71513000  0.78541000  0.94242000  1.0 0.1005345732
H  H90  1  0.11363000  0.28541000  0.60998000  1.0 0.1202549773
H  H91  1  0.38637000  0.28541000  0.10998000  1.0 0.1202549773
H  H92  1  0.78487000  0.78541000  0.44242000  1.0 0.1005345732
H  H93  1  0.20277000  0.28205000  0.96196000  1.0 0.1102212847
H  H94  1  0.81605000  0.78205000  0.58546000  1.0 0.1202549773
H  H95  1  0.68395000  0.78205000  0.08546000  1.0 0.1202549773
H  H96  1  0.29723000  0.28205000  0.46196000  1.0 0.1102212847
C  C1  1  0.16790000  0.53980000  0.61940000  1.0 0.6281484254
C  C2  1  0.23070000  0.55090000  0.56415000  1.0 -0.041068021
C  C3  1  0.32650000  0.57440000  0.57030000  1.0 -0.1374297429
C  C4  1  0.38360000  0.58820000  0.52040000  1.0 0.1326253874
C  C5  1  0.49040000  0.61380000  0.52910000  1.0 -0.3779931068
C  C6  1  0.34540000  0.57540000  0.46280000  1.0 -0.131255269
C  C7  1  0.24850000  0.55140000  0.45610000  1.0 -0.041068021
C  C8  1  0.20660000  0.54250000  0.39390000  1.0 0.6281484254
C  C9  1  0.19250000  0.53910000  0.50681000  1.0 -0.089966384
C  C10  1  0.87470000  0.59750000  0.74555000  1.0 0.6185091846
C  C11  1  0.84520000  0.67610000  0.77506000  1.0 -0.0485291712
C  C12  1  0.78390000  0.67690000  0.82410000  1.0 -0.131255269
C  C13  1  0.07230000  0.40270000  0.75640000  1.0 0.6185091846
C  C14  1  0.09670000  0.32320000  0.78742000  1.0 -0.041068021
C  C15  1  0.15420000  0.32340000  0.83920000  1.0 -0.131255269
C  C16  1  0.66790000  0.46020000  0.88060000  1.0 0.6281484254
C  C17  1  0.73070000  0.44910000  0.93585000  1.0 -0.041068021
C  C18  1  0.82650000  0.42560000  0.92970000  1.0 -0.1374297429
C  C19  1  0.88360000  0.41180000  0.97960000  1.0 0.1326253874
C  C20  1  0.99040000  0.38620000  0.97090000  1.0 -0.3779931068
C  C21  1  0.84540000  0.42460000  0.03720000  1.0 -0.1374297429
C  C22  1  0.74850000  0.44860000  0.04390000  1.0 -0.041068021
C  C23  1  0.70660000  0.45750000  0.10610000  1.0 0.6281484254
C  C24  1  0.69250000  0.46090000  0.99319000  1.0 -0.089966384
C  C25  1  0.37470000  0.40250000  0.75445000  1.0 0.6185091846
C  C26  1  0.34520000  0.32390000  0.72494000  1.0 -0.0485291712
C  C27  1  0.28390000  0.32310000  0.67590000  1.0 -0.131255269
C  C28  1  0.57230000  0.59730000  0.74360000  1.0 0.6185091846
C  C29  1  0.59670000  0.67680000  0.71258000  1.0 -0.041068021
C  C30  1  0.65420000  0.67660000  0.66080000  1.0 -0.131255269
C  C31  1  0.83210000  0.03980000  0.38060000  1.0 0.6281484254
C  C32  1  0.76930000  0.05090000  0.43585000  1.0 -0.041068021
C  C33  1  0.67350000  0.07440000  0.42970000  1.0 -0.1374297429
C  C34  1  0.61640000  0.08820000  0.47960000  1.0 0.1326253874
C  C35  1  0.50960000  0.11380000  0.47090000  1.0 -0.3779931068
C  C36  1  0.65460000  0.07540000  0.53720000  1.0 -0.1374297429
C  C37  1  0.75150000  0.05140000  0.54390000  1.0 -0.0485291712
C  C38  1  0.79340000  0.04250000  0.60610000  1.0 0.6281484254
C  C39  1  0.80750000  0.03910000  0.49319000  1.0 -0.089966384
C  C40  1  0.12530000  0.09750000  0.25445000  1.0 0.6185091846
C  C41  1  0.15480000  0.17610000  0.22494000  1.0 -0.0485291712
C  C42  1  0.21610000  0.17690000  0.17590000  1.0 -0.1249247789
C  C43  1  0.92770000  0.90270000  0.24360000  1.0 0.6185091846
C  C44  1  0.90330000  0.82320000  0.21258000  1.0 -0.041068021
C  C45  1  0.84580000  0.82340000  0.16080000  1.0 -0.131255269
C  C46  1  0.33210000  0.96020000  0.11940000  1.0 0.6281484254
C  C47  1  0.26930000  0.94910000  0.06415000  1.0 -0.041068021
C  C48  1  0.17350000  0.92560000  0.07030000  1.0 -0.1374297429
C  C49  1  0.11640000  0.91180000  0.02040000  1.0 0.1326253874
C  C50  1  0.00960000  0.88620000  0.02910000  1.0 -0.3779931068
C  C51  1  0.15460000  0.92460000  0.96280000  1.0 -0.1374297429
C  C52  1  0.25150000  0.94860000  0.95610000  1.0 -0.041068021
C  C53  1  0.29340000  0.95750000  0.89390000  1.0 0.6281484254
C  C54  1  0.30750000  0.96090000  0.00681000  1.0 -0.089966384
C  C55  1  0.62530000  0.90250000  0.24555000  1.0 0.6185091846
C  C56  1  0.65480000  0.82390000  0.27506000  1.0 -0.0485291712
C  C57  1  0.71610000  0.82310000  0.32410000  1.0 -0.131255269
C  C58  1  0.42770000  0.09730000  0.25640000  1.0 0.6185091846
C  C59  1  0.40330000  0.17680000  0.28742000  1.0 -0.041068021
C  C60  1  0.34580000  0.17660000  0.33920000  1.0 -0.131255269
C  C61  1  0.83210000  0.46020000  0.38060000  1.0 0.6281484254
C  C62  1  0.76930000  0.44910000  0.43585000  1.0 -0.041068021
C  C63  1  0.67350000  0.42560000  0.42970000  1.0 -0.1374297429
C  C64  1  0.61640000  0.41180000  0.47960000  1.0 0.1326253874
C  C65  1  0.50960000  0.38620000  0.47090000  1.0 -0.3779931068
C  C66  1  0.65460000  0.42460000  0.53720000  1.0 -0.1374297429
C  C67  1  0.75150000  0.44860000  0.54390000  1.0 -0.041068021
C  C68  1  0.79340000  0.45750000  0.60610000  1.0 0.6281484254
C  C69  1  0.80750000  0.46090000  0.49319000  1.0 -0.089966384
C  C70  1  0.12530000  0.40250000  0.25445000  1.0 0.6185091846
C  C71  1  0.15480000  0.32390000  0.22494000  1.0 -0.0485291712
C  C72  1  0.21610000  0.32310000  0.17590000  1.0 -0.1249247789
C  C73  1  0.92770000  0.59730000  0.24360000  1.0 0.6185091846
C  C74  1  0.90330000  0.67680000  0.21258000  1.0 -0.041068021
C  C75  1  0.84580000  0.67660000  0.16080000  1.0 -0.131255269
C  C76  1  0.33210000  0.53980000  0.11940000  1.0 0.6281484254
C  C77  1  0.26930000  0.55090000  0.06415000  1.0 -0.041068021
C  C78  1  0.17350000  0.57440000  0.07030000  1.0 -0.1374297429
C  C79  1  0.11640000  0.58820000  0.02040000  1.0 0.1326253874
C  C80  1  0.00960000  0.61380000  0.02910000  1.0 -0.3779931068
C  C81  1  0.15460000  0.57540000  0.96280000  1.0 -0.131255269
C  C82  1  0.25150000  0.55140000  0.95610000  1.0 -0.041068021
C  C83  1  0.29340000  0.54250000  0.89390000  1.0 0.6281484254
C  C84  1  0.30750000  0.53910000  0.00681000  1.0 -0.089966384
C  C85  1  0.62530000  0.59750000  0.24555000  1.0 0.6185091846
C  C86  1  0.65480000  0.67610000  0.27506000  1.0 -0.0485291712
C  C87  1  0.71610000  0.67690000  0.32410000  1.0 -0.131255269
C  C88  1  0.42770000  0.40270000  0.25640000  1.0 0.6185091846
C  C89  1  0.40330000  0.32320000  0.28742000  1.0 -0.041068021
C  C90  1  0.34580000  0.32340000  0.33920000  1.0 -0.131255269
C  C91  1  0.16790000  0.96020000  0.61940000  1.0 0.6281484254
C  C92  1  0.23070000  0.94910000  0.56415000  1.0 -0.041068021
C  C93  1  0.32650000  0.92560000  0.57030000  1.0 -0.1374297429
C  C94  1  0.38360000  0.91180000  0.52040000  1.0 0.1326253874
C  C95  1  0.49040000  0.88620000  0.52910000  1.0 -0.3779931068
C  C96  1  0.34540000  0.92460000  0.46280000  1.0 -0.1374297429
C  C97  1  0.24850000  0.94860000  0.45610000  1.0 -0.041068021
C  C98  1  0.20660000  0.95750000  0.39390000  1.0 0.6281484254
C  C99  1  0.19250000  0.96090000  0.50681000  1.0 -0.089966384
C  C100  1  0.87470000  0.90250000  0.74555000  1.0 0.6185091846
C  C101  1  0.84520000  0.82390000  0.77506000  1.0 -0.0485291712
C  C102  1  0.78390000  0.82310000  0.82410000  1.0 -0.131255269
C  C103  1  0.07230000  0.09730000  0.75640000  1.0 0.6185091846
C  C104  1  0.09670000  0.17680000  0.78742000  1.0 -0.041068021
C  C105  1  0.15420000  0.17660000  0.83920000  1.0 -0.131255269
C  C106  1  0.66790000  0.03980000  0.88060000  1.0 0.6281484254
C  C107  1  0.73070000  0.05090000  0.93585000  1.0 -0.041068021
C  C108  1  0.82650000  0.07440000  0.92970000  1.0 -0.1374297429
C  C109  1  0.88360000  0.08820000  0.97960000  1.0 0.1326253874
C  C110  1  0.99040000  0.11380000  0.97090000  1.0 -0.3779931068
C  C111  1  0.84540000  0.07540000  0.03720000  1.0 -0.1374297429
C  C112  1  0.74850000  0.05140000  0.04390000  1.0 -0.0485291712
C  C113  1  0.70660000  0.04250000  0.10610000  1.0 0.6281484254
C  C114  1  0.69250000  0.03910000  0.99319000  1.0 -0.089966384
C  C115  1  0.37470000  0.09750000  0.75445000  1.0 0.6185091846
C  C116  1  0.34520000  0.17610000  0.72494000  1.0 -0.0485291712
C  C117  1  0.28390000  0.17690000  0.67590000  1.0 -0.131255269
C  C118  1  0.57230000  0.90270000  0.74360000  1.0 0.6185091846
C  C119  1  0.59670000  0.82320000  0.71258000  1.0 -0.041068021
C  C120  1  0.65420000  0.82340000  0.66080000  1.0 -0.131255269
C  C121  1  0.87810000  0.75000000  0.75060000  1.0 -0.089966384
C  C122  1  0.75150000  0.75000000  0.85000000  1.0 0.1326253874
C  C123  1  0.68190000  0.75000000  0.90290000  1.0 -0.3779931068
C  C124  1  0.37810000  0.25000000  0.74940000  1.0 -0.089966384
C  C125  1  0.25150000  0.25000000  0.65000000  1.0 0.1326253874
C  C126  1  0.18190000  0.25000000  0.59710000  1.0 -0.3779931068
C  C127  1  0.12190000  0.25000000  0.24940000  1.0 -0.089966384
C  C128  1  0.24850000  0.25000000  0.15000000  1.0 0.1326253874
C  C129  1  0.31810000  0.25000000  0.09710000  1.0 -0.3779931068
C  C130  1  0.62190000  0.75000000  0.25060000  1.0 -0.089966384
C  C131  1  0.74850000  0.75000000  0.35000000  1.0 0.1326253874
C  C132  1  0.81810000  0.75000000  0.40290000  1.0 -0.3779931068
C  C133  1  0.18200000  0.25000000  0.86570000  1.0 0.1202549773
C  C134  1  0.24410000  0.25000000  0.92390000  1.0 -0.3714758753
C  C135  1  0.06710000  0.25000000  0.76260000  1.0 -0.0835443437
C  C136  1  0.68200000  0.75000000  0.63430000  1.0 0.1202549773
C  C137  1  0.74410000  0.75000000  0.57610000  1.0 -0.3714758753
C  C138  1  0.56710000  0.75000000  0.73740000  1.0 -0.0835443437
C  C139  1  0.81800000  0.75000000  0.13430000  1.0 0.1202549773
C  C140  1  0.75590000  0.75000000  0.07610000  1.0 -0.3714758753
C  C141  1  0.93290000  0.75000000  0.23740000  1.0 -0.0835443437
C  C142  1  0.31800000  0.25000000  0.36570000  1.0 0.1202549773
C  C143  1  0.25590000  0.25000000  0.42390000  1.0 -0.3714758753
C  C144  1  0.43290000  0.25000000  0.26260000  1.0 -0.0835443437
O  O1  1  0.08230000  0.51450000  0.61041000  1.0 -0.5432820991
O  O2  1  0.20060000  0.55730000  0.67012000  1.0 -0.6702896505
O  O3  1  0.11690000  0.52580000  0.39226000  1.0 -0.5499964319
O  O4  1  0.25800000  0.55250000  0.34946000  1.0 -0.6493484825
O  O5  1  0.95000000  0.59998000  0.71173000  1.0 -0.5432820991
O  O6  1  0.82800000  0.53370000  0.75437000  1.0 -0.6493484825
O  O7  1  0.00410000  0.40010000  0.71678000  1.0 -0.5499964319
O  O8  1  0.11470000  0.46660000  0.76944000  1.0 -0.6368400752
O  O9  1  0.58230000  0.48550000  0.88959000  1.0 -0.5432820991
O  O10  1  0.70060000  0.44270000  0.82988000  1.0 -0.6702896505
O  O11  1  0.61690000  0.47420000  0.10774000  1.0 -0.5499964319
O  O12  1  0.75800000  0.44750000  0.15054000  1.0 -0.6493484825
O  O13  1  0.45000000  0.40002000  0.78827000  1.0 -0.5432820991
O  O14  1  0.32800000  0.46630000  0.74563000  1.0 -0.6493484825
O  O15  1  0.50410000  0.59990000  0.78322000  1.0 -0.5499964319
O  O16  1  0.61470000  0.53340000  0.73056000  1.0 -0.6368400752
O  O17  1  0.91770000  0.01450000  0.38959000  1.0 -0.5432820991
O  O18  1  0.79940000  0.05730000  0.32988000  1.0 -0.6702896505
O  O19  1  0.88310000  0.02580000  0.60774000  1.0 -0.5499964319
O  O20  1  0.74200000  0.05250000  0.65054000  1.0 -0.6493484825
O  O21  1  0.05000000  0.09998000  0.28827000  1.0 -0.5432820991
O  O22  1  0.17200000  0.03370000  0.24563000  1.0 -0.6493484825
O  O23  1  0.99590000  0.90010000  0.28322000  1.0 -0.5499964319
O  O24  1  0.88530000  0.96660000  0.23056000  1.0 -0.6368400752
O  O25  1  0.41770000  0.98550000  0.11041000  1.0 -0.5432820991
O  O26  1  0.29940000  0.94270000  0.17012000  1.0 -0.6702896505
O  O27  1  0.38310000  0.97420000  0.89226000  1.0 -0.5499964319
O  O28  1  0.24200000  0.94750000  0.84946000  1.0 -0.6493484825
O  O29  1  0.55000000  0.90002000  0.21173000  1.0 -0.5432820991
O  O30  1  0.67200000  0.96630000  0.25437000  1.0 -0.6493484825
O  O31  1  0.49590000  0.09990000  0.21678000  1.0 -0.5499964319
O  O32  1  0.38530000  0.03340000  0.26944000  1.0 -0.6368400752
O  O33  1  0.91770000  0.48550000  0.38959000  1.0 -0.5432820991
O  O34  1  0.79940000  0.44270000  0.32988000  1.0 -0.6702896505
O  O35  1  0.88310000  0.47420000  0.60774000  1.0 -0.5499964319
O  O36  1  0.74200000  0.44750000  0.65054000  1.0 -0.6493484825
O  O37  1  0.05000000  0.40002000  0.28827000  1.0 -0.5432820991
O  O38  1  0.17200000  0.46630000  0.24563000  1.0 -0.6493484825
O  O39  1  0.99590000  0.59990000  0.28322000  1.0 -0.5499964319
O  O40  1  0.88530000  0.53340000  0.23056000  1.0 -0.6368400752
O  O41  1  0.41770000  0.51450000  0.11041000  1.0 -0.5432820991
O  O42  1  0.29940000  0.55730000  0.17012000  1.0 -0.6702896505
O  O43  1  0.38310000  0.52580000  0.89226000  1.0 -0.5499964319
O  O44  1  0.24200000  0.55250000  0.84946000  1.0 -0.6493484825
O  O45  1  0.55000000  0.59998000  0.21173000  1.0 -0.5432820991
O  O46  1  0.67200000  0.53370000  0.25437000  1.0 -0.6493484825
O  O47  1  0.49590000  0.40010000  0.21678000  1.0 -0.5499964319
O  O48  1  0.38530000  0.46660000  0.26944000  1.0 -0.6368400752
O  O49  1  0.08230000  0.98550000  0.61041000  1.0 -0.5432820991
O  O50  1  0.20060000  0.94270000  0.67012000  1.0 -0.6702896505
O  O51  1  0.11690000  0.97420000  0.39226000  1.0 -0.5499964319
O  O52  1  0.25800000  0.94750000  0.34946000  1.0 -0.6493484825
O  O53  1  0.95000000  0.90002000  0.71173000  1.0 -0.5432820991
O  O54  1  0.82800000  0.96630000  0.75437000  1.0 -0.6493484825
O  O55  1  0.00410000  0.09990000  0.71678000  1.0 -0.5499964319
O  O56  1  0.11470000  0.03340000  0.76944000  1.0 -0.6368400752
O  O57  1  0.58230000  0.01450000  0.88959000  1.0 -0.5432820991
O  O58  1  0.70060000  0.05730000  0.82988000  1.0 -0.6702896505
O  O59  1  0.61690000  0.02580000  0.10774000  1.0 -0.5499964319
O  O60  1  0.75800000  0.05250000  0.15054000  1.0 -0.6493484825
O  O61  1  0.45000000  0.09998000  0.78827000  1.0 -0.5432820991
O  O62  1  0.32800000  0.03370000  0.74563000  1.0 -0.6493484825
O  O63  1  0.50410000  0.90010000  0.78322000  1.0 -0.5499964319
O  O64  1  0.61470000  0.96660000  0.73056000  1.0 -0.6368400752
