# DDEC6 charges by PACMAN v1.1 (https://github.com/mtap-research/PACMAN-charge/)
data_TETVIZ_ion_pacman
_symmetry_space_group_name_H-M   'P 1'
_cell_length_a   16.10940000
_cell_length_b   11.85430000
_cell_length_c   21.09770000
_cell_angle_alpha   90.00000000
_cell_angle_beta   124.70000000
_cell_angle_gamma   90.00000000
_symmetry_Int_Tables_number   1
_chemical_formula_structural   Co3Mo12P8H40C8(NO8)8
_chemical_formula_sum   'Co6 Mo24 P16 H80 C16 N16 O128'
_cell_volume   3312.36589990
_cell_formula_units_Z   2
loop_
 _symmetry_equiv_pos_site_id
 _symmetry_equiv_pos_as_xyz
  1  'x, y, z'
loop_
 _atom_site_type_symbol
 _atom_site_label
 _atom_site_symmetry_multiplicity
 _atom_site_fract_x
 _atom_site_fract_y
 _atom_site_fract_z
 _atom_site_occupancy
 _atom_site_charge
Co  Co1  1  0.50000000  0.50000000  0.00000000  1.0 1.4071764446
Co  Co2  1  0.50000000  0.00000000  0.50000000  1.0 1.4071764446
Co  Co3  1  0.01261000  0.49755000  0.13429000  1.0 1.3027279175
Co  Co4  1  0.98739000  0.99755000  0.36571000  1.0 1.3027279175
Co  Co5  1  0.98739000  0.50245000  0.86571000  1.0 1.3027279175
Co  Co6  1  0.01261000  0.00245000  0.63429000  1.0 1.3027279175
Mo  Mo1  1  0.64875000  0.35949000  0.93330000  1.0 1.9993584053
Mo  Mo2  1  0.35125000  0.85949000  0.56670000  1.0 1.9993584053
Mo  Mo3  1  0.35125000  0.64051000  0.06670000  1.0 1.9993584053
Mo  Mo4  1  0.64875000  0.14051000  0.43330000  1.0 1.9993584053
Mo  Mo5  1  0.67640000  0.35736000  0.19609000  1.0 2.0128239489
Mo  Mo6  1  0.32360000  0.85736000  0.30391000  1.0 2.0128239489
Mo  Mo7  1  0.32360000  0.64264000  0.80391000  1.0 2.0128239489
Mo  Mo8  1  0.67640000  0.14264000  0.69609000  1.0 2.0128239489
Mo  Mo9  1  0.67849000  0.65072000  0.96244000  1.0 2.0128239489
Mo  Mo10  1  0.32151000  0.15072000  0.53756000  1.0 2.0128239489
Mo  Mo11  1  0.32151000  0.34928000  0.03756000  1.0 2.0128239489
Mo  Mo12  1  0.67849000  0.84928000  0.46244000  1.0 2.0128239489
Mo  Mo13  1  0.65071000  0.23521000  0.03492000  1.0 1.9993584053
Mo  Mo14  1  0.34929000  0.73521000  0.46508000  1.0 1.9919814563
Mo  Mo15  1  0.34929000  0.76479000  0.96508000  1.0 1.9919814563
Mo  Mo16  1  0.65071000  0.26479000  0.53492000  1.0 1.9993584053
Mo  Mo17  1  0.69077000  0.57372000  0.21292000  1.0 2.0128239489
Mo  Mo18  1  0.30923000  0.07372000  0.28708000  1.0 2.0128239489
Mo  Mo19  1  0.30923000  0.42628000  0.78708000  1.0 2.0128239489
Mo  Mo20  1  0.69077000  0.92628000  0.71292000  1.0 2.0128239489
Mo  Mo21  1  0.68862000  0.74521000  0.07726000  1.0 1.9919814563
Mo  Mo22  1  0.31138000  0.24521000  0.42274000  1.0 1.9919814563
Mo  Mo23  1  0.31138000  0.25479000  0.92274000  1.0 1.9919814563
Mo  Mo24  1  0.68862000  0.75479000  0.57726000  1.0 1.9919814563
P  P1  1  0.79027000  0.47726000  0.11543000  1.0 1.6232828991
P  P2  1  0.20973000  0.97726000  0.38457000  1.0 1.6232828991
P  P3  1  0.20973000  0.52274000  0.88457000  1.0 1.6232828991
P  P4  1  0.79027000  0.02274000  0.61543000  1.0 1.6257324911
P  P5  1  0.83529000  0.16305000  0.21266000  1.0 1.5155026412
P  P6  1  0.16471000  0.66305000  0.28734000  1.0 1.5155026412
P  P7  1  0.16471000  0.83695000  0.78734000  1.0 1.5155026412
P  P8  1  0.83529000  0.33695000  0.71266000  1.0 1.5155026412
P  P9  1  0.82447000  0.80358000  0.26300000  1.0 1.5280291236
P  P10  1  0.17553000  0.30358000  0.23700000  1.0 1.5280291236
P  P11  1  0.17553000  0.19642000  0.73700000  1.0 1.5280291236
P  P12  1  0.82447000  0.69642000  0.76300000  1.0 1.5280291236
P  P13  1  0.83284000  0.49022000  0.94345000  1.0 1.5886750317
P  P14  1  0.16716000  0.99022000  0.55655000  1.0 1.5886750317
P  P15  1  0.16716000  0.50978000  0.05655000  1.0 1.5886750317
P  P16  1  0.83284000  0.00978000  0.44345000  1.0 1.5886750317
H  H1  1  0.88180000  0.56510000  0.55940000  1.0 0.1115868386
H  H2  1  0.85230000  0.47790000  0.59930000  1.0 0.1184208631
H  H3  1  0.01710000  0.47330000  0.59090000  1.0 0.0954573623
H  H4  1  0.03100000  0.41950000  0.66390000  1.0 0.1184208631
H  H5  1  0.98450000  0.54830000  0.71410000  1.0 0.2824808554
H  H6  1  0.90500000  0.63080000  0.66970000  1.0 0.2890369024
H  H7  1  0.99720000  0.63670000  0.67260000  1.0 0.2722237885
H  H8  1  0.88230000  0.31780000  0.55790000  1.0 0.2890369024
H  H9  1  0.98490000  0.27460000  0.59970000  1.0 0.2824808554
H  H10  1  0.94190000  0.33230000  0.52660000  1.0 0.2722237885
H  H11  1  0.11820000  0.06510000  0.94060000  1.0 0.1115868386
H  H12  1  0.14770000  0.97790000  0.90070000  1.0 0.1115868386
H  H13  1  0.98290000  0.97330000  0.90910000  1.0 0.0954573623
H  H14  1  0.96900000  0.91950000  0.83610000  1.0 0.1184208631
H  H15  1  0.01550000  0.04830000  0.78590000  1.0 0.2722237885
H  H16  1  0.09500000  0.13080000  0.83030000  1.0 0.2824808554
H  H17  1  0.00280000  0.13670000  0.82740000  1.0 0.2722237885
H  H18  1  0.11770000  0.81780000  0.94210000  1.0 0.2890369024
H  H19  1  0.01510000  0.77460000  0.90030000  1.0 0.2890369024
H  H20  1  0.05810000  0.83230000  0.97340000  1.0 0.2722237885
H  H21  1  0.11820000  0.43490000  0.44060000  1.0 0.1115868386
H  H22  1  0.14770000  0.52210000  0.40070000  1.0 0.1115868386
H  H23  1  0.98290000  0.52670000  0.40910000  1.0 0.0954573623
H  H24  1  0.96900000  0.58050000  0.33610000  1.0 0.1184208631
H  H25  1  0.01550000  0.45170000  0.28590000  1.0 0.2722237885
H  H26  1  0.09500000  0.36920000  0.33030000  1.0 0.2824808554
H  H27  1  0.00280000  0.36330000  0.32740000  1.0 0.2722237885
H  H28  1  0.11770000  0.68220000  0.44210000  1.0 0.2890369024
H  H29  1  0.01510000  0.72540000  0.40030000  1.0 0.2890369024
H  H30  1  0.05810000  0.66770000  0.47340000  1.0 0.2722237885
H  H31  1  0.88180000  0.93490000  0.05940000  1.0 0.1115868386
H  H32  1  0.85230000  0.02210000  0.09930000  1.0 0.1184208631
H  H33  1  0.01710000  0.02670000  0.09090000  1.0 0.0954573623
H  H34  1  0.03100000  0.08050000  0.16390000  1.0 0.1184208631
H  H35  1  0.98450000  0.95170000  0.21410000  1.0 0.2824808554
H  H36  1  0.90500000  0.86920000  0.16970000  1.0 0.2890369024
H  H37  1  0.99720000  0.86330000  0.17260000  1.0 0.2722237885
H  H38  1  0.88230000  0.18220000  0.05790000  1.0 0.2890369024
H  H39  1  0.98490000  0.22540000  0.09970000  1.0 0.2890369024
H  H40  1  0.94190000  0.16770000  0.02660000  1.0 0.2722237885
H  H41  1  0.45780000  0.57840000  0.64520000  1.0 0.1184208631
H  H42  1  0.46110000  0.50540000  0.70850000  1.0 0.1308004406
H  H43  1  0.61100000  0.41950000  0.73350000  1.0 0.1308004406
H  H44  1  0.51210000  0.38870000  0.65340000  1.0 0.1308004406
H  H45  1  0.59120000  0.59780000  0.79950000  1.0 0.2722237885
H  H46  1  0.53390000  0.68770000  0.74450000  1.0 0.2890369024
H  H47  1  0.62070000  0.63910000  0.75010000  1.0 0.2722237885
H  H48  1  0.55710000  0.52540000  0.60010000  1.0 0.2966733522
H  H49  1  0.63090000  0.43480000  0.63420000  1.0 0.2824808554
H  H50  1  0.65240000  0.54190000  0.67430000  1.0 0.2890369024
H  H51  1  0.54220000  0.07840000  0.85480000  1.0 0.1184208631
H  H52  1  0.53890000  0.00540000  0.79150000  1.0 0.1308004406
H  H53  1  0.38900000  0.91950000  0.76650000  1.0 0.1308004406
H  H54  1  0.48790000  0.88870000  0.84660000  1.0 0.1308004406
H  H55  1  0.40880000  0.09780000  0.70050000  1.0 0.2722237885
H  H56  1  0.46610000  0.18770000  0.75550000  1.0 0.2890369024
H  H57  1  0.37930000  0.13910000  0.74990000  1.0 0.2722237885
H  H58  1  0.44290000  0.02540000  0.89990000  1.0 0.2966733522
H  H59  1  0.36910000  0.93480000  0.86580000  1.0 0.2824808554
H  H60  1  0.34760000  0.04190000  0.82570000  1.0 0.2890369024
H  H61  1  0.54220000  0.42160000  0.35480000  1.0 0.1184208631
H  H62  1  0.53890000  0.49460000  0.29150000  1.0 0.1308004406
H  H63  1  0.38900000  0.58050000  0.26650000  1.0 0.1308004406
H  H64  1  0.48790000  0.61130000  0.34660000  1.0 0.1308004406
H  H65  1  0.40880000  0.40220000  0.20050000  1.0 0.2722237885
H  H66  1  0.46610000  0.31230000  0.25550000  1.0 0.2890369024
H  H67  1  0.37930000  0.36090000  0.24990000  1.0 0.2722237885
H  H68  1  0.44290000  0.47460000  0.39990000  1.0 0.2966733522
H  H69  1  0.36910000  0.56520000  0.36580000  1.0 0.2824808554
H  H70  1  0.34760000  0.45810000  0.32570000  1.0 0.2890369024
H  H71  1  0.45780000  0.92160000  0.14520000  1.0 0.1184208631
H  H72  1  0.46110000  0.99460000  0.20850000  1.0 0.1308004406
H  H73  1  0.61100000  0.08050000  0.23350000  1.0 0.1308004406
H  H74  1  0.51210000  0.11130000  0.15340000  1.0 0.1308004406
H  H75  1  0.59120000  0.90220000  0.29950000  1.0 0.2722237885
H  H76  1  0.53390000  0.81230000  0.24450000  1.0 0.2890369024
H  H77  1  0.62070000  0.86090000  0.25010000  1.0 0.2722237885
H  H78  1  0.55710000  0.97460000  0.10010000  1.0 0.2966733522
H  H79  1  0.63090000  0.06520000  0.13420000  1.0 0.2824808554
H  H80  1  0.65240000  0.95810000  0.17430000  1.0 0.2890369024
C  C1  1  0.90830000  0.51860000  0.60490000  1.0 -0.0478219517
C  C2  1  0.98150000  0.43610000  0.60980000  1.0 -0.0341015958
C  C3  1  0.09170000  0.01860000  0.89510000  1.0 -0.0478219517
C  C4  1  0.01850000  0.93610000  0.89020000  1.0 -0.0341015958
C  C5  1  0.09170000  0.48140000  0.39510000  1.0 -0.0478219517
C  C6  1  0.01850000  0.56390000  0.39020000  1.0 -0.0341015958
C  C7  1  0.90830000  0.98140000  0.10490000  1.0 -0.0478219517
C  C8  1  0.98150000  0.06390000  0.10980000  1.0 -0.0341015958
C  C9  1  0.50260000  0.54020000  0.69410000  1.0 -0.0399658658
C  C10  1  0.55830000  0.44960000  0.68350000  1.0 -0.0341015958
C  C11  1  0.49740000  0.04020000  0.80590000  1.0 -0.0399658658
C  C12  1  0.44170000  0.94960000  0.81650000  1.0 -0.0341015958
C  C13  1  0.49740000  0.45980000  0.30590000  1.0 -0.0399658658
C  C14  1  0.44170000  0.55040000  0.31650000  1.0 -0.0341015958
C  C15  1  0.50260000  0.95980000  0.19410000  1.0 -0.0399658658
C  C16  1  0.55830000  0.05040000  0.18350000  1.0 -0.0341015958
N  N1  1  0.95300000  0.59050000  0.67170000  1.0 -0.3757839107
N  N2  1  0.94410000  0.33000000  0.56970000  1.0 -0.3739499428
N  N3  1  0.04700000  0.09050000  0.82830000  1.0 -0.3757839107
N  N4  1  0.05590000  0.83000000  0.93030000  1.0 -0.3739499428
N  N5  1  0.04700000  0.40950000  0.32830000  1.0 -0.3757839107
N  N6  1  0.05590000  0.67000000  0.43030000  1.0 -0.3739499428
N  N7  1  0.95300000  0.90950000  0.17170000  1.0 -0.3757839107
N  N8  1  0.94410000  0.17000000  0.06970000  1.0 -0.3739499428
N  N9  1  0.56870000  0.62460000  0.75290000  1.0 -0.3883371853
N  N10  1  0.60420000  0.49220000  0.64410000  1.0 -0.4025297665
N  N11  1  0.43130000  0.12460000  0.74710000  1.0 -0.3883371853
N  N12  1  0.39580000  0.99220000  0.85590000  1.0 -0.4025297665
N  N13  1  0.43130000  0.37540000  0.24710000  1.0 -0.3883371853
N  N14  1  0.39580000  0.50780000  0.35590000  1.0 -0.4025297665
N  N15  1  0.56870000  0.87540000  0.25290000  1.0 -0.3883371853
N  N16  1  0.60420000  0.00780000  0.14410000  1.0 -0.4025297665
O  O1  1  0.78884000  0.72740000  0.05354000  1.0 -0.7706649357
O  O2  1  0.21116000  0.22740000  0.44646000  1.0 -0.7706649357
O  O3  1  0.21116000  0.27260000  0.94646000  1.0 -0.7706649357
O  O4  1  0.78884000  0.77260000  0.55354000  1.0 -0.7706649357
O  O5  1  0.56846000  0.36890000  0.97756000  1.0 -0.8607277104
O  O6  1  0.43154000  0.86890000  0.52244000  1.0 -0.8607277104
O  O7  1  0.43154000  0.63110000  0.02244000  1.0 -0.8607277104
O  O8  1  0.56846000  0.13110000  0.47756000  1.0 -0.8607277104
O  O9  1  0.58993000  0.63640000  0.99853000  1.0 -0.8523700489
O  O10  1  0.41007000  0.13640000  0.50147000  1.0 -0.8523700489
O  O11  1  0.41007000  0.36360000  0.00147000  1.0 -0.8523700489
O  O12  1  0.58993000  0.86360000  0.49853000  1.0 -0.8523700489
O  O13  1  0.74810000  0.25430000  0.00970000  1.0 -0.8178755744
O  O14  1  0.25190000  0.75430000  0.49030000  1.0 -0.8178755744
O  O15  1  0.25190000  0.74570000  0.99030000  1.0 -0.8178755744
O  O16  1  0.74810000  0.24570000  0.50970000  1.0 -0.8178755744
O  O17  1  0.75844000  0.57890000  0.14234000  1.0 -0.8523700489
O  O18  1  0.24156000  0.07890000  0.35766000  1.0 -0.8523700489
O  O19  1  0.24156000  0.42110000  0.85766000  1.0 -0.8523700489
O  O20  1  0.75844000  0.92110000  0.64234000  1.0 -0.8523700489
O  O21  1  0.75001000  0.39810000  0.90911000  1.0 -0.7332152791
O  O22  1  0.24999000  0.89810000  0.59089000  1.0 -0.7332152791
O  O23  1  0.24999000  0.60190000  0.09089000  1.0 -0.7332152791
O  O24  1  0.75001000  0.10190000  0.40911000  1.0 -0.7332152791
O  O25  1  0.58942000  0.51870000  0.88482000  1.0 -0.8178755744
O  O26  1  0.41058000  0.01870000  0.61518000  1.0 -0.8178755744
O  O27  1  0.41058000  0.48130000  0.11518000  1.0 -0.8178755744
O  O28  1  0.58942000  0.98130000  0.38482000  1.0 -0.8178755744
O  O29  1  0.59033000  0.47870000  0.12373000  1.0 -0.8523700489
O  O30  1  0.40967000  0.97870000  0.37627000  1.0 -0.8523700489
O  O31  1  0.40967000  0.52130000  0.87627000  1.0 -0.8523700489
O  O32  1  0.59033000  0.02130000  0.62373000  1.0 -0.8523700489
O  O33  1  0.80920000  0.68050000  0.27890000  1.0 -0.7517252617
O  O34  1  0.19080000  0.18050000  0.22110000  1.0 -0.7517252617
O  O35  1  0.19080000  0.31950000  0.72110000  1.0 -0.7517252617
O  O36  1  0.80920000  0.81950000  0.77890000  1.0 -0.7517252617
O  O37  1  0.74037000  0.49080000  0.02787000  1.0 -0.8750630521
O  O38  1  0.25963000  0.99080000  0.47213000  1.0 -0.8750630521
O  O39  1  0.25963000  0.50920000  0.97213000  1.0 -0.8750630521
O  O40  1  0.74037000  0.00920000  0.52787000  1.0 -0.8750630521
O  O41  1  0.75800000  0.13790000  0.12600000  1.0 -0.7765376174
O  O42  1  0.24200000  0.63790000  0.37400000  1.0 -0.7765376174
O  O43  1  0.24200000  0.86210000  0.87400000  1.0 -0.7765376174
O  O44  1  0.75800000  0.36210000  0.62600000  1.0 -0.7765376174
O  O45  1  0.90277000  0.46300000  0.15907000  1.0 -0.701716771
O  O46  1  0.09723000  0.96300000  0.34093000  1.0 -0.701716771
O  O47  1  0.09723000  0.53700000  0.84093000  1.0 -0.701716771
O  O48  1  0.90277000  0.03700000  0.65907000  1.0 -0.701716771
O  O49  1  0.80345000  0.80800000  0.18135000  1.0 -0.7390484449
O  O50  1  0.19655000  0.30800000  0.31865000  1.0 -0.7390484449
O  O51  1  0.19655000  0.19200000  0.81865000  1.0 -0.7390484449
O  O52  1  0.80345000  0.69200000  0.68135000  1.0 -0.7390484449
O  O53  1  0.74255000  0.37030000  0.12495000  1.0 -0.8607277104
O  O54  1  0.25745000  0.87030000  0.37505000  1.0 -0.8607277104
O  O55  1  0.25745000  0.62970000  0.87505000  1.0 -0.8607277104
O  O56  1  0.74255000  0.12970000  0.62495000  1.0 -0.8607277104
O  O57  1  0.62190000  0.75100000  0.89460000  1.0 -0.5514721263
O  O58  1  0.37810000  0.25100000  0.60540000  1.0 -0.5514721263
O  O59  1  0.37810000  0.24900000  0.10540000  1.0 -0.5514721263
O  O60  1  0.62190000  0.74900000  0.39460000  1.0 -0.5514721263
O  O61  1  0.75020000  0.88170000  0.26560000  1.0 -0.686029365
O  O62  1  0.24980000  0.38170000  0.23440000  1.0 -0.686029365
O  O63  1  0.24980000  0.11830000  0.73440000  1.0 -0.686029365
O  O64  1  0.75020000  0.61830000  0.76560000  1.0 -0.686029365
O  O65  1  0.62278000  0.71130000  0.13668000  1.0 -0.8178755744
O  O66  1  0.37722000  0.21130000  0.36332000  1.0 -0.8178755744
O  O67  1  0.37722000  0.28870000  0.86332000  1.0 -0.8178755744
O  O68  1  0.62278000  0.78870000  0.63668000  1.0 -0.8178755744
O  O69  1  0.63320000  0.59440000  0.25790000  1.0 -0.5410316689
O  O70  1  0.36680000  0.09440000  0.24210000  1.0 -0.5410316689
O  O71  1  0.36680000  0.40560000  0.74210000  1.0 -0.5410316689
O  O72  1  0.63320000  0.90560000  0.75790000  1.0 -0.5410316689
O  O73  1  0.57180000  0.28470000  0.85290000  1.0 -0.5410316689
O  O74  1  0.42820000  0.78470000  0.64710000  1.0 -0.5410316689
O  O75  1  0.42820000  0.71530000  0.14710000  1.0 -0.5410316689
O  O76  1  0.57180000  0.21530000  0.35290000  1.0 -0.5410316689
O  O77  1  0.78410000  0.60470000  0.93980000  1.0 -0.7332152791
O  O78  1  0.21590000  0.10470000  0.56020000  1.0 -0.7332152791
O  O79  1  0.21590000  0.39530000  0.06020000  1.0 -0.7332152791
O  O80  1  0.78410000  0.89530000  0.43980000  1.0 -0.7332152791
O  O81  1  0.78210000  0.22820000  0.24280000  1.0 -0.7224076145
O  O82  1  0.21790000  0.72820000  0.25720000  1.0 -0.7224076145
O  O83  1  0.21790000  0.77180000  0.75720000  1.0 -0.7224076145
O  O84  1  0.78210000  0.27180000  0.74280000  1.0 -0.7224076145
O  O85  1  0.61650000  0.32480000  0.23760000  1.0 -0.5306863093
O  O86  1  0.38350000  0.82480000  0.26240000  1.0 -0.5306863093
O  O87  1  0.38350000  0.67520000  0.76240000  1.0 -0.5306863093
O  O88  1  0.61650000  0.17520000  0.73760000  1.0 -0.5306863093
O  O89  1  0.86168000  0.49920000  0.88348000  1.0 -0.686029365
O  O90  1  0.13832000  0.99920000  0.61652000  1.0 -0.686029365
O  O91  1  0.13832000  0.50080000  0.11652000  1.0 -0.686029365
O  O92  1  0.86168000  0.00080000  0.38348000  1.0 -0.686029365
O  O93  1  0.98050000  0.67280000  0.10430000  1.0 -0.2627043429
O  O94  1  0.01950000  0.17280000  0.39570000  1.0 -0.2517531418
O  O95  1  0.01950000  0.32720000  0.89570000  1.0 -0.2627043429
O  O96  1  0.98050000  0.82720000  0.60430000  1.0 -0.2627043429
O  O97  1  0.78870000  0.45350000  0.26920000  1.0 -0.8058718347
O  O98  1  0.21130000  0.95350000  0.23080000  1.0 -0.8058718347
O  O99  1  0.21130000  0.54650000  0.73080000  1.0 -0.8058718347
O  O100  1  0.78870000  0.04650000  0.76920000  1.0 -0.8058718347
O  O101  1  0.59146000  0.24840000  0.10096000  1.0 -0.8352867567
O  O102  1  0.40854000  0.74840000  0.39904000  1.0 -0.8352867567
O  O103  1  0.40854000  0.75160000  0.89904000  1.0 -0.8352867567
O  O104  1  0.59146000  0.25160000  0.60096000  1.0 -0.8352867567
O  O105  1  0.92270000  0.45720000  0.02050000  1.0 -0.7517252617
O  O106  1  0.07730000  0.95720000  0.47950000  1.0 -0.7517252617
O  O107  1  0.07730000  0.54280000  0.97950000  1.0 -0.7517252617
O  O108  1  0.92270000  0.04280000  0.52050000  1.0 -0.7517252617
O  O109  1  0.62970000  0.86760000  0.03640000  1.0 -0.5410316689
O  O110  1  0.37030000  0.36760000  0.46360000  1.0 -0.5410316689
O  O111  1  0.37030000  0.13240000  0.96360000  1.0 -0.5410316689
O  O112  1  0.62970000  0.63240000  0.53640000  1.0 -0.5410316689
O  O113  1  0.57500000  0.12770000  0.97960000  1.0 -0.5556282305
O  O114  1  0.42500000  0.62770000  0.52040000  1.0 -0.5514721263
O  O115  1  0.42500000  0.87230000  0.02040000  1.0 -0.5514721263
O  O116  1  0.57500000  0.37230000  0.47960000  1.0 -0.5514721263
O  O117  1  0.88331000  0.05580000  0.25491000  1.0 -0.7332152791
O  O118  1  0.11669000  0.55580000  0.24509000  1.0 -0.7332152791
O  O119  1  0.11669000  0.94420000  0.74509000  1.0 -0.7332152791
O  O120  1  0.88331000  0.44420000  0.75491000  1.0 -0.7390484449
O  O121  1  0.92300000  0.23710000  0.22140000  1.0 -0.6360860371
O  O122  1  0.07700000  0.73710000  0.27860000  1.0 -0.6360860371
O  O123  1  0.07700000  0.76290000  0.77860000  1.0 -0.6360860371
O  O124  1  0.92300000  0.26290000  0.72140000  1.0 -0.6360860371
O  O125  1  0.93297000  0.83600000  0.32357000  1.0 -0.7390484449
O  O126  1  0.06703000  0.33600000  0.17643000  1.0 -0.7390484449
O  O127  1  0.06703000  0.16400000  0.67643000  1.0 -0.7390484449
O  O128  1  0.93297000  0.66400000  0.82357000  1.0 -0.7390484449
