# DDEC6 charges by PACMAN v1.1 (https://github.com/mtap-research/PACMAN-charge/)
data_TETWEW_FSR_pacman
_symmetry_space_group_name_H-M   'P 1'
_cell_length_a   12.39700000
_cell_length_b   15.19470000
_cell_length_c   20.95080000
_cell_angle_alpha   90.95000000
_cell_angle_beta   92.99700000
_cell_angle_gamma   96.04900000
_symmetry_Int_Tables_number   1
_chemical_formula_structural   NaZnMo6(PO8)4
_chemical_formula_sum   'Na4 Zn4 Mo24 P16 O128'
_cell_volume   3918.16413441
_cell_formula_units_Z   4
loop_
 _symmetry_equiv_pos_site_id
 _symmetry_equiv_pos_as_xyz
  1  'x, y, z'
loop_
 _atom_site_type_symbol
 _atom_site_label
 _atom_site_symmetry_multiplicity
 _atom_site_fract_x
 _atom_site_fract_y
 _atom_site_fract_z
 _atom_site_occupancy
 _atom_site_charge
Na  Na1  1  0.50000000  0.50000000  0.00000000  1.0 1.0484030261
Na  Na2  1  0.00000000  0.00000000  0.50000000  1.0 1.0448887363
Na  Na3  1  0.75700000  0.74680000  0.25056000  1.0 0.9266697183
Na  Na4  1  0.24300000  0.25320000  0.74944000  1.0 0.9266697183
Zn  Zn1  1  0.95967000  0.12641000  0.19740000  1.0 1.2044142499
Zn  Zn2  1  0.04033000  0.87359000  0.80260000  1.0 1.2064622655
Zn  Zn3  1  0.51918000  0.37671000  0.30606000  1.0 1.2312366977
Zn  Zn4  1  0.48082000  0.62329000  0.69394000  1.0 1.2312366977
Mo  Mo1  1  0.36236000  0.25944000  0.03045000  1.0 1.9826197639
Mo  Mo2  1  0.63764000  0.74056000  0.96955000  1.0 1.9889552012
Mo  Mo3  1  0.91090000  0.23815000  0.47791000  1.0 2.0097781077
Mo  Mo4  1  0.08910000  0.76185000  0.52209000  1.0 2.0097781077
Mo  Mo5  1  0.12079000  0.24434000  0.47359000  1.0 2.0097781077
Mo  Mo6  1  0.87921000  0.75566000  0.52641000  1.0 2.0097781077
Mo  Mo7  1  0.57046000  0.25629000  0.02620000  1.0 1.9889552012
Mo  Mo8  1  0.42954000  0.74371000  0.97380000  1.0 1.9977579132
Mo  Mo9  1  0.24058000  0.07174000  0.39493000  1.0 2.0253746524
Mo  Mo10  1  0.75942000  0.92826000  0.60507000  1.0 2.0231785789
Mo  Mo11  1  0.67646000  0.56457000  0.15285000  1.0 2.0231785789
Mo  Mo12  1  0.32354000  0.43543000  0.84715000  1.0 2.0253746524
Mo  Mo13  1  0.11837000  0.94234000  0.33699000  1.0 2.0097781077
Mo  Mo14  1  0.88163000  0.05766000  0.66301000  1.0 2.0097781077
Mo  Mo15  1  0.39065000  0.56830000  0.16255000  1.0 2.0097781077
Mo  Mo16  1  0.60935000  0.43170000  0.83745000  1.0 2.0097781077
Mo  Mo17  1  0.25831000  0.44159000  0.10757000  1.0 2.0231785789
Mo  Mo18  1  0.74169000  0.55841000  0.89243000  1.0 2.0231785789
Mo  Mo19  1  0.75197000  0.43357000  0.09381000  1.0 2.0474866643
Mo  Mo20  1  0.24803000  0.56643000  0.90619000  1.0 2.0474866643
Mo  Mo21  1  0.83022000  0.93212000  0.34398000  1.0 2.0097781077
Mo  Mo22  1  0.16978000  0.06788000  0.65602000  1.0 2.0097781077
Mo  Mo23  1  0.74519000  0.05735000  0.40196000  1.0 2.0231785789
Mo  Mo24  1  0.25481000  0.94265000  0.59804000  1.0 2.0231785789
P  P1  1  0.50502000  0.37183000  0.15790000  1.0 1.5406329945
P  P2  1  0.49498000  0.62817000  0.84210000  1.0 1.5406329945
P  P3  1  0.79805000  0.22200000  0.10682000  1.0 1.4732412711
P  P4  1  0.20195000  0.77800000  0.89318000  1.0 1.4732412711
P  P5  1  0.56297000  0.58756000  0.29173000  1.0 1.4805304026
P  P6  1  0.43703000  0.41244000  0.70827000  1.0 1.4805304026
P  P7  1  0.14188000  0.23479000  0.10960000  1.0 1.4874589458
P  P8  1  0.85812000  0.76521000  0.89040000  1.0 1.4805304026
P  P9  1  0.98958000  0.13085000  0.34428000  1.0 1.5406329945
P  P10  1  0.01042000  0.86915000  0.65572000  1.0 1.5406329945
P  P11  1  0.67736000  0.26175000  0.39875000  1.0 1.4624364391
P  P12  1  0.32264000  0.73825000  0.60125000  1.0 1.4624364391
P  P13  1  0.33706000  0.28302000  0.39249000  1.0 1.4805304026
P  P14  1  0.66294000  0.71698000  0.60751000  1.0 1.4805304026
P  P15  1  0.94929000  0.91557000  0.20587000  1.0 1.4805304026
P  P16  1  0.05071000  0.08443000  0.79413000  1.0 1.4874589458
O  O1  1  0.60590000  0.80140000  0.19780000  1.0 0.0078003912
O  O2  1  0.39410000  0.19860000  0.80220000  1.0 0.0078003912
O  O3  1  0.91820000  0.70390000  0.29990000  1.0 0.0161475368
O  O4  1  0.08180000  0.29610000  0.70010000  1.0 0.0078003912
O  O5  1  0.46280000  0.18870000  0.07640000  1.0 -0.7518744976
O  O6  1  0.53720000  0.81130000  0.92360000  1.0 -0.7581562683
O  O7  1  0.01240000  0.15400000  0.50470000  1.0 -0.809579053
O  O8  1  0.98760000  0.84600000  0.49530000  1.0 -0.809579053
O  O9  1  0.47580000  0.34430000  0.99800000  1.0 -0.7995062456
O  O10  1  0.52420000  0.65570000  0.00200000  1.0 -0.7917466915
O  O11  1  0.01440000  0.31250000  0.42990000  1.0 -0.7581562683
O  O12  1  0.98560000  0.68750000  0.57010000  1.0 -0.7581562683
O  O13  1  0.37700000  0.52050000  0.07520000  1.0 -0.809579053
O  O14  1  0.62300000  0.47950000  0.92480000  1.0 -0.7995062456
O  O15  1  0.20590000  0.04500000  0.30390000  1.0 -0.7518744976
O  O16  1  0.79410000  0.95500000  0.69610000  1.0 -0.7581562683
O  O17  1  0.29590000  0.47210000  0.19810000  1.0 -0.7518744976
O  O18  1  0.70410000  0.52790000  0.80190000  1.0 -0.7518744976
O  O19  1  0.64830000  0.51510000  0.06660000  1.0 -0.809579053
O  O20  1  0.35170000  0.48490000  0.93340000  1.0 -0.809579053
O  O21  1  0.22810000  0.31120000  0.41350000  1.0 -0.6898875999
O  O22  1  0.77190000  0.68880000  0.58650000  1.0 -0.6898875999
O  O23  1  0.12770000  0.98660000  0.42540000  1.0 -0.7917466915
O  O24  1  0.87230000  0.01340000  0.57460000  1.0 -0.7917466915
O  O25  1  0.06440000  0.23410000  0.05000000  1.0 -0.5788783565
O  O26  1  0.93560000  0.76590000  0.95000000  1.0 -0.5709530175
O  O27  1  0.35470000  0.02470000  0.41500000  1.0 -0.3898536846
O  O28  1  0.64530000  0.97530000  0.58500000  1.0 -0.3898536846
O  O29  1  0.89510000  0.29500000  0.54600000  1.0 -0.4415989503
O  O30  1  0.10490000  0.70500000  0.45400000  1.0 -0.4415989503
O  O31  1  0.24890000  0.20020000  0.09040000  1.0 -0.6898875999
O  O32  1  0.75110000  0.79980000  0.90960000  1.0 -0.6898875999
O  O33  1  0.67620000  0.16860000  0.37010000  1.0 -0.6898875999
O  O34  1  0.32380000  0.83140000  0.62990000  1.0 -0.6898875999
O  O35  1  0.32180000  0.18890000  0.36360000  1.0 -0.6898875999
O  O36  1  0.67820000  0.81110000  0.63640000  1.0 -0.6898875999
O  O37  1  0.14940000  0.49400000  0.08590000  1.0 -0.3840158269
O  O38  1  0.85060000  0.50600000  0.91410000  1.0 -0.3840158269
O  O39  1  0.09780000  0.15710000  0.38270000  1.0 -0.7792221988
O  O40  1  0.90220000  0.84290000  0.61730000  1.0 -0.7792221988
O  O41  1  0.85190000  0.97960000  0.43130000  1.0 -0.7995062456
O  O42  1  0.14810000  0.02040000  0.56870000  1.0 -0.7995062456
O  O43  1  0.54070000  0.63480000  0.13360000  1.0 -0.6353243575
O  O44  1  0.45930000  0.36520000  0.86640000  1.0 -0.6288956389
O  O45  1  0.75150000  0.02840000  0.31080000  1.0 -0.7518744976
O  O46  1  0.24850000  0.97160000  0.68920000  1.0 -0.7518744976
O  O47  1  0.19860000  0.85970000  0.33910000  1.0 -0.4166620061
O  O48  1  0.80140000  0.14030000  0.66090000  1.0 -0.4090430339
O  O49  1  0.82430000  0.17310000  0.16710000  1.0 -0.6898875999
O  O50  1  0.17570000  0.82690000  0.83290000  1.0 -0.6898875999
O  O51  1  0.69860000  0.35670000  0.01150000  1.0 -0.6992645137
O  O52  1  0.30140000  0.64330000  0.98850000  1.0 -0.6992645137
O  O53  1  0.75110000  0.46530000  0.18490000  1.0 -0.7518744976
O  O54  1  0.24890000  0.53470000  0.81510000  1.0 -0.7518744976
O  O55  1  0.73640000  0.84530000  0.35150000  1.0 -0.4668025956
O  O56  1  0.26360000  0.15470000  0.64850000  1.0 -0.4668025956
O  O57  1  0.50900000  0.32030000  0.22080000  1.0 -0.6779044852
O  O58  1  0.49100000  0.67970000  0.77920000  1.0 -0.6779044852
O  O59  1  0.98560000  0.18150000  0.28220000  1.0 -0.6779044852
O  O60  1  0.01440000  0.81850000  0.71780000  1.0 -0.6779044852
O  O61  1  0.89650000  0.15170000  0.38600000  1.0 -0.7917466915
O  O62  1  0.10350000  0.84830000  0.61400000  1.0 -0.7917466915
O  O63  1  0.09360000  0.17370000  0.15970000  1.0 -0.6898875999
O  O64  1  0.90640000  0.82630000  0.84030000  1.0 -0.6898875999
O  O65  1  0.26340000  0.36530000  0.02310000  1.0 -0.6898875999
O  O66  1  0.73660000  0.63470000  0.97690000  1.0 -0.6992645137
O  O67  1  0.16660000  0.30330000  0.54000000  1.0 -0.4090430339
O  O68  1  0.83340000  0.69670000  0.46000000  1.0 -0.4090430339
O  O69  1  0.45370000  0.59530000  0.25380000  1.0 -0.6992645137
O  O70  1  0.54630000  0.40470000  0.74620000  1.0 -0.706687747
O  O71  1  0.85730000  0.89380000  0.25180000  1.0 -0.7694202647
O  O72  1  0.14270000  0.10620000  0.74820000  1.0 -0.7694202647
O  O73  1  0.16750000  0.32900000  0.13920000  1.0 -0.6992645137
O  O74  1  0.83250000  0.67100000  0.86080000  1.0 -0.6898875999
O  O75  1  0.06050000  0.91880000  0.24380000  1.0 -0.6992645137
O  O76  1  0.93950000  0.08120000  0.75620000  1.0 -0.6992645137
O  O77  1  0.31530000  0.20030000  0.96450000  1.0 -0.4090430339
O  O78  1  0.68470000  0.79970000  0.03550000  1.0 -0.4090430339
O  O79  1  0.31770000  0.65540000  0.15900000  1.0 -0.4090430339
O  O80  1  0.68230000  0.34460000  0.84100000  1.0 -0.4090430339
O  O81  1  0.68080000  0.19440000  0.08320000  1.0 -0.6898875999
O  O82  1  0.31920000  0.80560000  0.91680000  1.0 -0.6898875999
O  O83  1  0.62880000  0.00420000  0.42610000  1.0 -0.3688938305
O  O84  1  0.37120000  0.99580000  0.57390000  1.0 -0.3688938305
O  O85  1  0.82050000  0.32130000  0.12120000  1.0 -0.6992645137
O  O86  1  0.17950000  0.67870000  0.87880000  1.0 -0.6992645137
O  O87  1  0.86840000  0.48340000  0.06720000  1.0 -0.3688938305
O  O88  1  0.13160000  0.51660000  0.93280000  1.0 -0.3688938305
O  O89  1  0.41630000  0.29000000  0.45170000  1.0 -0.5709530175
O  O90  1  0.58370000  0.71000000  0.54830000  1.0 -0.5788783565
O  O91  1  0.22840000  0.14480000  0.48060000  1.0 -0.6992645137
O  O92  1  0.77160000  0.85520000  0.51940000  1.0 -0.6898875999
O  O93  1  0.97860000  0.03060000  0.32870000  1.0 -0.809579053
O  O94  1  0.02140000  0.96940000  0.67130000  1.0 -0.809579053
O  O95  1  0.94370000  0.84390000  0.15420000  1.0 -0.5709530175
O  O96  1  0.05630000  0.15610000  0.84580000  1.0 -0.5709530175
O  O97  1  0.39430000  0.34900000  0.12190000  1.0 -0.7792221988
O  O98  1  0.60570000  0.65100000  0.87810000  1.0 -0.7792221988
O  O99  1  0.58100000  0.19600000  0.95900000  1.0 -0.4415989503
O  O100  1  0.41900000  0.80400000  0.04100000  1.0 -0.4415989503
O  O101  1  0.78740000  0.13240000  0.48730000  1.0 -0.6992645137
O  O102  1  0.21260000  0.86760000  0.51270000  1.0 -0.6992645137
O  O103  1  0.97260000  0.86770000  0.36370000  1.0 -0.6235755071
O  O104  1  0.02740000  0.13230000  0.63630000  1.0 -0.6288956389
O  O105  1  0.77370000  0.64830000  0.14350000  1.0 -0.4635313585
O  O106  1  0.22630000  0.35170000  0.85650000  1.0 -0.4635313585
O  O107  1  0.56470000  0.49720000  0.32250000  1.0 -0.6898875999
O  O108  1  0.43530000  0.50280000  0.67750000  1.0 -0.6898875999
O  O109  1  0.65680000  0.60190000  0.24590000  1.0 -0.7792221988
O  O110  1  0.34320000  0.39810000  0.75410000  1.0 -0.7792221988
O  O111  1  0.59580000  0.34640000  0.11580000  1.0 -0.7917466915
O  O112  1  0.40420000  0.65360000  0.88420000  1.0 -0.7917466915
O  O113  1  0.93550000  0.00450000  0.17520000  1.0 -0.6898875999
O  O114  1  0.06450000  0.99550000  0.82480000  1.0 -0.6898875999
O  O115  1  0.79240000  0.29680000  0.42320000  1.0 -0.6992645137
O  O116  1  0.20760000  0.70320000  0.57680000  1.0 -0.6992645137
O  O117  1  0.52290000  0.47230000  0.17230000  1.0 -0.809579053
O  O118  1  0.47710000  0.52770000  0.82770000  1.0 -0.809579053
O  O119  1  0.64040000  0.32140000  0.34590000  1.0 -0.6898875999
O  O120  1  0.35960000  0.67860000  0.65410000  1.0 -0.6898875999
O  O121  1  0.60290000  0.26020000  0.45570000  1.0 -0.5709530175
O  O122  1  0.39710000  0.73980000  0.54430000  1.0 -0.5709530175
O  O123  1  0.57680000  0.65950000  0.34360000  1.0 -0.5788783565
O  O124  1  0.42320000  0.34050000  0.65640000  1.0 -0.5788783565
O  O125  1  0.37830000  0.34610000  0.34130000  1.0 -0.6992645137
O  O126  1  0.62170000  0.65390000  0.65870000  1.0 -0.6992645137
O  O127  1  0.86730000  0.19240000  0.05250000  1.0 -0.5709530175
O  O128  1  0.13270000  0.80760000  0.94750000  1.0 -0.5709530175
