# DDEC6 charges by PACMAN v1.1 (https://github.com/mtap-research/PACMAN-charge/)
data_TETWUM_FSR_pacman
_symmetry_space_group_name_H-M   'P 1'
_cell_length_a   16.82320000
_cell_length_b   16.82320000
_cell_length_c   12.00260000
_cell_angle_alpha   74.31360000
_cell_angle_beta   105.68600000
_cell_angle_gamma   128.50500000
_symmetry_Int_Tables_number   1
_chemical_formula_structural   Cd2H18C21(NO5)2
_chemical_formula_sum   'Cd8 H72 C84 N8 O40'
_cell_volume   2535.73037114
_cell_formula_units_Z   4
loop_
 _symmetry_equiv_pos_site_id
 _symmetry_equiv_pos_as_xyz
  1  'x, y, z'
loop_
 _atom_site_type_symbol
 _atom_site_label
 _atom_site_symmetry_multiplicity
 _atom_site_fract_x
 _atom_site_fract_y
 _atom_site_fract_z
 _atom_site_occupancy
 _atom_site_charge
Cd  Cd1  1  0.74272000  0.17448000  0.06867000  1.0 0.8913615685
Cd  Cd2  1  0.17448000  0.74272000  0.43133000  1.0 0.8913615685
Cd  Cd3  1  0.25728000  0.82552000  0.93133000  1.0 0.8913615685
Cd  Cd4  1  0.82552000  0.25728000  0.56867000  1.0 0.8913615685
Cd  Cd5  1  0.16066000  0.51388000  0.67245000  1.0 0.9929856004
Cd  Cd6  1  0.51388000  0.16066000  0.82755000  1.0 0.9967328053
Cd  Cd7  1  0.83934000  0.48612000  0.32755000  1.0 0.9929856004
Cd  Cd8  1  0.48612000  0.83934000  0.17245000  1.0 0.9929856004
H  H1  1  0.95290000  0.52370000  0.92060000  1.0 0.0972719234
H  H2  1  0.52370000  0.95290000  0.57940000  1.0 0.0972719234
H  H3  1  0.04710000  0.47630000  0.07940000  1.0 0.0972719234
H  H4  1  0.47630000  0.04710000  0.42060000  1.0 0.0972719234
H  H5  1  0.04160000  0.50560000  0.83470000  1.0 0.1124076233
H  H6  1  0.50560000  0.04160000  0.66530000  1.0 0.1124076233
H  H7  1  0.95840000  0.49440000  0.16530000  1.0 0.1124076233
H  H8  1  0.49440000  0.95840000  0.33470000  1.0 0.1124076233
H  H9  1  0.03880000  0.64300000  0.76700000  1.0 0.0972719234
H  H10  1  0.64300000  0.03880000  0.73300000  1.0 0.0972719234
H  H11  1  0.96120000  0.35700000  0.23300000  1.0 0.0972719234
H  H12  1  0.35700000  0.96120000  0.26700000  1.0 0.0972719234
H  H13  1  0.90490000  0.63850000  0.67480000  1.0 0.089972868
H  H14  1  0.63850000  0.90490000  0.82520000  1.0 0.089972868
H  H15  1  0.09510000  0.36150000  0.32520000  1.0 0.089972868
H  H16  1  0.36150000  0.09510000  0.17480000  1.0 0.089972868
H  H17  1  0.82800000  0.53700000  0.82930000  1.0 0.089972868
H  H18  1  0.53700000  0.82800000  0.67070000  1.0 0.089972868
H  H19  1  0.17200000  0.46300000  0.17070000  1.0 0.089972868
H  H20  1  0.46300000  0.17200000  0.32930000  1.0 0.089972868
H  H21  1  0.77090000  0.44110000  0.76400000  1.0 0.1199098774
H  H22  1  0.44110000  0.77090000  0.73600000  1.0 0.1199098774
H  H23  1  0.22910000  0.55890000  0.23600000  1.0 0.1199098774
H  H24  1  0.55890000  0.22910000  0.26400000  1.0 0.1199098774
H  H25  1  0.80140000  0.10320000  0.33750000  1.0 0.1199098774
H  H26  1  0.10320000  0.80140000  0.16250000  1.0 0.1199098774
H  H27  1  0.19860000  0.89680000  0.66250000  1.0 0.1199098774
H  H28  1  0.89680000  0.19860000  0.83750000  1.0 0.1199098774
H  H29  1  0.92380000  0.09080000  0.46090000  1.0 0.1390910302
H  H30  1  0.09080000  0.92380000  0.03910000  1.0 0.1390910302
H  H31  1  0.07620000  0.90920000  0.53910000  1.0 0.1390910302
H  H32  1  0.90920000  0.07620000  0.96090000  1.0 0.1390910302
H  H33  1  0.08400000  0.21200000  0.19630000  1.0 0.1390910302
H  H34  1  0.21200000  0.08400000  0.30370000  1.0 0.1390910302
H  H35  1  0.91600000  0.78800000  0.80370000  1.0 0.1390910302
H  H36  1  0.78800000  0.91600000  0.69630000  1.0 0.1390910302
H  H37  1  0.95700000  0.22200000  0.07940000  1.0 0.1124076233
H  H38  1  0.22200000  0.95700000  0.42060000  1.0 0.1124076233
H  H39  1  0.04300000  0.77800000  0.92060000  1.0 0.1124076233
H  H40  1  0.77800000  0.04300000  0.57940000  1.0 0.1124076233
H  H41  1  0.19080000  0.28480000  0.47520000  1.0 0.1390910302
H  H42  1  0.28480000  0.19080000  0.02480000  1.0 0.1390910302
H  H43  1  0.80920000  0.71520000  0.52480000  1.0 0.1390910302
H  H44  1  0.71520000  0.80920000  0.97520000  1.0 0.1390910302
H  H45  1  0.11270000  0.19790000  0.56160000  1.0 0.1199098774
H  H46  1  0.19790000  0.11270000  0.93840000  1.0 0.1199098774
H  H47  1  0.88730000  0.80210000  0.43840000  1.0 0.1199098774
H  H48  1  0.80210000  0.88730000  0.06160000  1.0 0.1199098774
H  H49  1  0.15150000  0.16350000  0.37530000  1.0 0.1199098774
H  H50  1  0.16350000  0.15150000  0.12470000  1.0 0.1199098774
H  H51  1  0.84850000  0.83650000  0.62470000  1.0 0.1199098774
H  H52  1  0.83650000  0.84850000  0.87530000  1.0 0.1199098774
H  H53  1  0.07410000  0.07650000  0.46180000  1.0 0.1199098774
H  H54  1  0.07650000  0.07410000  0.03820000  1.0 0.1199098774
H  H55  1  0.92590000  0.92350000  0.53820000  1.0 0.1199098774
H  H56  1  0.92350000  0.92590000  0.96180000  1.0 0.1199098774
H  H57  1  0.28470000  0.07110000  0.81000000  1.0 0.1124076233
H  H58  1  0.07110000  0.28470000  0.69000000  1.0 0.1124076233
H  H59  1  0.71530000  0.92890000  0.19000000  1.0 0.1124076233
H  H60  1  0.92890000  0.71530000  0.31000000  1.0 0.1124076233
H  H61  1  0.15640000  0.08560000  0.70620000  1.0 0.1199098774
H  H62  1  0.08560000  0.15640000  0.79380000  1.0 0.1199098774
H  H63  1  0.84360000  0.91440000  0.29380000  1.0 0.1199098774
H  H64  1  0.91440000  0.84360000  0.20620000  1.0 0.1199098774
H  H65  1  0.35810000  0.32410000  0.50340000  1.0 0.1390910302
H  H66  1  0.32410000  0.35810000  0.99660000  1.0 0.1390910302
H  H67  1  0.64190000  0.67590000  0.49660000  1.0 0.1390910302
H  H68  1  0.67590000  0.64190000  0.00340000  1.0 0.1390910302
H  H69  1  0.48020000  0.30060000  0.61090000  1.0 0.1124076233
H  H70  1  0.30060000  0.48020000  0.88910000  1.0 0.1124076233
H  H71  1  0.51980000  0.69940000  0.38910000  1.0 0.1124076233
H  H72  1  0.69940000  0.51980000  0.11090000  1.0 0.1124076233
C  C1  1  0.90820000  0.47280000  0.86620000  1.0 -0.1303010765
C  C2  1  0.47280000  0.90820000  0.63380000  1.0 -0.1303010765
C  C3  1  0.09180000  0.52720000  0.13380000  1.0 -0.1303010765
C  C4  1  0.52720000  0.09180000  0.36620000  1.0 -0.1303010765
C  C5  1  0.97780000  0.49180000  0.78740000  1.0 -0.1652288098
C  C6  1  0.49180000  0.97780000  0.71260000  1.0 -0.1652288098
C  C7  1  0.02220000  0.50820000  0.21260000  1.0 -0.1652288098
C  C8  1  0.50820000  0.02220000  0.28740000  1.0 -0.1647418398
C  C9  1  0.99957000  0.59263000  0.71210000  1.0 -0.1498155752
C  C10  1  0.59263000  0.99957000  0.78790000  1.0 -0.1498155752
C  C11  1  0.00043000  0.40737000  0.28790000  1.0 -0.1498155752
C  C12  1  0.40737000  0.00043000  0.21210000  1.0 -0.1498155752
C  C13  1  0.89414000  0.57326000  0.68100000  1.0 -0.1303010765
C  C14  1  0.57326000  0.89414000  0.81900000  1.0 -0.1303010765
C  C15  1  0.10586000  0.42674000  0.31900000  1.0 -0.1303010765
C  C16  1  0.42674000  0.10586000  0.18100000  1.0 -0.1303010765
C  C17  1  0.83750000  0.50170000  0.78810000  1.0 -0.1993194814
C  C18  1  0.50170000  0.83750000  0.71190000  1.0 -0.1993194814
C  C19  1  0.16250000  0.49830000  0.21190000  1.0 -0.1993194814
C  C20  1  0.49830000  0.16250000  0.28810000  1.0 -0.1993194814
C  C21  1  0.85460000  0.36900000  0.94140000  1.0 0.5482654315
C  C22  1  0.36900000  0.85460000  0.55860000  1.0 0.5482654315
C  C23  1  0.14540000  0.63100000  0.05860000  1.0 0.5482654315
C  C24  1  0.63100000  0.14540000  0.44140000  1.0 0.5482654315
C  C25  1  0.92870000  0.40350000  0.71940000  1.0 0.6001293328
C  C26  1  0.40350000  0.92870000  0.78060000  1.0 0.6001293328
C  C27  1  0.07130000  0.59650000  0.28060000  1.0 0.6001293328
C  C28  1  0.59650000  0.07130000  0.21940000  1.0 0.6001293328
C  C29  1  0.06130000  0.64410000  0.61120000  1.0 0.6001293328
C  C30  1  0.64410000  0.06130000  0.88880000  1.0 0.6001293328
C  C31  1  0.93870000  0.35590000  0.38880000  1.0 0.6001293328
C  C32  1  0.35590000  0.93870000  0.11120000  1.0 0.6001293328
C  C33  1  0.83260000  0.52800000  0.56710000  1.0 0.5737375659
C  C34  1  0.52800000  0.83260000  0.93290000  1.0 0.5737375659
C  C35  1  0.16740000  0.47200000  0.43290000  1.0 0.5737375659
C  C36  1  0.47200000  0.16740000  0.06710000  1.0 0.5737375659
C  C37  1  0.85890000  0.12530000  0.30820000  1.0 0.0972719234
C  C38  1  0.12530000  0.85890000  0.19180000  1.0 0.0972719234
C  C39  1  0.14110000  0.87470000  0.69180000  1.0 0.0972719234
C  C40  1  0.87470000  0.14110000  0.80820000  1.0 0.0972719234
C  C41  1  0.93310000  0.11810000  0.38310000  1.0 -0.1993194814
C  C42  1  0.11810000  0.93310000  0.11690000  1.0 -0.1993194814
C  C43  1  0.06690000  0.88190000  0.61690000  1.0 -0.1993194814
C  C44  1  0.88190000  0.06690000  0.88310000  1.0 -0.1993194814
C  C45  1  0.01950000  0.15010000  0.34590000  1.0 0.1587057639
C  C46  1  0.15010000  0.01950000  0.15410000  1.0 0.1587057639
C  C47  1  0.98050000  0.84990000  0.65410000  1.0 0.1587057639
C  C48  1  0.84990000  0.98050000  0.84590000  1.0 0.1587057639
C  C49  1  0.02720000  0.18940000  0.22770000  1.0 -0.2267799653
C  C50  1  0.18940000  0.02720000  0.27230000  1.0 -0.2267799653
C  C51  1  0.97280000  0.81060000  0.77230000  1.0 -0.2267799653
C  C52  1  0.81060000  0.97280000  0.72770000  1.0 -0.2267799653
C  C53  1  0.95000000  0.19460000  0.15750000  1.0 0.0815455023
C  C54  1  0.19460000  0.95000000  0.34250000  1.0 0.0815455023
C  C55  1  0.05000000  0.80540000  0.84250000  1.0 0.0815455023
C  C56  1  0.80540000  0.05000000  0.65750000  1.0 0.0815455023
C  C57  1  0.16000000  0.21460000  0.51270000  1.0 -0.2186340052
C  C58  1  0.21460000  0.16000000  0.98730000  1.0 -0.2186340052
C  C59  1  0.84000000  0.78540000  0.48730000  1.0 -0.2186340052
C  C60  1  0.78540000  0.84000000  0.01270000  1.0 -0.2186340052
C  C61  1  0.10350000  0.14630000  0.42350000  1.0 -0.2405961114
C  C62  1  0.14630000  0.10350000  0.07650000  1.0 -0.2405961114
C  C63  1  0.89650000  0.85370000  0.57650000  1.0 -0.2405961114
C  C64  1  0.85370000  0.89650000  0.92350000  1.0 -0.2405961114
C  C65  1  0.30000000  0.12220000  0.74650000  1.0 0.0648129773
C  C66  1  0.12220000  0.30000000  0.75350000  1.0 0.0648129773
C  C67  1  0.70000000  0.87780000  0.25350000  1.0 0.0648129773
C  C68  1  0.87780000  0.70000000  0.24650000  1.0 0.0648129773
C  C69  1  0.22190000  0.13010000  0.68440000  1.0 -0.2267799653
C  C70  1  0.13010000  0.22190000  0.81560000  1.0 -0.2267799653
C  C71  1  0.77810000  0.86990000  0.31560000  1.0 -0.2267799653
C  C72  1  0.86990000  0.77810000  0.18440000  1.0 -0.2267799653
C  C73  1  0.24380000  0.20620000  0.58890000  1.0 0.148801316
C  C74  1  0.20620000  0.24380000  0.91110000  1.0 0.148801316
C  C75  1  0.75620000  0.79380000  0.41110000  1.0 0.148801316
C  C76  1  0.79380000  0.75620000  0.08890000  1.0 0.148801316
C  C77  1  0.34010000  0.27030000  0.56430000  1.0 -0.2057936262
C  C78  1  0.27030000  0.34010000  0.93570000  1.0 -0.2057936262
C  C79  1  0.65990000  0.72970000  0.43570000  1.0 -0.2057936262
C  C80  1  0.72970000  0.65990000  0.06430000  1.0 -0.2057936262
C  C81  1  0.41410000  0.25630000  0.63090000  1.0 0.0815455023
C  C82  1  0.25630000  0.41410000  0.86910000  1.0 0.0815455023
C  C83  1  0.58590000  0.74370000  0.36910000  1.0 0.0815455023
C  C84  1  0.74370000  0.58590000  0.13090000  1.0 0.0815455023
N  N1  1  0.86646000  0.16254000  0.19610000  1.0 -0.2405961114
N  N2  1  0.16254000  0.86646000  0.30390000  1.0 -0.2405961114
N  N3  1  0.13354000  0.83746000  0.80390000  1.0 -0.2405961114
N  N4  1  0.83746000  0.13354000  0.69610000  1.0 -0.2405961114
N  N5  1  0.39470000  0.18350000  0.72040000  1.0 -0.2619929123
N  N6  1  0.18350000  0.39470000  0.77960000  1.0 -0.2619929123
N  N7  1  0.60530000  0.81650000  0.27960000  1.0 -0.2619929123
N  N8  1  0.81650000  0.60530000  0.22040000  1.0 -0.2619929123
O  O1  1  0.77638000  0.33722000  0.98410000  1.0 -0.4300079006
O  O2  1  0.33722000  0.77638000  0.51590000  1.0 -0.4300079006
O  O3  1  0.22362000  0.66278000  0.01590000  1.0 -0.4300079006
O  O4  1  0.66278000  0.22362000  0.48410000  1.0 -0.4300079006
O  O5  1  0.88894000  0.31846000  0.96490000  1.0 -0.5608655471
O  O6  1  0.31846000  0.88894000  0.53510000  1.0 -0.5608655471
O  O7  1  0.11106000  0.68154000  0.03510000  1.0 -0.5608655471
O  O8  1  0.68154000  0.11106000  0.46490000  1.0 -0.5608655471
O  O9  1  0.83272000  0.34208000  0.69780000  1.0 -0.4515048671
O  O10  1  0.34208000  0.83272000  0.80220000  1.0 -0.4515048671
O  O11  1  0.16728000  0.65792000  0.30220000  1.0 -0.4515048671
O  O12  1  0.65792000  0.16728000  0.19780000  1.0 -0.4515048671
O  O13  1  0.98635000  0.39225000  0.68650000  1.0 -0.5963749546
O  O14  1  0.39225000  0.98635000  0.81350000  1.0 -0.5963749546
O  O15  1  0.01365000  0.60775000  0.31350000  1.0 -0.5963749546
O  O16  1  0.60775000  0.01365000  0.18650000  1.0 -0.5963749546
O  O17  1  0.11792000  0.62128000  0.59960000  1.0 -0.5375575829
O  O18  1  0.62128000  0.11792000  0.90040000  1.0 -0.5375575829
O  O19  1  0.88208000  0.37872000  0.40040000  1.0 -0.5375575829
O  O20  1  0.37872000  0.88208000  0.09960000  1.0 -0.5375575829
O  O21  1  0.06187000  0.71493000  0.54290000  1.0 -0.5321541238
O  O22  1  0.71493000  0.06187000  0.95710000  1.0 -0.5321541238
O  O23  1  0.93813000  0.28507000  0.45710000  1.0 -0.5321541238
O  O24  1  0.28507000  0.93813000  0.04290000  1.0 -0.5321541238
O  O25  1  0.87504000  0.51576000  0.50930000  1.0 -0.5468399185
O  O26  1  0.51576000  0.87504000  0.99070000  1.0 -0.5468399185
O  O27  1  0.12496000  0.48424000  0.49070000  1.0 -0.5468399185
O  O28  1  0.48424000  0.12496000  0.00930000  1.0 -0.5468399185
O  O29  1  0.74564000  0.50756000  0.53850000  1.0 -0.5224823166
O  O30  1  0.50756000  0.74564000  0.96150000  1.0 -0.5224823166
O  O31  1  0.25436000  0.49244000  0.46150000  1.0 -0.5224823166
O  O32  1  0.49244000  0.25436000  0.03850000  1.0 -0.5224823166
O  O33  1  0.33348000  0.60552000  0.63210000  1.0 -0.0199075086
O  O34  1  0.60552000  0.33348000  0.86790000  1.0 -0.0199075086
O  O35  1  0.66652000  0.39448000  0.36790000  1.0 -0.0199075086
O  O36  1  0.39448000  0.66652000  0.13210000  1.0 -0.0199075086
O  O37  1  0.25110000  0.61530000  0.82850000  1.0 -0.1498155752
O  O38  1  0.61530000  0.25110000  0.67150000  1.0 -0.1498155752
O  O39  1  0.74890000  0.38470000  0.17150000  1.0 -0.1444662321
O  O40  1  0.38470000  0.74890000  0.32850000  1.0 -0.1444662321
