# DDEC6 charges by PACMAN v1.1 (https://github.com/mtap-research/PACMAN-charge/)
data_TETZEX_FSR_pacman
_symmetry_space_group_name_H-M   'P 1'
_cell_length_a   10.21240000
_cell_length_b   17.37700000
_cell_length_c   27.32900000
_cell_angle_alpha   90.00000000
_cell_angle_beta   90.00000000
_cell_angle_gamma   90.00000000
_symmetry_Int_Tables_number   1
_chemical_formula_structural   Ga2P2O8F
_chemical_formula_sum   'Ga32 P32 O128 F16'
_cell_volume   4849.82824741
_cell_formula_units_Z   16
loop_
 _symmetry_equiv_pos_site_id
 _symmetry_equiv_pos_as_xyz
  1  'x, y, z'
loop_
 _atom_site_type_symbol
 _atom_site_label
 _atom_site_symmetry_multiplicity
 _atom_site_fract_x
 _atom_site_fract_y
 _atom_site_fract_z
 _atom_site_occupancy
 _atom_site_charge
Ga  Ga1  1  0.11040000  0.67770000  0.65650000  1.0 1.5015781198
Ga  Ga2  1  0.61040000  0.82230000  0.84350000  1.0 1.5070644015
Ga  Ga3  1  0.88960000  0.82230000  0.15650000  1.0 1.5070644015
Ga  Ga4  1  0.38960000  0.67770000  0.34350000  1.0 1.5070644015
Ga  Ga5  1  0.88960000  0.32230000  0.34350000  1.0 1.5070644015
Ga  Ga6  1  0.38960000  0.17770000  0.15650000  1.0 1.5070644015
Ga  Ga7  1  0.11040000  0.17770000  0.84350000  1.0 1.5015781198
Ga  Ga8  1  0.61040000  0.32230000  0.65650000  1.0 1.5015781198
Ga  Ga9  1  0.08860000  0.73970000  0.77980000  1.0 1.4695935522
Ga  Ga10  1  0.58860000  0.76030000  0.72020000  1.0 1.4695935522
Ga  Ga11  1  0.91140000  0.76030000  0.27980000  1.0 1.4695935522
Ga  Ga12  1  0.41140000  0.73970000  0.22020000  1.0 1.4636085504
Ga  Ga13  1  0.91140000  0.26030000  0.22020000  1.0 1.4636085504
Ga  Ga14  1  0.41140000  0.23970000  0.27980000  1.0 1.4695935522
Ga  Ga15  1  0.08860000  0.23970000  0.72020000  1.0 1.4695935522
Ga  Ga16  1  0.58860000  0.26030000  0.77980000  1.0 1.4695935522
Ga  Ga17  1  0.92510000  0.91330000  0.75740000  1.0 1.5387951352
Ga  Ga18  1  0.42510000  0.58670000  0.74260000  1.0 1.5387951352
Ga  Ga19  1  0.07490000  0.58670000  0.25740000  1.0 1.5387951352
Ga  Ga20  1  0.57490000  0.91330000  0.24260000  1.0 1.5387951352
Ga  Ga21  1  0.07490000  0.08670000  0.24260000  1.0 1.5387951352
Ga  Ga22  1  0.57490000  0.41330000  0.25740000  1.0 1.5387951352
Ga  Ga23  1  0.92510000  0.41330000  0.74260000  1.0 1.5387951352
Ga  Ga24  1  0.42510000  0.08670000  0.75740000  1.0 1.5387951352
Ga  Ga25  1  0.90050000  0.42270000  0.55310000  1.0 1.5502770061
Ga  Ga26  1  0.40050000  0.07730000  0.94690000  1.0 1.5502770061
Ga  Ga27  1  0.09950000  0.07730000  0.05310000  1.0 1.5502770061
Ga  Ga28  1  0.59950000  0.42270000  0.44690000  1.0 1.5502770061
Ga  Ga29  1  0.09950000  0.57730000  0.44690000  1.0 1.5502770061
Ga  Ga30  1  0.59950000  0.92270000  0.05310000  1.0 1.5502770061
Ga  Ga31  1  0.90050000  0.92270000  0.94690000  1.0 1.5502770061
Ga  Ga32  1  0.40050000  0.57730000  0.55310000  1.0 1.5502770061
P  P1  1  0.90470000  0.82240000  0.85790000  1.0 1.5236543491
P  P2  1  0.40470000  0.67760000  0.64210000  1.0 1.5236543491
P  P3  1  0.09530000  0.67760000  0.35790000  1.0 1.5236543491
P  P4  1  0.59530000  0.82240000  0.14210000  1.0 1.5236543491
P  P5  1  0.09530000  0.17760000  0.14210000  1.0 1.5267104679
P  P6  1  0.59530000  0.32240000  0.35790000  1.0 1.5236543491
P  P7  1  0.90470000  0.32240000  0.64210000  1.0 1.5236543491
P  P8  1  0.40470000  0.17760000  0.85790000  1.0 1.5236543491
P  P9  1  0.09630000  0.57340000  0.55920000  1.0 1.5267104679
P  P10  1  0.59630000  0.92660000  0.94080000  1.0 1.5236543491
P  P11  1  0.90370000  0.92660000  0.05920000  1.0 1.5236543491
P  P12  1  0.40370000  0.57340000  0.44080000  1.0 1.5236543491
P  P13  1  0.90370000  0.42660000  0.44080000  1.0 1.5236543491
P  P14  1  0.40370000  0.07340000  0.05920000  1.0 1.5267104679
P  P15  1  0.09630000  0.07340000  0.94080000  1.0 1.5267104679
P  P16  1  0.59630000  0.42660000  0.55920000  1.0 1.5236543491
P  P17  1  0.11160000  0.06500000  0.75390000  1.0 1.5502770061
P  P18  1  0.61160000  0.43500000  0.74610000  1.0 1.5387951352
P  P19  1  0.88840000  0.43500000  0.25390000  1.0 1.5387951352
P  P20  1  0.38840000  0.06500000  0.24610000  1.0 1.5387951352
P  P21  1  0.88840000  0.93500000  0.24610000  1.0 1.5387951352
P  P22  1  0.38840000  0.56500000  0.25390000  1.0 1.5387951352
P  P23  1  0.11160000  0.56500000  0.74610000  1.0 1.5502770061
P  P24  1  0.61160000  0.93500000  0.75390000  1.0 1.5387951352
P  P25  1  0.88520000  0.77120000  0.69610000  1.0 1.5015781198
P  P26  1  0.38520000  0.72880000  0.80390000  1.0 1.5070644015
P  P27  1  0.11480000  0.72880000  0.19610000  1.0 1.5070644015
P  P28  1  0.61480000  0.77120000  0.30390000  1.0 1.5015781198
P  P29  1  0.11480000  0.22880000  0.30390000  1.0 1.5070644015
P  P30  1  0.61480000  0.27120000  0.19610000  1.0 1.5070644015
P  P31  1  0.88520000  0.27120000  0.80390000  1.0 1.5015781198
P  P32  1  0.38520000  0.22880000  0.69610000  1.0 1.5070644015
O  O1  1  0.98690000  0.75660000  0.83860000  1.0 -0.6699940463
O  O2  1  0.48690000  0.74340000  0.66140000  1.0 -0.6699940463
O  O3  1  0.01310000  0.74340000  0.33860000  1.0 -0.6699940463
O  O4  1  0.51310000  0.75660000  0.16140000  1.0 -0.6699940463
O  O5  1  0.01310000  0.24340000  0.16140000  1.0 -0.6699940463
O  O6  1  0.51310000  0.25660000  0.33860000  1.0 -0.6699940463
O  O7  1  0.98690000  0.25660000  0.66140000  1.0 -0.6699940463
O  O8  1  0.48690000  0.24340000  0.83860000  1.0 -0.6699940463
O  O9  1  0.76720000  0.79510000  0.87260000  1.0 -0.7058799391
O  O10  1  0.26720000  0.70490000  0.62740000  1.0 -0.7010117468
O  O11  1  0.23280000  0.70490000  0.37260000  1.0 -0.7010117468
O  O12  1  0.73280000  0.79510000  0.12740000  1.0 -0.7058799391
O  O13  1  0.23280000  0.20490000  0.12740000  1.0 -0.7010117468
O  O14  1  0.73280000  0.29510000  0.37260000  1.0 -0.7010117468
O  O15  1  0.76720000  0.29510000  0.62740000  1.0 -0.7010117468
O  O16  1  0.26720000  0.20490000  0.87260000  1.0 -0.7010117468
O  O17  1  0.97020000  0.85290000  0.90570000  1.0 -0.6632503926
O  O18  1  0.47020000  0.64710000  0.59430000  1.0 -0.6632503926
O  O19  1  0.02980000  0.64710000  0.40570000  1.0 -0.6632503926
O  O20  1  0.52980000  0.85290000  0.09430000  1.0 -0.6632503926
O  O21  1  0.02980000  0.14710000  0.09430000  1.0 -0.6632503926
O  O22  1  0.52980000  0.35290000  0.40570000  1.0 -0.6632503926
O  O23  1  0.97020000  0.35290000  0.59430000  1.0 -0.6632503926
O  O24  1  0.47020000  0.14710000  0.90570000  1.0 -0.6632503926
O  O25  1  0.88870000  0.89070000  0.82230000  1.0 -0.7543103671
O  O26  1  0.38870000  0.60930000  0.67770000  1.0 -0.7543103671
O  O27  1  0.11130000  0.60930000  0.32230000  1.0 -0.7543103671
O  O28  1  0.61130000  0.89070000  0.17770000  1.0 -0.7543103671
O  O29  1  0.11130000  0.10930000  0.17770000  1.0 -0.7543103671
O  O30  1  0.61130000  0.39070000  0.32230000  1.0 -0.7543103671
O  O31  1  0.88870000  0.39070000  0.67770000  1.0 -0.7543103671
O  O32  1  0.38870000  0.10930000  0.82230000  1.0 -0.7543103671
O  O33  1  0.04780000  0.62810000  0.59740000  1.0 -0.6409722617
O  O34  1  0.54780000  0.87190000  0.90260000  1.0 -0.6409722617
O  O35  1  0.95220000  0.87190000  0.09740000  1.0 -0.6409722617
O  O36  1  0.45220000  0.62810000  0.40260000  1.0 -0.6409722617
O  O37  1  0.95220000  0.37190000  0.40260000  1.0 -0.6409722617
O  O38  1  0.45220000  0.12810000  0.09740000  1.0 -0.6409722617
O  O39  1  0.04780000  0.12810000  0.90260000  1.0 -0.6409722617
O  O40  1  0.54780000  0.37190000  0.59740000  1.0 -0.6409722617
O  O41  1  0.00910000  0.50340000  0.55740000  1.0 -0.7010117468
O  O42  1  0.50910000  0.99660000  0.94260000  1.0 -0.7010117468
O  O43  1  0.99090000  0.99660000  0.05740000  1.0 -0.7010117468
O  O44  1  0.49090000  0.50340000  0.44260000  1.0 -0.7010117468
O  O45  1  0.99090000  0.49660000  0.44260000  1.0 -0.7010117468
O  O46  1  0.49090000  0.00340000  0.05740000  1.0 -0.7010117468
O  O47  1  0.00910000  0.00340000  0.94260000  1.0 -0.7010117468
O  O48  1  0.50910000  0.49660000  0.55740000  1.0 -0.7010117468
O  O49  1  0.09500000  0.61330000  0.50900000  1.0 -0.732602711
O  O50  1  0.59500000  0.88670000  0.99100000  1.0 -0.732602711
O  O51  1  0.90500000  0.88670000  0.00900000  1.0 -0.732602711
O  O52  1  0.40500000  0.61330000  0.49100000  1.0 -0.7387156444
O  O53  1  0.90500000  0.38670000  0.49100000  1.0 -0.732602711
O  O54  1  0.40500000  0.11330000  0.00900000  1.0 -0.732602711
O  O55  1  0.09500000  0.11330000  0.99100000  1.0 -0.732602711
O  O56  1  0.59500000  0.38670000  0.50900000  1.0 -0.732602711
O  O57  1  0.23700000  0.54450000  0.57060000  1.0 -0.7387156444
O  O58  1  0.73700000  0.95550000  0.92940000  1.0 -0.7387156444
O  O59  1  0.76300000  0.95550000  0.07060000  1.0 -0.7387156444
O  O60  1  0.26300000  0.54450000  0.42940000  1.0 -0.7387156444
O  O61  1  0.76300000  0.45550000  0.42940000  1.0 -0.7387156444
O  O62  1  0.26300000  0.04450000  0.07060000  1.0 -0.7387156444
O  O63  1  0.23700000  0.04450000  0.92940000  1.0 -0.7387156444
O  O64  1  0.73700000  0.45550000  0.57060000  1.0 -0.7387156444
O  O65  1  0.09120000  0.12830000  0.71670000  1.0 -0.7387156444
O  O66  1  0.59120000  0.37170000  0.78330000  1.0 -0.7387156444
O  O67  1  0.90880000  0.37170000  0.21670000  1.0 -0.7387156444
O  O68  1  0.40880000  0.12830000  0.28330000  1.0 -0.7387156444
O  O69  1  0.90880000  0.87170000  0.28330000  1.0 -0.7387156444
O  O70  1  0.40880000  0.62830000  0.21670000  1.0 -0.7387156444
O  O71  1  0.09120000  0.62830000  0.78330000  1.0 -0.7387156444
O  O72  1  0.59120000  0.87170000  0.71670000  1.0 -0.7387156444
O  O73  1  0.01530000  0.00070000  0.74050000  1.0 -0.6699940463
O  O74  1  0.51530000  0.49930000  0.75950000  1.0 -0.6699940463
O  O75  1  0.98470000  0.49930000  0.24050000  1.0 -0.6699940463
O  O76  1  0.48470000  0.00070000  0.25950000  1.0 -0.6699940463
O  O77  1  0.98470000  0.99930000  0.25950000  1.0 -0.6699940463
O  O78  1  0.48470000  0.50070000  0.24050000  1.0 -0.6699940463
O  O79  1  0.01530000  0.50070000  0.75950000  1.0 -0.6699940463
O  O80  1  0.51530000  0.99930000  0.74050000  1.0 -0.6699940463
O  O81  1  0.25220000  0.03290000  0.75260000  1.0 -0.6798375373
O  O82  1  0.75220000  0.46710000  0.74740000  1.0 -0.6798375373
O  O83  1  0.74780000  0.46710000  0.25260000  1.0 -0.6798375373
O  O84  1  0.24780000  0.03290000  0.24740000  1.0 -0.6798375373
O  O85  1  0.74780000  0.96710000  0.24740000  1.0 -0.6798375373
O  O86  1  0.24780000  0.53290000  0.25260000  1.0 -0.6798375373
O  O87  1  0.25220000  0.53290000  0.74740000  1.0 -0.6798375373
O  O88  1  0.75220000  0.96710000  0.75260000  1.0 -0.6798375373
O  O89  1  0.07890000  0.09050000  0.80680000  1.0 -0.7387156444
O  O90  1  0.57890000  0.40950000  0.69320000  1.0 -0.7387156444
O  O91  1  0.92110000  0.40950000  0.30680000  1.0 -0.7387156444
O  O92  1  0.42110000  0.09050000  0.19320000  1.0 -0.7387156444
O  O93  1  0.92110000  0.90950000  0.19320000  1.0 -0.7387156444
O  O94  1  0.42110000  0.59050000  0.30680000  1.0 -0.7387156444
O  O95  1  0.07890000  0.59050000  0.69320000  1.0 -0.7387156444
O  O96  1  0.57890000  0.90950000  0.80680000  1.0 -0.7387156444
O  O97  1  0.92680000  0.73150000  0.74370000  1.0 -0.7184478765
O  O98  1  0.42680000  0.76850000  0.75630000  1.0 -0.7184478765
O  O99  1  0.07320000  0.76850000  0.24370000  1.0 -0.7184478765
O  O100  1  0.57320000  0.73150000  0.25630000  1.0 -0.7184478765
O  O101  1  0.07320000  0.26850000  0.25630000  1.0 -0.7184478765
O  O102  1  0.57320000  0.23150000  0.24370000  1.0 -0.7184478765
O  O103  1  0.92680000  0.23150000  0.75630000  1.0 -0.7184478765
O  O104  1  0.42680000  0.26850000  0.74370000  1.0 -0.7184478765
O  O105  1  0.89320000  0.85910000  0.70140000  1.0 -0.7184478765
O  O106  1  0.39320000  0.64090000  0.79860000  1.0 -0.7184478765
O  O107  1  0.10680000  0.64090000  0.20140000  1.0 -0.7184478765
O  O108  1  0.60680000  0.85910000  0.29860000  1.0 -0.7184478765
O  O109  1  0.10680000  0.14090000  0.29860000  1.0 -0.7184478765
O  O110  1  0.60680000  0.35910000  0.20140000  1.0 -0.7184478765
O  O111  1  0.89320000  0.35910000  0.79860000  1.0 -0.7184478765
O  O112  1  0.39320000  0.14090000  0.70140000  1.0 -0.7184478765
O  O113  1  0.74530000  0.74600000  0.68320000  1.0 -0.6543318328
O  O114  1  0.24530000  0.75400000  0.81680000  1.0 -0.6543318328
O  O115  1  0.25470000  0.75400000  0.18320000  1.0 -0.6543318328
O  O116  1  0.75470000  0.74600000  0.31680000  1.0 -0.6543318328
O  O117  1  0.25470000  0.25400000  0.31680000  1.0 -0.6543318328
O  O118  1  0.75470000  0.24600000  0.18320000  1.0 -0.6632503926
O  O119  1  0.74530000  0.24600000  0.81680000  1.0 -0.6543318328
O  O120  1  0.24530000  0.25400000  0.68320000  1.0 -0.6543318328
O  O121  1  0.97230000  0.74580000  0.65230000  1.0 -0.6699940463
O  O122  1  0.47230000  0.75420000  0.84770000  1.0 -0.6699940463
O  O123  1  0.02770000  0.75420000  0.15230000  1.0 -0.6699940463
O  O124  1  0.52770000  0.74580000  0.34770000  1.0 -0.6699940463
O  O125  1  0.02770000  0.25420000  0.34770000  1.0 -0.6699940463
O  O126  1  0.52770000  0.24580000  0.15230000  1.0 -0.6699940463
O  O127  1  0.97230000  0.24580000  0.84770000  1.0 -0.6699940463
O  O128  1  0.47230000  0.25420000  0.65230000  1.0 -0.6699940463
F  F1  1  0.09070000  0.85370000  0.76660000  1.0 -0.4779002754
F  F2  1  0.59070000  0.64630000  0.73340000  1.0 -0.4779002754
F  F3  1  0.90930000  0.64630000  0.26660000  1.0 -0.4779002754
F  F4  1  0.40930000  0.85370000  0.23340000  1.0 -0.4779002754
F  F5  1  0.90930000  0.14630000  0.23340000  1.0 -0.4779002754
F  F6  1  0.40930000  0.35370000  0.26660000  1.0 -0.4779002754
F  F7  1  0.09070000  0.35370000  0.73340000  1.0 -0.4779002754
F  F8  1  0.59070000  0.14630000  0.76660000  1.0 -0.4779002754
F  F9  1  0.17870000  0.73060000  0.71640000  1.0 -0.4863362139
F  F10  1  0.67870000  0.76940000  0.78360000  1.0 -0.4863362139
F  F11  1  0.82130000  0.76940000  0.21640000  1.0 -0.4863362139
F  F12  1  0.32130000  0.73060000  0.28360000  1.0 -0.4863362139
F  F13  1  0.82130000  0.26940000  0.28360000  1.0 -0.4863362139
F  F14  1  0.32130000  0.23060000  0.21640000  1.0 -0.4863362139
F  F15  1  0.17870000  0.23060000  0.78360000  1.0 -0.4863362139
F  F16  1  0.67870000  0.26940000  0.71640000  1.0 -0.4863362139
