# DDEC6 charges by PACMAN v1.1 (https://github.com/mtap-research/PACMAN-charge/)
data_TEVVEZ_ASR_pacman
_symmetry_space_group_name_H-M   'P 1'
_cell_length_a   12.05820000
_cell_length_b   13.85790000
_cell_length_c   23.23280000
_cell_angle_alpha   89.35400000
_cell_angle_beta   82.03000000
_cell_angle_gamma   86.03300000
_symmetry_Int_Tables_number   1
_chemical_formula_structural   DyP3H68C59(NO6)3
_chemical_formula_sum   'Dy2 P6 H136 C118 N6 O36'
_cell_volume   3835.51523432
_cell_formula_units_Z   2
loop_
 _symmetry_equiv_pos_site_id
 _symmetry_equiv_pos_as_xyz
  1  'x, y, z'
loop_
 _atom_site_type_symbol
 _atom_site_label
 _atom_site_symmetry_multiplicity
 _atom_site_fract_x
 _atom_site_fract_y
 _atom_site_fract_z
 _atom_site_occupancy
 _atom_site_charge
Dy  Dy1  1  0.70959000  0.18394000  0.74575000  1.0 1.9599725456
Dy  Dy2  1  0.29041000  0.81606000  0.25425000  1.0 1.9599725456
P  P1  1  0.75951000  0.36141000  0.85976000  1.0 1.0625700803
P  P2  1  0.24049000  0.63859000  0.14024000  1.0 1.0625700803
P  P3  1  0.91389000  0.02104000  0.81572000  1.0 1.2422606201
P  P4  1  0.08611000  0.97896000  0.18428000  1.0 1.2422606201
P  P5  1  0.56441000  0.98411000  0.68978000  1.0 1.2555364222
P  P6  1  0.43559000  0.01589000  0.31022000  1.0 1.2555364222
H  H1  1  0.62536000  0.29219000  0.92454000  1.0 0.1589905173
H  H2  1  0.37464000  0.70781000  0.07546000  1.0 0.1589905173
H  H3  1  0.72385000  0.32505000  0.95731000  1.0 0.1472873513
H  H4  1  0.27615000  0.67495000  0.04269000  1.0 0.1472873513
H  H5  1  0.81738000  0.44948000  0.96604000  1.0 0.1207701031
H  H6  1  0.18262000  0.55052000  0.03396000  1.0 0.1207701031
H  H7  1  0.90834000  0.58235000  0.99169000  1.0 0.1099461895
H  H8  1  0.09166000  0.41765000  0.00831000  1.0 0.1099461895
H  H9  1  0.80574000  0.72859000  0.01560000  1.0 0.1099461895
H  H10  1  0.19426000  0.27141000  0.98440000  1.0 0.1099461895
H  H11  1  0.61287000  0.74165000  0.01381000  1.0 0.1207701031
H  H12  1  0.38713000  0.25835000  0.98619000  1.0 0.1207701031
H  H13  1  0.45013000  0.68010000  0.98147000  1.0 0.1026469737
H  H14  1  0.54987000  0.31990000  0.01853000  1.0 0.1026469737
H  H15  1  0.34149000  0.66227000  0.90472000  1.0 0.1099461895
H  H16  1  0.65851000  0.33773000  0.09528000  1.0 0.1099461895
H  H17  1  0.30208000  0.57740000  0.82461000  1.0 0.1099461895
H  H18  1  0.69792000  0.42260000  0.17539000  1.0 0.1099461895
H  H19  1  0.38985000  0.42479000  0.80322000  1.0 0.1305684135
H  H20  1  0.61015000  0.57521000  0.19678000  1.0 0.1305684135
H  H21  1  0.52153000  0.35822000  0.85981000  1.0 0.1207701031
H  H22  1  0.47847000  0.64178000  0.14019000  1.0 0.1207701031
H  H23  1  0.76938000  0.50350000  0.75700000  1.0 0.0193347429
H  H24  1  0.23062000  0.49650000  0.24300000  1.0 0.0193347429
H  H25  1  0.65121000  0.46248000  0.78153000  1.0 0.1026469737
H  H26  1  0.34879000  0.53752000  0.21847000  1.0 0.1026469737
H  H27  1  0.58658000  0.60237000  0.82215000  1.0 0.0813580504
H  H28  1  0.41342000  0.39763000  0.17785000  1.0 0.0813580504
H  H29  1  0.64698000  0.62883000  0.75877000  1.0 0.0813580504
H  H30  1  0.35302000  0.37117000  0.24123000  1.0 0.0813580504
H  H31  1  0.70886000  0.64292000  0.81443000  1.0 0.0906382651
H  H32  1  0.29114000  0.35708000  0.18557000  1.0 0.0906382651
H  H33  1  0.99553000  0.29669000  0.80637000  1.0 0.1026469737
H  H34  1  0.00447000  0.70331000  0.19363000  1.0 0.1026469737
H  H35  1  0.95878000  0.41005000  0.80621000  1.0 0.1026469737
H  H36  1  0.04122000  0.58995000  0.19379000  1.0 0.1026469737
H  H37  1  0.06450000  0.44038000  0.87328000  1.0 0.1305684135
H  H38  1  0.93550000  0.55962000  0.12672000  1.0 0.1305684135
H  H39  1  0.14119000  0.36760000  0.82900000  1.0 0.1394600257
H  H40  1  0.85881000  0.63240000  0.17100000  1.0 0.1394600257
H  H41  1  0.08134000  0.32836000  0.88972000  1.0 0.1305684135
H  H42  1  0.91866000  0.67164000  0.11028000  1.0 0.1305684135
H  H43  1  0.06531000  0.07081000  0.85476000  1.0 0.1472873513
H  H44  1  0.93469000  0.92919000  0.14524000  1.0 0.1472873513
H  H45  1  0.95593000  0.13794000  0.87707000  1.0 0.1589905173
H  H46  1  0.04407000  0.86206000  0.12293000  1.0 0.1589905173
H  H47  1  0.78056000  0.11971000  0.91293000  1.0 0.1305684135
H  H48  1  0.21944000  0.88029000  0.08707000  1.0 0.1305684135
H  H49  1  0.60080000  0.11072000  0.96437000  1.0 0.1099461895
H  H50  1  0.39920000  0.88928000  0.03563000  1.0 0.1099461895
H  H51  1  0.57300000  0.01741000  0.04731000  1.0 0.1099461895
H  H52  1  0.42700000  0.98259000  0.95269000  1.0 0.1099461895
H  H53  1  0.72468000  0.92584000  0.07859000  1.0 0.1207701031
H  H54  1  0.27532000  0.07416000  0.92141000  1.0 0.1207701031
H  H55  1  0.91336000  0.86057000  0.06054000  1.0 0.1026469737
H  H56  1  0.08664000  0.13943000  0.93946000  1.0 0.1026469737
H  H57  1  0.03388000  0.73100000  0.01794000  1.0 0.1207701031
H  H58  1  0.96612000  0.26900000  0.98206000  1.0 0.1207701031
H  H59  1  0.13547000  0.65704000  0.93520000  1.0 0.1099461895
H  H60  1  0.86453000  0.34296000  0.06480000  1.0 0.1099461895
H  H61  1  0.17479000  0.74827000  0.85041000  1.0 0.1099461895
H  H62  1  0.82521000  0.25173000  0.14959000  1.0 0.1099461895
H  H63  1  0.10953000  0.90927000  0.84752000  1.0 0.1207701031
H  H64  1  0.89047000  0.09073000  0.15248000  1.0 0.1207701031
H  H65  1  0.94698000  0.96502000  0.69725000  1.0 0.1026469737
H  H66  1  0.05302000  0.03498000  0.30275000  1.0 0.1026469737
H  H67  1  0.00360000  0.87179000  0.72634000  1.0 0.1026469737
H  H68  1  0.99640000  0.12821000  0.27366000  1.0 0.1026469737
H  H69  1  0.12328000  0.01926000  0.66819000  1.0 0.1472873513
H  H70  1  0.87672000  0.98074000  0.33181000  1.0 0.1472873513
H  H71  1  0.11286000  0.91481000  0.64154000  1.0 0.1305684135
H  H72  1  0.88714000  0.08519000  0.35846000  1.0 0.1305684135
H  H73  1  0.17878000  0.92488000  0.69617000  1.0 0.1305684135
H  H74  1  0.82122000  0.07512000  0.30383000  1.0 0.1305684135
H  H75  1  0.70437000  0.96849000  0.85960000  1.0 0.0906382651
H  H76  1  0.29563000  0.03151000  0.14040000  1.0 0.0906382651
H  H77  1  0.72359000  0.89551000  0.80551000  1.0 0.0906382651
H  H78  1  0.27641000  0.10449000  0.19449000  1.0 0.0906382651
H  H79  1  0.76888000  0.77143000  0.86675000  1.0 0.1472873513
H  H80  1  0.23112000  0.22857000  0.13325000  1.0 0.1472873513
H  H81  1  0.64463000  0.81857000  0.88634000  1.0 0.1305684135
H  H82  1  0.35537000  0.18143000  0.11366000  1.0 0.1305684135
H  H83  1  0.74507000  0.84473000  0.92048000  1.0 0.1394600257
H  H84  1  0.25493000  0.15527000  0.07952000  1.0 0.1394600257
H  H85  1  0.41898000  0.05595000  0.64763000  1.0 0.1472873513
H  H86  1  0.58102000  0.94405000  0.35237000  1.0 0.1472873513
H  H87  1  0.52909000  0.11230000  0.63049000  1.0 0.1589905173
H  H88  1  0.47091000  0.88770000  0.36951000  1.0 0.1589905173
H  H89  1  0.70965000  0.06835000  0.59834000  1.0 0.1207701031
H  H90  1  0.29035000  0.93165000  0.40166000  1.0 0.1207701031
H  H91  1  0.89214000  0.03702000  0.55100000  1.0 0.1099461895
H  H92  1  0.10786000  0.96298000  0.44900000  1.0 0.1099461895
H  H93  1  0.92528000  0.94569000  0.46677000  1.0 0.1099461895
H  H94  1  0.07472000  0.05431000  0.53323000  1.0 0.1099461895
H  H95  1  0.77484000  0.88812000  0.42684000  1.0 0.1207701031
H  H96  1  0.22516000  0.11188000  0.57316000  1.0 0.1207701031
H  H97  1  0.58164000  0.85492000  0.43645000  1.0 0.1099461895
H  H98  1  0.41836000  0.14508000  0.56355000  1.0 0.1099461895
H  H99  1  0.43605000  0.74896000  0.46791000  1.0 0.1207701031
H  H100  1  0.56395000  0.25104000  0.53209000  1.0 0.1207701031
H  H101  1  0.31314000  0.68691000  0.54355000  1.0 0.1099461895
H  H102  1  0.68686000  0.31309000  0.45645000  1.0 0.1099461895
H  H103  1  0.28550000  0.76154000  0.63468000  1.0 0.1099461895
H  H104  1  0.71450000  0.23846000  0.36532000  1.0 0.1099461895
H  H105  1  0.37013000  0.90332000  0.64802000  1.0 0.1099461895
H  H106  1  0.62987000  0.09668000  0.35198000  1.0 0.1099461895
H  H107  1  0.77985000  0.90847000  0.66250000  1.0 0.0813580504
H  H108  1  0.22015000  0.09153000  0.33750000  1.0 0.0813580504
H  H109  1  0.75317000  0.83328000  0.61509000  1.0 0.0906382651
H  H110  1  0.24683000  0.16672000  0.38491000  1.0 0.0906382651
H  H111  1  0.76122000  0.79603000  0.73397000  1.0 0.1394600257
H  H112  1  0.23878000  0.20397000  0.26603000  1.0 0.1394600257
H  H113  1  0.83874000  0.74395000  0.68015000  1.0 0.1394600257
H  H114  1  0.16126000  0.25605000  0.31985000  1.0 0.1394600257
H  H115  1  0.70880000  0.72318000  0.69384000  1.0 0.1472873513
H  H116  1  0.29120000  0.27682000  0.30616000  1.0 0.1472873513
H  H117  1  0.53762000  0.86461000  0.78048000  1.0 0.1099461895
H  H118  1  0.46238000  0.13539000  0.21952000  1.0 0.1099461895
H  H119  1  0.48283000  0.95714000  0.81720000  1.0 0.1099461895
H  H120  1  0.51717000  0.04286000  0.18280000  1.0 0.1099461895
H  H121  1  0.31016000  0.90468000  0.81279000  1.0 0.1472873513
H  H122  1  0.68984000  0.09532000  0.18721000  1.0 0.1394600257
H  H123  1  0.38795000  0.82901000  0.84452000  1.0 0.1305684135
H  H124  1  0.61205000  0.17099000  0.15548000  1.0 0.1305684135
H  H125  1  0.36805000  0.81025000  0.77900000  1.0 0.1472873513
H  H126  1  0.63195000  0.18975000  0.22100000  1.0 0.1472873513
H  H127  1  0.66597000  0.47364000  0.77485000  1.0 0.1099461895
H  H128  1  0.33403000  0.52636000  0.22515000  1.0 0.1099461895
H  H129  1  0.68916000  0.57839000  0.79679000  1.0 0.0193347429
H  H130  1  0.31084000  0.42161000  0.20321000  1.0 0.0193347429
H  H131  1  0.87031000  0.55909000  0.75505000  1.0 0.1099461895
H  H132  1  0.12969000  0.44091000  0.24495000  1.0 0.1026469737
H  H133  1  0.78889000  0.54226000  0.70778000  1.0 0.0906382651
H  H134  1  0.21111000  0.45774000  0.29222000  1.0 0.0906382651
H  H135  1  0.85195000  0.45158000  0.73561000  1.0 0.1026469737
H  H136  1  0.14805000  0.54842000  0.26439000  1.0 0.1026469737
C  C1  1  0.67320000  0.34620000  0.92882000  1.0 -0.5732071548
C  C2  1  0.32680000  0.65380000  0.07118000  1.0 -0.5732071548
C  C3  1  0.59540000  0.43230000  0.95617000  1.0 0.1472873513
C  C4  1  0.40460000  0.56770000  0.04383000  1.0 0.1472873513
C  C5  1  0.66070000  0.51610000  0.97208000  1.0 0.0033872683
C  C6  1  0.33930000  0.48390000  0.02792000  1.0 0.0033872683
C  C7  1  0.77540000  0.50920000  0.97498000  1.0 -0.1412018731
C  C8  1  0.22460000  0.49080000  0.02502000  1.0 -0.1412018731
C  C9  1  0.82970000  0.58800000  0.99070000  1.0 -0.0918417455
C  C10  1  0.17030000  0.41200000  0.00930000  1.0 -0.0986402705
C  C11  1  0.76900000  0.67450000  0.00480000  1.0 -0.080379363
C  C12  1  0.23100000  0.32550000  0.99520000  1.0 -0.080379363
C  C13  1  0.65470000  0.68240000  0.00330000  1.0 -0.1306867658
C  C14  1  0.34530000  0.31760000  0.99670000  1.0 -0.1306867658
C  C15  1  0.60020000  0.60400000  0.98637000  1.0 0.0505018887
C  C16  1  0.39980000  0.39600000  0.01363000  1.0 0.0505018887
C  C17  1  0.47520000  0.61020000  0.98475000  1.0 -0.1412018731
C  C18  1  0.52480000  0.38980000  0.01525000  1.0 -0.1412018731
C  C19  1  0.45410000  0.56060000  0.93060000  1.0 0.0505018887
C  C20  1  0.54590000  0.43940000  0.06940000  1.0 0.0505018887
C  C21  1  0.37790000  0.60020000  0.89583000  1.0 -0.1541811972
C  C22  1  0.62210000  0.39980000  0.10417000  1.0 -0.1541811972
C  C23  1  0.35440000  0.54990000  0.84820000  1.0 -0.0918417455
C  C24  1  0.64560000  0.45010000  0.15180000  1.0 -0.0918417455
C  C25  1  0.40710000  0.46000000  0.83530000  1.0 -0.080379363
C  C26  1  0.59290000  0.54000000  0.16470000  1.0 -0.080379363
C  C27  1  0.48540000  0.42030000  0.86905000  1.0 -0.1306867658
C  C28  1  0.51460000  0.57970000  0.13095000  1.0 -0.1306867658
C  C29  1  0.51120000  0.47080000  0.91609000  1.0 0.0033872683
C  C30  1  0.48880000  0.52920000  0.08391000  1.0 0.0087773664
C  C31  1  0.70860000  0.50570000  0.79040000  1.0 -0.017141906
C  C32  1  0.29140000  0.49430000  0.20960000  1.0 -0.017141906
C  C33  1  0.65880000  0.60260000  0.79700000  1.0 -0.2384353428
C  C34  1  0.34120000  0.39740000  0.20300000  1.0 -0.2384353428
C  C35  1  0.97790000  0.35480000  0.83120000  1.0 0.0699349531
C  C36  1  0.02210000  0.64520000  0.16880000  1.0 0.0699349531
C  C37  1  0.07370000  0.37430000  0.85790000  1.0 -0.4283193349
C  C38  1  0.92630000  0.62570000  0.14210000  1.0 -0.4283193349
C  C39  1  0.98510000  0.06970000  0.87111000  1.0 -0.5758443921
C  C40  1  0.01490000  0.93030000  0.12889000  1.0 -0.5758443921
C  C41  1  0.98060000  0.02250000  0.93182000  1.0 0.1305684135
C  C42  1  0.01940000  0.97750000  0.06818000  1.0 0.1305684135
C  C43  1  0.86070000  0.02520000  0.96383000  1.0 0.0087773664
C  C44  1  0.13930000  0.97480000  0.03617000  1.0 0.0087773664
C  C45  1  0.76970000  0.07940000  0.94629000  1.0 -0.1200585495
C  C46  1  0.23030000  0.92060000  0.05371000  1.0 -0.1200585495
C  C47  1  0.66270000  0.07480000  0.97734000  1.0 -0.0986402705
C  C48  1  0.33730000  0.92520000  0.02266000  1.0 -0.0986402705
C  C49  1  0.64610000  0.01940000  0.02610000  1.0 -0.0986402705
C  C50  1  0.35390000  0.98060000  0.97390000  1.0 -0.0986402705
C  C51  1  0.73650000  0.96540000  0.04493000  1.0 -0.1571460812
C  C52  1  0.26350000  0.03460000  0.95507000  1.0 -0.1571460812
C  C53  1  0.84290000  0.96950000  0.01465000  1.0 0.0391248167
C  C54  1  0.15710000  0.03050000  0.98535000  1.0 0.0391248167
C  C55  1  0.94270000  0.91220000  0.03335000  1.0 -0.1412018731
C  C56  1  0.05730000  0.08780000  0.96665000  1.0 -0.1412018731
C  C57  1  0.00890000  0.86310000  0.98113000  1.0 0.0505018887
C  C58  1  0.99110000  0.13690000  0.01887000  1.0 0.0505018887
C  C59  1  0.04860000  0.76700000  0.98299000  1.0 -0.1541811972
C  C60  1  0.95140000  0.23300000  0.01701000  1.0 -0.1541811972
C  C61  1  0.10940000  0.72320000  0.93420000  1.0 -0.1060408986
C  C62  1  0.89060000  0.27680000  0.06580000  1.0 -0.1060408986
C  C63  1  0.13190000  0.77730000  0.88390000  1.0 -0.0986402705
C  C64  1  0.86810000  0.22270000  0.11610000  1.0 -0.0986402705
C  C65  1  0.09240000  0.87300000  0.88215000  1.0 -0.1306867658
C  C66  1  0.90760000  0.12700000  0.11785000  1.0 -0.1306867658
C  C67  1  0.02860000  0.91670000  0.92973000  1.0 0.0087773664
C  C68  1  0.97140000  0.08330000  0.07027000  1.0 0.0087773664
C  C69  1  0.01200000  0.94080000  0.71630000  1.0 0.0610320439
C  C70  1  0.98800000  0.05920000  0.28370000  1.0 0.0610320439
C  C71  1  0.11500000  0.95070000  0.67740000  1.0 -0.4283193349
C  C72  1  0.88500000  0.04930000  0.32260000  1.0 -0.4283193349
C  C73  1  0.74750000  0.90910000  0.84350000  1.0 0.0610320439
C  C74  1  0.25250000  0.09090000  0.15650000  1.0 0.0610320439
C  C75  1  0.72470000  0.82970000  0.88230000  1.0 -0.4598083048
C  C76  1  0.27530000  0.17030000  0.11770000  1.0 -0.4598083048
C  C77  1  0.50030000  0.04700000  0.63344000  1.0 -0.5903824716
C  C78  1  0.49970000  0.95300000  0.36656000  1.0 -0.5903824716
C  C79  1  0.51140000  0.00740000  0.57077000  1.0 0.1305684135
C  C80  1  0.48860000  0.99260000  0.42923000  1.0 0.1305684135
C  C81  1  0.63260000  0.99230000  0.54223000  1.0 0.0033872683
C  C82  1  0.36740000  0.00770000  0.45777000  1.0 0.0033872683
C  C83  1  0.72260000  0.03020000  0.56404000  1.0 -0.1200585495
C  C84  1  0.27740000  0.96980000  0.43596000  1.0 -0.1200585495
C  C85  1  0.83100000  0.01220000  0.53560000  1.0 -0.0918417455
C  C86  1  0.16900000  0.98780000  0.46440000  1.0 -0.0918417455
C  C87  1  0.85060000  0.95890000  0.48540000  1.0 -0.0918417455
C  C88  1  0.14940000  0.04110000  0.51460000  1.0 -0.0918417455
C  C89  1  0.76140000  0.92420000  0.46193000  1.0 -0.1412018731
C  C90  1  0.23860000  0.07580000  0.53807000  1.0 -0.1412018731
C  C91  1  0.65230000  0.94230000  0.48974000  1.0 0.0505018887
C  C92  1  0.34770000  0.05770000  0.51026000  1.0 0.0505018887
C  C93  1  0.55280000  0.90780000  0.46469000  1.0 -0.1412018731
C  C94  1  0.44720000  0.09220000  0.53531000  1.0 -0.1412018731
C  C95  1  0.47510000  0.86430000  0.51294000  1.0 0.0505018887
C  C96  1  0.52490000  0.13570000  0.48706000  1.0 0.0505018887
C  C97  1  0.42250000  0.78060000  0.50450000  1.0 -0.1306867658
C  C98  1  0.57750000  0.21940000  0.49550000  1.0 -0.1306867658
C  C99  1  0.35050000  0.74340000  0.54950000  1.0 -0.0986402705
C  C100  1  0.64950000  0.25660000  0.45050000  1.0 -0.0986402705
C  C101  1  0.33280000  0.78840000  0.60330000  1.0 -0.0986402705
C  C102  1  0.66720000  0.21160000  0.39670000  1.0 -0.0986402705
C  C103  1  0.38400000  0.87220000  0.61124000  1.0 -0.1306867658
C  C104  1  0.61600000  0.12780000  0.38876000  1.0 -0.1306867658
C  C105  1  0.45540000  0.91230000  0.56657000  1.0 0.0087773664
C  C106  1  0.54460000  0.08770000  0.43343000  1.0 0.0087773664
C  C107  1  0.73500000  0.85320000  0.65630000  1.0 0.0699349531
C  C108  1  0.26500000  0.14680000  0.34370000  1.0 0.0699349531
C  C109  1  0.76330000  0.77240000  0.69420000  1.0 -0.4598083048
C  C110  1  0.23670000  0.22760000  0.30580000  1.0 -0.4598083048
C  C111  1  0.47050000  0.91060000  0.78710000  1.0 0.0505018887
C  C112  1  0.52950000  0.08940000  0.21290000  1.0 0.0505018887
C  C113  1  0.37730000  0.85990000  0.80730000  1.0 -0.4283193349
C  C114  1  0.62270000  0.14010000  0.19270000  1.0 -0.4283193349
C  C115  1  0.72340000  0.51210000  0.78850000  1.0 -0.0088650082
C  C116  1  0.27660000  0.48790000  0.21150000  1.0 -0.0088650082
C  C117  1  0.81590000  0.51660000  0.74320000  1.0 -0.254371181
C  C118  1  0.18410000  0.48340000  0.25680000  1.0 -0.254371181
N  N1  1  0.91880000  0.18220000  0.66879000  1.0 0.6784163565
N  N2  1  0.08120000  0.81780000  0.33121000  1.0 0.6784163565
N  N3  1  0.63720000  0.31240000  0.65867000  1.0 0.6272580475
N  N4  1  0.36280000  0.68760000  0.34133000  1.0 0.6249134988
N  N5  1  0.50000000  0.17060000  0.82088000  1.0 0.6986865849
N  N6  1  0.50000000  0.82940000  0.17912000  1.0 0.6986865849
O  O1  1  0.73140000  0.29680000  0.81453000  1.0 -0.7936562448
O  O2  1  0.26860000  0.70320000  0.18547000  1.0 -0.7936562448
O  O3  1  0.75460000  0.46960000  0.84191000  1.0 -0.259976223
O  O4  1  0.24540000  0.53040000  0.15809000  1.0 -0.259976223
O  O5  1  0.88170000  0.33890000  0.87523000  1.0 -0.4397899806
O  O6  1  0.11830000  0.66110000  0.12477000  1.0 -0.4397899806
O  O7  1  0.82810000  0.09070000  0.79633000  1.0 -0.8183782249
O  O8  1  0.17190000  0.90930000  0.20367000  1.0 -0.8183782249
O  O9  1  0.01620000  0.99590000  0.76816000  1.0 -0.4205072298
O  O10  1  0.98380000  0.00410000  0.23184000  1.0 -0.4205072298
O  O11  1  0.86620000  0.92400000  0.83568000  1.0 -0.4283193349
O  O12  1  0.13380000  0.07600000  0.16432000  1.0 -0.4283193349
O  O13  1  0.64460000  0.04090000  0.71587000  1.0 -0.8364832549
O  O14  1  0.35540000  0.95910000  0.28413000  1.0 -0.8364832549
O  O15  1  0.61690000  0.88220000  0.66918000  1.0 -0.4397899806
O  O16  1  0.38310000  0.11780000  0.33082000  1.0 -0.4397899806
O  O17  1  0.45860000  0.96230000  0.73388000  1.0 -0.4205072298
O  O18  1  0.54140000  0.03770000  0.26612000  1.0 -0.4205072298
O  O19  1  0.85060000  0.11810000  0.66850000  1.0 -0.4770680069
O  O20  1  0.14940000  0.88190000  0.33150000  1.0 -0.4770680069
O  O21  1  0.89010000  0.24780000  0.70564000  1.0 -0.4770680069
O  O22  1  0.10990000  0.75220000  0.29436000  1.0 -0.4770680069
O  O23  1  0.00610000  0.18070000  0.63539000  1.0 -0.3587017804
O  O24  1  0.99390000  0.81930000  0.36461000  1.0 -0.3587017804
O  O25  1  0.64000000  0.22420000  0.65532000  1.0 -0.4283193349
O  O26  1  0.36000000  0.77580000  0.34468000  1.0 -0.4283193349
O  O27  1  0.66540000  0.34440000  0.70450000  1.0 -0.490866959
O  O28  1  0.33460000  0.65560000  0.29550000  1.0 -0.490866959
O  O29  1  0.60710000  0.36510000  0.62110000  1.0 -0.3251610844
O  O30  1  0.39290000  0.63490000  0.37890000  1.0 -0.3248282521
O  O31  1  0.59000000  0.13050000  0.83472000  1.0 -0.4972861557
O  O32  1  0.41000000  0.86950000  0.16528000  1.0 -0.4972861557
O  O33  1  0.50830000  0.21840000  0.77426000  1.0 -0.4972861557
O  O34  1  0.49170000  0.78160000  0.22574000  1.0 -0.4972861557
O  O35  1  0.40960000  0.16340000  0.85100000  1.0 -0.3807224183
O  O36  1  0.59040000  0.83660000  0.14900000  1.0 -0.3807224183
