# DDEC6 charges by PACMAN v1.1 (https://github.com/mtap-research/PACMAN-charge/)
data_TEVVOJ_ASR_pacman
_symmetry_space_group_name_H-M   'P 1'
_cell_length_a   12.06670000
_cell_length_b   13.47220000
_cell_length_c   23.48140000
_cell_angle_alpha   90.74500000
_cell_angle_beta   97.12800000
_cell_angle_gamma   93.14500000
_symmetry_Int_Tables_number   1
_chemical_formula_structural   DyP3H63C57(NO6)3
_chemical_formula_sum   'Dy2 P6 H126 C114 N6 O36'
_cell_volume   3781.29088229
_cell_formula_units_Z   2
loop_
 _symmetry_equiv_pos_site_id
 _symmetry_equiv_pos_as_xyz
  1  'x, y, z'
loop_
 _atom_site_type_symbol
 _atom_site_label
 _atom_site_symmetry_multiplicity
 _atom_site_fract_x
 _atom_site_fract_y
 _atom_site_fract_z
 _atom_site_occupancy
 _atom_site_charge
Dy  Dy1  1  0.20102000  0.82128000  0.75113000  1.0 1.9707914306
Dy  Dy2  1  0.79898000  0.17872000  0.24887000  1.0 1.9707914306
P  P1  1  0.26197000  0.63958000  0.63766000  1.0 1.2616747333
P  P2  1  0.73803000  0.36042000  0.36234000  1.0 1.2616747333
P  P3  1  0.40221000  0.98947000  0.68219000  1.0 1.2366890027
P  P4  1  0.59779000  0.01053000  0.31781000  1.0 1.2366890027
P  P5  1  0.05580000  0.02690000  0.81062000  1.0 1.1991578652
P  P6  1  0.94420000  0.97310000  0.18938000  1.0 1.1991578652
H  H1  1  0.12385000  0.71187000  0.57749000  1.0 0.1570853356
H  H2  1  0.87615000  0.28813000  0.42251000  1.0 0.1570853356
H  H3  1  0.22073000  0.67955000  0.54214000  1.0 0.1394294067
H  H4  1  0.77927000  0.32045000  0.45786000  1.0 0.1394294067
H  H5  1  0.31713000  0.55066000  0.53109000  1.0 0.1204753324
H  H6  1  0.68287000  0.44934000  0.46891000  1.0 0.1204753324
H  H7  1  0.40789000  0.41389000  0.50327000  1.0 0.1092432947
H  H8  1  0.59211000  0.58611000  0.49673000  1.0 0.1092432947
H  H9  1  0.30636000  0.26444000  0.47695000  1.0 0.1092432947
H  H10  1  0.69364000  0.73556000  0.52305000  1.0 0.1092432947
H  H11  1  0.11375000  0.24988000  0.48231000  1.0 0.1204753324
H  H12  1  0.88625000  0.75012000  0.51769000  1.0 0.1204753324
H  H13  1  0.95292000  0.31484000  0.51498000  1.0 0.1007520503
H  H14  1  0.04708000  0.68516000  0.48502000  1.0 0.1007520503
H  H15  1  0.84610000  0.33107000  0.59263000  1.0 0.1092432947
H  H16  1  0.15390000  0.66893000  0.40737000  1.0 0.1092432947
H  H17  1  0.81065000  0.41630000  0.67629000  1.0 0.1007520503
H  H18  1  0.18935000  0.58370000  0.32371000  1.0 0.1007520503
H  H19  1  0.89644000  0.57356000  0.69814000  1.0 0.1204753324
H  H20  1  0.10356000  0.42644000  0.30186000  1.0 0.1204753324
H  H21  1  0.02589000  0.64043000  0.64211000  1.0 0.1204753324
H  H22  1  0.97411000  0.35957000  0.35789000  1.0 0.1204753324
H  H23  1  0.16061000  0.52682000  0.71763000  1.0 0.0919066495
H  H24  1  0.83939000  0.47318000  0.28237000  1.0 0.0919066495
H  H25  1  0.18585000  0.41757000  0.69651000  1.0 0.0822338401
H  H26  1  0.81415000  0.58243000  0.30349000  1.0 0.0822338401
H  H27  1  0.36688000  0.43708000  0.74092000  1.0 0.1287974571
H  H28  1  0.63312000  0.56292000  0.25908000  1.0 0.1287974571
H  H29  1  0.28358000  0.45933000  0.78692000  1.0 0.1287974571
H  H30  1  0.71642000  0.54067000  0.21308000  1.0 0.1287974571
H  H31  1  0.34817000  0.54939000  0.75878000  1.0 0.1484777544
H  H32  1  0.65183000  0.45061000  0.24122000  1.0 0.1484777544
H  H33  1  0.51519000  0.71715000  0.67685000  1.0 0.1007520503
H  H34  1  0.48481000  0.28285000  0.32315000  1.0 0.1007520503
H  H35  1  0.45752000  0.61621000  0.69752000  1.0 0.0919066495
H  H36  1  0.54248000  0.38379000  0.30248000  1.0 0.0919066495
H  H37  1  0.53141000  0.52696000  0.63416000  1.0 0.1394294067
H  H38  1  0.46859000  0.47304000  0.36584000  1.0 0.1394294067
H  H39  1  0.62992000  0.59947000  0.66606000  1.0 0.1394294067
H  H40  1  0.37008000  0.40053000  0.33394000  1.0 0.1394294067
H  H41  1  0.57336000  0.62442000  0.60297000  1.0 0.1287974571
H  H42  1  0.42664000  0.37558000  0.39703000  1.0 0.1287974571
H  H43  1  0.55562000  0.93671000  0.64424000  1.0 0.1484777544
H  H44  1  0.44438000  0.06329000  0.35576000  1.0 0.1484777544
H  H45  1  0.44818000  0.86716000  0.62188000  1.0 0.1570853356
H  H46  1  0.55182000  0.13284000  0.37812000  1.0 0.1570853356
H  H47  1  0.27348000  0.88778000  0.58566000  1.0 0.1287974571
H  H48  1  0.72652000  0.11222000  0.41434000  1.0 0.1287974571
H  H49  1  0.09657000  0.89276000  0.53207000  1.0 0.1092432947
H  H50  1  0.90343000  0.10724000  0.46793000  1.0 0.1092432947
H  H51  1  0.07567000  0.98479000  0.44749000  1.0 0.1092432947
H  H52  1  0.92433000  0.01521000  0.55251000  1.0 0.1092432947
H  H53  1  0.23028000  0.06847000  0.41720000  1.0 0.1204753324
H  H54  1  0.76972000  0.93153000  0.58280000  1.0 0.1204753324
H  H55  1  0.41833000  0.14003000  0.43837000  1.0 0.1007520503
H  H56  1  0.58167000  0.85997000  0.56163000  1.0 0.1007520503
H  H57  1  0.53959000  0.27280000  0.47972000  1.0 0.1204753324
H  H58  1  0.46041000  0.72720000  0.52028000  1.0 0.1204753324
H  H59  1  0.63278000  0.35479000  0.56159000  1.0 0.1092432947
H  H60  1  0.36722000  0.64521000  0.43841000  1.0 0.1092432947
H  H61  1  0.66389000  0.26787000  0.64710000  1.0 0.1092432947
H  H62  1  0.33611000  0.73213000  0.35290000  1.0 0.1092432947
H  H63  1  0.59314000  0.10375000  0.65189000  1.0 0.1092432947
H  H64  1  0.40686000  0.89625000  0.34811000  1.0 0.1092432947
H  H65  1  0.43212000  0.04464000  0.79758000  1.0 0.1007520503
H  H66  1  0.56788000  0.95536000  0.20242000  1.0 0.1007520503
H  H67  1  0.49182000  0.13986000  0.77168000  1.0 0.1007520503
H  H68  1  0.50818000  0.86014000  0.22832000  1.0 0.1007520503
H  H69  1  0.59645000  0.98897000  0.83379000  1.0 0.1484777544
H  H70  1  0.40355000  0.01103000  0.16621000  1.0 0.1484777544
H  H71  1  0.59764000  0.10389000  0.85212000  1.0 0.1287974571
H  H72  1  0.40236000  0.89611000  0.14788000  1.0 0.1287974571
H  H73  1  0.66348000  0.07081000  0.80053000  1.0 0.1394294067
H  H74  1  0.33652000  0.92919000  0.19947000  1.0 0.1394294067
H  H75  1  0.19022000  0.04849000  0.65536000  1.0 0.1007520503
H  H76  1  0.80978000  0.95151000  0.34464000  1.0 0.1007520503
H  H77  1  0.22957000  0.13946000  0.69893000  1.0 0.0919066495
H  H78  1  0.77043000  0.86054000  0.30107000  1.0 0.0919066495
H  H79  1  0.24687000  0.24129000  0.62374000  1.0 0.1484777544
H  H80  1  0.75313000  0.75871000  0.37626000  1.0 0.1484777544
H  H81  1  0.12279000  0.19104000  0.61975000  1.0 0.1287974571
H  H82  1  0.87721000  0.80896000  0.38025000  1.0 0.1287974571
H  H83  1  0.20927000  0.15032000  0.57982000  1.0 0.1394294067
H  H84  1  0.79073000  0.84968000  0.42018000  1.0 0.1394294067
H  H85  1  0.91639000  0.94952000  0.85436000  1.0 0.1484777544
H  H86  1  0.08361000  0.05048000  0.14564000  1.0 0.1484777544
H  H87  1  0.02866000  0.89359000  0.86768000  1.0 0.1570853356
H  H88  1  0.97134000  0.10641000  0.13232000  1.0 0.1570853356
H  H89  1  0.20670000  0.94234000  0.89785000  1.0 0.1204753324
H  H90  1  0.79330000  0.05766000  0.10215000  1.0 0.1204753324
H  H91  1  0.38787000  0.96689000  0.94402000  1.0 0.1092432947
H  H92  1  0.61213000  0.03311000  0.05598000  1.0 0.1092432947
H  H93  1  0.42051000  0.04765000  0.03260000  1.0 0.1092432947
H  H94  1  0.57949000  0.95235000  0.96740000  1.0 0.1092432947
H  H95  1  0.27241000  0.11876000  0.07243000  1.0 0.1204753324
H  H96  1  0.72759000  0.88124000  0.92757000  1.0 0.1204753324
H  H97  1  0.07810000  0.14831000  0.06684000  1.0 0.1092432947
H  H98  1  0.92190000  0.85169000  0.93316000  1.0 0.1092432947
H  H99  1  0.93002000  0.25716000  0.04068000  1.0 0.1204753324
H  H100  1  0.06998000  0.74284000  0.95932000  1.0 0.1204753324
H  H101  1  0.79731000  0.31869000  0.97084000  1.0 0.1092432947
H  H102  1  0.20269000  0.68131000  0.02916000  1.0 0.1204753324
H  H103  1  0.75962000  0.23890000  0.88067000  1.0 0.1092432947
H  H104  1  0.24038000  0.76110000  0.11933000  1.0 0.1092432947
H  H105  1  0.85086000  0.09735000  0.86141000  1.0 0.1092432947
H  H106  1  0.14914000  0.90265000  0.13859000  1.0 0.1092432947
H  H107  1  0.24396000  0.14530000  0.82860000  1.0 0.1007520503
H  H108  1  0.75604000  0.85470000  0.17140000  1.0 0.1007520503
H  H109  1  0.19661000  0.17613000  0.88657000  1.0 0.1007520503
H  H110  1  0.80339000  0.82387000  0.11343000  1.0 0.1007520503
H  H111  1  0.10142000  0.28525000  0.80661000  1.0 0.1484777544
H  H112  1  0.89858000  0.71475000  0.19339000  1.0 0.1484777544
H  H113  1  0.23156000  0.28749000  0.79914000  1.0 0.1394294067
H  H114  1  0.76844000  0.71251000  0.20086000  1.0 0.1394294067
H  H115  1  0.19330000  0.31998000  0.85919000  1.0 0.1484777544
H  H116  1  0.80670000  0.68002000  0.14081000  1.0 0.1484777544
H  H117  1  0.01974000  0.12957000  0.71696000  1.0 0.1007520503
H  H118  1  0.98026000  0.87043000  0.28304000  1.0 0.1007520503
H  H119  1  0.95362000  0.03127000  0.68895000  1.0 0.1092432947
H  H120  1  0.04638000  0.96873000  0.31105000  1.0 0.1092432947
H  H121  1  0.79772000  0.09665000  0.68205000  1.0 0.1484777544
H  H122  1  0.20228000  0.90335000  0.31795000  1.0 0.1484777544
H  H123  1  0.88228000  0.18477000  0.66624000  1.0 0.1394294067
H  H124  1  0.11772000  0.81523000  0.33376000  1.0 0.1394294067
H  H125  1  0.84165000  0.18227000  0.72857000  1.0 0.1484777544
H  H126  1  0.15835000  0.81773000  0.27143000  1.0 0.1484777544
C  C1  1  0.17220000  0.65680000  0.57100000  1.0 -0.579182683
C  C2  1  0.82780000  0.34320000  0.42900000  1.0 -0.579182683
C  C3  1  0.09520000  0.56830000  0.54380000  1.0 0.1287974571
C  C4  1  0.90480000  0.43170000  0.45620000  1.0 0.1287974571
C  C5  1  0.16090000  0.48260000  0.52500000  1.0 0.0100006318
C  C6  1  0.83910000  0.51740000  0.47500000  1.0 0.0100006318
C  C7  1  0.27560000  0.48950000  0.52160000  1.0 -0.141941744
C  C8  1  0.72440000  0.51050000  0.47840000  1.0 -0.141941744
C  C9  1  0.32940000  0.40860000  0.50460000  1.0 -0.1018759237
C  C10  1  0.67060000  0.59140000  0.49540000  1.0 -0.1018759237
C  C11  1  0.26930000  0.31970000  0.48940000  1.0 -0.0881293353
C  C12  1  0.73070000  0.68030000  0.51060000  1.0 -0.0881293353
C  C13  1  0.15500000  0.31110000  0.49220000  1.0 -0.141941744
C  C14  1  0.84500000  0.68890000  0.50780000  1.0 -0.141941744
C  C15  1  0.10150000  0.39240000  0.50960000  1.0 0.0499845853
C  C16  1  0.89850000  0.60760000  0.49040000  1.0 0.0499845853
C  C17  1  0.97720000  0.38680000  0.51310000  1.0 -0.141941744
C  C18  1  0.02280000  0.61320000  0.48690000  1.0 -0.141941744
C  C19  1  0.95740000  0.43550000  0.56850000  1.0 0.0499845853
C  C20  1  0.04260000  0.56450000  0.43150000  1.0 0.0499845853
C  C21  1  0.88280000  0.39420000  0.60270000  1.0 -0.1723770187
C  C22  1  0.11720000  0.60580000  0.39730000  1.0 -0.1723770187
C  C23  1  0.86090000  0.44510000  0.65230000  1.0 -0.1089288343
C  C24  1  0.13910000  0.55490000  0.34770000  1.0 -0.1089288343
C  C25  1  0.91310000  0.53730000  0.66560000  1.0 -0.0818278776
C  C26  1  0.08690000  0.46270000  0.33440000  1.0 -0.0818278776
C  C27  1  0.98950000  0.57720000  0.63200000  1.0 -0.1191686527
C  C28  1  0.01050000  0.42280000  0.36800000  1.0 -0.1191686527
C  C29  1  0.01440000  0.52720000  0.58370000  1.0 0.0100006318
C  C30  1  0.98560000  0.47280000  0.41630000  1.0 0.0100006318
C  C31  1  0.21920000  0.48560000  0.70540000  1.0 0.0643771454
C  C32  1  0.78080000  0.51440000  0.29460000  1.0 0.0643771454
C  C33  1  0.31220000  0.48260000  0.75190000  1.0 -0.4225499815
C  C34  1  0.68780000  0.51740000  0.24810000  1.0 -0.4225499815
C  C35  1  0.48080000  0.65110000  0.66370000  1.0 0.0499845853
C  C36  1  0.51920000  0.34890000  0.33630000  1.0 0.0499845853
C  C37  1  0.55980000  0.59640000  0.63990000  1.0 -0.409403658
C  C38  1  0.44020000  0.40360000  0.36010000  1.0 -0.409403658
C  C39  1  0.47620000  0.93750000  0.62760000  1.0 -0.579182683
C  C40  1  0.52380000  0.06250000  0.37240000  1.0 -0.579182683
C  C41  1  0.47520000  0.98160000  0.56760000  1.0 0.1204753324
C  C42  1  0.52480000  0.01840000  0.43240000  1.0 0.1204753324
C  C43  1  0.35730000  0.97940000  0.53490000  1.0 0.0037508798
C  C44  1  0.64270000  0.02060000  0.46510000  1.0 0.0037508798
C  C45  1  0.26470000  0.92600000  0.55180000  1.0 -0.131686696
C  C46  1  0.73530000  0.07400000  0.44820000  1.0 -0.131686696
C  C47  1  0.15930000  0.92810000  0.51970000  1.0 -0.1018759237
C  C48  1  0.84070000  0.07190000  0.48030000  1.0 -0.1018759237
C  C49  1  0.14700000  0.98240000  0.46950000  1.0 -0.1089288343
C  C50  1  0.85300000  0.01760000  0.53050000  1.0 -0.1089288343
C  C51  1  0.23860000  0.03260000  0.45190000  1.0 -0.1500429845
C  C52  1  0.76140000  0.96740000  0.54810000  1.0 -0.1500429845
C  C53  1  0.34360000  0.03150000  0.48420000  1.0 0.043461149
C  C54  1  0.65640000  0.96850000  0.51580000  1.0 0.043461149
C  C55  1  0.44610000  0.08810000  0.46580000  1.0 -0.141941744
C  C56  1  0.55390000  0.91190000  0.53420000  1.0 -0.141941744
C  C57  1  0.50880000  0.14100000  0.51730000  1.0 0.043461149
C  C58  1  0.49120000  0.85900000  0.48270000  1.0 0.043461149
C  C59  1  0.55010000  0.23870000  0.51500000  1.0 -0.1500429845
C  C60  1  0.44990000  0.76130000  0.48500000  1.0 -0.1500429845
C  C61  1  0.60630000  0.28730000  0.56320000  1.0 -0.1089288343
C  C62  1  0.39370000  0.71270000  0.43680000  1.0 -0.1089288343
C  C63  1  0.62340000  0.23600000  0.61400000  1.0 -0.1018759237
C  C64  1  0.37660000  0.76400000  0.38600000  1.0 -0.1018759237
C  C65  1  0.58160000  0.13810000  0.61680000  1.0 -0.131686696
C  C66  1  0.41840000  0.86190000  0.38320000  1.0 -0.131686696
C  C67  1  0.52360000  0.09050000  0.56890000  1.0 0.0100006318
C  C68  1  0.47640000  0.90950000  0.43110000  1.0 0.0100006318
C  C69  1  0.49880000  0.06840000  0.77990000  1.0 0.0676633431
C  C70  1  0.50120000  0.93160000  0.22010000  1.0 0.0676633431
C  C71  1  0.59680000  0.05710000  0.81970000  1.0 -0.4302151402
C  C72  1  0.40320000  0.94290000  0.18030000  1.0 -0.4302151402
C  C73  1  0.23850000  0.11060000  0.66090000  1.0 0.0499845853
C  C74  1  0.76150000  0.88940000  0.33910000  1.0 0.0499845853
C  C75  1  0.20150000  0.17860000  0.61770000  1.0 -0.4393228577
C  C76  1  0.79850000  0.82140000  0.38230000  1.0 -0.4393228577
C  C77  1  0.99760000  0.96010000  0.86710000  1.0 -0.5865739272
C  C78  1  0.00240000  0.03990000  0.13290000  1.0 -0.5865739272
C  C79  1  0.00870000  0.99670000  0.92980000  1.0 0.1287974571
C  C80  1  0.99130000  0.00330000  0.07020000  1.0 0.1287974571
C  C81  1  0.12940000  0.01410000  0.95650000  1.0 -0.0094934758
C  C82  1  0.87060000  0.98590000  0.04350000  1.0 -0.0094934758
C  C83  1  0.21930000  0.97770000  0.93350000  1.0 -0.141941744
C  C84  1  0.78070000  0.02230000  0.06650000  1.0 -0.141941744
C  C85  1  0.32720000  0.99150000  0.96110000  1.0 -0.1018759237
C  C86  1  0.67280000  0.00850000  0.03890000  1.0 -0.1018759237
C  C87  1  0.34660000  0.04060000  0.01300000  1.0 -0.0881293353
C  C88  1  0.65340000  0.95940000  0.98700000  1.0 -0.0881293353
C  C89  1  0.25840000  0.08070000  0.03770000  1.0 -0.1500429845
C  C90  1  0.74160000  0.91930000  0.96230000  1.0 -0.1500429845
C  C91  1  0.14990000  0.06360000  0.01010000  1.0 0.0499845853
C  C92  1  0.85010000  0.93640000  0.98990000  1.0 0.0499845853
C  C93  1  0.05100000  0.09520000  0.03750000  1.0 -0.141941744
C  C94  1  0.94900000  0.90480000  0.96250000  1.0 -0.141941744
C  C95  1  0.96880000  0.14020000  0.99190000  1.0 0.0499845853
C  C96  1  0.03120000  0.85980000  0.00810000  1.0 0.0499845853
C  C97  1  0.91380000  0.22480000  0.00420000  1.0 -0.131686696
C  C98  1  0.08620000  0.77520000  0.99580000  1.0 -0.131686696
C  C99  1  0.83560000  0.26140000  0.96280000  1.0 -0.0881293353
C  C100  1  0.16440000  0.73860000  0.03720000  1.0 -0.0881293353
C  C101  1  0.81300000  0.21380000  0.90920000  1.0 -0.1018759237
C  C102  1  0.18700000  0.78620000  0.09080000  1.0 -0.1018759237
C  C103  1  0.86800000  0.13030000  0.89770000  1.0 -0.141941744
C  C104  1  0.13200000  0.86970000  0.10230000  1.0 -0.141941744
C  C105  1  0.94890000  0.09350000  0.93870000  1.0 -0.0094934758
C  C106  1  0.05110000  0.90650000  0.06130000  1.0 -0.0094934758
C  C107  1  0.18110000  0.17600000  0.84420000  1.0 0.1204753324
C  C108  1  0.81890000  0.82400000  0.15580000  1.0 0.1204753324
C  C109  1  0.17650000  0.27460000  0.82590000  1.0 -0.455718814
C  C110  1  0.82350000  0.72540000  0.17410000  1.0 -0.455718814
C  C111  1  0.94990000  0.08710000  0.71630000  1.0 0.0499845853
C  C112  1  0.05010000  0.91290000  0.28370000  1.0 0.0499845853
C  C113  1  0.86170000  0.14150000  0.69690000  1.0 -0.4302151402
C  C114  1  0.13830000  0.85850000  0.30310000  1.0 -0.4302151402
N  N1  1  0.40260000  0.82390000  0.83020000  1.0 0.6897017473
N  N2  1  0.59740000  0.17610000  0.16980000  1.0 0.6897017473
N  N3  1  0.11150000  0.68560000  0.82960000  1.0 0.6897017473
N  N4  1  0.88850000  0.31440000  0.17040000  1.0 0.684882374
N  N5  1  0.99360000  0.83250000  0.67540000  1.0 0.7017317428
N  N6  1  0.00640000  0.16750000  0.32460000  1.0 0.7017317428
O  O1  1  0.23400000  0.70560000  0.68400000  1.0 -0.8226819919
O  O2  1  0.76600000  0.29440000  0.31600000  1.0 -0.8226819919
O  O3  1  0.26070000  0.52830000  0.65350000  1.0 -0.4302151402
O  O4  1  0.73930000  0.47170000  0.34650000  1.0 -0.4302151402
O  O5  1  0.38160000  0.66400000  0.62140000  1.0 -0.4393228577
O  O6  1  0.61840000  0.33600000  0.37860000  1.0 -0.4393228577
O  O7  1  0.31930000  0.91790000  0.70190000  1.0 -0.8095955537
O  O8  1  0.68070000  0.08210000  0.29810000  1.0 -0.8095955537
O  O9  1  0.50160000  0.01680000  0.72950000  1.0 -0.409403658
O  O10  1  0.49840000  0.98320000  0.27050000  1.0 -0.409403658
O  O11  1  0.35320000  0.08670000  0.66060000  1.0 -0.4302151402
O  O12  1  0.64680000  0.91330000  0.33940000  1.0 -0.4225499815
O  O13  1  0.12860000  0.96750000  0.78020000  1.0 -0.8095955537
O  O14  1  0.87140000  0.03250000  0.21980000  1.0 -0.8095955537
O  O15  1  0.09370000  0.12440000  0.82910000  1.0 -0.3110220121
O  O16  1  0.90630000  0.87560000  0.17090000  1.0 -0.3110220121
O  O17  1  0.94510000  0.04940000  0.77020000  1.0 -0.398500918
O  O18  1  0.05490000  0.95060000  0.22980000  1.0 -0.398500918
O  O19  1  0.33660000  0.89370000  0.82770000  1.0 -0.4956733869
O  O20  1  0.66340000  0.10630000  0.17230000  1.0 -0.4946746514
O  O21  1  0.37340000  0.75230000  0.79590000  1.0 -0.4707190977
O  O22  1  0.62660000  0.24770000  0.20410000  1.0 -0.4707190977
O  O23  1  0.48640000  0.82540000  0.86520000  1.0 -0.3514840589
O  O24  1  0.51360000  0.17460000  0.13480000  1.0 -0.3514840589
O  O25  1  0.13040000  0.77510000  0.83950000  1.0 -0.4707190977
O  O26  1  0.86960000  0.22490000  0.16050000  1.0 -0.4707190977
O  O27  1  0.14090000  0.65360000  0.78320000  1.0 -0.4816147597
O  O28  1  0.85910000  0.34640000  0.21680000  1.0 -0.4816147597
O  O29  1  0.06010000  0.63200000  0.85930000  1.0 -0.3447042094
O  O30  1  0.93990000  0.36800000  0.14070000  1.0 -0.3447042094
O  O31  1  0.08610000  0.87180000  0.66230000  1.0 -0.5111158775
O  O32  1  0.91390000  0.12820000  0.33770000  1.0 -0.5111158775
O  O33  1  0.99960000  0.78800000  0.72210000  1.0 -0.4816147597
O  O34  1  0.00040000  0.21200000  0.27790000  1.0 -0.4816147597
O  O35  1  0.90680000  0.83950000  0.64450000  1.0 -0.370629041
O  O36  1  0.09320000  0.16050000  0.35550000  1.0 -0.370629041
