# DDEC6 charges by PACMAN v1.1 (https://github.com/mtap-research/PACMAN-charge/)
data_TEWFUY_ASR_pacman
_symmetry_space_group_name_H-M   'P 1'
_cell_length_a   17.80570000
_cell_length_b   17.80570000
_cell_length_c   17.80570000
_cell_angle_alpha   130.46900000
_cell_angle_beta   123.82700000
_cell_angle_gamma   78.12870000
_symmetry_Int_Tables_number   1
_chemical_formula_structural   CuH18C30(NO2)4
_chemical_formula_sum   'Cu4 H72 C120 N16 O32'
_cell_volume   3457.80442028
_cell_formula_units_Z   4
loop_
 _symmetry_equiv_pos_site_id
 _symmetry_equiv_pos_as_xyz
  1  'x, y, z'
loop_
 _atom_site_type_symbol
 _atom_site_label
 _atom_site_symmetry_multiplicity
 _atom_site_fract_x
 _atom_site_fract_y
 _atom_site_fract_z
 _atom_site_occupancy
 _atom_site_charge
Cu  Cu1  1  0.00000000  0.00000000  0.50000000  1.0 0.7253907478
Cu  Cu2  1  0.00000000  0.50000000  0.00000000  1.0 0.7253907478
Cu  Cu3  1  0.50000000  0.50000000  0.50000000  1.0 0.7253907478
Cu  Cu4  1  0.50000000  0.00000000  0.00000000  1.0 0.7253907478
H  H1  1  0.80530000  0.89190000  0.28140000  1.0 0.1134863689
H  H2  1  0.11050000  0.52390000  0.21860000  1.0 0.1134863689
H  H3  1  0.19470000  0.10810000  0.71860000  1.0 0.1134863689
H  H4  1  0.88950000  0.47610000  0.78140000  1.0 0.1134863689
H  H5  1  0.65520000  0.91620000  0.21820000  1.0 0.1471055877
H  H6  1  0.19800000  0.43700000  0.28180000  1.0 0.1471055877
H  H7  1  0.34480000  0.08380000  0.78180000  1.0 0.1471055877
H  H8  1  0.80200000  0.56300000  0.71820000  1.0 0.1471055877
H  H9  1  0.76030000  0.18680000  0.54970000  1.0 0.1471055877
H  H10  1  0.13710000  0.21060000  0.95030000  1.0 0.1471055877
H  H11  1  0.23970000  0.81320000  0.45030000  1.0 0.1471055877
H  H12  1  0.86290000  0.78940000  0.04970000  1.0 0.1471055877
H  H13  1  0.91080000  0.15910000  0.60610000  1.0 0.1203419995
H  H14  1  0.05300000  0.30470000  0.89390000  1.0 0.1203419995
H  H15  1  0.08920000  0.84090000  0.39390000  1.0 0.1203419995
H  H16  1  0.94700000  0.69530000  0.10610000  1.0 0.1203419995
H  H17  1  0.59750000  0.14110000  0.37400000  1.0 0.1203419995
H  H18  1  0.26710000  0.22350000  0.12600000  1.0 0.1203419995
H  H19  1  0.40250000  0.85890000  0.62600000  1.0 0.1203419995
H  H20  1  0.73290000  0.77650000  0.87400000  1.0 0.1203419995
H  H21  1  0.55380000  0.02370000  0.25310000  1.0 0.1203419995
H  H22  1  0.27060000  0.30070000  0.24690000  1.0 0.1203419995
H  H23  1  0.44620000  0.97630000  0.74690000  1.0 0.1203419995
H  H24  1  0.72940000  0.69930000  0.75310000  1.0 0.1203419995
H  H25  1  0.45020000  0.82250000  0.32830000  1.0 0.1471055877
H  H26  1  0.99420000  0.12190000  0.17170000  1.0 0.1471055877
H  H27  1  0.54980000  0.17750000  0.67170000  1.0 0.1471055877
H  H28  1  0.00580000  0.87810000  0.82830000  1.0 0.1471055877
H  H29  1  0.82020000  0.75350000  0.37210000  1.0 0.1298296831
H  H30  1  0.88140000  0.44810000  0.12790000  1.0 0.1298296831
H  H31  1  0.17980000  0.24650000  0.62790000  1.0 0.1298296831
H  H32  1  0.11860000  0.55190000  0.87210000  1.0 0.1298296831
H  H33  1  0.76160000  0.60460000  0.31100000  1.0 0.1134863689
H  H34  1  0.79360000  0.45060000  0.18900000  1.0 0.1134863689
H  H35  1  0.23840000  0.39540000  0.68900000  1.0 0.1134863689
H  H36  1  0.20640000  0.54940000  0.81100000  1.0 0.1134863689
H  H37  1  0.38950000  0.60810000  0.41340000  1.0 0.1134863689
H  H38  1  0.69470000  0.97610000  0.08660000  1.0 0.1134863689
H  H39  1  0.61050000  0.39190000  0.58660000  1.0 0.1134863689
H  H40  1  0.30530000  0.02390000  0.91340000  1.0 0.1134863689
H  H41  1  0.30200000  0.58380000  0.23900000  1.0 0.1471055877
H  H42  1  0.84480000  0.06300000  0.26100000  1.0 0.1471055877
H  H43  1  0.69800000  0.41620000  0.76100000  1.0 0.1471055877
H  H44  1  0.15520000  0.93700000  0.73900000  1.0 0.1471055877
H  H45  1  0.36290000  0.31320000  0.07350000  1.0 0.1471055877
H  H46  1  0.73970000  0.28940000  0.42650000  1.0 0.1471055877
H  H47  1  0.63710000  0.68680000  0.92650000  1.0 0.1471055877
H  H48  1  0.26030000  0.71060000  0.57350000  1.0 0.1471055877
H  H49  1  0.44700000  0.34090000  0.25170000  1.0 0.1203419995
H  H50  1  0.58920000  0.19530000  0.24830000  1.0 0.1203419995
H  H51  1  0.55300000  0.65910000  0.74830000  1.0 0.1203419995
H  H52  1  0.41080000  0.80470000  0.75170000  1.0 0.1203419995
H  H53  1  0.23290000  0.35890000  0.95640000  1.0 0.1203419995
H  H54  1  0.90250000  0.27650000  0.54360000  1.0 0.1203419995
H  H55  1  0.76710000  0.64110000  0.04360000  1.0 0.1203419995
H  H56  1  0.09750000  0.72350000  0.45640000  1.0 0.1203419995
H  H57  1  0.22940000  0.47630000  0.03010000  1.0 0.1203419995
H  H58  1  0.94620000  0.19930000  0.46990000  1.0 0.1203419995
H  H59  1  0.77060000  0.52370000  0.96990000  1.0 0.1203419995
H  H60  1  0.05380000  0.80070000  0.53010000  1.0 0.1203419995
H  H61  1  0.50580000  0.67750000  0.12770000  1.0 0.1471055877
H  H62  1  0.04980000  0.37810000  0.37230000  1.0 0.1471055877
H  H63  1  0.49420000  0.32250000  0.87230000  1.0 0.1471055877
H  H64  1  0.95020000  0.62190000  0.62770000  1.0 0.1471055877
H  H65  1  0.61860000  0.74650000  0.56670000  1.0 0.1298296831
H  H66  1  0.67980000  0.05190000  0.93330000  1.0 0.1298296831
H  H67  1  0.38140000  0.25350000  0.43330000  1.0 0.1298296831
H  H68  1  0.32020000  0.94810000  0.06670000  1.0 0.1298296831
H  H69  1  0.70640000  0.89540000  0.65700000  1.0 0.1134863689
H  H70  1  0.73840000  0.04940000  0.84300000  1.0 0.1134863689
H  H71  1  0.29360000  0.10460000  0.34300000  1.0 0.1134863689
H  H72  1  0.26160000  0.95060000  0.15700000  1.0 0.1134863689
C  C1  1  0.79670000  0.95360000  0.33730000  1.0 0.0843895606
C  C2  1  0.11630000  0.45940000  0.16270000  1.0 0.0843895606
C  C3  1  0.20330000  0.04640000  0.66270000  1.0 0.0843895606
C  C4  1  0.88370000  0.54060000  0.83730000  1.0 0.0843895606
C  C5  1  0.70620000  0.96690000  0.29870000  1.0 -0.1740540707
C  C6  1  0.16820000  0.40750000  0.20130000  1.0 -0.1740540707
C  C7  1  0.29380000  0.03310000  0.70130000  1.0 -0.1740540707
C  C8  1  0.83180000  0.59250000  0.79870000  1.0 -0.1740540707
C  C9  1  0.69230000  0.05350000  0.37840000  1.0 0.1298296831
C  C10  1  0.17510000  0.31390000  0.12160000  1.0 0.1298296831
C  C11  1  0.30770000  0.94650000  0.62160000  1.0 0.1298296831
C  C12  1  0.82490000  0.68610000  0.87840000  1.0 0.1298296831
C  C13  1  0.76840000  0.12540000  0.49280000  1.0 -0.1819203638
C  C14  1  0.13260000  0.27560000  0.00720000  1.0 -0.1819203638
C  C15  1  0.23160000  0.87460000  0.50720000  1.0 -0.1819203638
C  C16  1  0.86740000  0.72440000  0.99280000  1.0 -0.1819203638
C  C17  1  0.85880000  0.10850000  0.52650000  1.0 0.1014031774
C  C18  1  0.08200000  0.33230000  0.97350000  1.0 0.1014031774
C  C19  1  0.14120000  0.89150000  0.47350000  1.0 0.1014031774
C  C20  1  0.91800000  0.66770000  0.02650000  1.0 0.1014031774
C  C21  1  0.59620000  0.07010000  0.34170000  1.0 -0.1432816417
C  C22  1  0.22840000  0.25450000  0.15830000  1.0 -0.1432816417
C  C23  1  0.40380000  0.92990000  0.65830000  1.0 -0.1432816417
C  C24  1  0.77160000  0.74550000  0.84170000  1.0 -0.1432816417
C  C25  1  0.57230000  0.12470000  0.49660000  1.0 0.4290999218
C  C26  1  0.12810000  0.07570000  0.00340000  1.0 0.4290999218
C  C27  1  0.42770000  0.87530000  0.50340000  1.0 0.4290999218
C  C28  1  0.87190000  0.92430000  0.99660000  1.0 0.4290999218
C  C29  1  0.52170000  0.95430000  0.33000000  1.0 0.4290999218
C  C30  1  0.12430000  0.19170000  0.17000000  1.0 0.4290999218
C  C31  1  0.47830000  0.04570000  0.67000000  1.0 0.4290999218
C  C32  1  0.87570000  0.80830000  0.83000000  1.0 0.4290999218
C  C33  1  0.50610000  0.96700000  0.41090000  1.0 -0.057725794
C  C34  1  0.05610000  0.09520000  0.08910000  1.0 -0.057725794
C  C35  1  0.49390000  0.03300000  0.58910000  1.0 -0.057725794
C  C36  1  0.94390000  0.90480000  0.91090000  1.0 -0.057725794
C  C37  1  0.46990000  0.89300000  0.39650000  1.0 -0.0723298335
C  C38  1  0.99650000  0.07340000  0.10350000  1.0 -0.0723298335
C  C39  1  0.53010000  0.10700000  0.60350000  1.0 -0.0723298335
C  C40  1  0.00350000  0.92660000  0.89650000  1.0 -0.0723298335
C  C41  1  0.46540000  0.93130000  0.49030000  1.0 -0.0491092012
C  C42  1  0.94100000  0.97510000  0.00970000  1.0 -0.0491092012
C  C43  1  0.53460000  0.06870000  0.50970000  1.0 -0.0491092012
C  C44  1  0.05900000  0.02490000  0.99030000  1.0 -0.0491092012
C  C45  1  0.91660000  0.78660000  0.32200000  1.0 0.5593663013
C  C46  1  0.96460000  0.59460000  0.17800000  1.0 0.5593663013
C  C47  1  0.08340000  0.21340000  0.67800000  1.0 0.5593663013
C  C48  1  0.03540000  0.40540000  0.82200000  1.0 0.5593663013
C  C49  1  0.88470000  0.68890000  0.28580000  1.0 -0.0312874879
C  C50  1  0.90310000  0.59890000  0.21420000  1.0 -0.0312874879
C  C51  1  0.11530000  0.31110000  0.71420000  1.0 -0.0312874879
C  C52  1  0.09690000  0.40110000  0.78580000  1.0 -0.0312874879
C  C53  1  0.83240000  0.69130000  0.32230000  1.0 -0.1091810942
C  C54  1  0.86900000  0.51010000  0.17770000  1.0 -0.1091810942
C  C55  1  0.16760000  0.30870000  0.67770000  1.0 -0.1091810942
C  C56  1  0.13100000  0.48990000  0.82230000  1.0 -0.1091810942
C  C57  1  0.79790000  0.60320000  0.28650000  1.0 -0.0978559696
C  C58  1  0.81670000  0.51140000  0.21350000  1.0 -0.0978559696
C  C59  1  0.20210000  0.39680000  0.71350000  1.0 -0.0978559696
C  C60  1  0.18330000  0.48860000  0.78650000  1.0 -0.0978559696
C  C61  1  0.38370000  0.54640000  0.34310000  1.0 0.0843895606
C  C62  1  0.70330000  0.04060000  0.15690000  1.0 0.0843895606
C  C63  1  0.61630000  0.45360000  0.65690000  1.0 0.0843895606
C  C64  1  0.29670000  0.95940000  0.84310000  1.0 0.0843895606
C  C65  1  0.33180000  0.53310000  0.23930000  1.0 -0.1740540707
C  C66  1  0.79380000  0.09250000  0.26070000  1.0 -0.1740540707
C  C67  1  0.66820000  0.46690000  0.76070000  1.0 -0.1740540707
C  C68  1  0.20620000  0.90750000  0.73930000  1.0 -0.1740540707
C  C69  1  0.32490000  0.44650000  0.13880000  1.0 0.1298296831
C  C70  1  0.80770000  0.18610000  0.36120000  1.0 0.1298296831
C  C71  1  0.67510000  0.55350000  0.86120000  1.0 0.1298296831
C  C72  1  0.19230000  0.81390000  0.63880000  1.0 0.1298296831
C  C73  1  0.36740000  0.37460000  0.14300000  1.0 -0.1819203638
C  C74  1  0.73160000  0.22440000  0.35700000  1.0 -0.1819203638
C  C75  1  0.63260000  0.62540000  0.85700000  1.0 -0.1819203638
C  C76  1  0.26840000  0.77560000  0.64300000  1.0 -0.1819203638
C  C77  1  0.41800000  0.39150000  0.25030000  1.0 0.1014031774
C  C78  1  0.64120000  0.16770000  0.24970000  1.0 0.1014031774
C  C79  1  0.58200000  0.60850000  0.74970000  1.0 0.1014031774
C  C80  1  0.35880000  0.83230000  0.75030000  1.0 0.1014031774
C  C81  1  0.27160000  0.42990000  0.02610000  1.0 -0.1432816417
C  C82  1  0.90380000  0.24550000  0.47390000  1.0 -0.1432816417
C  C83  1  0.72840000  0.57010000  0.97390000  1.0 -0.1432816417
C  C84  1  0.09620000  0.75450000  0.52610000  1.0 -0.1432816417
C  C85  1  0.37190000  0.37530000  0.94760000  1.0 0.4290999218
C  C86  1  0.92770000  0.42430000  0.55240000  1.0 0.4290999218
C  C87  1  0.62810000  0.62470000  0.05240000  1.0 0.4290999218
C  C88  1  0.07230000  0.57570000  0.44760000  1.0 0.4290999218
C  C89  1  0.37570000  0.54570000  0.06740000  1.0 0.4290999218
C  C90  1  0.97830000  0.30830000  0.43260000  1.0 0.4290999218
C  C91  1  0.62430000  0.45430000  0.93260000  1.0 0.4290999218
C  C92  1  0.02170000  0.69170000  0.56740000  1.0 0.4290999218
C  C93  1  0.44390000  0.53300000  0.03910000  1.0 -0.057725794
C  C94  1  0.99390000  0.40480000  0.46090000  1.0 -0.057725794
C  C95  1  0.55610000  0.46700000  0.96090000  1.0 -0.057725794
C  C96  1  0.00610000  0.59520000  0.53910000  1.0 -0.057725794
C  C97  1  0.50350000  0.60700000  0.07690000  1.0 -0.0723298335
C  C98  1  0.03010000  0.42660000  0.42310000  1.0 -0.0723298335
C  C99  1  0.49650000  0.39300000  0.92310000  1.0 -0.0723298335
C  C100  1  0.96990000  0.57340000  0.57690000  1.0 -0.0723298335
C  C101  1  0.55900000  0.56870000  0.03410000  1.0 -0.0491092012
C  C102  1  0.03460000  0.52490000  0.46590000  1.0 -0.0491092012
C  C103  1  0.44100000  0.43130000  0.96590000  1.0 -0.0491092012
C  C104  1  0.96540000  0.47510000  0.53410000  1.0 -0.0491092012
C  C105  1  0.53540000  0.71340000  0.63000000  1.0 0.5593663013
C  C106  1  0.58340000  0.90540000  0.87000000  1.0 0.5593663013
C  C107  1  0.46460000  0.28660000  0.37000000  1.0 0.5593663013
C  C108  1  0.41660000  0.09460000  0.13000000  1.0 0.5593663013
C  C109  1  0.59690000  0.81110000  0.69580000  1.0 -0.0312874879
C  C110  1  0.61530000  0.90110000  0.80420000  1.0 -0.0312874879
C  C111  1  0.40310000  0.18890000  0.30420000  1.0 -0.0312874879
C  C112  1  0.38470000  0.09890000  0.19580000  1.0 -0.0312874879
C  C113  1  0.63100000  0.80870000  0.64110000  1.0 -0.1091810942
C  C114  1  0.66760000  0.98990000  0.85890000  1.0 -0.1091810942
C  C115  1  0.36900000  0.19130000  0.35890000  1.0 -0.1091810942
C  C116  1  0.33240000  0.01010000  0.14110000  1.0 -0.1091810942
C  C117  1  0.68330000  0.89680000  0.69470000  1.0 -0.0978559696
C  C118  1  0.70210000  0.98860000  0.80530000  1.0 -0.0978559696
C  C119  1  0.31670000  0.10320000  0.30530000  1.0 -0.0978559696
C  C120  1  0.29790000  0.01140000  0.19470000  1.0 -0.0978559696
N  N1  1  0.87250000  0.02300000  0.44910000  1.0 -0.2300909342
N  N2  1  0.07390000  0.42340000  0.05090000  1.0 -0.2300909342
N  N3  1  0.12750000  0.97700000  0.55090000  1.0 -0.2300909342
N  N4  1  0.92610000  0.57660000  0.94910000  1.0 -0.2300909342
N  N5  1  0.56146000  0.05116000  0.38750000  1.0 -0.1819203638
N  N6  1  0.16366000  0.17396000  0.11250000  1.0 -0.1819203638
N  N7  1  0.43854000  0.94884000  0.61250000  1.0 -0.1819203638
N  N8  1  0.83634000  0.82604000  0.88750000  1.0 -0.1819203638
N  N9  1  0.42610000  0.47700000  0.34950000  1.0 -0.2300909342
N  N10  1  0.62750000  0.07660000  0.15050000  1.0 -0.2300909342
N  N11  1  0.57390000  0.52300000  0.65050000  1.0 -0.2300909342
N  N12  1  0.37250000  0.92340000  0.84950000  1.0 -0.2300909342
N  N13  1  0.33634000  0.44884000  0.01030000  1.0 -0.1819203638
N  N14  1  0.93854000  0.32604000  0.48970000  1.0 -0.1819203638
N  N15  1  0.66366000  0.55116000  0.98970000  1.0 -0.1819203638
N  N16  1  0.06146000  0.67396000  0.51030000  1.0 -0.1819203638
O  O1  1  0.95283000  0.86583000  0.43100000  1.0 -0.5415031158
O  O2  1  0.93483000  0.52183000  0.06900000  1.0 -0.5415031158
O  O3  1  0.04717000  0.13417000  0.56900000  1.0 -0.5415031158
O  O4  1  0.06517000  0.47817000  0.93100000  1.0 -0.5415031158
O  O5  1  0.90402000  0.78282000  0.24360000  1.0 -0.556808635
O  O6  1  0.03922000  0.66042000  0.25640000  1.0 -0.556808635
O  O7  1  0.09598000  0.21718000  0.75640000  1.0 -0.556808635
O  O8  1  0.96078000  0.33958000  0.74360000  1.0 -0.556808635
O  O9  1  0.60517000  0.21447000  0.56350000  1.0 -0.416452437
O  O10  1  0.15097000  0.04167000  0.93650000  1.0 -0.416452437
O  O11  1  0.39483000  0.78553000  0.43650000  1.0 -0.416452437
O  O12  1  0.84903000  0.95833000  0.06350000  1.0 -0.416452437
O  O13  1  0.50584000  0.87694000  0.23410000  1.0 -0.4115081796
O  O14  1  0.14284000  0.27174000  0.26590000  1.0 -0.4115081796
O  O15  1  0.49416000  0.12306000  0.76590000  1.0 -0.4115081796
O  O16  1  0.85716000  0.72826000  0.73410000  1.0 -0.4115081796
O  O17  1  0.56517000  0.63417000  0.58700000  1.0 -0.5415031158
O  O18  1  0.54717000  0.97817000  0.91300000  1.0 -0.5415031158
O  O19  1  0.43483000  0.36583000  0.41300000  1.0 -0.5415031158
O  O20  1  0.45283000  0.02183000  0.08700000  1.0 -0.5415031158
O  O21  1  0.46078000  0.71718000  0.62120000  1.0 -0.556808635
O  O22  1  0.59598000  0.83958000  0.87880000  1.0 -0.556808635
O  O23  1  0.53922000  0.28282000  0.37880000  1.0 -0.556808635
O  O24  1  0.40402000  0.16042000  0.12120000  1.0 -0.556808635
O  O25  1  0.34903000  0.28553000  0.89070000  1.0 -0.416452437
O  O26  1  0.89483000  0.45833000  0.60930000  1.0 -0.416452437
O  O27  1  0.65097000  0.71447000  0.10930000  1.0 -0.416452437
O  O28  1  0.10517000  0.54167000  0.39070000  1.0 -0.416452437
O  O29  1  0.35716000  0.62306000  0.12890000  1.0 -0.4115081796
O  O30  1  0.99416000  0.22826000  0.37110000  1.0 -0.4115081796
O  O31  1  0.64284000  0.37694000  0.87110000  1.0 -0.4115081796
O  O32  1  0.00584000  0.77174000  0.62890000  1.0 -0.4115081796
