# DDEC6 charges by PACMAN v1.1 (https://github.com/mtap-research/PACMAN-charge/)
data_TEWGEJ_ASR_pacman
_symmetry_space_group_name_H-M   'P 1'
_cell_length_a   17.83740000
_cell_length_b   17.83740000
_cell_length_c   17.83740000
_cell_angle_alpha   129.26400000
_cell_angle_beta   124.07400000
_cell_angle_gamma   78.86260000
_symmetry_Int_Tables_number   1
_chemical_formula_structural   CuH18C30(NO2)4
_chemical_formula_sum   'Cu4 H72 C120 N16 O32'
_cell_volume   3522.50233848
_cell_formula_units_Z   4
loop_
 _symmetry_equiv_pos_site_id
 _symmetry_equiv_pos_as_xyz
  1  'x, y, z'
loop_
 _atom_site_type_symbol
 _atom_site_label
 _atom_site_symmetry_multiplicity
 _atom_site_fract_x
 _atom_site_fract_y
 _atom_site_fract_z
 _atom_site_occupancy
 _atom_site_charge
Cu  Cu1  1  0.50000000  0.00000000  0.00000000  1.0 0.7224854592
Cu  Cu2  1  0.50000000  0.50000000  0.50000000  1.0 0.7224854592
Cu  Cu3  1  0.00000000  0.50000000  0.00000000  1.0 0.7224854592
Cu  Cu4  1  0.00000000  0.00000000  0.50000000  1.0 0.7224854592
H  H1  1  0.69440000  0.10710000  0.21750000  1.0 0.1214069016
H  H2  1  0.38960000  0.47690000  0.28250000  1.0 0.1214069016
H  H3  1  0.30560000  0.89290000  0.78250000  1.0 0.1214069016
H  H4  1  0.61040000  0.52310000  0.71750000  1.0 0.1214069016
H  H5  1  0.84610000  0.08470000  0.28360000  1.0 0.1495927157
H  H6  1  0.30110000  0.56250000  0.21640000  1.0 0.1495927157
H  H7  1  0.15390000  0.91530000  0.71640000  1.0 0.1495927157
H  H8  1  0.69890000  0.43750000  0.78360000  1.0 0.1495927157
H  H9  1  0.74060000  0.81670000  0.95570000  1.0 0.1495927157
H  H10  1  0.36100000  0.78490000  0.54430000  1.0 0.1495927157
H  H11  1  0.25940000  0.18330000  0.04430000  1.0 0.1495927157
H  H12  1  0.63900000  0.21510000  0.45570000  1.0 0.1495927157
H  H13  1  0.59180000  0.84580000  0.89960000  1.0 0.1214069016
H  H14  1  0.44620000  0.69220000  0.60040000  1.0 0.1214069016
H  H15  1  0.40820000  0.15420000  0.10040000  1.0 0.1214069016
H  H16  1  0.55380000  0.30780000  0.39960000  1.0 0.1214069016
H  H17  1  0.94990000  0.98020000  0.25190000  1.0 0.1264032262
H  H18  1  0.22830000  0.69800000  0.24810000  1.0 0.1264032262
H  H19  1  0.05010000  0.01980000  0.74810000  1.0 0.1264032262
H  H20  1  0.77170000  0.30200000  0.75190000  1.0 0.1264032262
H  H21  1  0.90650000  0.86460000  0.13430000  1.0 0.1214069016
H  H22  1  0.23030000  0.77220000  0.36570000  1.0 0.1214069016
H  H23  1  0.09350000  0.13540000  0.86570000  1.0 0.1214069016
H  H24  1  0.76970000  0.22780000  0.63430000  1.0 0.1214069016
H  H25  1  0.94630000  0.82540000  0.83270000  1.0 0.1495927157
H  H26  1  0.49270000  0.11360000  0.66730000  1.0 0.1495927157
H  H27  1  0.05370000  0.17460000  0.16730000  1.0 0.1495927157
H  H28  1  0.50730000  0.88640000  0.33270000  1.0 0.1495927157
H  H29  1  0.31900000  0.74880000  0.86620000  1.0 0.1214069016
H  H30  1  0.38260000  0.45280000  0.63380000  1.0 0.1214069016
H  H31  1  0.68100000  0.25120000  0.13380000  1.0 0.1214069016
H  H32  1  0.61740000  0.54720000  0.36620000  1.0 0.1214069016
H  H33  1  0.26040000  0.60100000  0.80680000  1.0 0.1130723196
H  H34  1  0.29420000  0.45360000  0.69320000  1.0 0.1130723196
H  H35  1  0.73960000  0.39900000  0.19320000  1.0 0.1130723196
H  H36  1  0.70580000  0.54640000  0.30680000  1.0 0.1130723196
H  H37  1  0.11040000  0.39290000  0.08730000  1.0 0.1214069016
H  H38  1  0.80560000  0.02310000  0.41270000  1.0 0.1214069016
H  H39  1  0.88960000  0.60710000  0.91270000  1.0 0.1214069016
H  H40  1  0.19440000  0.97690000  0.58730000  1.0 0.1214069016
H  H41  1  0.19890000  0.41530000  0.26140000  1.0 0.1495927157
H  H42  1  0.65390000  0.93750000  0.23860000  1.0 0.1495927157
H  H43  1  0.80110000  0.58470000  0.73860000  1.0 0.1495927157
H  H44  1  0.34610000  0.06250000  0.76140000  1.0 0.1495927157
H  H45  1  0.13900000  0.68330000  0.42390000  1.0 0.1495927157
H  H46  1  0.75940000  0.71510000  0.07610000  1.0 0.1495927157
H  H47  1  0.86100000  0.31670000  0.57610000  1.0 0.1495927157
H  H48  1  0.24060000  0.28490000  0.92390000  1.0 0.1495927157
H  H49  1  0.05380000  0.65420000  0.24600000  1.0 0.1214069016
H  H50  1  0.90820000  0.80780000  0.25400000  1.0 0.1214069016
H  H51  1  0.94620000  0.34580000  0.75400000  1.0 0.1214069016
H  H52  1  0.09180000  0.19220000  0.74600000  1.0 0.1214069016
H  H53  1  0.27170000  0.51980000  0.46970000  1.0 0.1264032262
H  H54  1  0.55010000  0.80200000  0.03030000  1.0 0.1264032262
H  H55  1  0.72830000  0.48020000  0.53030000  1.0 0.1264032262
H  H56  1  0.44990000  0.19800000  0.96970000  1.0 0.1264032262
H  H57  1  0.26970000  0.63540000  0.54190000  1.0 0.1214069016
H  H58  1  0.59350000  0.72780000  0.95810000  1.0 0.1214069016
H  H59  1  0.73030000  0.36460000  0.45810000  1.0 0.1214069016
H  H60  1  0.40650000  0.27220000  0.04190000  1.0 0.1214069016
H  H61  1  0.00730000  0.67460000  0.62090000  1.0 0.1495927157
H  H62  1  0.55370000  0.38640000  0.87910000  1.0 0.1495927157
H  H63  1  0.99270000  0.32540000  0.37910000  1.0 0.1495927157
H  H64  1  0.44630000  0.61360000  0.12090000  1.0 0.1495927157
H  H65  1  0.11740000  0.75120000  0.07020000  1.0 0.1214069016
H  H66  1  0.18100000  0.04720000  0.42980000  1.0 0.1214069016
H  H67  1  0.88260000  0.24880000  0.92980000  1.0 0.1214069016
H  H68  1  0.81900000  0.95280000  0.57020000  1.0 0.1214069016
H  H69  1  0.20580000  0.89900000  0.15940000  1.0 0.1130723196
H  H70  1  0.23960000  0.04640000  0.34060000  1.0 0.1130723196
H  H71  1  0.79420000  0.10100000  0.84060000  1.0 0.1130723196
H  H72  1  0.76040000  0.95360000  0.65940000  1.0 0.1130723196
C  C1  1  0.70409000  0.04739000  0.16390000  1.0 0.088808513
C  C2  1  0.38349000  0.54019000  0.33610000  1.0 0.088808513
C  C3  1  0.29591000  0.95261000  0.83610000  1.0 0.088808513
C  C4  1  0.61651000  0.45981000  0.66390000  1.0 0.088808513
C  C5  1  0.79506000  0.03496000  0.20390000  1.0 -0.1789610919
C  C6  1  0.33106000  0.59116000  0.29610000  1.0 -0.1789610919
C  C7  1  0.20494000  0.96504000  0.79610000  1.0 -0.1789610919
C  C8  1  0.66894000  0.40884000  0.70390000  1.0 -0.1789610919
C  C9  1  0.80927000  0.94927000  0.12560000  1.0 0.1437966141
C  C10  1  0.32367000  0.68367000  0.37440000  1.0 0.1437966141
C  C11  1  0.19073000  0.05073000  0.87440000  1.0 0.1437966141
C  C12  1  0.67633000  0.31633000  0.62560000  1.0 0.1437966141
C  C13  1  0.73280000  0.87720000  0.01100000  1.0 -0.1789610919
C  C14  1  0.36620000  0.72180000  0.48900000  1.0 -0.1789610919
C  C15  1  0.26720000  0.12280000  0.98900000  1.0 -0.1789610919
C  C16  1  0.63380000  0.27820000  0.51100000  1.0 -0.1789610919
C  C17  1  0.64417000  0.89507000  0.97830000  1.0 0.102281763
C  C18  1  0.41677000  0.66587000  0.52170000  1.0 0.102281763
C  C19  1  0.35583000  0.10493000  0.02170000  1.0 0.102281763
C  C20  1  0.58323000  0.33413000  0.47830000  1.0 0.102281763
C  C21  1  0.90716000  0.93406000  0.16430000  1.0 -0.1443863933
C  C22  1  0.26976000  0.74286000  0.33570000  1.0 -0.1443863933
C  C23  1  0.09284000  0.06594000  0.83570000  1.0 -0.1443863933
C  C24  1  0.73024000  0.25714000  0.66430000  1.0 -0.1443863933
C  C25  1  0.92871000  0.87951000  0.00940000  1.0 0.4315937522
C  C26  1  0.37011000  0.91931000  0.49060000  1.0 0.4315937522
C  C27  1  0.07129000  0.12049000  0.99060000  1.0 0.4315937522
C  C28  1  0.62989000  0.08069000  0.50940000  1.0 0.4315937522
C  C29  1  0.96549000  0.93359000  0.99310000  1.0 -0.0489557251
C  C30  1  0.44049000  0.97239000  0.50690000  1.0 -0.0489557251
C  C31  1  0.03451000  0.06641000  0.00690000  1.0 -0.0489557251
C  C32  1  0.55951000  0.02761000  0.49310000  1.0 -0.0489557251
C  C33  1  0.99605000  0.03455000  0.09090000  1.0 -0.0489557251
C  C34  1  0.44365000  0.90515000  0.40910000  1.0 -0.0489557251
C  C35  1  0.00395000  0.96545000  0.90910000  1.0 -0.0489557251
C  C36  1  0.55635000  0.09485000  0.59090000  1.0 -0.0489557251
C  C37  1  0.98033000  0.04763000  0.17170000  1.0 0.4315937522
C  C38  1  0.37593000  0.80863000  0.32830000  1.0 0.4315937522
C  C39  1  0.01967000  0.95237000  0.82830000  1.0 0.4315937522
C  C40  1  0.62407000  0.19137000  0.67170000  1.0 0.4315937522
C  C41  1  0.96771000  0.89481000  0.89910000  1.0 -0.0741345075
C  C42  1  0.49571000  0.06861000  0.60090000  1.0 -0.0741345075
C  C43  1  0.03229000  0.10519000  0.10090000  1.0 -0.0741345075
C  C44  1  0.50429000  0.93139000  0.39910000  1.0 -0.0741345075
C  C45  1  0.41507000  0.78237000  0.81490000  1.0 0.5611099961
C  C46  1  0.46747000  0.60017000  0.68510000  1.0 0.5611099961
C  C47  1  0.58493000  0.21763000  0.18510000  1.0 0.5611099961
C  C48  1  0.53253000  0.39983000  0.31490000  1.0 0.5611099961
C  C49  1  0.38521000  0.68981000  0.78460000  1.0 -0.0489557251
C  C50  1  0.40521000  0.60061000  0.71540000  1.0 -0.0489557251
C  C51  1  0.61479000  0.31019000  0.21540000  1.0 -0.0489557251
C  C52  1  0.59479000  0.39939000  0.28460000  1.0 -0.0489557251
C  C53  1  0.33206000  0.68856000  0.81850000  1.0 -0.1059639242
C  C54  1  0.37006000  0.51356000  0.68150000  1.0 -0.1059639242
C  C55  1  0.66794000  0.31144000  0.18150000  1.0 -0.1059639242
C  C56  1  0.62994000  0.48644000  0.31850000  1.0 -0.1059639242
C  C57  1  0.29740000  0.60060000  0.78380000  1.0 -0.1046773962
C  C58  1  0.31680000  0.51360000  0.71620000  1.0 -0.1046773962
C  C59  1  0.70260000  0.39940000  0.21620000  1.0 -0.1046773962
C  C60  1  0.68320000  0.48640000  0.28380000  1.0 -0.1046773962
C  C61  1  0.11651000  0.45261000  0.15670000  1.0 0.088808513
C  C62  1  0.79591000  0.95981000  0.34330000  1.0 0.088808513
C  C63  1  0.88349000  0.54739000  0.84330000  1.0 0.088808513
C  C64  1  0.20409000  0.04019000  0.65670000  1.0 0.088808513
C  C65  1  0.16894000  0.46504000  0.26010000  1.0 -0.1789610919
C  C66  1  0.70494000  0.90884000  0.23990000  1.0 -0.1789610919
C  C67  1  0.83106000  0.53496000  0.73990000  1.0 -0.1789610919
C  C68  1  0.29506000  0.09116000  0.76010000  1.0 -0.1789610919
C  C69  1  0.17633000  0.55073000  0.36000000  1.0 0.1437966141
C  C70  1  0.69073000  0.81633000  0.14000000  1.0 0.1437966141
C  C71  1  0.82367000  0.44927000  0.64000000  1.0 0.1437966141
C  C72  1  0.30927000  0.18367000  0.86000000  1.0 0.1437966141
C  C73  1  0.13380000  0.62280000  0.35560000  1.0 -0.1789610919
C  C74  1  0.76720000  0.77820000  0.14440000  1.0 -0.1789610919
C  C75  1  0.86620000  0.37720000  0.64440000  1.0 -0.1789610919
C  C76  1  0.23280000  0.22180000  0.85560000  1.0 -0.1789610919
C  C77  1  0.08323000  0.60493000  0.24910000  1.0 0.102281763
C  C78  1  0.85583000  0.83413000  0.25090000  1.0 0.102281763
C  C79  1  0.91677000  0.39507000  0.75090000  1.0 0.102281763
C  C80  1  0.14417000  0.16587000  0.74910000  1.0 0.102281763
C  C81  1  0.23024000  0.56594000  0.47310000  1.0 -0.1443863933
C  C82  1  0.59284000  0.75714000  0.02690000  1.0 -0.1443863933
C  C83  1  0.76976000  0.43406000  0.52690000  1.0 -0.1443863933
C  C84  1  0.40716000  0.24286000  0.97310000  1.0 -0.1443863933
C  C85  1  0.12989000  0.62049000  0.54920000  1.0 0.4315937522
C  C86  1  0.57129000  0.58069000  0.95080000  1.0 0.4315937522
C  C87  1  0.87011000  0.37951000  0.45080000  1.0 0.4315937522
C  C88  1  0.42871000  0.41931000  0.04920000  1.0 0.4315937522
C  C89  1  0.05951000  0.56641000  0.53190000  1.0 -0.0489557251
C  C90  1  0.53451000  0.52761000  0.96810000  1.0 -0.0489557251
C  C91  1  0.94049000  0.43359000  0.46810000  1.0 -0.0489557251
C  C92  1  0.46549000  0.47239000  0.03190000  1.0 -0.0489557251
C  C93  1  0.05635000  0.46545000  0.46150000  1.0 -0.0489557251
C  C94  1  0.50395000  0.59485000  0.03850000  1.0 -0.0489557251
C  C95  1  0.94365000  0.53455000  0.53850000  1.0 -0.0489557251
C  C96  1  0.49605000  0.40515000  0.96150000  1.0 -0.0489557251
C  C97  1  0.12407000  0.45237000  0.43270000  1.0 0.4315937522
C  C98  1  0.51967000  0.69137000  0.06730000  1.0 0.4315937522
C  C99  1  0.87593000  0.54763000  0.56730000  1.0 0.4315937522
C  C100  1  0.48033000  0.30863000  0.93270000  1.0 0.4315937522
C  C101  1  0.00429000  0.60519000  0.57290000  1.0 -0.0741345075
C  C102  1  0.53229000  0.43139000  0.92710000  1.0 -0.0741345075
C  C103  1  0.99571000  0.39481000  0.42710000  1.0 -0.0741345075
C  C104  1  0.46771000  0.56861000  0.07290000  1.0 -0.0741345075
C  C105  1  0.03253000  0.71763000  0.13270000  1.0 0.5611099961
C  C106  1  0.08493000  0.89983000  0.36730000  1.0 0.5611099961
C  C107  1  0.96747000  0.28237000  0.86730000  1.0 0.5611099961
C  C108  1  0.91507000  0.10017000  0.63270000  1.0 0.5611099961
C  C109  1  0.09479000  0.81019000  0.19540000  1.0 -0.0489557251
C  C110  1  0.11479000  0.89939000  0.30460000  1.0 -0.0489557251
C  C111  1  0.90521000  0.18981000  0.80460000  1.0 -0.0489557251
C  C112  1  0.88521000  0.10061000  0.69540000  1.0 -0.0489557251
C  C113  1  0.12994000  0.81144000  0.14350000  1.0 -0.1059639242
C  C114  1  0.16794000  0.98644000  0.35650000  1.0 -0.1059639242
C  C115  1  0.87006000  0.18856000  0.85650000  1.0 -0.1059639242
C  C116  1  0.83206000  0.01356000  0.64350000  1.0 -0.1059639242
C  C117  1  0.18320000  0.89940000  0.19680000  1.0 -0.1046773962
C  C118  1  0.20260000  0.98640000  0.30320000  1.0 -0.1046773962
C  C119  1  0.81680000  0.10060000  0.80320000  1.0 -0.1046773962
C  C120  1  0.79740000  0.01360000  0.69680000  1.0 -0.1046773962
N  N1  1  0.63003000  0.97813000  0.05270000  1.0 -0.2263610655
N  N2  1  0.42543000  0.57733000  0.44730000  1.0 -0.2263610655
N  N3  1  0.36997000  0.02187000  0.94730000  1.0 -0.2263610655
N  N4  1  0.57457000  0.42267000  0.55270000  1.0 -0.2263610655
N  N5  1  0.94075000  0.95295000  0.11800000  1.0 -0.1789610919
N  N6  1  0.33495000  0.82275000  0.38200000  1.0 -0.1789610919
N  N7  1  0.05925000  0.04705000  0.88200000  1.0 -0.1789610919
N  N8  1  0.66505000  0.17725000  0.61800000  1.0 -0.1789610919
N  N9  1  0.07457000  0.52187000  0.15190000  1.0 -0.2263610655
N  N10  1  0.86997000  0.92267000  0.34810000  1.0 -0.2263610655
N  N11  1  0.92543000  0.47813000  0.84810000  1.0 -0.2263610655
N  N12  1  0.13003000  0.07733000  0.65190000  1.0 -0.2263610655
N  N13  1  0.16505000  0.54705000  0.48780000  1.0 -0.1789610919
N  N14  1  0.55925000  0.67725000  0.01220000  1.0 -0.1789610919
N  N15  1  0.83495000  0.45295000  0.51220000  1.0 -0.1789610919
N  N16  1  0.44075000  0.32275000  0.98780000  1.0 -0.1789610919
O  O1  1  0.99680000  0.12470000  0.26590000  1.0 -0.42355398
O  O2  1  0.35880000  0.73090000  0.23410000  1.0 -0.42355398
O  O3  1  0.00320000  0.87530000  0.73410000  1.0 -0.42355398
O  O4  1  0.64120000  0.26910000  0.76590000  1.0 -0.42355398
O  O5  1  0.89441000  0.79141000  0.94380000  1.0 -0.4094281842
O  O6  1  0.34761000  0.95061000  0.55620000  1.0 -0.4094281842
O  O7  1  0.10559000  0.20859000  0.05620000  1.0 -0.4094281842
O  O8  1  0.65239000  0.04939000  0.44380000  1.0 -0.4094281842
O  O9  1  0.45092000  0.86232000  0.92300000  1.0 -0.5609304917
O  O10  1  0.43932000  0.52792000  0.57700000  1.0 -0.5609304917
O  O11  1  0.54908000  0.13768000  0.07700000  1.0 -0.5609304917
O  O12  1  0.56068000  0.47208000  0.42300000  1.0 -0.5609304917
O  O13  1  0.40275000  0.77945000  0.73710000  1.0 -0.5609304917
O  O14  1  0.54235000  0.66565000  0.76290000  1.0 -0.5609304917
O  O15  1  0.59725000  0.22055000  0.26290000  1.0 -0.5609304917
O  O16  1  0.45765000  0.33435000  0.23710000  1.0 -0.5609304917
O  O17  1  0.14120000  0.37530000  0.37210000  1.0 -0.42355398
O  O18  1  0.50320000  0.76910000  0.12790000  1.0 -0.42355398
O  O19  1  0.85880000  0.62470000  0.62790000  1.0 -0.4250862536
O  O20  1  0.49680000  0.23090000  0.87210000  1.0 -0.42355398
O  O21  1  0.15239000  0.70859000  0.60300000  1.0 -0.4094281842
O  O22  1  0.60559000  0.54939000  0.89700000  1.0 -0.4094281842
O  O23  1  0.84761000  0.29141000  0.39700000  1.0 -0.4094281842
O  O24  1  0.39441000  0.45061000  0.10300000  1.0 -0.4094281842
O  O25  1  0.06068000  0.63768000  0.08860000  1.0 -0.5609304917
O  O26  1  0.04908000  0.97208000  0.41140000  1.0 -0.5609304917
O  O27  1  0.93932000  0.36232000  0.91140000  1.0 -0.5609304917
O  O28  1  0.95092000  0.02792000  0.58860000  1.0 -0.5609304917
O  O29  1  0.95765000  0.72055000  0.12330000  1.0 -0.5609304917
O  O30  1  0.09725000  0.83435000  0.37670000  1.0 -0.5609304917
O  O31  1  0.04235000  0.27945000  0.87670000  1.0 -0.5609304917
O  O32  1  0.90275000  0.16565000  0.62330000  1.0 -0.5609304917
