# DDEC6 charges by PACMAN v1.1 (https://github.com/mtap-research/PACMAN-charge/)
data_TEWMOA_ASR_pacman
_symmetry_space_group_name_H-M   'P 1'
_cell_length_a   20.24390000
_cell_length_b   20.24390000
_cell_length_c   20.24390000
_cell_angle_alpha   135.79400000
_cell_angle_beta   102.87800000
_cell_angle_gamma   93.45590000
_symmetry_Int_Tables_number   1
_chemical_formula_structural   Zr3H7C17O12
_chemical_formula_sum   'Zr12 H28 C68 O48'
_cell_volume   5335.31084762
_cell_formula_units_Z   4
loop_
 _symmetry_equiv_pos_site_id
 _symmetry_equiv_pos_as_xyz
  1  'x, y, z'
loop_
 _atom_site_type_symbol
 _atom_site_label
 _atom_site_symmetry_multiplicity
 _atom_site_fract_x
 _atom_site_fract_y
 _atom_site_fract_z
 _atom_site_occupancy
 _atom_site_charge
Zr  Zr1  1  0.03543000  0.66970000  0.07885000  1.0 2.434163489
Zr  Zr2  1  0.46457000  0.54342000  0.63427000  1.0 2.4369026641
Zr  Zr3  1  0.09085000  0.45658000  0.92115000  1.0 2.434163489
Zr  Zr4  1  0.40915000  0.33030000  0.36573000  1.0 2.4369026641
Zr  Zr5  1  0.96457000  0.33030000  0.92115000  1.0 2.434163489
Zr  Zr6  1  0.53543000  0.45658000  0.36573000  1.0 2.4369026641
Zr  Zr7  1  0.90915000  0.54342000  0.07885000  1.0 2.4369026641
Zr  Zr8  1  0.59085000  0.66970000  0.63427000  1.0 2.4369026641
Zr  Zr9  1  0.91100000  0.43707000  0.84807000  1.0 2.2769266944
Zr  Zr10  1  0.58900000  0.43707000  0.52607000  1.0 2.2769266944
Zr  Zr11  1  0.08900000  0.56293000  0.15193000  1.0 2.2769266944
Zr  Zr12  1  0.41100000  0.56293000  0.47393000  1.0 2.2769266944
H  H1  1  0.98580000  0.79220000  0.96840000  1.0 0.1282065789
H  H2  1  0.94730000  0.12080000  0.06990000  1.0 0.0999606093
H  H3  1  0.97960000  0.31750000  0.63270000  1.0 0.0999606093
H  H4  1  0.51420000  0.48260000  0.80640000  1.0 0.1282065789
H  H5  1  0.55270000  0.62260000  0.17350000  1.0 0.0999606093
H  H6  1  0.52040000  0.15310000  0.33790000  1.0 0.0999606093
H  H7  1  0.32380000  0.51740000  0.03160000  1.0 0.1282065789
H  H8  1  0.55090000  0.37740000  0.93010000  1.0 0.0999606093
H  H9  1  0.18480000  0.84690000  0.36730000  1.0 0.0999606093
H  H10  1  0.17620000  0.20780000  0.19360000  1.0 0.1282065789
H  H11  1  0.94910000  0.87920000  0.82650000  1.0 0.1050842534
H  H12  1  0.31520000  0.68250000  0.66210000  1.0 0.0999606093
H  H13  1  0.01420000  0.20780000  0.03160000  1.0 0.1282065789
H  H14  1  0.05270000  0.87920000  0.93010000  1.0 0.0999606093
H  H15  1  0.02040000  0.68250000  0.36730000  1.0 0.0999606093
H  H16  1  0.48580000  0.51740000  0.19360000  1.0 0.1282065789
H  H17  1  0.44730000  0.37740000  0.82650000  1.0 0.0999606093
H  H18  1  0.47960000  0.84690000  0.66210000  1.0 0.0999606093
H  H19  1  0.67620000  0.48260000  0.96840000  1.0 0.1282065789
H  H20  1  0.44910000  0.62260000  0.06990000  1.0 0.0999606093
H  H21  1  0.81520000  0.15310000  0.63270000  1.0 0.0999606093
H  H22  1  0.82380000  0.79220000  0.80640000  1.0 0.1282065789
H  H23  1  0.05090000  0.12080000  0.17350000  1.0 0.0999606093
H  H24  1  0.68480000  0.31750000  0.33790000  1.0 0.0999606093
H  H25  1  0.80210000  0.55530000  0.75320000  1.0 0.1282065789
H  H26  1  0.69790000  0.45110000  0.75320000  1.0 0.1282065789
H  H27  1  0.30210000  0.54890000  0.24680000  1.0 0.1282065789
H  H28  1  0.19790000  0.44470000  0.24680000  1.0 0.1282065789
C  C1  1  0.89750000  0.67260000  0.87050000  1.0 -0.0663439372
C  C2  1  0.93870000  0.76200000  0.91970000  1.0 -0.1528867056
C  C3  1  0.92780000  0.98430000  0.99750000  1.0 0.0469560944
C  C4  1  0.96850000  0.06920000  0.04130000  1.0 -0.1330661328
C  C5  1  0.86000000  0.00400000  0.01800000  1.0 -0.2024446299
C  C6  1  0.92510000  0.63270000  0.90340000  1.0 0.6315992902
C  C7  1  0.98640000  0.36030000  0.70230000  1.0 0.418628614
C  C8  1  0.60250000  0.47300000  0.77510000  1.0 -0.0663439372
C  C9  1  0.56130000  0.48100000  0.82330000  1.0 -0.1528867056
C  C10  1  0.57220000  0.56970000  0.05650000  1.0 0.0444609973
C  C11  1  0.53150000  0.57280000  0.10070000  1.0 -0.1330661328
C  C12  1  0.64000000  0.65800000  0.14400000  1.0 -0.2024446299
C  C13  1  0.57490000  0.47830000  0.70760000  1.0 0.6315992902
C  C14  1  0.51360000  0.21590000  0.37390000  1.0 0.418628614
C  C15  1  0.30210000  0.52700000  0.12950000  1.0 -0.0663439372
C  C16  1  0.34230000  0.51900000  0.08030000  1.0 -0.1528867056
C  C17  1  0.48680000  0.43030000  0.00250000  1.0 0.0444609973
C  C18  1  0.52790000  0.42720000  0.95870000  1.0 -0.1330661328
C  C19  1  0.48600000  0.34200000  0.98200000  1.0 -0.2024446299
C  C20  1  0.22930000  0.52170000  0.09660000  1.0 0.6315992902
C  C21  1  0.15800000  0.78410000  0.29770000  1.0 0.418628614
C  C22  1  0.19790000  0.32740000  0.22490000  1.0 -0.0663439372
C  C23  1  0.15770000  0.23800000  0.17670000  1.0 -0.1528867056
C  C24  1  0.01320000  0.01570000  0.94350000  1.0 0.0469560944
C  C25  1  0.97210000  0.93080000  0.89930000  1.0 -0.1330661328
C  C26  1  0.01400000  0.99600000  0.85600000  1.0 -0.2024446299
C  C27  1  0.27070000  0.36730000  0.29240000  1.0 0.6315992902
C  C28  1  0.34200000  0.63970000  0.62610000  1.0 0.418628614
C  C29  1  0.10250000  0.32740000  0.12950000  1.0 -0.0663439372
C  C30  1  0.06130000  0.23800000  0.08030000  1.0 -0.1528867056
C  C31  1  0.07220000  0.01570000  0.00250000  1.0 0.0469560944
C  C32  1  0.03150000  0.93080000  0.95870000  1.0 -0.1330661328
C  C33  1  0.14000000  0.99600000  0.98200000  1.0 -0.2099217345
C  C34  1  0.07490000  0.36730000  0.09660000  1.0 0.6315992902
C  C35  1  0.01360000  0.63970000  0.29770000  1.0 0.4250573198
C  C36  1  0.39750000  0.52700000  0.22490000  1.0 -0.0663439372
C  C37  1  0.43870000  0.51900000  0.17670000  1.0 -0.1528867056
C  C38  1  0.42780000  0.43030000  0.94350000  1.0 0.0444609973
C  C39  1  0.46850000  0.42720000  0.89930000  1.0 -0.1330661328
C  C40  1  0.36000000  0.34200000  0.85600000  1.0 -0.2024446299
C  C41  1  0.42510000  0.52170000  0.29240000  1.0 0.6315992902
C  C42  1  0.48640000  0.78410000  0.62610000  1.0 0.418628614
C  C43  1  0.69790000  0.47300000  0.87050000  1.0 -0.0663439372
C  C44  1  0.65770000  0.48100000  0.91970000  1.0 -0.1528867056
C  C45  1  0.51320000  0.56970000  0.99750000  1.0 0.0444609973
C  C46  1  0.47210000  0.57280000  0.04130000  1.0 -0.1330661328
C  C47  1  0.51400000  0.65800000  0.01800000  1.0 -0.2024446299
C  C48  1  0.77070000  0.47830000  0.90340000  1.0 0.6315992902
C  C49  1  0.84200000  0.21590000  0.70230000  1.0 0.418628614
C  C50  1  0.80210000  0.67260000  0.77510000  1.0 -0.0663439372
C  C51  1  0.84230000  0.76200000  0.82330000  1.0 -0.1528867056
C  C52  1  0.98680000  0.98430000  0.05650000  1.0 0.0444609973
C  C53  1  0.02790000  0.06920000  0.10070000  1.0 -0.1330661328
C  C54  1  0.98600000  0.00400000  0.14400000  1.0 -0.2024446299
C  C55  1  0.72930000  0.63270000  0.70760000  1.0 0.6315992902
C  C56  1  0.65800000  0.36030000  0.37390000  1.0 0.418628614
C  C57  1  0.82880000  0.62100000  0.79220000  1.0 -0.0663439372
C  C58  1  0.91170000  0.81070000  0.89900000  1.0 0.0469560944
C  C59  1  0.95760000  0.90560000  0.94800000  1.0 0.0137813165
C  C60  1  0.67120000  0.46340000  0.79220000  1.0 -0.0663439372
C  C61  1  0.58830000  0.48730000  0.89900000  1.0 0.0469560944
C  C62  1  0.54240000  0.49040000  0.94800000  1.0 0.0167326237
C  C63  1  0.32880000  0.53660000  0.20780000  1.0 -0.0663439372
C  C64  1  0.41170000  0.51270000  0.10100000  1.0 0.0469560944
C  C65  1  0.45760000  0.50960000  0.05200000  1.0 0.0137813165
C  C66  1  0.17120000  0.37900000  0.20780000  1.0 -0.0663439372
C  C67  1  0.08830000  0.18930000  0.10100000  1.0 0.0469560944
C  C68  1  0.04240000  0.09440000  0.05200000  1.0 0.0167326237
O  O1  1  0.89330000  0.41060000  0.93050000  1.0 -1.1044961234
O  O2  1  0.89720000  0.54010000  0.84030000  1.0 -0.5607971569
O  O3  1  0.97800000  0.68630000  0.98410000  1.0 -0.5607971569
O  O4  1  0.93500000  0.37910000  0.72190000  1.0 -0.5171676298
O  O5  1  0.05490000  0.39140000  0.76590000  1.0 -0.6474855636
O  O6  1  0.60670000  0.53720000  0.51730000  1.0 -1.1079886149
O  O7  1  0.60280000  0.44310000  0.64290000  1.0 -0.5607971569
O  O8  1  0.52200000  0.50610000  0.70830000  1.0 -0.5607971569
O  O9  1  0.56500000  0.28690000  0.44410000  1.0 -0.5171676298
O  O10  1  0.44510000  0.21100000  0.33650000  1.0 -0.6474855636
O  O11  1  0.98010000  0.46280000  0.06950000  1.0 -1.1079886149
O  O12  1  0.19980000  0.55690000  0.15970000  1.0 -0.5607971569
O  O13  1  0.20220000  0.49390000  0.01590000  1.0 -0.5607971569
O  O14  1  0.15720000  0.71310000  0.27810000  1.0 -0.5171676298
O  O15  1  0.12550000  0.78900000  0.23410000  1.0 -0.6474855636
O  O16  1  0.51990000  0.58940000  0.48270000  1.0 -1.1079886149
O  O17  1  0.30020000  0.45990000  0.35710000  1.0 -0.5607971569
O  O18  1  0.29780000  0.31370000  0.29170000  1.0 -0.5607971569
O  O19  1  0.34280000  0.62090000  0.55590000  1.0 -0.5171676298
O  O20  1  0.37450000  0.60860000  0.66350000  1.0 -0.6474855636
O  O21  1  0.10670000  0.58940000  0.06950000  1.0 -1.1079886149
O  O22  1  0.10280000  0.45990000  0.15970000  1.0 -0.5607971569
O  O23  1  0.02200000  0.31370000  0.01590000  1.0 -0.5607971569
O  O24  1  0.06500000  0.62090000  0.27810000  1.0 -0.5171676298
O  O25  1  0.94510000  0.60860000  0.23410000  1.0 -0.6474855636
O  O26  1  0.39330000  0.46280000  0.48270000  1.0 -1.1079886149
O  O27  1  0.39720000  0.55690000  0.35710000  1.0 -0.5607971569
O  O28  1  0.47800000  0.49390000  0.29170000  1.0 -0.5607971569
O  O29  1  0.43500000  0.71310000  0.55590000  1.0 -0.5171676298
O  O30  1  0.55490000  0.78900000  0.66350000  1.0 -0.6474855636
O  O31  1  0.01990000  0.53720000  0.93050000  1.0 -1.1079886149
O  O32  1  0.80020000  0.44310000  0.84030000  1.0 -0.5607971569
O  O33  1  0.79780000  0.50610000  0.98410000  1.0 -0.5607971569
O  O34  1  0.84280000  0.28690000  0.72190000  1.0 -0.5171676298
O  O35  1  0.87450000  0.21100000  0.76590000  1.0 -0.6474855636
O  O36  1  0.48010000  0.41060000  0.51730000  1.0 -1.1079886149
O  O37  1  0.69980000  0.54010000  0.64290000  1.0 -0.5607971569
O  O38  1  0.70220000  0.68630000  0.70830000  1.0 -0.5607971569
O  O39  1  0.65720000  0.37910000  0.44410000  1.0 -0.5171676298
O  O40  1  0.62550000  0.39140000  0.33650000  1.0 -0.6474855636
O  O41  1  0.98340000  0.36280000  0.84620000  1.0 -1.1629047016
O  O42  1  0.93230000  0.57940000  0.01170000  1.0 -1.0586980005
O  O43  1  0.51660000  0.36280000  0.37940000  1.0 -1.1629047016
O  O44  1  0.56770000  0.57940000  0.64710000  1.0 -1.0586980005
O  O45  1  0.01660000  0.63720000  0.15380000  1.0 -1.1732736846
O  O46  1  0.06770000  0.42060000  0.98830000  1.0 -1.0586980005
O  O47  1  0.48340000  0.63720000  0.62060000  1.0 -1.1629047016
O  O48  1  0.43230000  0.42060000  0.35290000  1.0 -1.0586980005
