# DDEC6 charges by PACMAN v1.1 (https://github.com/mtap-research/PACMAN-charge/)
data_TEWSUM_ASR_pacman
_symmetry_space_group_name_H-M   'P 1'
_cell_length_a   18.75100000
_cell_length_b   18.75100000
_cell_length_c   13.60770000
_cell_angle_alpha   90.00000000
_cell_angle_beta   90.00000000
_cell_angle_gamma   120.00000000
_symmetry_Int_Tables_number   1
_chemical_formula_structural   CaCu6H48Pt4C36S6N6ClO21
_chemical_formula_sum   'Ca2 Cu12 H96 Pt8 C72 S12 N12 Cl2 O42'
_cell_volume   4143.47025448
_cell_formula_units_Z   2
loop_
 _symmetry_equiv_pos_site_id
 _symmetry_equiv_pos_as_xyz
  1  'x, y, z'
loop_
 _atom_site_type_symbol
 _atom_site_label
 _atom_site_symmetry_multiplicity
 _atom_site_fract_x
 _atom_site_fract_y
 _atom_site_fract_z
 _atom_site_occupancy
 _atom_site_charge
Ca  Ca1  1  0.33333333  0.66666667  0.42040000  1.0 1.3216756552
Ca  Ca2  1  0.66666667  0.33333333  0.92040000  1.0 1.3216756552
Cu  Cu1  1  0.41961000  0.86354000  0.29032000  1.0 0.8665283987
Cu  Cu2  1  0.41629000  0.86336000  0.55003000  1.0 0.9420495599
Cu  Cu3  1  0.44393000  0.58039000  0.29032000  1.0 0.8665283987
Cu  Cu4  1  0.44707000  0.58371000  0.55003000  1.0 0.9420495599
Cu  Cu5  1  0.13646000  0.55607000  0.29032000  1.0 0.8665283987
Cu  Cu6  1  0.13664000  0.55293000  0.55003000  1.0 0.9420495599
Cu  Cu7  1  0.58039000  0.13646000  0.79032000  1.0 0.8665283987
Cu  Cu8  1  0.58371000  0.13664000  0.05003000  1.0 0.9420495599
Cu  Cu9  1  0.55607000  0.41961000  0.79032000  1.0 0.8665283987
Cu  Cu10  1  0.55293000  0.41629000  0.05003000  1.0 0.9420495599
Cu  Cu11  1  0.86354000  0.44393000  0.79032000  1.0 0.8665283987
Cu  Cu12  1  0.86336000  0.44707000  0.05003000  1.0 0.9420495599
H  H1  1  0.46260000  0.15970000  0.59420000  1.0 0.0743599254
H  H2  1  0.59530000  0.87780000  0.70610000  1.0 0.1109301206
H  H3  1  0.34130000  0.14200000  0.65610000  1.0 0.1109301206
H  H4  1  0.33390000  0.05350000  0.64640000  1.0 0.1292425251
H  H5  1  0.36870000  0.06040000  0.80870000  1.0 0.1022846577
H  H6  1  0.28130000  0.04900000  0.78680000  1.0 0.1022846577
H  H7  1  0.53620000  0.84590000  0.85590000  1.0 0.1292425251
H  H8  1  0.44640000  0.80660000  0.81370000  1.0 0.1022846577
H  H9  1  0.53090000  0.73050000  0.87590000  1.0 0.1408018588
H  H10  1  0.45960000  0.68400000  0.79960000  1.0 0.1192028647
H  H11  1  0.24100000  0.09990000  0.01630000  1.0 0.1292425251
H  H12  1  0.31090000  0.08010000  0.05070000  1.0 0.1292425251
H  H13  1  0.24660000  0.02540000  0.96710000  1.0 0.1192028647
H  H14  1  0.44370000  0.75110000  0.08540000  1.0 0.1109301206
H  H15  1  0.51740000  0.73270000  0.06800000  1.0 0.1408018588
H  H16  1  0.44010000  0.67170000  0.13410000  1.0 0.2475003867
H  H17  1  0.69710000  0.53740000  0.59420000  1.0 0.0743599254
H  H18  1  0.28250000  0.40470000  0.70610000  1.0 0.1109301206
H  H19  1  0.80070000  0.65870000  0.65610000  1.0 0.1109301206
H  H20  1  0.71960000  0.66610000  0.64640000  1.0 0.1292425251
H  H21  1  0.69170000  0.63130000  0.80870000  1.0 0.1022846577
H  H22  1  0.76770000  0.71870000  0.78680000  1.0 0.1022846577
H  H23  1  0.30970000  0.46380000  0.85590000  1.0 0.1292425251
H  H24  1  0.36020000  0.55360000  0.81370000  1.0 0.1022846577
H  H25  1  0.19960000  0.46910000  0.87590000  1.0 0.1408018588
H  H26  1  0.22440000  0.54040000  0.79960000  1.0 0.1192028647
H  H27  1  0.85890000  0.75900000  0.01630000  1.0 0.1292425251
H  H28  1  0.76920000  0.68910000  0.05070000  1.0 0.1292425251
H  H29  1  0.77880000  0.75340000  0.96710000  1.0 0.1192028647
H  H30  1  0.30740000  0.55630000  0.08540000  1.0 0.1109301206
H  H31  1  0.21530000  0.48260000  0.06800000  1.0 0.1408018588
H  H32  1  0.23160000  0.55990000  0.13410000  1.0 0.2475003867
H  H33  1  0.84030000  0.30290000  0.59420000  1.0 0.0743599254
H  H34  1  0.12220000  0.71750000  0.70610000  1.0 0.1109301206
H  H35  1  0.85800000  0.19930000  0.65610000  1.0 0.1109301206
H  H36  1  0.94650000  0.28040000  0.64640000  1.0 0.1292425251
H  H37  1  0.93960000  0.30830000  0.80870000  1.0 0.1022846577
H  H38  1  0.95100000  0.23230000  0.78680000  1.0 0.1022846577
H  H39  1  0.15410000  0.69030000  0.85590000  1.0 0.1292425251
H  H40  1  0.19340000  0.63980000  0.81370000  1.0 0.1022846577
H  H41  1  0.26950000  0.80040000  0.87590000  1.0 0.1408018588
H  H42  1  0.31600000  0.77560000  0.79960000  1.0 0.1192028647
H  H43  1  0.90010000  0.14110000  0.01630000  1.0 0.1292425251
H  H44  1  0.91990000  0.23080000  0.05070000  1.0 0.1292425251
H  H45  1  0.97460000  0.22120000  0.96710000  1.0 0.1192028647
H  H46  1  0.24890000  0.69260000  0.08540000  1.0 0.1109301206
H  H47  1  0.26730000  0.78470000  0.06800000  1.0 0.1408018588
H  H48  1  0.32830000  0.76840000  0.13410000  1.0 0.2475003867
H  H49  1  0.53740000  0.84030000  0.09420000  1.0 0.0743599254
H  H50  1  0.40470000  0.12220000  0.20610000  1.0 0.1109301206
H  H51  1  0.65870000  0.85800000  0.15610000  1.0 0.1109301206
H  H52  1  0.66610000  0.94650000  0.14640000  1.0 0.1292425251
H  H53  1  0.63130000  0.93960000  0.30870000  1.0 0.1022846577
H  H54  1  0.71870000  0.95100000  0.28680000  1.0 0.1022846577
H  H55  1  0.46380000  0.15410000  0.35590000  1.0 0.1292425251
H  H56  1  0.55360000  0.19340000  0.31370000  1.0 0.1022846577
H  H57  1  0.46910000  0.26950000  0.37590000  1.0 0.1408018588
H  H58  1  0.54040000  0.31600000  0.29960000  1.0 0.1192028647
H  H59  1  0.75900000  0.90010000  0.51630000  1.0 0.1292425251
H  H60  1  0.68910000  0.91990000  0.55070000  1.0 0.1292425251
H  H61  1  0.75340000  0.97460000  0.46710000  1.0 0.1192028647
H  H62  1  0.55630000  0.24890000  0.58540000  1.0 0.1109301206
H  H63  1  0.48260000  0.26730000  0.56800000  1.0 0.1408018588
H  H64  1  0.55990000  0.32830000  0.63410000  1.0 0.2475003867
H  H65  1  0.30290000  0.46260000  0.09420000  1.0 0.0743599254
H  H66  1  0.71750000  0.59530000  0.20610000  1.0 0.1109301206
H  H67  1  0.19930000  0.34130000  0.15610000  1.0 0.1109301206
H  H68  1  0.28040000  0.33390000  0.14640000  1.0 0.1292425251
H  H69  1  0.30830000  0.36870000  0.30870000  1.0 0.1022846577
H  H70  1  0.23230000  0.28130000  0.28680000  1.0 0.1022846577
H  H71  1  0.69030000  0.53620000  0.35590000  1.0 0.1292425251
H  H72  1  0.63980000  0.44640000  0.31370000  1.0 0.1022846577
H  H73  1  0.80040000  0.53090000  0.37590000  1.0 0.1408018588
H  H74  1  0.77560000  0.45960000  0.29960000  1.0 0.1192028647
H  H75  1  0.14110000  0.24100000  0.51630000  1.0 0.1292425251
H  H76  1  0.23080000  0.31090000  0.55070000  1.0 0.1292425251
H  H77  1  0.22120000  0.24660000  0.46710000  1.0 0.1192028647
H  H78  1  0.69260000  0.44370000  0.58540000  1.0 0.1109301206
H  H79  1  0.78470000  0.51740000  0.56800000  1.0 0.1408018588
H  H80  1  0.76840000  0.44010000  0.63410000  1.0 0.2475003867
H  H81  1  0.15970000  0.69710000  0.09420000  1.0 0.0743599254
H  H82  1  0.87780000  0.28250000  0.20610000  1.0 0.1109301206
H  H83  1  0.14200000  0.80070000  0.15610000  1.0 0.1109301206
H  H84  1  0.05350000  0.71960000  0.14640000  1.0 0.1292425251
H  H85  1  0.06040000  0.69170000  0.30870000  1.0 0.1022846577
H  H86  1  0.04900000  0.76770000  0.28680000  1.0 0.1022846577
H  H87  1  0.84590000  0.30970000  0.35590000  1.0 0.1292425251
H  H88  1  0.80660000  0.36020000  0.31370000  1.0 0.1022846577
H  H89  1  0.73050000  0.19960000  0.37590000  1.0 0.1408018588
H  H90  1  0.68400000  0.22440000  0.29960000  1.0 0.1192028647
H  H91  1  0.09990000  0.85890000  0.51630000  1.0 0.1292425251
H  H92  1  0.08010000  0.76920000  0.55070000  1.0 0.1292425251
H  H93  1  0.02540000  0.77880000  0.46710000  1.0 0.1192028647
H  H94  1  0.75110000  0.30740000  0.58540000  1.0 0.1109301206
H  H95  1  0.73270000  0.21530000  0.56800000  1.0 0.1408018588
H  H96  1  0.67170000  0.23160000  0.63410000  1.0 0.2475003867
Pt  Pt1  1  0.39840000  0.05380000  0.92300000  1.0 -0.0856254802
Pt  Pt2  1  0.65540000  0.60160000  0.92300000  1.0 -0.0807116342
Pt  Pt3  1  0.94620000  0.34460000  0.92300000  1.0 -0.0807116342
Pt  Pt4  1  0.60160000  0.94620000  0.42300000  1.0 -0.0807116342
Pt  Pt5  1  0.34460000  0.39840000  0.42300000  1.0 -0.0807116342
Pt  Pt6  1  0.05380000  0.65540000  0.42300000  1.0 -0.0722729595
Pt  Pt7  1  0.33333333  0.66666667  0.83550000  1.0 -0.0152855174
Pt  Pt8  1  0.66666667  0.33333333  0.33550000  1.0 -0.0152855174
C  C1  1  0.49210000  0.76630000  0.61870000  1.0 0.519441383
C  C2  1  0.50630000  0.23160000  0.71520000  1.0 0.4712163825
C  C3  1  0.45500000  0.14780000  0.66630000  1.0 0.0248873128
C  C4  1  0.53370000  0.84760000  0.70650000  1.0 0.0274980152
C  C5  1  0.52030000  0.97790000  0.70150000  1.0 0.4165983815
C  C6  1  0.47420000  0.01890000  0.64500000  1.0 0.3704022635
C  C7  1  0.36170000  0.10640000  0.68260000  1.0 -0.2108895884
C  C8  1  0.34100000  0.09100000  0.78800000  1.0 -0.1787807811
C  C9  1  0.49800000  0.80500000  0.80800000  1.0 -0.1787807811
C  C10  1  0.47600000  0.72100000  0.85700000  1.0 -0.2465015507
C  C11  1  0.27900000  0.08100000  0.99500000  1.0 -0.3871495903
C  C12  1  0.45800000  0.70800000  0.07600000  1.0 -0.3336019905
C  C13  1  0.27420000  0.50790000  0.61870000  1.0 0.519441383
C  C14  1  0.72530000  0.49370000  0.71520000  1.0 0.4712163825
C  C15  1  0.69280000  0.54500000  0.66630000  1.0 0.0248873128
C  C16  1  0.31390000  0.46630000  0.70650000  1.0 0.0274980152
C  C17  1  0.45760000  0.47970000  0.70150000  1.0 0.4165983815
C  C18  1  0.54470000  0.52580000  0.64500000  1.0 0.3704022635
C  C19  1  0.74470000  0.63830000  0.68260000  1.0 -0.2108895884
C  C20  1  0.75000000  0.65900000  0.78800000  1.0 -0.1787807811
C  C21  1  0.30700000  0.50200000  0.80800000  1.0 -0.1787807811
C  C22  1  0.24500000  0.52400000  0.85700000  1.0 -0.2465015507
C  C23  1  0.80200000  0.72100000  0.99500000  1.0 -0.3871495903
C  C24  1  0.25000000  0.54200000  0.07600000  1.0 -0.3336019905
C  C25  1  0.23370000  0.72580000  0.61870000  1.0 0.519441383
C  C26  1  0.76840000  0.27470000  0.71520000  1.0 0.4712163825
C  C27  1  0.85220000  0.30720000  0.66630000  1.0 0.0248873128
C  C28  1  0.15240000  0.68610000  0.70650000  1.0 0.0274980152
C  C29  1  0.02210000  0.54240000  0.70150000  1.0 0.4165983815
C  C30  1  0.98110000  0.45530000  0.64500000  1.0 0.3704022635
C  C31  1  0.89360000  0.25530000  0.68260000  1.0 -0.2108895884
C  C32  1  0.90900000  0.25000000  0.78800000  1.0 -0.1787807811
C  C33  1  0.19500000  0.69300000  0.80800000  1.0 -0.1787807811
C  C34  1  0.27900000  0.75500000  0.85700000  1.0 -0.2465015507
C  C35  1  0.91900000  0.19800000  0.99500000  1.0 -0.3871495903
C  C36  1  0.29200000  0.75000000  0.07600000  1.0 -0.3336019905
C  C37  1  0.50790000  0.23370000  0.11870000  1.0 0.519441383
C  C38  1  0.49370000  0.76840000  0.21520000  1.0 0.4712163825
C  C39  1  0.54500000  0.85220000  0.16630000  1.0 0.0248873128
C  C40  1  0.46630000  0.15240000  0.20650000  1.0 0.0274980152
C  C41  1  0.47970000  0.02210000  0.20150000  1.0 0.4165983815
C  C42  1  0.52580000  0.98110000  0.14500000  1.0 0.3704022635
C  C43  1  0.63830000  0.89360000  0.18260000  1.0 -0.2108895884
C  C44  1  0.65900000  0.90900000  0.28800000  1.0 -0.1787807811
C  C45  1  0.50200000  0.19500000  0.30800000  1.0 -0.1787807811
C  C46  1  0.52400000  0.27900000  0.35700000  1.0 -0.2465015507
C  C47  1  0.72100000  0.91900000  0.49500000  1.0 -0.3871495903
C  C48  1  0.54200000  0.29200000  0.57600000  1.0 -0.3368981767
C  C49  1  0.72580000  0.49210000  0.11870000  1.0 0.519441383
C  C50  1  0.27470000  0.50630000  0.21520000  1.0 0.4712163825
C  C51  1  0.30720000  0.45500000  0.16630000  1.0 0.0248873128
C  C52  1  0.68610000  0.53370000  0.20650000  1.0 0.0274980152
C  C53  1  0.54240000  0.52030000  0.20150000  1.0 0.4165983815
C  C54  1  0.45530000  0.47420000  0.14500000  1.0 0.3704022635
C  C55  1  0.25530000  0.36170000  0.18260000  1.0 -0.2108895884
C  C56  1  0.25000000  0.34100000  0.28800000  1.0 -0.1787807811
C  C57  1  0.69300000  0.49800000  0.30800000  1.0 -0.1787807811
C  C58  1  0.75500000  0.47600000  0.35700000  1.0 -0.2465015507
C  C59  1  0.19800000  0.27900000  0.49500000  1.0 -0.3871495903
C  C60  1  0.75000000  0.45800000  0.57600000  1.0 -0.3336019905
C  C61  1  0.76630000  0.27420000  0.11870000  1.0 0.519441383
C  C62  1  0.23160000  0.72530000  0.21520000  1.0 0.4712163825
C  C63  1  0.14780000  0.69280000  0.16630000  1.0 0.0248873128
C  C64  1  0.84760000  0.31390000  0.20650000  1.0 0.0274980152
C  C65  1  0.97790000  0.45760000  0.20150000  1.0 0.4165983815
C  C66  1  0.01890000  0.54470000  0.14500000  1.0 0.3704022635
C  C67  1  0.10640000  0.74470000  0.18260000  1.0 -0.2108895884
C  C68  1  0.09100000  0.75000000  0.28800000  1.0 -0.1787807811
C  C69  1  0.80500000  0.30700000  0.30800000  1.0 -0.1787807811
C  C70  1  0.72100000  0.24500000  0.35700000  1.0 -0.2465015507
C  C71  1  0.08100000  0.80200000  0.49500000  1.0 -0.3871495903
C  C72  1  0.70800000  0.25000000  0.57600000  1.0 -0.3336019905
S  S1  1  0.34900000  0.15200000  0.89900000  1.0 0.2213794707
S  S2  1  0.40370000  0.64540000  0.96380000  1.0 0.0522089843
S  S3  1  0.80300000  0.65100000  0.89900000  1.0 0.2213794707
S  S4  1  0.24170000  0.59630000  0.96380000  1.0 0.0522089843
S  S5  1  0.84800000  0.19700000  0.89900000  1.0 0.2142472932
S  S6  1  0.35460000  0.75830000  0.96380000  1.0 0.0522089843
S  S7  1  0.65100000  0.84800000  0.39900000  1.0 0.2213794707
S  S8  1  0.59630000  0.35460000  0.46380000  1.0 0.0522089843
S  S9  1  0.19700000  0.34900000  0.39900000  1.0 0.2142472932
S  S10  1  0.75830000  0.40370000  0.46380000  1.0 0.0522089843
S  S11  1  0.15200000  0.80300000  0.39900000  1.0 0.2142472932
S  S12  1  0.64540000  0.24170000  0.46380000  1.0 0.0522089843
N  N1  1  0.43740000  0.76270000  0.55090000  1.0 -0.7581843765
N  N2  1  0.49290000  0.09430000  0.68510000  1.0 -0.4939459395
N  N3  1  0.32530000  0.56260000  0.55090000  1.0 -0.7523220063
N  N4  1  0.60140000  0.50710000  0.68510000  1.0 -0.4939459395
N  N5  1  0.23730000  0.67470000  0.55090000  1.0 -0.7581843765
N  N6  1  0.90570000  0.39860000  0.68510000  1.0 -0.4939459395
N  N7  1  0.56260000  0.23730000  0.05090000  1.0 -0.7523220063
N  N8  1  0.50710000  0.90570000  0.18510000  1.0 -0.4939459395
N  N9  1  0.67470000  0.43740000  0.05090000  1.0 -0.7523220063
N  N10  1  0.39860000  0.49290000  0.18510000  1.0 -0.4939459395
N  N11  1  0.76270000  0.32530000  0.05090000  1.0 -0.7523220063
N  N12  1  0.09430000  0.60140000  0.18510000  1.0 -0.4939459395
Cl  Cl1  1  0.33333333  0.66666667  0.65000000  1.0 0.5583448975
Cl  Cl2  1  0.66666667  0.33333333  0.15000000  1.0 0.5650536387
O  O1  1  0.35830000  0.82370000  0.41770000  1.0 -0.7581843765
O  O2  1  0.56110000  0.23670000  0.78480000  1.0 -0.5979456138
O  O3  1  0.42460000  0.98170000  0.57140000  1.0 -0.5097240155
O  O4  1  0.57490000  0.02080000  0.77440000  1.0 -0.5027716191
O  O5  1  0.49770000  0.90330000  0.66250000  1.0 -0.3368981767
O  O6  1  0.49410000  0.29410000  0.69460000  1.0 -0.4125261238
O  O7  1  0.51500000  0.71260000  0.63020000  1.0 -0.5388718775
O  O8  1  0.46540000  0.64170000  0.41770000  1.0 -0.7667575509
O  O9  1  0.67560000  0.43890000  0.78480000  1.0 -0.5979456138
O  O10  1  0.55710000  0.57540000  0.57140000  1.0 -0.5097240155
O  O11  1  0.44590000  0.42510000  0.77440000  1.0 -0.5097240155
O  O12  1  0.40560000  0.50230000  0.66250000  1.0 -0.3368981767
O  O13  1  0.80000000  0.50590000  0.69460000  1.0 -0.4125261238
O  O14  1  0.19760000  0.48500000  0.63020000  1.0 -0.5388718775
O  O15  1  0.17630000  0.53460000  0.41770000  1.0 -0.7667575509
O  O16  1  0.76330000  0.32440000  0.78480000  1.0 -0.5979456138
O  O17  1  0.01830000  0.44290000  0.57140000  1.0 -0.5097240155
O  O18  1  0.97920000  0.55410000  0.77440000  1.0 -0.5027716191
O  O19  1  0.09670000  0.59440000  0.66250000  1.0 -0.3368981767
O  O20  1  0.70590000  0.20000000  0.69460000  1.0 -0.4125261238
O  O21  1  0.28740000  0.80240000  0.63020000  1.0 -0.5388718775
O  O22  1  0.64170000  0.17630000  0.91770000  1.0 -0.7667575509
O  O23  1  0.43890000  0.76330000  0.28480000  1.0 -0.5979456138
O  O24  1  0.57540000  0.01830000  0.07140000  1.0 -0.5097240155
O  O25  1  0.42510000  0.97920000  0.27440000  1.0 -0.5027716191
O  O26  1  0.50230000  0.09670000  0.16250000  1.0 -0.3368981767
O  O27  1  0.50590000  0.70590000  0.19460000  1.0 -0.4125261238
O  O28  1  0.48500000  0.28740000  0.13020000  1.0 -0.5388718775
O  O29  1  0.53460000  0.35830000  0.91770000  1.0 -0.7667575509
O  O30  1  0.32440000  0.56110000  0.28480000  1.0 -0.5979456138
O  O31  1  0.44290000  0.42460000  0.07140000  1.0 -0.5097240155
O  O32  1  0.55410000  0.57490000  0.27440000  1.0 -0.5027716191
O  O33  1  0.59440000  0.49770000  0.16250000  1.0 -0.3368981767
O  O34  1  0.20000000  0.49410000  0.19460000  1.0 -0.4125261238
O  O35  1  0.80240000  0.51500000  0.13020000  1.0 -0.5388718775
O  O36  1  0.82370000  0.46540000  0.91770000  1.0 -0.7667575509
O  O37  1  0.23670000  0.67560000  0.28480000  1.0 -0.5979456138
O  O38  1  0.98170000  0.55710000  0.07140000  1.0 -0.5097240155
O  O39  1  0.02080000  0.44590000  0.27440000  1.0 -0.5027716191
O  O40  1  0.90330000  0.40560000  0.16250000  1.0 -0.3368981767
O  O41  1  0.29410000  0.80000000  0.19460000  1.0 -0.4125261238
O  O42  1  0.71260000  0.19760000  0.13020000  1.0 -0.5388718775
