# DDEC6 charges by PACMAN v1.1 (https://github.com/mtap-research/PACMAN-charge/)
data_TIBKAT_ASR_pacman
_symmetry_space_group_name_H-M   'P 1'
_cell_length_a   12.06250000
_cell_length_b   12.06250000
_cell_length_c   19.60200000
_cell_angle_alpha   75.94380000
_cell_angle_beta   104.05600000
_cell_angle_gamma   122.78600000
_symmetry_Int_Tables_number   1
_chemical_formula_structural   Mn2H4C16NO10
_chemical_formula_sum   'Mn8 H16 C64 N4 O40'
_cell_volume   2304.23406755
_cell_formula_units_Z   4
loop_
 _symmetry_equiv_pos_site_id
 _symmetry_equiv_pos_as_xyz
  1  'x, y, z'
loop_
 _atom_site_type_symbol
 _atom_site_label
 _atom_site_symmetry_multiplicity
 _atom_site_fract_x
 _atom_site_fract_y
 _atom_site_fract_z
 _atom_site_occupancy
 _atom_site_charge
Mn  Mn1  1  0.66113000  0.19935000  0.20291000  1.0 1.0811169774
Mn  Mn2  1  0.97577000  0.51143000  0.14640000  1.0 1.0713679822
Mn  Mn3  1  0.19935000  0.66113000  0.29709000  1.0 1.0811169774
Mn  Mn4  1  0.51143000  0.97577000  0.35360000  1.0 1.0713679822
Mn  Mn5  1  0.33887000  0.80065000  0.79709000  1.0 1.0811169774
Mn  Mn6  1  0.02423000  0.48857000  0.85360000  1.0 1.0713679822
Mn  Mn7  1  0.80065000  0.33887000  0.70291000  1.0 1.0811169774
Mn  Mn8  1  0.48857000  0.02423000  0.64640000  1.0 1.0713679822
H  H1  1  0.77850000  0.98850000  0.21190000  1.0 0.3600491316
H  H2  1  0.88540000  0.51680000  0.48980000  1.0 0.1386342974
H  H3  1  0.95250000  0.58310000  0.37940000  1.0 0.1386342974
H  H4  1  0.20350000  0.31650000  0.23090000  1.0 0.1386342974
H  H5  1  0.98850000  0.77850000  0.28810000  1.0 0.3600491316
H  H6  1  0.51680000  0.88540000  0.01020000  1.0 0.1386342974
H  H7  1  0.58310000  0.95250000  0.12060000  1.0 0.1386342974
H  H8  1  0.31650000  0.20350000  0.26910000  1.0 0.1386342974
H  H9  1  0.22150000  0.01150000  0.78810000  1.0 0.3600491316
H  H10  1  0.11460000  0.48320000  0.51020000  1.0 0.1386342974
H  H11  1  0.04750000  0.41690000  0.62060000  1.0 0.1386342974
H  H12  1  0.79650000  0.68350000  0.76910000  1.0 0.1386342974
H  H13  1  0.01150000  0.22150000  0.71190000  1.0 0.3600491316
H  H14  1  0.48320000  0.11460000  0.98980000  1.0 0.1386342974
H  H15  1  0.41690000  0.04750000  0.87940000  1.0 0.1386342974
H  H16  1  0.68350000  0.79650000  0.73090000  1.0 0.1386342974
C  C1  1  0.87232000  0.45768000  0.26999000  1.0 0.632522452
C  C2  1  0.82007000  0.40673000  0.33883000  1.0 -0.1627947247
C  C3  1  0.71568000  0.27572000  0.35473000  1.0 0.2597343282
C  C4  1  0.67670000  0.23930000  0.42327000  1.0 0.182417733
C  C5  1  0.73845000  0.32595000  0.47361000  1.0 -0.092753935
C  C6  1  0.84248000  0.45592000  0.45605000  1.0 -0.0973163496
C  C7  1  0.88192000  0.49488000  0.39063000  1.0 -0.092753935
C  C8  1  0.69910000  0.28030000  0.54689000  1.0 0.632522452
C  C9  1  0.94397000  0.22823000  0.20664000  1.0 0.6170586081
C  C10  1  0.01533000  0.15267000  0.22831000  1.0 -0.1401174708
C  C11  1  0.94491000  0.01429000  0.23929000  1.0 0.182417733
C  C12  1  0.15509000  0.22191000  0.23900000  1.0 -0.092753935
C  C13  1  0.97480000  0.78020000  0.10440000  1.0 0.1898020425
C  C14  1  0.99510000  0.87830000  0.97700000  1.0 0.2511564673
C  C15  1  0.14290000  0.96710000  0.96210000  1.0 -0.2968487212
C  C16  1  0.99840000  0.00100000  0.06710000  1.0 0.1001799957
C  C17  1  0.45768000  0.87232000  0.23001000  1.0 0.632522452
C  C18  1  0.40673000  0.82007000  0.16117000  1.0 -0.1627947247
C  C19  1  0.27572000  0.71568000  0.14527000  1.0 0.2597343282
C  C20  1  0.23930000  0.67670000  0.07673000  1.0 0.182417733
C  C21  1  0.32595000  0.73845000  0.02639000  1.0 -0.092753935
C  C22  1  0.45592000  0.84248000  0.04395000  1.0 -0.0973163496
C  C23  1  0.49488000  0.88192000  0.10937000  1.0 -0.092753935
C  C24  1  0.28030000  0.69910000  0.95311000  1.0 0.632522452
C  C25  1  0.22823000  0.94397000  0.29336000  1.0 0.6170586081
C  C26  1  0.15267000  0.01533000  0.27169000  1.0 -0.1401174708
C  C27  1  0.01429000  0.94491000  0.26071000  1.0 0.182417733
C  C28  1  0.22191000  0.15509000  0.26100000  1.0 -0.092753935
C  C29  1  0.78020000  0.97480000  0.39560000  1.0 0.1898020425
C  C30  1  0.87830000  0.99510000  0.52300000  1.0 0.2511564673
C  C31  1  0.96710000  0.14290000  0.53790000  1.0 -0.2968487212
C  C32  1  0.00100000  0.99840000  0.43290000  1.0 0.1001799957
C  C33  1  0.12768000  0.54232000  0.73001000  1.0 0.632522452
C  C34  1  0.17993000  0.59327000  0.66117000  1.0 -0.1627947247
C  C35  1  0.28432000  0.72428000  0.64527000  1.0 0.2597343282
C  C36  1  0.32330000  0.76070000  0.57673000  1.0 0.182417733
C  C37  1  0.26155000  0.67405000  0.52639000  1.0 -0.092753935
C  C38  1  0.15752000  0.54408000  0.54395000  1.0 -0.0973163496
C  C39  1  0.11808000  0.50512000  0.60937000  1.0 -0.092753935
C  C40  1  0.30090000  0.71970000  0.45311000  1.0 0.632522452
C  C41  1  0.05603000  0.77177000  0.79336000  1.0 0.6170586081
C  C42  1  0.98467000  0.84733000  0.77169000  1.0 -0.1401174708
C  C43  1  0.05509000  0.98571000  0.76071000  1.0 0.182417733
C  C44  1  0.84491000  0.77809000  0.76100000  1.0 -0.092753935
C  C45  1  0.02520000  0.21980000  0.89560000  1.0 0.1898020425
C  C46  1  0.00490000  0.12170000  0.02300000  1.0 0.2511564673
C  C47  1  0.85710000  0.03290000  0.03790000  1.0 -0.2947554557
C  C48  1  0.00160000  0.99900000  0.93290000  1.0 0.1001799957
C  C49  1  0.54232000  0.12768000  0.76999000  1.0 0.632522452
C  C50  1  0.59327000  0.17993000  0.83883000  1.0 -0.1627947247
C  C51  1  0.72428000  0.28432000  0.85473000  1.0 0.2597343282
C  C52  1  0.76070000  0.32330000  0.92327000  1.0 0.182417733
C  C53  1  0.67405000  0.26155000  0.97361000  1.0 -0.092753935
C  C54  1  0.54408000  0.15752000  0.95605000  1.0 -0.0973163496
C  C55  1  0.50512000  0.11808000  0.89063000  1.0 -0.092753935
C  C56  1  0.71970000  0.30090000  0.04689000  1.0 0.632522452
C  C57  1  0.77177000  0.05603000  0.70664000  1.0 0.6170586081
C  C58  1  0.84733000  0.98467000  0.72831000  1.0 -0.1401174708
C  C59  1  0.98571000  0.05509000  0.73929000  1.0 0.182417733
C  C60  1  0.77809000  0.84491000  0.73900000  1.0 -0.092753935
C  C61  1  0.21980000  0.02520000  0.60440000  1.0 0.1898020425
C  C62  1  0.12170000  0.00490000  0.47700000  1.0 0.2511564673
C  C63  1  0.03290000  0.85710000  0.46210000  1.0 -0.2968487212
C  C64  1  0.99900000  0.00160000  0.56710000  1.0 0.1001799957
N  N1  1  0.98430000  0.88010000  0.05040000  1.0 -0.128972572
N  N2  1  0.88010000  0.98430000  0.44960000  1.0 -0.128972572
N  N3  1  0.01570000  0.11990000  0.94960000  1.0 -0.128972572
N  N4  1  0.11990000  0.01570000  0.55040000  1.0 -0.128972572
O  O1  1  0.98545000  0.56093000  0.26444000  1.0 -0.5692361711
O  O2  1  0.80540000  0.40088000  0.21482000  1.0 -0.5692361711
O  O3  1  0.65340000  0.18294000  0.31266000  1.0 -0.546735522
O  O4  1  0.57662000  0.11052000  0.43749000  1.0 -0.3923440768
O  O5  1  0.60329000  0.16045000  0.55942000  1.0 -0.4986681311
O  O6  1  0.76186000  0.35998000  0.59139000  1.0 -0.5637454211
O  O7  1  0.01488000  0.35420000  0.19725000  1.0 -0.5264456539
O  O8  1  0.81908000  0.16312000  0.19949000  1.0 -0.5353567272
O  O9  1  0.81034000  0.93946000  0.23080000  1.0 -0.3498348563
O  O10  1  0.93654000  0.66726000  0.09494000  1.0 -0.3208577378
O  O11  1  0.56093000  0.98545000  0.23556000  1.0 -0.5692361711
O  O12  1  0.40088000  0.80540000  0.28518000  1.0 -0.5692361711
O  O13  1  0.18294000  0.65340000  0.18734000  1.0 -0.546735522
O  O14  1  0.11052000  0.57662000  0.06251000  1.0 -0.3923440768
O  O15  1  0.16045000  0.60329000  0.94058000  1.0 -0.4986681311
O  O16  1  0.35998000  0.76186000  0.90861000  1.0 -0.5637454211
O  O17  1  0.35420000  0.01488000  0.30275000  1.0 -0.5264456539
O  O18  1  0.16312000  0.81908000  0.30051000  1.0 -0.5353567272
O  O19  1  0.93946000  0.81034000  0.26920000  1.0 -0.3498348563
O  O20  1  0.66726000  0.93654000  0.40506000  1.0 -0.3208577378
O  O21  1  0.01455000  0.43907000  0.73556000  1.0 -0.5692361711
O  O22  1  0.19460000  0.59912000  0.78518000  1.0 -0.5692361711
O  O23  1  0.34660000  0.81706000  0.68734000  1.0 -0.546735522
O  O24  1  0.42338000  0.88948000  0.56251000  1.0 -0.3923440768
O  O25  1  0.39671000  0.83955000  0.44058000  1.0 -0.4986681311
O  O26  1  0.23814000  0.64002000  0.40861000  1.0 -0.5637454211
O  O27  1  0.98512000  0.64580000  0.80275000  1.0 -0.5264456539
O  O28  1  0.18092000  0.83688000  0.80051000  1.0 -0.5353567272
O  O29  1  0.18966000  0.06054000  0.76920000  1.0 -0.3498348563
O  O30  1  0.06346000  0.33274000  0.90506000  1.0 -0.3208577378
O  O31  1  0.43907000  0.01455000  0.76444000  1.0 -0.5692361711
O  O32  1  0.59912000  0.19460000  0.71482000  1.0 -0.5692361711
O  O33  1  0.81706000  0.34660000  0.81266000  1.0 -0.546735522
O  O34  1  0.88948000  0.42338000  0.93749000  1.0 -0.3923440768
O  O35  1  0.83955000  0.39671000  0.05942000  1.0 -0.4986681311
O  O36  1  0.64002000  0.23814000  0.09139000  1.0 -0.5637454211
O  O37  1  0.64580000  0.98512000  0.69725000  1.0 -0.5264456539
O  O38  1  0.83688000  0.18092000  0.69949000  1.0 -0.5353567272
O  O39  1  0.06054000  0.18966000  0.73080000  1.0 -0.3498348563
O  O40  1  0.33274000  0.06346000  0.59494000  1.0 -0.3208577378
