# DDEC6 charges by PACMAN v1.1 (https://github.com/mtap-research/PACMAN-charge/)
data_TICPOL_ASR_pacman
_symmetry_space_group_name_H-M   'P 1'
_cell_length_a   15.74400000
_cell_length_b   17.89200000
_cell_length_c   18.30200000
_cell_angle_alpha   98.08600000
_cell_angle_beta   111.63400000
_cell_angle_gamma   104.92300000
_symmetry_Int_Tables_number   1
_chemical_formula_structural   Co5P8H34(C3O2)13
_chemical_formula_sum   'Co10 P16 H68 C78 O52'
_cell_volume   4468.58143457
_cell_formula_units_Z   2
loop_
 _symmetry_equiv_pos_site_id
 _symmetry_equiv_pos_as_xyz
  1  'x, y, z'
loop_
 _atom_site_type_symbol
 _atom_site_label
 _atom_site_symmetry_multiplicity
 _atom_site_fract_x
 _atom_site_fract_y
 _atom_site_fract_z
 _atom_site_occupancy
 _atom_site_charge
Co  Co1  1  0.73938000  0.75534000  0.73907000  1.0 -0.1588038013
Co  Co2  1  0.26062000  0.24466000  0.26093000  1.0 -0.1588038013
Co  Co3  1  0.73816000  0.73483000  0.23194000  1.0 1.2266299471
Co  Co4  1  0.26184000  0.26517000  0.76806000  1.0 1.2266299471
Co  Co5  1  0.01895000  0.63484000  0.40039000  1.0 1.1852951392
Co  Co6  1  0.98105000  0.36516000  0.59961000  1.0 1.1820061549
Co  Co7  1  0.27321000  0.89893000  0.60515000  1.0 1.0735349998
Co  Co8  1  0.72679000  0.10107000  0.39485000  1.0 1.0735349998
Co  Co9  1  0.76331000  0.27563000  0.78218000  1.0 1.1466328248
Co  Co10  1  0.23669000  0.72437000  0.21782000  1.0 1.1438209161
P  P1  1  0.63326000  0.65508000  0.63039000  1.0 0.3406826898
P  P2  1  0.36674000  0.34492000  0.36961000  1.0 0.3406826898
P  P3  1  0.84058000  0.85292000  0.85110000  1.0 0.3567291095
P  P4  1  0.15942000  0.14708000  0.14890000  1.0 0.3567291095
P  P5  1  0.78512000  0.61114000  0.35063000  1.0 1.2780149623
P  P6  1  0.21488000  0.38886000  0.64937000  1.0 1.2780149623
P  P7  1  0.58919000  0.35050000  0.77828000  1.0 1.273085092
P  P8  1  0.41081000  0.64950000  0.22172000  1.0 1.273085092
P  P9  1  0.24939000  0.74476000  0.47030000  1.0 1.2620902404
P  P10  1  0.75061000  0.25524000  0.52970000  1.0 1.2620902404
P  P11  1  0.24698000  0.01422000  0.83756000  1.0 1.2179116353
P  P12  1  0.75302000  0.98578000  0.16244000  1.0 1.2179116353
P  P13  1  0.69586000  0.15245000  0.89716000  1.0 1.273085092
P  P14  1  0.30414000  0.84755000  0.10284000  1.0 1.2780149623
P  P15  1  0.91546000  0.72790000  0.17277000  1.0 1.273085092
P  P16  1  0.08454000  0.27210000  0.82723000  1.0 1.2780149623
H  H1  1  0.35160000  0.95500000  0.86500000  1.0 0.3567291095
H  H2  1  0.64840000  0.04500000  0.13500000  1.0 0.3567291095
H  H3  1  0.96840000  0.01530000  0.88870000  1.0 0.1194374598
H  H4  1  0.03160000  0.98470000  0.11130000  1.0 0.1194374598
H  H5  1  0.11800000  0.07270000  0.88560000  1.0 0.1301115572
H  H6  1  0.88200000  0.92730000  0.11440000  1.0 0.1301115572
H  H7  1  0.12590000  0.85110000  0.81190000  1.0 0.1394808614
H  H8  1  0.87410000  0.14890000  0.18810000  1.0 0.1394808614
H  H9  1  0.97620000  0.79360000  0.81500000  1.0 0.1194374598
H  H10  1  0.02380000  0.20640000  0.18500000  1.0 0.1194374598
H  H11  1  0.42430000  0.56590000  0.56890000  1.0 0.1301115572
H  H12  1  0.57570000  0.43410000  0.43110000  1.0 0.1301115572
H  H13  1  0.28410000  0.59800000  0.50690000  1.0 0.1394808614
H  H14  1  0.71590000  0.40200000  0.49310000  1.0 0.1394808614
H  H15  1  0.44980000  0.81930000  0.52150000  1.0 0.1301115572
H  H16  1  0.55020000  0.18070000  0.47850000  1.0 0.1301115572
H  H17  1  0.58990000  0.78720000  0.58350000  1.0 0.1194374598
H  H18  1  0.41010000  0.21280000  0.41650000  1.0 0.1194374598
H  H19  1  0.80070000  0.62530000  0.62250000  1.0 0.1194374598
H  H20  1  0.19930000  0.37470000  0.37750000  1.0 0.1194374598
H  H21  1  0.85740000  0.60930000  0.52180000  1.0 0.1394808614
H  H22  1  0.14260000  0.39070000  0.47820000  1.0 0.1394808614
H  H23  1  0.61410000  0.63070000  0.35780000  1.0 0.1301115572
H  H24  1  0.38590000  0.36930000  0.64220000  1.0 0.1301115572
H  H25  1  0.55740000  0.64670000  0.45850000  1.0 0.1194374598
H  H26  1  0.44260000  0.35330000  0.54150000  1.0 0.1194374598
H  H27  1  0.66100000  0.50180000  0.59790000  1.0 0.1093378186
H  H28  1  0.33900000  0.49820000  0.40210000  1.0 0.1093378186
H  H29  1  0.65060000  0.39400000  0.65710000  1.0 0.1394808614
H  H30  1  0.34940000  0.60600000  0.34290000  1.0 0.1394808614
H  H31  1  0.53970000  0.49590000  0.79590000  1.0 0.1394808614
H  H32  1  0.46030000  0.50410000  0.20410000  1.0 0.1394808614
H  H33  1  0.55000000  0.60360000  0.73660000  1.0 0.1194374598
H  H34  1  0.45000000  0.39640000  0.26340000  1.0 0.1194374598
H  H35  1  0.77380000  0.92080000  0.96700000  1.0 0.1194374598
H  H36  1  0.22620000  0.07920000  0.03300000  1.0 0.1194374598
H  H37  1  0.72260000  0.03130000  0.98330000  1.0 0.1301115572
H  H38  1  0.27740000  0.96870000  0.01670000  1.0 0.1301115572
H  H39  1  0.75040000  0.07830000  0.78150000  1.0 0.1394808614
H  H40  1  0.24960000  0.92170000  0.21850000  1.0 0.1394808614
H  H41  1  0.80150000  0.96780000  0.76510000  1.0 0.1194374598
H  H42  1  0.19850000  0.03220000  0.23490000  1.0 0.1194374598
H  H43  1  0.56530000  0.62600000  0.17300000  1.0 0.3856320724
H  H44  1  0.43470000  0.37400000  0.82700000  1.0 0.3817283913
H  H45  1  0.63000000  0.58900000  0.20100000  1.0 0.3817283913
H  H46  1  0.37000000  0.41100000  0.79900000  1.0 0.3817283913
H  H47  1  0.61000000  0.76700000  0.29800000  1.0 0.4606688961
H  H48  1  0.39000000  0.23300000  0.70200000  1.0 0.4606688961
H  H49  1  0.74680000  0.71740000  0.03270000  1.0 0.1486112073
H  H50  1  0.25320000  0.28260000  0.96730000  1.0 0.1486112073
H  H51  1  0.03740000  0.81970000  0.11030000  1.0 0.1394808614
H  H52  1  0.96260000  0.18030000  0.88970000  1.0 0.1394808614
H  H53  1  0.01140000  0.86470000  0.99270000  1.0 0.1301115572
H  H54  1  0.98860000  0.13530000  0.00730000  1.0 0.1301115572
H  H55  1  0.72120000  0.75910000  0.91300000  1.0 0.1194374598
H  H56  1  0.27880000  0.24090000  0.08700000  1.0 0.1194374598
H  H57  1  0.26900000  0.02000000  0.68900000  1.0 0.4022027597
H  H58  1  0.73100000  0.98000000  0.31100000  1.0 0.4022027597
H  H59  1  0.34300000  0.05850000  0.67300000  1.0 0.4085226848
H  H60  1  0.65700000  0.94150000  0.32700000  1.0 0.4085226848
H  H61  1  0.32700000  0.90270000  0.49400000  1.0 0.3817283913
H  H62  1  0.67300000  0.09730000  0.50600000  1.0 0.3817283913
H  H63  1  0.40560000  0.96200000  0.55200000  1.0 0.3567291095
H  H64  1  0.59440000  0.03800000  0.44800000  1.0 0.3567291095
H  H65  1  0.51800000  0.01380000  0.87100000  1.0 0.3567291095
H  H66  1  0.48200000  0.98620000  0.12900000  1.0 0.3567291095
H  H67  1  0.44300000  0.96300000  0.87600000  1.0 0.2628821626
H  H68  1  0.55700000  0.03700000  0.12400000  1.0 0.2628821626
C  C1  1  0.64000000  0.77160000  0.75730000  1.0 0.1194374598
C  C2  1  0.36000000  0.22840000  0.24270000  1.0 0.1194374598
C  C3  1  0.78460000  0.80870000  0.67760000  1.0 0.1093378186
C  C4  1  0.21540000  0.19130000  0.32240000  1.0 0.1093378186
C  C5  1  0.79700000  0.68730000  0.78190000  1.0 0.1093378186
C  C6  1  0.20300000  0.31270000  0.21810000  1.0 0.1093378186
C  C7  1  0.95827000  0.89906000  0.85212000  1.0 -0.0431600631
C  C8  1  0.04173000  0.10094000  0.14788000  1.0 -0.0497712904
C  C9  1  0.00038000  0.98195000  0.87308000  1.0 -0.0912708801
C  C10  1  0.99962000  0.01805000  0.12692000  1.0 -0.0912708801
C  C11  1  0.08930000  0.01607000  0.87126000  1.0 -0.0616464412
C  C12  1  0.91070000  0.98393000  0.12874000  1.0 -0.0616464412
C  C13  1  0.13602000  0.96731000  0.84847000  1.0 -0.1343814463
C  C14  1  0.86398000  0.03269000  0.15153000  1.0 -0.1343814463
C  C15  1  0.09390000  0.88442000  0.82751000  1.0 -0.0497712904
C  C16  1  0.90610000  0.11558000  0.17249000  1.0 -0.0497712904
C  C17  1  0.00500000  0.85030000  0.82933000  1.0 -0.0912708801
C  C18  1  0.99500000  0.14970000  0.17067000  1.0 -0.0912708801
C  C19  1  0.52027000  0.67355000  0.58203000  1.0 -0.0497712904
C  C20  1  0.47973000  0.32645000  0.41797000  1.0 -0.0497712904
C  C21  1  0.42940000  0.61733000  0.55927000  1.0 -0.0986866492
C  C22  1  0.57060000  0.38267000  0.44073000  1.0 -0.0986866492
C  C23  1  0.34619000  0.63639000  0.52243000  1.0 -0.0616464412
C  C24  1  0.65381000  0.36361000  0.47757000  1.0 -0.0616464412
C  C25  1  0.35377000  0.71167000  0.50835000  1.0 -0.1416714475
C  C26  1  0.64623000  0.28833000  0.49165000  1.0 -0.1416714475
C  C27  1  0.44460000  0.76788000  0.53111000  1.0 -0.0616464412
C  C28  1  0.55540000  0.23212000  0.46889000  1.0 -0.0616464412
C  C29  1  0.52785000  0.74882000  0.56795000  1.0 -0.0986866492
C  C30  1  0.47215000  0.25118000  0.43205000  1.0 -0.0986866492
C  C31  1  0.67374000  0.63753000  0.55000000  1.0 -0.0431600631
C  C32  1  0.32626000  0.36247000  0.45000000  1.0 -0.0431600631
C  C33  1  0.76283000  0.62643000  0.56879000  1.0 -0.0986866492
C  C34  1  0.23717000  0.37357000  0.43121000  1.0 -0.0986866492
C  C35  1  0.79650000  0.61692000  0.50894000  1.0 -0.0707286608
C  C36  1  0.20350000  0.38308000  0.49106000  1.0 -0.0707286608
C  C37  1  0.74108000  0.61851000  0.43030000  1.0 -0.1343814463
C  C38  1  0.25892000  0.38149000  0.56970000  1.0 -0.1343814463
C  C39  1  0.65199000  0.62961000  0.41151000  1.0 -0.0497712904
C  C40  1  0.34801000  0.37039000  0.58849000  1.0 -0.0497712904
C  C41  1  0.61831000  0.63911000  0.47136000  1.0 -0.0986866492
C  C42  1  0.38169000  0.36089000  0.52864000  1.0 -0.0986866492
C  C43  1  0.60650000  0.56281000  0.66166000  1.0 -0.0497712904
C  C44  1  0.39350000  0.43719000  0.33834000  1.0 -0.0497712904
C  C45  1  0.63640000  0.50058000  0.63806000  1.0 -0.0986866492
C  C46  1  0.36360000  0.49942000  0.36194000  1.0 -0.0986866492
C  C47  1  0.63020000  0.43658000  0.67327000  1.0 -0.0707286608
C  C48  1  0.36980000  0.56342000  0.32673000  1.0 -0.0707286608
C  C49  1  0.59420000  0.43483000  0.73208000  1.0 -0.1475359306
C  C50  1  0.40580000  0.56517000  0.26792000  1.0 -0.1475359306
C  C51  1  0.56430000  0.49706000  0.75568000  1.0 -0.0616464412
C  C52  1  0.43570000  0.50294000  0.24432000  1.0 -0.0616464412
C  C53  1  0.57050000  0.56106000  0.72047000  1.0 -0.0986866492
C  C54  1  0.42950000  0.43894000  0.27953000  1.0 -0.0986866492
C  C55  1  0.79250000  0.93395000  0.86447000  1.0 -0.0497712904
C  C56  1  0.20750000  0.06605000  0.13553000  1.0 -0.0497712904
C  C57  1  0.76900000  0.95279000  0.92930000  1.0 -0.0912708801
C  C58  1  0.23100000  0.04721000  0.07070000  1.0 -0.0912708801
C  C59  1  0.73860000  0.01840000  0.93904000  1.0 -0.0431600631
C  C60  1  0.26140000  0.98160000  0.06096000  1.0 -0.0431600631
C  C61  1  0.73170000  0.06517000  0.88395000  1.0 -0.1475359306
C  C62  1  0.26830000  0.93483000  0.11605000  1.0 -0.1416714475
C  C63  1  0.75510000  0.04633000  0.81912000  1.0 -0.0616464412
C  C64  1  0.24490000  0.95367000  0.18088000  1.0 -0.0616464412
C  C65  1  0.78550000  0.98072000  0.80938000  1.0 -0.0986866492
C  C66  1  0.21450000  0.01928000  0.19062000  1.0 -0.0986866492
C  C67  1  0.86460000  0.81800000  0.94230000  1.0 -0.0497712904
C  C68  1  0.13540000  0.18200000  0.05770000  1.0 -0.0497712904
C  C69  1  0.89470000  0.76420000  0.08270000  1.0 -0.1416714475
C  C70  1  0.10530000  0.23580000  0.91730000  1.0 -0.1416714475
C  C71  1  0.80050000  0.74670000  0.02430000  1.0 -0.0431600631
C  C72  1  0.19950000  0.25330000  0.97570000  1.0 -0.0431600631
C  C73  1  0.97310000  0.80800000  0.07050000  1.0 -0.0616464412
C  C74  1  0.02690000  0.19200000  0.92950000  1.0 -0.0616464412
C  C75  1  0.95760000  0.83470000  0.00060000  1.0 -0.0912708801
C  C76  1  0.04240000  0.16530000  0.99940000  1.0 -0.0912708801
C  C77  1  0.78530000  0.77240000  0.95370000  1.0 -0.0986866492
C  C78  1  0.21470000  0.22760000  0.04630000  1.0 -0.0986866492
O  O1  1  0.57750000  0.78280000  0.76883000  1.0 -0.120262216
O  O2  1  0.42250000  0.21720000  0.23117000  1.0 -0.120262216
O  O3  1  0.81290000  0.84140000  0.63770000  1.0 -0.120262216
O  O4  1  0.18710000  0.15860000  0.36230000  1.0 -0.120262216
O  O5  1  0.83190000  0.64450000  0.81050000  1.0 -0.120262216
O  O6  1  0.16810000  0.35550000  0.18950000  1.0 -0.120262216
O  O7  1  0.70430000  0.54638000  0.27715000  1.0 -0.6984494284
O  O8  1  0.29570000  0.45362000  0.72285000  1.0 -0.6984494284
O  O9  1  0.87660000  0.58963000  0.38466000  1.0 -0.7992686883
O  O10  1  0.12340000  0.41037000  0.61534000  1.0 -0.7992686883
O  O11  1  0.80630000  0.69380000  0.33321000  1.0 -0.7500512953
O  O12  1  0.19370000  0.30620000  0.66679000  1.0 -0.7500512953
O  O13  1  0.52140000  0.27516000  0.71088000  1.0 -0.7240207747
O  O14  1  0.47860000  0.72484000  0.28912000  1.0 -0.7240207747
O  O15  1  0.69440000  0.35172000  0.81779000  1.0 -0.7500512953
O  O16  1  0.30560000  0.64828000  0.18221000  1.0 -0.7500512953
O  O17  1  0.55210000  0.36686000  0.84303000  1.0 -0.6926587478
O  O18  1  0.44790000  0.63314000  0.15697000  1.0 -0.6926587478
O  O19  1  0.27580000  0.80729000  0.42595000  1.0 -0.7255100265
O  O20  1  0.72420000  0.19271000  0.57405000  1.0 -0.7255100265
O  O21  1  0.16160000  0.67209000  0.41455000  1.0 -0.7906956628
O  O22  1  0.83840000  0.32791000  0.58545000  1.0 -0.7906956628
O  O23  1  0.23880000  0.78200000  0.54541000  1.0 -0.8201939122
O  O24  1  0.76120000  0.21800000  0.45459000  1.0 -0.8201939122
O  O25  1  0.21120000  0.03472000  0.75507000  1.0 -0.6817422912
O  O26  1  0.78880000  0.96528000  0.24493000  1.0 -0.6817422912
O  O27  1  0.29390000  0.95038000  0.83298000  1.0 -0.5932994441
O  O28  1  0.70610000  0.04962000  0.16702000  1.0 -0.5932994441
O  O29  1  0.30680000  0.08780000  0.90778000  1.0 -0.6984494284
O  O30  1  0.69320000  0.91220000  0.09222000  1.0 -0.6984494284
O  O31  1  0.58860000  0.12505000  0.87694000  1.0 -0.6703321219
O  O32  1  0.41140000  0.87495000  0.12306000  1.0 -0.6703321219
O  O33  1  0.75190000  0.19774000  0.99106000  1.0 -0.6984494284
O  O34  1  0.24810000  0.80226000  0.00894000  1.0 -0.6984494284
O  O35  1  0.72850000  0.20463000  0.85000000  1.0 -0.7642249719
O  O36  1  0.27150000  0.79537000  0.15000000  1.0 -0.7642249719
O  O37  1  0.96080000  0.66283000  0.16264000  1.0 -0.6703321219
O  O38  1  0.03920000  0.33717000  0.83736000  1.0 -0.6703321219
O  O39  1  0.98700000  0.79837000  0.24552000  1.0 -0.7240207747
O  O40  1  0.01300000  0.20163000  0.75448000  1.0 -0.7240207747
O  O41  1  0.62060000  0.62536000  0.17667000  1.0 -0.6703321219
O  O42  1  0.37940000  0.37464000  0.82333000  1.0 -0.6703321219
O  O43  1  0.81790000  0.69307000  0.17563000  1.0 -0.7500512953
O  O44  1  0.18210000  0.30693000  0.82437000  1.0 -0.7500512953
O  O45  1  0.66300000  0.77794000  0.29460000  1.0 -0.9010309235
O  O46  1  0.33700000  0.22206000  0.70540000  1.0 -0.9010309235
O  O47  1  0.29470000  0.01563000  0.65599000  1.0 -0.6703321219
O  O48  1  0.70530000  0.98437000  0.34401000  1.0 -0.6703321219
O  O49  1  0.34410000  0.94498000  0.53148000  1.0 -0.658730413
O  O50  1  0.65590000  0.05502000  0.46852000  1.0 -0.658730413
O  O51  1  0.47780000  0.96630000  0.84928000  1.0 -0.6817422912
O  O52  1  0.52220000  0.03370000  0.15072000  1.0 -0.6817422912
