# DDEC6 charges by PACMAN v1.1 (https://github.com/mtap-research/PACMAN-charge/)
data_TIDKAS_ASR_pacman
_symmetry_space_group_name_H-M   'P 1'
_cell_length_a   25.32080000
_cell_length_b   21.01740000
_cell_length_c   17.24380000
_cell_angle_alpha   82.23450000
_cell_angle_beta   55.32930000
_cell_angle_gamma   42.43620000
_symmetry_Int_Tables_number   1
_chemical_formula_structural   AgP2H37C39N2
_chemical_formula_sum   'Ag4 P8 H148 C156 N8'
_cell_volume   4371.36077451
_cell_formula_units_Z   4
loop_
 _symmetry_equiv_pos_site_id
 _symmetry_equiv_pos_as_xyz
  1  'x, y, z'
loop_
 _atom_site_type_symbol
 _atom_site_label
 _atom_site_symmetry_multiplicity
 _atom_site_fract_x
 _atom_site_fract_y
 _atom_site_fract_z
 _atom_site_occupancy
 _atom_site_charge
Ag  Ag1  1  0.51276000  0.48736000  0.03686000  1.0 0.0646107093
Ag  Ag2  1  0.96302000  0.03686000  0.48736000  1.0 0.0646107093
Ag  Ag3  1  0.76264000  0.73724000  0.28698000  1.0 0.0646107093
Ag  Ag4  1  0.21314000  0.28698000  0.73724000  1.0 0.0646107093
P  P1  1  0.69632000  0.38096000  0.92684000  1.0 0.2234568436
P  P2  1  0.99588000  0.92684000  0.38096000  1.0 0.2234568436
P  P3  1  0.86904000  0.55368000  0.25412000  1.0 0.2234568436
P  P4  1  0.32316000  0.25412000  0.55368000  1.0 0.2234568436
P  P5  1  0.85459000  0.22157000  0.52209000  1.0 0.2234568436
P  P6  1  0.40175000  0.52209000  0.22157000  1.0 0.2234568436
P  P7  1  0.02843000  0.39541000  0.84825000  1.0 0.2234568436
P  P8  1  0.72791000  0.84825000  0.39541000  1.0 0.2234568436
H  H1  1  0.91150000  0.24810000  0.56650000  1.0 0.1354874976
H  H2  1  0.27390000  0.56650000  0.24810000  1.0 0.1354874976
H  H3  1  0.00190000  0.33850000  0.97610000  1.0 0.1354874976
H  H4  1  0.68350000  0.97610000  0.33850000  1.0 0.1354874976
H  H5  1  0.79230000  0.36450000  0.61550000  1.0 0.1311215161
H  H6  1  0.22770000  0.61550000  0.36450000  1.0 0.1311215161
H  H7  1  0.88550000  0.45770000  0.02230000  1.0 0.1311215161
H  H8  1  0.63450000  0.02230000  0.45770000  1.0 0.1311215161
H  H9  1  0.83730000  0.22470000  0.70170000  1.0 0.0887940847
H  H10  1  0.23630000  0.70170000  0.22470000  1.0 0.0887940847
H  H11  1  0.02530000  0.41270000  0.01370000  1.0 0.0887940847
H  H12  1  0.54830000  0.01370000  0.41270000  1.0 0.0887940847
H  H13  1  0.71820000  0.33620000  0.74820000  1.0 0.0887940847
H  H14  1  0.19740000  0.74820000  0.33620000  1.0 0.0887940847
H  H15  1  0.91380000  0.53180000  0.05260000  1.0 0.0887940847
H  H16  1  0.50180000  0.05260000  0.53180000  1.0 0.0887940847
H  H17  1  0.71680000  0.44020000  0.80200000  1.0 0.1311215161
H  H18  1  0.04100000  0.80200000  0.44020000  1.0 0.1311215161
H  H19  1  0.80980000  0.53320000  0.20900000  1.0 0.1311215161
H  H20  1  0.44800000  0.20900000  0.53320000  1.0 0.1311215161
H  H21  1  0.83390000  0.32790000  0.75930000  1.0 0.1311215161
H  H22  1  0.07890000  0.75930000  0.32790000  1.0 0.1311215161
H  H23  1  0.92210000  0.41610000  0.17110000  1.0 0.1311215161
H  H24  1  0.49070000  0.17110000  0.41610000  1.0 0.1311215161
H  H25  1  0.33430000  0.60790000  0.02490000  1.0 0.099900311
H  H26  1  0.03290000  0.02490000  0.60790000  1.0 0.099900311
H  H27  1  0.64210000  0.91570000  0.21710000  1.0 0.099900311
H  H28  1  0.22510000  0.21710000  0.91570000  1.0 0.099900311
H  H29  1  0.28740000  0.56680000  0.97840000  1.0 0.1101524981
H  H30  1  0.16740000  0.97840000  0.56680000  1.0 0.1101524981
H  H31  1  0.68320000  0.96260000  0.08260000  1.0 0.1101524981
H  H32  1  0.27160000  0.08260000  0.96260000  1.0 0.1101524981
H  H33  1  0.55090000  0.24650000  0.87610000  1.0 0.1194976017
H  H34  1  0.32650000  0.87610000  0.24650000  1.0 0.1194976017
H  H35  1  0.00350000  0.69910000  0.92350000  1.0 0.1194976017
H  H36  1  0.37390000  0.92350000  0.69910000  1.0 0.1194976017
H  H37  1  0.60340000  0.28480000  0.91040000  1.0 0.0887940847
H  H38  1  0.20140000  0.91040000  0.28480000  1.0 0.0887940847
H  H39  1  0.96520000  0.64660000  0.04860000  1.0 0.0887940847
H  H40  1  0.33960000  0.04860000  0.64660000  1.0 0.0887940847
H  H41  1  0.37560000  0.18340000  0.77000000  1.0 0.0887940847
H  H42  1  0.67100000  0.77000000  0.18340000  1.0 0.0887940847
H  H43  1  0.06660000  0.87440000  0.57900000  1.0 0.0887940847
H  H44  1  0.48000000  0.57900000  0.87440000  1.0 0.0887940847
H  H45  1  0.42870000  0.22090000  0.80510000  1.0 0.1101524981
H  H46  1  0.54530000  0.80510000  0.22090000  1.0 0.1101524981
H  H47  1  0.02910000  0.82130000  0.70470000  1.0 0.1101524981
H  H48  1  0.44490000  0.70470000  0.82130000  1.0 0.1101524981
H  H49  1  0.16940000  0.53240000  0.89660000  1.0 0.1194976017
H  H50  1  0.40160000  0.89660000  0.53240000  1.0 0.1194976017
H  H51  1  0.71760000  0.08060000  0.84840000  1.0 0.1194976017
H  H52  1  0.35340000  0.84840000  0.08060000  1.0 0.1194976017
H  H53  1  0.12910000  0.48230000  0.86390000  1.0 0.0887940847
H  H54  1  0.52470000  0.86390000  0.48230000  1.0 0.0887940847
H  H55  1  0.76770000  0.12090000  0.72530000  1.0 0.0887940847
H  H56  1  0.38610000  0.72530000  0.12090000  1.0 0.0887940847
H  H57  1  0.29050000  0.48850000  0.89650000  1.0 0.1101524981
H  H58  1  0.32450000  0.89650000  0.48850000  1.0 0.1101524981
H  H59  1  0.76150000  0.95950000  0.92550000  1.0 0.1101524981
H  H60  1  0.35350000  0.92550000  0.95950000  1.0 0.1101524981
H  H61  1  0.43440000  0.28100000  0.85800000  1.0 0.1311215161
H  H62  1  0.42660000  0.85800000  0.28100000  1.0 0.1311215161
H  H63  1  0.96900000  0.81560000  0.82340000  1.0 0.1311215161
H  H64  1  0.39200000  0.82340000  0.81560000  1.0 0.1311215161
H  H65  1  0.05050000  0.13870000  0.36270000  1.0 0.1101524981
H  H66  1  0.44810000  0.36270000  0.13870000  1.0 0.1101524981
H  H67  1  0.11130000  0.19950000  0.80190000  1.0 0.1101524981
H  H68  1  0.88730000  0.80190000  0.19950000  1.0 0.1101524981
H  H69  1  0.14390000  0.11830000  0.19010000  1.0 0.1101524981
H  H70  1  0.54770000  0.19010000  0.11830000  1.0 0.1101524981
H  H71  1  0.13170000  0.10610000  0.70230000  1.0 0.1101524981
H  H72  1  0.05990000  0.70230000  0.10610000  1.0 0.1101524981
H  H73  1  0.06890000  0.18570000  0.11710000  1.0 0.1101524981
H  H74  1  0.62830000  0.11710000  0.18570000  1.0 0.1101524981
H  H75  1  0.06430000  0.18110000  0.62170000  1.0 0.1101524981
H  H76  1  0.13290000  0.62170000  0.18110000  1.0 0.1101524981
H  H77  1  0.90020000  0.27340000  0.21660000  1.0 0.1194976017
H  H78  1  0.60980000  0.21660000  0.27340000  1.0 0.1194976017
H  H79  1  0.97660000  0.34980000  0.64020000  1.0 0.1194976017
H  H80  1  0.03340000  0.64020000  0.34980000  1.0 0.1194976017
H  H81  1  0.80660000  0.29380000  0.38920000  1.0 0.1101524981
H  H82  1  0.51040000  0.38920000  0.29380000  1.0 0.1101524981
H  H83  1  0.95620000  0.44340000  0.73960000  1.0 0.1101524981
H  H84  1  0.86080000  0.73960000  0.44340000  1.0 0.1101524981
H  H85  1  0.93440000  0.19060000  0.79960000  1.0 0.1101524981
H  H86  1  0.07540000  0.79960000  0.19060000  1.0 0.1101524981
H  H87  1  0.05940000  0.31560000  0.17460000  1.0 0.1101524981
H  H88  1  0.45040000  0.17460000  0.31560000  1.0 0.1101524981
H  H89  1  0.06040000  0.01040000  0.76440000  1.0 0.1101524981
H  H90  1  0.16480000  0.76440000  0.01040000  1.0 0.1101524981
H  H91  1  0.23960000  0.18960000  0.08520000  1.0 0.1101524981
H  H92  1  0.48560000  0.08520000  0.18960000  1.0 0.1101524981
H  H93  1  0.00300000  0.95060000  0.83900000  1.0 0.1101524981
H  H94  1  0.20740000  0.83900000  0.95060000  1.0 0.1101524981
H  H95  1  0.29940000  0.24700000  0.04260000  1.0 0.1101524981
H  H96  1  0.41100000  0.04260000  0.24700000  1.0 0.1101524981
H  H97  1  0.82000000  0.07080000  0.94880000  1.0 0.1101524981
H  H98  1  0.16040000  0.94880000  0.07080000  1.0 0.1101524981
H  H99  1  0.17920000  0.43000000  0.08960000  1.0 0.1101524981
H  H100  1  0.30120000  0.08960000  0.43000000  1.0 0.1101524981
H  H101  1  0.69420000  0.25100000  0.98380000  1.0 0.099900311
H  H102  1  0.07100000  0.98380000  0.25100000  1.0 0.099900311
H  H103  1  0.99900000  0.55580000  0.17900000  1.0 0.099900311
H  H104  1  0.26620000  0.17900000  0.55580000  1.0 0.099900311
H  H105  1  0.75670000  0.33790000  0.04470000  1.0 0.1101524981
H  H106  1  0.86070000  0.04470000  0.33790000  1.0 0.1101524981
H  H107  1  0.91210000  0.49330000  0.38930000  1.0 0.1101524981
H  H108  1  0.20530000  0.38930000  0.49330000  1.0 0.1101524981
H  H109  1  0.73120000  0.43360000  0.14980000  1.0 0.1194976017
H  H110  1  0.68540000  0.14980000  0.43360000  1.0 0.1194976017
H  H111  1  0.81640000  0.51880000  0.56460000  1.0 0.1194976017
H  H112  1  0.10020000  0.56460000  0.51880000  1.0 0.1194976017
H  H113  1  0.64900000  0.59940000  0.16420000  1.0 0.1101524981
H  H114  1  0.58740000  0.16420000  0.59940000  1.0 0.1101524981
H  H115  1  0.65060000  0.60100000  0.66260000  1.0 0.1101524981
H  H116  1  0.08580000  0.66260000  0.60100000  1.0 0.1101524981
H  H117  1  0.59240000  0.66940000  0.07360000  1.0 0.1101524981
H  H118  1  0.66460000  0.07360000  0.66940000  1.0 0.1101524981
H  H119  1  0.58060000  0.65760000  0.58540000  1.0 0.1101524981
H  H120  1  0.17640000  0.58540000  0.65760000  1.0 0.1101524981
H  H121  1  0.61810000  0.57370000  0.96850000  1.0 0.1101524981
H  H122  1  0.83970000  0.96850000  0.57370000  1.0 0.1101524981
H  H123  1  0.67630000  0.63190000  0.41030000  1.0 0.1101524981
H  H124  1  0.28150000  0.41030000  0.63190000  1.0 0.1101524981
H  H125  1  0.67910000  0.44790000  0.59130000  1.0 0.1101524981
H  H126  1  0.28170000  0.59130000  0.44790000  1.0 0.1101524981
H  H127  1  0.80210000  0.57090000  0.96830000  1.0 0.1101524981
H  H128  1  0.65870000  0.96830000  0.57090000  1.0 0.1101524981
H  H129  1  0.49820000  0.58000000  0.67820000  1.0 0.1101524981
H  H130  1  0.24360000  0.67820000  0.58000000  1.0 0.1101524981
H  H131  1  0.67000000  0.75180000  0.00640000  1.0 0.1101524981
H  H132  1  0.57180000  0.00640000  0.75180000  1.0 0.1101524981
H  H133  1  0.42970000  0.53190000  0.72450000  1.0 0.1101524981
H  H134  1  0.31390000  0.72450000  0.53190000  1.0 0.1101524981
H  H135  1  0.71810000  0.82030000  0.93610000  1.0 0.1101524981
H  H136  1  0.52550000  0.93610000  0.82030000  1.0 0.1101524981
H  H137  1  0.54190000  0.35170000  0.68390000  1.0 0.1101524981
H  H138  1  0.42250000  0.68390000  0.35170000  1.0 0.1101524981
H  H139  1  0.89830000  0.70810000  0.82750000  1.0 0.1101524981
H  H140  1  0.56610000  0.82750000  0.70810000  1.0 0.1101524981
H  H141  1  0.72280000  0.21960000  0.59700000  1.0 0.099900311
H  H142  1  0.46060000  0.59700000  0.21960000  1.0 0.099900311
H  H143  1  0.03040000  0.52720000  0.78940000  1.0 0.099900311
H  H144  1  0.65300000  0.78940000  0.52720000  1.0 0.099900311
H  H145  1  0.39180000  0.39100000  0.90380000  1.0 0.1101524981
H  H146  1  0.31340000  0.90380000  0.39100000  1.0 0.1101524981
H  H147  1  0.85900000  0.85820000  0.93660000  1.0 0.1101524981
H  H148  1  0.34620000  0.93660000  0.85820000  1.0 0.1101524981
C  C1  1  0.83860000  0.29020000  0.60540000  1.0 -0.3381817557
C  C2  1  0.26580000  0.60540000  0.29020000  1.0 -0.3381817557
C  C3  1  0.95980000  0.41140000  0.98420000  1.0 -0.3381817557
C  C4  1  0.64460000  0.98420000  0.41140000  1.0 -0.3381817557
C  C5  1  0.78809000  0.29949000  0.71251000  1.0 -0.1103184053
C  C6  1  0.19991000  0.71251000  0.29949000  1.0 -0.1103184053
C  C7  1  0.95051000  0.46191000  0.05009000  1.0 -0.1103184053
C  C8  1  0.53749000  0.05009000  0.46191000  1.0 -0.1103184053
C  C9  1  0.76380000  0.36640000  0.79300000  1.0 -0.3348143317
C  C10  1  0.07680000  0.79300000  0.36640000  1.0 -0.3348143317
C  C11  1  0.88360000  0.48620000  0.17320000  1.0 -0.3348143317
C  C12  1  0.45700000  0.17320000  0.48620000  1.0 -0.3348143317
C  C13  1  0.37900000  0.53500000  0.99140000  1.0 0.0111726752
C  C14  1  0.09460000  0.99140000  0.53500000  1.0 0.0111726752
C  C15  1  0.71500000  0.87100000  0.15540000  1.0 0.0111726752
C  C16  1  0.25860000  0.15540000  0.87100000  1.0 0.0111726752
C  C17  1  0.35140000  0.50920000  0.96520000  1.0 -0.1721084334
C  C18  1  0.17420000  0.96520000  0.50920000  1.0 -0.1721084334
C  C19  1  0.74080000  0.89860000  0.07580000  1.0 -0.1721084334
C  C20  1  0.28480000  0.07580000  0.89860000  1.0 -0.1721084334
C  C21  1  0.41220000  0.40580000  0.92160000  1.0 -0.01334841
C  C22  1  0.26040000  0.92160000  0.40580000  1.0 -0.01334841
C  C23  1  0.84420000  0.83780000  0.98960000  1.0 -0.01334841
C  C24  1  0.32840000  0.98960000  0.83780000  1.0 -0.01334841
C  C25  1  0.50880000  0.31900000  0.90300000  1.0 -0.2021061696
C  C26  1  0.26920000  0.90300000  0.31900000  1.0 -0.2021061696
C  C27  1  0.93100000  0.74120000  0.98080000  1.0 -0.2021061696
C  C28  1  0.34700000  0.98080000  0.74120000  1.0 -0.2021061696
C  C29  1  0.53900000  0.34180000  0.92420000  1.0 0.0663983048
C  C30  1  0.19500000  0.92420000  0.34180000  1.0 0.0663983048
C  C31  1  0.90820000  0.71100000  0.05500000  1.0 0.0663983048
C  C32  1  0.32580000  0.05500000  0.71100000  1.0 0.0663983048
C  C33  1  0.33200000  0.25660000  0.79580000  1.0 0.0887940847
C  C34  1  0.61560000  0.79580000  0.25660000  1.0 0.0887940847
C  C35  1  0.99340000  0.91800000  0.63440000  1.0 0.0887940847
C  C36  1  0.45420000  0.63440000  0.91800000  1.0 0.0887940847
C  C37  1  0.36490000  0.27790000  0.81790000  1.0 -0.2575889296
C  C38  1  0.53930000  0.81790000  0.27790000  1.0 -0.2575889296
C  C39  1  0.97210000  0.88510000  0.71070000  1.0 -0.2575889296
C  C40  1  0.43210000  0.71070000  0.88510000  1.0 -0.2575889296
C  C41  1  0.29930000  0.38770000  0.86030000  1.0 0.0887940847
C  C42  1  0.45270000  0.86030000  0.38770000  1.0 0.0887940847
C  C43  1  0.86230000  0.95070000  0.79730000  1.0 0.0887940847
C  C44  1  0.38970000  0.79730000  0.95070000  1.0 0.0887940847
C  C45  1  0.21520000  0.45840000  0.87180000  1.0 -0.1905178793
C  C46  1  0.45460000  0.87180000  0.45840000  1.0 -0.1905178793
C  C47  1  0.79160000  0.03480000  0.79540000  1.0 -0.1905178793
C  C48  1  0.37820000  0.79540000  0.03480000  1.0 -0.1905178793
C  C49  1  0.19430000  0.42550000  0.84850000  1.0 -0.0225063778
C  C50  1  0.53170000  0.84850000  0.42550000  1.0 -0.0225063778
C  C51  1  0.82450000  0.05570000  0.71830000  1.0 -0.0225063778
C  C52  1  0.40150000  0.71830000  0.05570000  1.0 -0.0225063778
C  C53  1  0.32590000  0.41930000  0.88150000  1.0 -0.0994197149
C  C54  1  0.37330000  0.88150000  0.41930000  1.0 -0.0994197149
C  C55  1  0.83070000  0.92410000  0.87670000  1.0 -0.0994197149
C  C56  1  0.36850000  0.87670000  0.92410000  1.0 -0.0994197149
C  C57  1  0.39360000  0.35300000  0.87900000  1.0 -0.2298605732
C  C58  1  0.37440000  0.87900000  0.35300000  1.0 -0.2298605732
C  C59  1  0.89700000  0.85640000  0.87560000  1.0 -0.2298605732
C  C60  1  0.37100000  0.87560000  0.85640000  1.0 -0.2298605732
C  C61  1  0.91977000  0.21817000  0.39223000  1.0 -0.0488448284
C  C62  1  0.46983000  0.39223000  0.21817000  1.0 -0.0488448284
C  C63  1  0.03183000  0.33023000  0.78017000  1.0 -0.0488448284
C  C64  1  0.85777000  0.78017000  0.33023000  1.0 -0.0488448284
C  C65  1  0.02000000  0.16600000  0.33300000  1.0 -0.1290613827
C  C66  1  0.48100000  0.33300000  0.16600000  1.0 -0.1290613827
C  C67  1  0.08400000  0.23000000  0.76900000  1.0 -0.1290613827
C  C68  1  0.91700000  0.76900000  0.23000000  1.0 -0.1290613827
C  C69  1  0.07550000  0.15390000  0.23050000  1.0 -0.1103184053
C  C70  1  0.54010000  0.23050000  0.15390000  1.0 -0.1103184053
C  C71  1  0.09610000  0.17450000  0.70990000  1.0 -0.1103184053
C  C72  1  0.01950000  0.70990000  0.17450000  1.0 -0.1103184053
C  C73  1  0.03090000  0.19390000  0.18710000  1.0 -0.1225694559
C  C74  1  0.58810000  0.18710000  0.19390000  1.0 -0.1225694559
C  C75  1  0.05610000  0.21910000  0.66190000  1.0 -0.1225694559
C  C76  1  0.06290000  0.66190000  0.21910000  1.0 -0.1225694559
C  C77  1  0.93070000  0.24610000  0.24630000  1.0 -0.0994197149
C  C78  1  0.57690000  0.24630000  0.24610000  1.0 -0.0994197149
C  C79  1  0.00390000  0.31930000  0.67310000  1.0 -0.0994197149
C  C80  1  0.00370000  0.67310000  0.31930000  1.0 -0.0994197149
C  C81  1  0.87520000  0.25820000  0.34880000  1.0 -0.1103184053
C  C82  1  0.51780000  0.34880000  0.25820000  1.0 -0.1103184053
C  C83  1  0.99180000  0.37480000  0.73220000  1.0 -0.1103184053
C  C84  1  0.90120000  0.73220000  0.37480000  1.0 -0.1103184053
C  C85  1  0.80240000  0.23780000  0.89500000  1.0 -0.0296360423
C  C86  1  0.06480000  0.89500000  0.23780000  1.0 -0.0296360423
C  C87  1  0.01220000  0.44760000  0.18520000  1.0 -0.0296360423
C  C88  1  0.35500000  0.18520000  0.44760000  1.0 -0.0296360423
C  C89  1  0.91126000  0.16626000  0.82974000  1.0 -0.1290613827
C  C90  1  0.09274000  0.82974000  0.16626000  1.0 -0.1290613827
C  C91  1  0.08374000  0.33874000  0.15726000  1.0 -0.1290613827
C  C92  1  0.42026000  0.15726000  0.33874000  1.0 -0.1290613827
C  C93  1  0.98600000  0.05920000  0.80900000  1.0 -0.1103184053
C  C94  1  0.14580000  0.80900000  0.05920000  1.0 -0.1103184053
C  C95  1  0.19080000  0.26400000  0.10420000  1.0 -0.1103184053
C  C96  1  0.44100000  0.10420000  0.26400000  1.0 -0.1103184053
C  C97  1  0.95190000  0.02370000  0.85330000  1.0 -0.0994197149
C  C98  1  0.17110000  0.85330000  0.02370000  1.0 -0.0994197149
C  C99  1  0.22630000  0.29810000  0.07890000  1.0 -0.0994197149
C  C100  1  0.39670000  0.07890000  0.29810000  1.0 -0.0994197149
C  C101  1  0.84317000  0.09517000  0.91843000  1.0 -0.0878052201
C  C102  1  0.14323000  0.91843000  0.09517000  1.0 -0.0878052201
C  C103  1  0.15483000  0.40683000  0.10677000  1.0 -0.0878052201
C  C104  1  0.33157000  0.10677000  0.40683000  1.0 -0.0878052201
C  C105  1  0.76850000  0.20210000  0.93930000  1.0 -0.1378679044
C  C106  1  0.09010000  0.93930000  0.20210000  1.0 -0.1378679044
C  C107  1  0.04790000  0.48150000  0.15990000  1.0 -0.1378679044
C  C108  1  0.31070000  0.15990000  0.48150000  1.0 -0.1378679044
C  C109  1  0.68986000  0.44676000  0.99664000  1.0 -0.0560556903
C  C110  1  0.86674000  0.99664000  0.44676000  1.0 -0.0560556903
C  C111  1  0.80324000  0.56014000  0.38326000  1.0 -0.0560556903
C  C112  1  0.25336000  0.38326000  0.56014000  1.0 -0.0560556903
C  C113  1  0.72337000  0.40523000  0.05057000  1.0 -0.1103184053
C  C114  1  0.82083000  0.05057000  0.40523000  1.0 -0.1103184053
C  C115  1  0.84477000  0.52663000  0.42917000  1.0 -0.1103184053
C  C116  1  0.19943000  0.42917000  0.52663000  1.0 -0.1103184053
C  C117  1  0.70818000  0.46202000  0.11298000  1.0 -0.0994197149
C  C118  1  0.71682000  0.11298000  0.46202000  1.0 -0.0994197149
C  C119  1  0.78798000  0.54182000  0.53318000  1.0 -0.0994197149
C  C120  1  0.13702000  0.53318000  0.54182000  1.0 -0.0994197149
C  C121  1  0.65930000  0.56050000  0.12170000  1.0 -0.1225694559
C  C122  1  0.65850000  0.12170000  0.56050000  1.0 -0.1225694559
C  C123  1  0.68950000  0.59070000  0.59150000  1.0 -0.1225694559
C  C124  1  0.12830000  0.59150000  0.59070000  1.0 -0.1225694559
C  C125  1  0.62576000  0.60216000  0.06764000  1.0 -0.1103184053
C  C126  1  0.70444000  0.06764000  0.60216000  1.0 -0.1103184053
C  C127  1  0.64784000  0.62424000  0.54556000  1.0 -0.1103184053
C  C128  1  0.18236000  0.54556000  0.62424000  1.0 -0.1103184053
C  C129  1  0.64094000  0.54526000  0.00534000  1.0 -0.1225694559
C  C130  1  0.80846000  0.00534000  0.54526000  1.0 -0.1225694559
C  C131  1  0.70474000  0.60906000  0.44154000  1.0 -0.1225694559
C  C132  1  0.24466000  0.44154000  0.60906000  1.0 -0.1225694559
C  C133  1  0.71800000  0.32140000  0.58600000  1.0 -0.0488448284
C  C134  1  0.37460000  0.58600000  0.32140000  1.0 -0.0488448284
C  C135  1  0.92860000  0.53200000  0.87540000  1.0 -0.0488448284
C  C136  1  0.66400000  0.87540000  0.53200000  1.0 -0.0488448284
C  C137  1  0.65130000  0.42830000  0.61010000  1.0 -0.1225694559
C  C138  1  0.31030000  0.61010000  0.42830000  1.0 -0.1225694559
C  C139  1  0.82170000  0.59870000  0.93970000  1.0 -0.1225694559
C  C140  1  0.63990000  0.93970000  0.59870000  1.0 -0.1225694559
C  C141  1  0.54380000  0.50680000  0.66180000  1.0 -0.1103184053
C  C142  1  0.28760000  0.66180000  0.50680000  1.0 -0.1103184053
C  C143  1  0.74320000  0.70620000  0.96240000  1.0 -0.1103184053
C  C144  1  0.58820000  0.96240000  0.70620000  1.0 -0.1103184053
C  C145  1  0.50310000  0.47830000  0.68930000  1.0 -0.0994197149
C  C146  1  0.32930000  0.68930000  0.47830000  1.0 -0.0994197149
C  C147  1  0.77170000  0.74690000  0.92070000  1.0 -0.0994197149
C  C148  1  0.56070000  0.92070000  0.74690000  1.0 -0.0994197149
C  C149  1  0.56980000  0.37120000  0.66520000  1.0 -0.0878052201
C  C150  1  0.39380000  0.66520000  0.37120000  1.0 -0.0878052201
C  C151  1  0.87880000  0.68020000  0.85620000  1.0 -0.0878052201
C  C152  1  0.58480000  0.85620000  0.68020000  1.0 -0.0878052201
C  C153  1  0.67720000  0.29280000  0.61340000  1.0 -0.1290613827
C  C154  1  0.41660000  0.61340000  0.29280000  1.0 -0.1290613827
C  C155  1  0.95720000  0.57280000  0.83340000  1.0 -0.1290613827
C  C156  1  0.63660000  0.83340000  0.57280000  1.0 -0.1290613827
N  N1  1  0.47750000  0.44490000  0.96470000  1.0 -0.2298605732
N  N2  1  0.11290000  0.96470000  0.44490000  1.0 -0.2298605732
N  N3  1  0.80510000  0.77250000  0.13710000  1.0 -0.2298605732
N  N4  1  0.28530000  0.13710000  0.77250000  1.0 -0.2298605732
N  N5  1  0.25093000  0.32433000  0.80647000  1.0 -0.2168262817
N  N6  1  0.61827000  0.80647000  0.32433000  1.0 -0.2168262817
N  N7  1  0.92567000  0.99907000  0.63173000  1.0 -0.2168262817
N  N8  1  0.44353000  0.63173000  0.99907000  1.0 -0.2168262817
