# DDEC6 charges by PACMAN v1.1 (https://github.com/mtap-research/PACMAN-charge/)
data_TIDMEA_FSR_pacman
_symmetry_space_group_name_H-M   'P 1'
_cell_length_a   15.84300000
_cell_length_b   15.84300000
_cell_length_c   15.84300000
_cell_angle_alpha   139.32300000
_cell_angle_beta   130.14300000
_cell_angle_gamma   66.22870000
_symmetry_Int_Tables_number   1
_chemical_formula_structural   Pr3P4C8O33
_chemical_formula_sum   'Pr6 P8 C16 O66'
_cell_volume   1951.73431199
_cell_formula_units_Z   2
loop_
 _symmetry_equiv_pos_site_id
 _symmetry_equiv_pos_as_xyz
  1  'x, y, z'
loop_
 _atom_site_type_symbol
 _atom_site_label
 _atom_site_symmetry_multiplicity
 _atom_site_fract_x
 _atom_site_fract_y
 _atom_site_fract_z
 _atom_site_occupancy
 _atom_site_charge
Pr  Pr1  1  0.00000000  0.01790000  0.01790000  1.0 1.9768352614
Pr  Pr2  1  0.00000000  0.51790000  0.51790000  1.0 1.9768352614
Pr  Pr3  1  0.93139000  0.51470000  0.88849000  1.0 2.1315232621
Pr  Pr4  1  0.62621000  0.01470000  0.08331000  1.0 2.1315232621
Pr  Pr5  1  0.37379000  0.45710000  0.38849000  1.0 2.1315232621
Pr  Pr6  1  0.06861000  0.95710000  0.58331000  1.0 2.1315232621
P  P1  1  0.98960000  0.21460000  0.59320000  1.0 1.3421938525
P  P2  1  0.62140000  0.71460000  0.72500000  1.0 1.3421938525
P  P3  1  0.37860000  0.10360000  0.09320000  1.0 1.3421938525
P  P4  1  0.01040000  0.60360000  0.22500000  1.0 1.3421938525
P  P5  1  0.11410000  0.97420000  0.26690000  1.0 1.295859109
P  P6  1  0.70730000  0.47420000  0.36010000  1.0 1.3068730142
P  P7  1  0.29270000  0.65280000  0.76690000  1.0 1.3068730142
P  P8  1  0.88590000  0.15280000  0.86010000  1.0 1.3068730142
C  C1  1  0.86550000  0.08700000  0.40970000  1.0 -0.0988273888
C  C2  1  0.67730000  0.58700000  0.72150000  1.0 -0.0988273888
C  C3  1  0.32270000  0.04420000  0.90970000  1.0 -0.0988273888
C  C4  1  0.13450000  0.54420000  0.22150000  1.0 -0.0988273888
C  C5  1  0.84720000  0.94320000  0.26680000  1.0 0.6484746442
C  C6  1  0.67640000  0.44320000  0.59600000  1.0 0.6484746442
C  C7  1  0.32360000  0.91960000  0.76680000  1.0 0.6484746442
C  C8  1  0.15280000  0.41960000  0.09600000  1.0 0.6484746442
C  C9  1  0.97600000  0.87240000  0.10180000  1.0 0.0068193891
C  C10  1  0.77060000  0.37240000  0.39640000  1.0 0.002713715
C  C11  1  0.22940000  0.62580000  0.60180000  1.0 -0.0025965466
C  C12  1  0.02400000  0.12580000  0.89640000  1.0 0.002713715
C  C13  1  0.94060000  0.77750000  0.93250000  1.0 0.6793692813
C  C14  1  0.84500000  0.27750000  0.33690000  1.0 0.6793692813
C  C15  1  0.15500000  0.49190000  0.43250000  1.0 0.6793692813
C  C16  1  0.05940000  0.99190000  0.83690000  1.0 0.6793692813
O  O1  1  0.94650000  0.34480000  0.67290000  1.0 -0.708395627
O  O2  1  0.67190000  0.84480000  0.89830000  1.0 -0.708395627
O  O3  1  0.32810000  0.22640000  0.17290000  1.0 -0.708395627
O  O4  1  0.05350000  0.72640000  0.39830000  1.0 -0.708395627
O  O5  1  0.06600000  0.19050000  0.69810000  1.0 -0.708395627
O  O6  1  0.49240000  0.69050000  0.62450000  1.0 -0.708395627
O  O7  1  0.50760000  0.13210000  0.19810000  1.0 -0.708395627
O  O8  1  0.93400000  0.63210000  0.12450000  1.0 -0.708395627
O  O9  1  0.05590000  0.20280000  0.54530000  1.0 -0.4321310564
O  O10  1  0.65750000  0.70280000  0.64690000  1.0 -0.4321310564
O  O11  1  0.34250000  0.98940000  0.04530000  1.0 -0.4321310564
O  O12  1  0.94410000  0.48940000  0.14690000  1.0 -0.4321310564
O  O13  1  0.77710000  0.15530000  0.39040000  1.0 -0.3334950699
O  O14  1  0.76490000  0.65530000  0.87820000  1.0 -0.3334950699
O  O15  1  0.23510000  0.11330000  0.89040000  1.0 -0.3334950699
O  O16  1  0.22290000  0.61330000  0.37820000  1.0 -0.3334950699
O  O17  1  0.92280000  0.88040000  0.29740000  1.0 -0.4574461176
O  O18  1  0.58300000  0.38040000  0.45760000  1.0 -0.4574461176
O  O19  1  0.41700000  0.87460000  0.79740000  1.0 -0.4574461176
O  O20  1  0.07720000  0.37460000  0.95760000  1.0 -0.4574461176
O  O21  1  0.80160000  0.89080000  0.13040000  1.0 -0.3871328502
O  O22  1  0.76040000  0.39080000  0.58920000  1.0 -0.3871328502
O  O23  1  0.23960000  0.82880000  0.63040000  1.0 -0.3871328502
O  O24  1  0.19840000  0.32880000  0.08920000  1.0 -0.3871328502
O  O25  1  0.13460000  0.03390000  0.41370000  1.0 -0.3979694067
O  O26  1  0.62020000  0.53390000  0.39930000  1.0 -0.3979694067
O  O27  1  0.37980000  0.77910000  0.91370000  1.0 -0.3979694067
O  O28  1  0.86540000  0.27910000  0.89930000  1.0 -0.3979694067
O  O29  1  0.19900000  0.88250000  0.23190000  1.0 -0.5694904222
O  O30  1  0.65060000  0.38250000  0.18350000  1.0 -0.5694904222
O  O31  1  0.34940000  0.53290000  0.73190000  1.0 -0.5694904222
O  O32  1  0.80100000  0.03290000  0.68350000  1.0 -0.5694904222
O  O33  1  0.12020000  0.08140000  0.28420000  1.0 -0.6979656114
O  O34  1  0.79720000  0.58140000  0.46120000  1.0 -0.6979656114
O  O35  1  0.20280000  0.66400000  0.78420000  1.0 -0.6979656114
O  O36  1  0.87980000  0.16400000  0.96120000  1.0 -0.6979656114
O  O37  1  0.97440000  0.78460000  0.10360000  1.0 -0.2345349087
O  O38  1  0.68100000  0.28460000  0.31020000  1.0 -0.2385832502
O  O39  1  0.31900000  0.62920000  0.60360000  1.0 -0.2345349087
O  O40  1  0.02560000  0.12920000  0.81020000  1.0 -0.2345349087
O  O41  1  0.91410000  0.66090000  0.85980000  1.0 -0.4435062824
O  O42  1  0.80110000  0.16090000  0.24680000  1.0 -0.4435062824
O  O43  1  0.19890000  0.44570000  0.35980000  1.0 -0.4435062824
O  O44  1  0.08590000  0.94570000  0.74680000  1.0 -0.4435062824
O  O45  1  0.02220000  0.78250000  0.93710000  1.0 -0.4916396632
O  O46  1  0.84540000  0.28250000  0.26030000  1.0 -0.4916396632
O  O47  1  0.15460000  0.41490000  0.43710000  1.0 -0.4916396632
O  O48  1  0.97780000  0.91490000  0.76030000  1.0 -0.4916396632
O  O49  1  0.81750000  0.32360000  0.74510000  1.0 -0.2812805443
O  O50  1  0.57850000  0.82360000  0.00610000  1.0 -0.2812805443
O  O51  1  0.42150000  0.42760000  0.24510000  1.0 -0.2812805443
O  O52  1  0.18250000  0.92760000  0.50610000  1.0 -0.2812805443
O  O53  1  0.14740000  0.60000000  0.05340000  1.0 -0.3032797469
O  O54  1  0.54660000  0.10000000  0.95260000  1.0 -0.307925174
O  O55  1  0.45340000  0.40600000  0.55340000  1.0 -0.307925174
O  O56  1  0.85260000  0.90600000  0.45260000  1.0 -0.307925174
O  O57  1  0.11380000  0.19080000  0.13440000  1.0 -0.2385832502
O  O58  1  0.05640000  0.69080000  0.57700000  1.0 -0.2385832502
O  O59  1  0.94360000  0.52060000  0.63440000  1.0 -0.2385832502
O  O60  1  0.88620000  0.02060000  0.07700000  1.0 -0.2385832502
O  O61  1  0.16590000  0.94600000  0.00690000  1.0 -0.1714882149
O  O62  1  0.93910000  0.44600000  0.28010000  1.0 -0.1714882149
O  O63  1  0.06090000  0.34100000  0.50690000  1.0 -0.1805326088
O  O64  1  0.83410000  0.84100000  0.78010000  1.0 -0.1805326088
O  O65  1  0.00000000  0.22540000  0.22540000  1.0 -0.2609678997
O  O66  1  0.00000000  0.72540000  0.72540000  1.0 -0.2667546465
