# DDEC6 charges by PACMAN v1.1 (https://github.com/mtap-research/PACMAN-charge/)
data_TIDQIG_ASR_pacman
_symmetry_space_group_name_H-M   'P 1'
_cell_length_a   9.25093000
_cell_length_b   9.25093000
_cell_length_c   23.10400000
_cell_angle_alpha   86.06920000
_cell_angle_beta   93.93080000
_cell_angle_gamma   138.06900000
_symmetry_Int_Tables_number   1
_chemical_formula_structural   Zr2P3HO12F
_chemical_formula_sum   'Zr8 P12 H4 O48 F4'
_cell_volume   1317.69185364
_cell_formula_units_Z   4
loop_
 _symmetry_equiv_pos_site_id
 _symmetry_equiv_pos_as_xyz
  1  'x, y, z'
loop_
 _atom_site_type_symbol
 _atom_site_label
 _atom_site_symmetry_multiplicity
 _atom_site_fract_x
 _atom_site_fract_y
 _atom_site_fract_z
 _atom_site_occupancy
 _atom_site_charge
Zr  Zr1  1  0.64116000  0.35890000  0.70068000  1.0 2.4821056841
Zr  Zr2  1  0.35890000  0.64116000  0.79932000  1.0 2.4821056841
Zr  Zr3  1  0.35884000  0.64110000  0.29932000  1.0 2.4821056841
Zr  Zr4  1  0.64110000  0.35884000  0.20068000  1.0 2.4821056841
Zr  Zr5  1  0.28609000  0.72315000  0.57528000  1.0 2.502586913
Zr  Zr6  1  0.72315000  0.28609000  0.92472000  1.0 2.502586913
Zr  Zr7  1  0.71391000  0.27685000  0.42472000  1.0 2.502586913
Zr  Zr8  1  0.27685000  0.71391000  0.07528000  1.0 2.502586913
P  P1  1  0.19278000  0.80686000  0.70771000  1.0 1.6267796873
P  P2  1  0.80686000  0.19278000  0.79229000  1.0 1.6267796873
P  P3  1  0.80722000  0.19314000  0.29229000  1.0 1.6267796873
P  P4  1  0.19314000  0.80722000  0.20771000  1.0 1.6267796873
P  P5  1  0.73332000  0.27076000  0.56951000  1.0 1.6397177695
P  P6  1  0.27076000  0.73332000  0.93049000  1.0 1.6397177695
P  P7  1  0.26668000  0.72924000  0.43049000  1.0 1.6397177695
P  P8  1  0.72924000  0.26668000  0.06951000  1.0 1.6397177695
P  P9  1  0.48397000  0.37159000  0.83467000  1.0 1.6238730072
P  P10  1  0.37159000  0.48397000  0.66533000  1.0 1.6238730072
P  P11  1  0.51603000  0.62841000  0.16533000  1.0 1.6238730072
P  P12  1  0.62841000  0.51603000  0.33467000  1.0 1.6238730072
H  H1  1  0.18360000  0.11120000  0.80560000  1.0 0.4284370361
H  H2  1  0.11120000  0.18360000  0.69440000  1.0 0.4284370361
H  H3  1  0.81640000  0.88880000  0.19440000  1.0 0.4284370361
H  H4  1  0.88880000  0.81640000  0.30560000  1.0 0.4284370361
O  O1  1  0.95454000  0.67726000  0.70751000  1.0 -0.8124242307
O  O2  1  0.67726000  0.95454000  0.79249000  1.0 -0.8124242307
O  O3  1  0.04546000  0.32274000  0.29249000  1.0 -0.8124242307
O  O4  1  0.32274000  0.04546000  0.20751000  1.0 -0.8124242307
O  O5  1  0.25060000  0.75640000  0.76329000  1.0 -0.8476094337
O  O6  1  0.75640000  0.25060000  0.73671000  1.0 -0.8476094337
O  O7  1  0.74940000  0.24360000  0.23671000  1.0 -0.8476094337
O  O8  1  0.24360000  0.74940000  0.26329000  1.0 -0.8476094337
O  O9  1  0.23150000  0.74730000  0.65547000  1.0 -0.8706287624
O  O10  1  0.74730000  0.23150000  0.84453000  1.0 -0.8706287624
O  O11  1  0.76850000  0.25270000  0.34453000  1.0 -0.8706287624
O  O12  1  0.25270000  0.76850000  0.15547000  1.0 -0.8706287624
O  O13  1  0.33151000  0.04749000  0.70395000  1.0 -0.8627087952
O  O14  1  0.04749000  0.33151000  0.79605000  1.0 -0.8627087952
O  O15  1  0.66849000  0.95251000  0.29605000  1.0 -0.8627087952
O  O16  1  0.95251000  0.66849000  0.20395000  1.0 -0.8627087952
O  O17  1  0.67490000  0.30610000  0.51015000  1.0 -0.8426241459
O  O18  1  0.30610000  0.67490000  0.98985000  1.0 -0.8426241459
O  O19  1  0.32510000  0.69390000  0.48985000  1.0 -0.8426241459
O  O20  1  0.69390000  0.32510000  0.01015000  1.0 -0.8426241459
O  O21  1  0.97337000  0.40923000  0.57198000  1.0 -0.8476094337
O  O22  1  0.40923000  0.97337000  0.92802000  1.0 -0.8476094337
O  O23  1  0.02663000  0.59077000  0.42802000  1.0 -0.8476094337
O  O24  1  0.59077000  0.02663000  0.07198000  1.0 -0.8476094337
O  O25  1  0.68400000  0.33420000  0.61774000  1.0 -0.821793157
O  O26  1  0.33420000  0.68400000  0.88226000  1.0 -0.821793157
O  O27  1  0.31600000  0.66580000  0.38226000  1.0 -0.821793157
O  O28  1  0.66580000  0.31600000  0.11774000  1.0 -0.821793157
O  O29  1  0.58840000  0.40540000  0.78003000  1.0 -0.8316450597
O  O30  1  0.40540000  0.58840000  0.71997000  1.0 -0.8316450597
O  O31  1  0.41160000  0.59460000  0.21997000  1.0 -0.8316450597
O  O32  1  0.59460000  0.41160000  0.28003000  1.0 -0.8316450597
O  O33  1  0.60162000  0.03358000  0.57752000  1.0 -0.8316450597
O  O34  1  0.03358000  0.60162000  0.92248000  1.0 -0.8316450597
O  O35  1  0.39838000  0.96642000  0.42248000  1.0 -0.8316450597
O  O36  1  0.96642000  0.39838000  0.07752000  1.0 -0.8316450597
O  O37  1  0.59710000  0.39050000  0.88975000  1.0 -0.7810139538
O  O38  1  0.39050000  0.59710000  0.61025000  1.0 -0.7810139538
O  O39  1  0.40290000  0.60950000  0.11025000  1.0 -0.7810139538
O  O40  1  0.60950000  0.40290000  0.38975000  1.0 -0.7810139538
O  O41  1  0.47710000  0.53030000  0.83628000  1.0 -0.7990217687
O  O42  1  0.53030000  0.47710000  0.66372000  1.0 -0.7990217687
O  O43  1  0.52290000  0.46970000  0.16372000  1.0 -0.7990217687
O  O44  1  0.46970000  0.52290000  0.33628000  1.0 -0.7990217687
O  O45  1  0.24760000  0.13480000  0.83802000  1.0 -0.5465872766
O  O46  1  0.13480000  0.24760000  0.66198000  1.0 -0.5465872766
O  O47  1  0.75240000  0.86520000  0.16198000  1.0 -0.5465872766
O  O48  1  0.86520000  0.75240000  0.33802000  1.0 -0.5465872766
F  F1  1  0.18165000  0.83915000  0.54390000  1.0 -0.6081890197
F  F2  1  0.83915000  0.18165000  0.95610000  1.0 -0.6081890197
F  F3  1  0.81835000  0.16085000  0.45610000  1.0 -0.6081890197
F  F4  1  0.16085000  0.81835000  0.04390000  1.0 -0.6081890197
