# DDEC6 charges by PACMAN v1.1 (https://github.com/mtap-research/PACMAN-charge/)
data_TIDSEE_ASR_pacman
_symmetry_space_group_name_H-M   'P 1'
_cell_length_a   12.79500000
_cell_length_b   13.03200000
_cell_length_c   20.86400000
_cell_angle_alpha   81.91100000
_cell_angle_beta   84.45000000
_cell_angle_gamma   70.54500000
_symmetry_Int_Tables_number   1
_chemical_formula_structural   Ag4C7(O2F3)3
_chemical_formula_sum   'Ag32 C56 O48 F72'
_cell_volume   3243.04898956
_cell_formula_units_Z   8
loop_
 _symmetry_equiv_pos_site_id
 _symmetry_equiv_pos_as_xyz
  1  'x, y, z'
loop_
 _atom_site_type_symbol
 _atom_site_label
 _atom_site_symmetry_multiplicity
 _atom_site_fract_x
 _atom_site_fract_y
 _atom_site_fract_z
 _atom_site_occupancy
 _atom_site_charge
Ag  Ag1  1  0.92866000  0.43868000  0.31293000  1.0 0.4815958124
Ag  Ag2  1  0.07134000  0.56132000  0.68707000  1.0 0.4815958124
Ag  Ag3  1  0.15015000  0.32891000  0.26326000  1.0 0.4411950551
Ag  Ag4  1  0.84985000  0.67109000  0.73674000  1.0 0.4411950551
Ag  Ag5  1  0.79800000  0.64996000  0.26143000  1.0 0.4042830226
Ag  Ag6  1  0.20200000  0.35004000  0.73857000  1.0 0.4042830226
Ag  Ag7  1  0.20726000  0.52410000  0.25733000  1.0 0.4856772479
Ag  Ag8  1  0.79274000  0.47590000  0.74267000  1.0 0.4815958124
Ag  Ag9  1  0.12271000  0.47717000  0.14216000  1.0 0.4496719894
Ag  Ag10  1  0.87729000  0.52283000  0.85784000  1.0 0.4496719894
Ag  Ag11  1  0.91969000  0.64608000  0.13796000  1.0 0.4042830226
Ag  Ag12  1  0.08031000  0.35392000  0.86204000  1.0 0.4042830226
Ag  Ag13  1  0.97706000  0.73870000  0.24677000  1.0 0.4682244298
Ag  Ag14  1  0.02294000  0.26130000  0.75323000  1.0 0.4682244298
Ag  Ag15  1  0.21759000  0.02018000  0.25864000  1.0 0.5165362117
Ag  Ag16  1  0.78241000  0.97982000  0.74136000  1.0 0.5165362117
Ag  Ag17  1  0.40782000  0.09833000  0.27723000  1.0 0.4303263408
Ag  Ag18  1  0.59218000  0.90167000  0.72277000  1.0 0.4303263408
Ag  Ag19  1  0.24823000  0.78491000  0.26987000  1.0 0.4815958124
Ag  Ag20  1  0.75177000  0.21509000  0.73013000  1.0 0.4682244298
Ag  Ag21  1  0.56165000  0.90570000  0.25134000  1.0 0.4585505184
Ag  Ag22  1  0.43835000  0.09430000  0.74866000  1.0 0.4585505184
Ag  Ag23  1  0.40250000  0.96820000  0.40467000  1.0 0.4682244298
Ag  Ag24  1  0.59750000  0.03180000  0.59533000  1.0 0.4682244298
Ag  Ag25  1  0.30775000  0.80935000  0.39837000  1.0 0.4122449663
Ag  Ag26  1  0.69225000  0.19065000  0.60163000  1.0 0.4122449663
Ag  Ag27  1  0.47744000  0.70816000  0.29053000  1.0 0.4585505184
Ag  Ag28  1  0.52256000  0.29184000  0.70947000  1.0 0.4496719894
Ag  Ag29  1  0.25846000  0.36964000  0.99566000  1.0 0.6137788948
Ag  Ag30  1  0.74154000  0.63036000  0.00434000  1.0 0.6137788948
Ag  Ag31  1  0.18731000  0.68563000  0.54213000  1.0 0.6608710643
Ag  Ag32  1  0.81269000  0.31437000  0.45787000  1.0 0.6608710643
C  C1  1  0.05542000  0.49552000  0.24274000  1.0 -0.4333477908
C  C2  1  0.94458000  0.50448000  0.75726000  1.0 -0.4333477908
C  C3  1  0.96858000  0.58304000  0.23606000  1.0 -0.410620043
C  C4  1  0.03142000  0.41696000  0.76394000  1.0 -0.410620043
C  C5  1  0.35202000  0.86553000  0.30166000  1.0 -0.4415558818
C  C6  1  0.64798000  0.13447000  0.69834000  1.0 -0.4415558818
C  C7  1  0.41029000  0.92950000  0.30785000  1.0 -0.4511005702
C  C8  1  0.58971000  0.07050000  0.69215000  1.0 -0.4511005702
C  C9  1  0.11554000  0.69158000  0.39255000  1.0 0.4496719894
C  C10  1  0.88446000  0.30842000  0.60745000  1.0 0.4496719894
C  C11  1  0.01465000  0.65911000  0.42648000  1.0 0.5700764713
C  C12  1  0.98535000  0.34089000  0.57352000  1.0 0.5700764713
C  C13  1  0.04315000  0.61204000  0.00762000  1.0 0.4303263408
C  C14  1  0.95685000  0.38796000  0.99238000  1.0 0.4411950551
C  C15  1  0.07417000  0.64751000  0.93567000  1.0 0.5786413267
C  C16  1  0.92583000  0.35249000  0.06433000  1.0 0.5786413267
C  C17  1  0.24785000  0.21654000  0.13370000  1.0 0.4496719894
C  C18  1  0.75215000  0.78346000  0.86630000  1.0 0.4496719894
C  C19  1  0.28739000  0.11754000  0.09270000  1.0 0.5786413267
C  C20  1  0.71261000  0.88246000  0.90730000  1.0 0.5786413267
C  C21  1  0.31972000  0.23133000  0.38954000  1.0 0.4303263408
C  C22  1  0.68028000  0.76867000  0.61046000  1.0 0.4303263408
C  C23  1  0.25302000  0.33431000  0.42354000  1.0 0.5786413267
C  C24  1  0.74698000  0.66569000  0.57646000  1.0 0.5786413267
C  C25  1  0.58024000  0.08681000  0.15627000  1.0 0.4232579705
C  C26  1  0.41976000  0.91319000  0.84373000  1.0 0.4232579705
C  C27  1  0.62199000  0.13800000  0.09072000  1.0 0.587964898
C  C28  1  0.37801000  0.86200000  0.90928000  1.0 0.587964898
C  C29  1  0.21391000  0.68898000  0.13759000  1.0 0.4232579705
C  C30  1  0.78609000  0.31102000  0.86241000  1.0 0.4232579705
C  C31  1  0.20659000  0.78348000  0.08190000  1.0 0.5786413267
C  C32  1  0.79341000  0.21652000  0.91810000  1.0 0.5786413267
C  C33  1  0.68955000  0.56498000  0.38310000  1.0 0.4411950551
C  C34  1  0.31045000  0.43502000  0.61690000  1.0 0.4411950551
C  C35  1  0.59500000  0.56304000  0.43548000  1.0 0.5700764713
C  C36  1  0.40500000  0.43696000  0.56452000  1.0 0.5700764713
C  C37  1  0.46373000  0.50866000  0.25208000  1.0 0.4303263408
C  C38  1  0.53627000  0.49134000  0.74792000  1.0 0.4232579705
C  C39  1  0.49326000  0.40576000  0.21470000  1.0 0.5786413267
C  C40  1  0.50674000  0.59424000  0.78530000  1.0 0.5786413267
C  C41  1  0.03982000  0.18987000  0.36772000  1.0 0.4411950551
C  C42  1  0.96018000  0.81013000  0.63228000  1.0 0.4411950551
C  C43  1  0.04939000  0.08798000  0.41891000  1.0 0.5786413267
C  C44  1  0.95061000  0.91202000  0.58109000  1.0 0.5786413267
C  C45  1  0.64603000  0.71509000  0.14207000  1.0 0.4585505184
C  C46  1  0.35397000  0.28491000  0.85793000  1.0 0.4496719894
C  C47  1  0.53136000  0.75131000  0.11028000  1.0 0.5700764713
C  C48  1  0.46864000  0.24869000  0.88972000  1.0 0.5700764713
C  C49  1  0.97032000  0.97328000  0.24694000  1.0 0.4496719894
C  C50  1  0.02968000  0.02672000  0.75306000  1.0 0.4496719894
C  C51  1  0.89861000  0.09533000  0.22936000  1.0 0.5700764713
C  C52  1  0.10139000  0.90467000  0.77064000  1.0 0.5700764713
C  C53  1  0.35530000  0.84191000  0.53346000  1.0 0.4303263408
C  C54  1  0.64470000  0.15809000  0.46654000  1.0 0.4303263408
C  C55  1  0.36995000  0.80217000  0.60648000  1.0 0.5786413267
C  C56  1  0.63005000  0.19783000  0.39352000  1.0 0.5786413267
O  O1  1  0.12353000  0.69755000  0.33138000  1.0 -0.4689578246
O  O2  1  0.87647000  0.30245000  0.66862000  1.0 -0.4689578246
O  O3  1  0.17586000  0.71338000  0.42953000  1.0 -0.4906170436
O  O4  1  0.82414000  0.28662000  0.57047000  1.0 -0.4906170436
O  O5  1  0.95698000  0.67623000  0.03284000  1.0 -0.4333477908
O  O6  1  0.04302000  0.32377000  0.96716000  1.0 -0.4333477908
O  O7  1  0.11072000  0.52293000  0.03298000  1.0 -0.4906170436
O  O8  1  0.88928000  0.47707000  0.96702000  1.0 -0.4906170436
O  O9  1  0.22315000  0.19275000  0.19307000  1.0 -0.4689578246
O  O10  1  0.77685000  0.80725000  0.80693000  1.0 -0.4689578246
O  O11  1  0.23751000  0.31061000  0.10421000  1.0 -0.4803231675
O  O12  1  0.76249000  0.68939000  0.89579000  1.0 -0.4803231675
O  O13  1  0.31659000  0.24737000  0.32749000  1.0 -0.4689578246
O  O14  1  0.68341000  0.75263000  0.67251000  1.0 -0.4689578246
O  O15  1  0.36669000  0.14649000  0.42560000  1.0 -0.4333477908
O  O16  1  0.63331000  0.85351000  0.57440000  1.0 -0.4333477908
O  O17  1  0.49364000  0.14791000  0.18316000  1.0 -0.4567493263
O  O18  1  0.50636000  0.85209000  0.81684000  1.0 -0.4567493263
O  O19  1  0.64053000  0.98882000  0.17380000  1.0 -0.4415558818
O  O20  1  0.35947000  0.01118000  0.82620000  1.0 -0.4415558818
O  O21  1  0.17723000  0.72009000  0.19398000  1.0 -0.4906170436
O  O22  1  0.82277000  0.27991000  0.80602000  1.0 -0.4906170436
O  O23  1  0.24704000  0.59339000  0.12254000  1.0 -0.4511005702
O  O24  1  0.75296000  0.40661000  0.87746000  1.0 -0.4511005702
O  O25  1  0.77454000  0.48036000  0.38495000  1.0 -0.4906170436
O  O26  1  0.22546000  0.51964000  0.61505000  1.0 -0.4906170436
O  O27  1  0.66756000  0.65061000  0.34270000  1.0 -0.4415558818
O  O28  1  0.33244000  0.34939000  0.65730000  1.0 -0.4415558818
O  O29  1  0.54374000  0.54447000  0.25495000  1.0 -0.4415558818
O  O30  1  0.45626000  0.45553000  0.74505000  1.0 -0.4415558818
O  O31  1  0.36515000  0.54866000  0.27507000  1.0 -0.4567493263
O  O32  1  0.63485000  0.45134000  0.72493000  1.0 -0.4567493263
O  O33  1  0.95764000  0.27509000  0.37528000  1.0 -0.4906170436
O  O34  1  0.04236000  0.72491000  0.62472000  1.0 -0.4906170436
O  O35  1  0.11889000  0.17623000  0.32538000  1.0 -0.4689578246
O  O36  1  0.88111000  0.82377000  0.67462000  1.0 -0.4689578246
O  O37  1  0.64508000  0.73509000  0.19975000  1.0 -0.4567493263
O  O38  1  0.35492000  0.26491000  0.80025000  1.0 -0.4511005702
O  O39  1  0.73029000  0.66946000  0.10667000  1.0 -0.4803231675
O  O40  1  0.26971000  0.33054000  0.89333000  1.0 -0.4803231675
O  O41  1  0.91369000  0.90896000  0.25620000  1.0 -0.4415558818
O  O42  1  0.08631000  0.09104000  0.74380000  1.0 -0.4415558818
O  O43  1  0.07395000  0.95187000  0.24609000  1.0 -0.4906170436
O  O44  1  0.92605000  0.04813000  0.75391000  1.0 -0.4906170436
O  O45  1  0.39355000  0.91737000  0.51098000  1.0 -0.3929586503
O  O46  1  0.60645000  0.08263000  0.48902000  1.0 -0.3929586503
O  O47  1  0.31035000  0.78779000  0.50487000  1.0 -0.5059118512
O  O48  1  0.68965000  0.21221000  0.49513000  1.0 -0.5059118512
F  F1  1  0.92743000  0.75324000  0.43530000  1.0 -0.190218145
F  F2  1  0.07257000  0.24676000  0.56470000  1.0 -0.190218145
F  F3  1  0.03941000  0.59909000  0.48577000  1.0 -0.1983679333
F  F4  1  0.96059000  0.40091000  0.51423000  1.0 -0.1983679333
F  F5  1  0.97903000  0.59834000  0.39002000  1.0 -0.1983679333
F  F6  1  0.02097000  0.40166000  0.60998000  1.0 -0.1983679333
F  F7  1  0.98883000  0.72937000  0.90752000  1.0 -0.1815020801
F  F8  1  0.01117000  0.27063000  0.09248000  1.0 -0.1815020801
F  F9  1  0.10076000  0.56019000  0.89872000  1.0 -0.2105238754
F  F10  1  0.89924000  0.43981000  0.10128000  1.0 -0.2105238754
F  F11  1  0.16526000  0.68052000  0.93277000  1.0 -0.190218145
F  F12  1  0.83474000  0.31948000  0.06723000  1.0 -0.190218145
F  F13  1  0.19544000  0.09639000  0.07756000  1.0 -0.1815020801
F  F14  1  0.80456000  0.90361000  0.92244000  1.0 -0.1815020801
F  F15  1  0.35466000  0.02502000  0.12708000  1.0 -0.1983679333
F  F16  1  0.64534000  0.97498000  0.87292000  1.0 -0.1983679333
F  F17  1  0.34499000  0.13768000  0.03635000  1.0 -0.1983679333
F  F18  1  0.65501000  0.86232000  0.96365000  1.0 -0.1983679333
F  F19  1  0.26337000  0.31833000  0.48892000  1.0 -0.190218145
F  F20  1  0.73663000  0.68167000  0.51108000  1.0 -0.190218145
F  F21  1  0.14125000  0.36074000  0.41275000  1.0 -0.2105238754
F  F22  1  0.85875000  0.63926000  0.58725000  1.0 -0.2105238754
F  F23  1  0.28407000  0.42435000  0.39919000  1.0 -0.190218145
F  F24  1  0.71593000  0.57565000  0.60081000  1.0 -0.190218145
F  F25  1  0.71564000  0.16243000  0.09942000  1.0 -0.1815020801
F  F26  1  0.28436000  0.83757000  0.90058000  1.0 -0.1815020801
F  F27  1  0.54266000  0.23245000  0.06651000  1.0 -0.190218145
F  F28  1  0.45734000  0.76755000  0.93349000  1.0 -0.190218145
F  F29  1  0.64764000  0.06627000  0.04468000  1.0 -0.190218145
F  F30  1  0.35236000  0.93373000  0.95532000  1.0 -0.1983679333
F  F31  1  0.09764000  0.82443000  0.06357000  1.0 -0.1983679333
F  F32  1  0.90236000  0.17557000  0.93643000  1.0 -0.1983679333
F  F33  1  0.23274000  0.86822000  0.10070000  1.0 -0.190218145
F  F34  1  0.76726000  0.13178000  0.89930000  1.0 -0.190218145
F  F35  1  0.27375000  0.74780000  0.02955000  1.0 -0.1815020801
F  F36  1  0.72625000  0.25220000  0.97045000  1.0 -0.1815020801
F  F37  1  0.53941000  0.66516000  0.45334000  1.0 -0.190218145
F  F38  1  0.46059000  0.33484000  0.54666000  1.0 -0.190218145
F  F39  1  0.52008000  0.52653000  0.40989000  1.0 -0.190218145
F  F40  1  0.47992000  0.47347000  0.59011000  1.0 -0.190218145
F  F41  1  0.63330000  0.49457000  0.49013000  1.0 -0.1983679333
F  F42  1  0.36670000  0.50543000  0.50987000  1.0 -0.1983679333
F  F43  1  0.40024000  0.37680000  0.21029000  1.0 -0.1815020801
F  F44  1  0.59976000  0.62320000  0.78971000  1.0 -0.1815020801
F  F45  1  0.57112000  0.31743000  0.24536000  1.0 -0.190218145
F  F46  1  0.42888000  0.68257000  0.75464000  1.0 -0.190218145
F  F47  1  0.53439000  0.42743000  0.15320000  1.0 -0.190218145
F  F48  1  0.46561000  0.57257000  0.84680000  1.0 -0.190218145
F  F49  1  0.13693000  0.07161000  0.45692000  1.0 -0.190218145
F  F50  1  0.86307000  0.92839000  0.54308000  1.0 -0.190218145
F  F51  1  0.06964000  0.99462000  0.38942000  1.0 -0.1983679333
F  F52  1  0.93036000  0.00538000  0.61058000  1.0 -0.1983679333
F  F53  1  0.95554000  0.09977000  0.45877000  1.0 -0.1983679333
F  F54  1  0.04446000  0.90023000  0.54123000  1.0 -0.1983679333
F  F55  1  0.44496000  0.78881000  0.15465000  1.0 -0.1983679333
F  F56  1  0.55504000  0.21119000  0.84535000  1.0 -0.1983679333
F  F57  1  0.52639000  0.83325000  0.06104000  1.0 -0.190218145
F  F58  1  0.47361000  0.16675000  0.93896000  1.0 -0.190218145
F  F59  1  0.51618000  0.66531000  0.08564000  1.0 -0.1983679333
F  F60  1  0.48382000  0.33469000  0.91436000  1.0 -0.1983679333
F  F61  1  0.92228000  0.16640000  0.26486000  1.0 -0.1983679333
F  F62  1  0.07772000  0.83360000  0.73514000  1.0 -0.1983679333
F  F63  1  0.78782000  0.11211000  0.23810000  1.0 -0.1815020801
F  F64  1  0.21218000  0.88789000  0.76190000  1.0 -0.1815020801
F  F65  1  0.92402000  0.12227000  0.16527000  1.0 -0.190218145
F  F66  1  0.07598000  0.87773000  0.83473000  1.0 -0.190218145
F  F67  1  0.46847000  0.71626000  0.61202000  1.0 -0.190218145
F  F68  1  0.53153000  0.28374000  0.38798000  1.0 -0.190218145
F  F69  1  0.28555000  0.76397000  0.63399000  1.0 -0.1983679333
F  F70  1  0.71445000  0.23603000  0.36601000  1.0 -0.1983679333
F  F71  1  0.37455000  0.88212000  0.64080000  1.0 -0.1815020801
F  F72  1  0.62545000  0.11788000  0.35920000  1.0 -0.1815020801
