# DDEC6 charges by PACMAN v1.1 (https://github.com/mtap-research/PACMAN-charge/)
data_TIFRAE_ASR_pacman
_symmetry_space_group_name_H-M   'P 1'
_cell_length_a   10.24900000
_cell_length_b   14.98350000
_cell_length_c   22.53700000
_cell_angle_alpha   107.92800000
_cell_angle_beta   91.71400000
_cell_angle_gamma   98.77100000
_symmetry_Int_Tables_number   1
_chemical_formula_structural   CdH38C66Br(N2O)2
_chemical_formula_sum   'Cd2 H76 C132 Br2 N8 O4'
_cell_volume   3243.47232917
_cell_formula_units_Z   2
loop_
 _symmetry_equiv_pos_site_id
 _symmetry_equiv_pos_as_xyz
  1  'x, y, z'
loop_
 _atom_site_type_symbol
 _atom_site_label
 _atom_site_symmetry_multiplicity
 _atom_site_fract_x
 _atom_site_fract_y
 _atom_site_fract_z
 _atom_site_occupancy
 _atom_site_charge
Cd  Cd1  1  0.04970000  0.22974000  0.71676000  1.0 0.6381675059
Cd  Cd2  1  0.95030000  0.77026000  0.28324000  1.0 0.6381675059
H  H1  1  0.19662000  0.04667000  0.66436000  1.0 0.0923893059
H  H2  1  0.16291000  0.88572000  0.61310000  1.0 0.1383418813
H  H3  1  0.81809000  0.91382000  0.54359000  1.0 0.1383418813
H  H4  1  0.85170000  0.06536000  0.60838000  1.0 0.1107446885
H  H5  1  0.96296000  0.56400000  0.42800000  1.0 0.1209671107
H  H6  1  0.73277000  0.33120000  0.44425000  1.0 0.1209671107
H  H7  1  0.75665000  0.58581000  0.57934000  1.0 0.1303869106
H  H8  1  0.30928000  0.28768000  0.53350000  1.0 0.1383418813
H  H9  1  0.14310000  0.23711000  0.58452000  1.0 0.0998697505
H  H10  1  0.36572000  0.29941000  0.73523000  1.0 0.0998697505
H  H11  1  0.54606000  0.35473000  0.69061000  1.0 0.1383418813
H  H12  1  0.81480000  0.00819000  0.23841000  1.0 0.1107446885
H  H13  1  0.67486000  0.03481000  0.25396000  1.0 0.1209671107
H  H14  1  0.73078000  0.03759000  0.19044000  1.0 0.1107446885
H  H15  1  0.93091000  0.06622000  0.16216000  1.0 0.1303869106
H  H16  1  0.07828000  0.46748000  0.28930000  1.0 0.1209671107
H  H17  1  0.26295000  0.52307000  0.25791000  1.0 0.1209671107
H  H18  1  0.55903000  0.44872000  0.18101000  1.0 0.1107446885
H  H19  1  0.65225000  0.54844000  0.12976000  1.0 0.1107446885
H  H20  1  0.52134000  0.61509000  0.07827000  1.0 0.1209671107
H  H21  1  0.29720000  0.58202000  0.07803000  1.0 0.1107446885
H  H22  1  0.20398000  0.48228000  0.12928000  1.0 0.1209671107
H  H23  1  0.39289000  0.22583000  0.16823000  1.0 0.1209671107
H  H24  1  0.62075000  0.25649000  0.32072000  1.0 0.1209671107
H  H25  1  0.53786000  0.16931000  0.22221000  1.0 0.1107446885
H  H26  1  0.57833000  0.40562000  0.36571000  1.0 0.1107446885
H  H27  1  0.43053000  0.46541000  0.31176000  1.0 0.0998697505
H  H28  1  0.36685000  0.12522000  0.99418000  1.0 0.1303869106
H  H29  1  0.40987000  0.86681000  0.88286000  1.0 0.1209671107
H  H30  1  0.12316000  0.89283000  0.00166000  1.0 0.1303869106
H  H31  1  0.21999000  0.59257000  0.76936000  1.0 0.1383418813
H  H32  1  0.17052000  0.43541000  0.71278000  1.0 0.0998697505
H  H33  1  0.01408000  0.37539000  0.85457000  1.0 0.0998697505
H  H34  1  0.05199000  0.53004000  0.91428000  1.0 0.1383418813
H  H35  1  0.60098000  0.20969000  0.82411000  1.0 0.1303869106
H  H36  1  0.76835000  0.26505000  0.77321000  1.0 0.0998697505
H  H37  1  0.98959000  0.09471000  0.80173000  1.0 0.0998697505
H  H38  1  0.83178000  0.03258000  0.85571000  1.0 0.1383418813
H  H39  1  0.80338000  0.95333000  0.33564000  1.0 0.0923893059
H  H40  1  0.83709000  0.11428000  0.38690000  1.0 0.1383418813
H  H41  1  0.18191000  0.08618000  0.45641000  1.0 0.1383418813
H  H42  1  0.14830000  0.93464000  0.39162000  1.0 0.1107446885
H  H43  1  0.03704000  0.43600000  0.57200000  1.0 0.1209671107
H  H44  1  0.26723000  0.66880000  0.55575000  1.0 0.1209671107
H  H45  1  0.24335000  0.41419000  0.42066000  1.0 0.1303869106
H  H46  1  0.69072000  0.71232000  0.46650000  1.0 0.1383418813
H  H47  1  0.85690000  0.76289000  0.41548000  1.0 0.0998697505
H  H48  1  0.63428000  0.70059000  0.26477000  1.0 0.0998697505
H  H49  1  0.45394000  0.64527000  0.30939000  1.0 0.1383418813
H  H50  1  0.18520000  0.99181000  0.76159000  1.0 0.1107446885
H  H51  1  0.32514000  0.96519000  0.74604000  1.0 0.1209671107
H  H52  1  0.26922000  0.96241000  0.80956000  1.0 0.1107446885
H  H53  1  0.06909000  0.93378000  0.83784000  1.0 0.1303869106
H  H54  1  0.92172000  0.53252000  0.71070000  1.0 0.1209671107
H  H55  1  0.73705000  0.47693000  0.74209000  1.0 0.1209671107
H  H56  1  0.44097000  0.55128000  0.81899000  1.0 0.1107446885
H  H57  1  0.34775000  0.45156000  0.87024000  1.0 0.1107446885
H  H58  1  0.47866000  0.38491000  0.92173000  1.0 0.1209671107
H  H59  1  0.70280000  0.41798000  0.92197000  1.0 0.1107446885
H  H60  1  0.79602000  0.51772000  0.87072000  1.0 0.1209671107
H  H61  1  0.60711000  0.77417000  0.83177000  1.0 0.1209671107
H  H62  1  0.37925000  0.74351000  0.67928000  1.0 0.1209671107
H  H63  1  0.46214000  0.83069000  0.77779000  1.0 0.1107446885
H  H64  1  0.42167000  0.59438000  0.63429000  1.0 0.1107446885
H  H65  1  0.56947000  0.53459000  0.68824000  1.0 0.0998697505
H  H66  1  0.63315000  0.87478000  0.00582000  1.0 0.1303869106
H  H67  1  0.59013000  0.13319000  0.11714000  1.0 0.1209671107
H  H68  1  0.87684000  0.10717000  0.99834000  1.0 0.1209671107
H  H69  1  0.78001000  0.40743000  0.23064000  1.0 0.1383418813
H  H70  1  0.82948000  0.56459000  0.28722000  1.0 0.0998697505
H  H71  1  0.98592000  0.62461000  0.14543000  1.0 0.0998697505
H  H72  1  0.94801000  0.46996000  0.08572000  1.0 0.1383418813
H  H73  1  0.39902000  0.79031000  0.17589000  1.0 0.1303869106
H  H74  1  0.23165000  0.73495000  0.22679000  1.0 0.0998697505
H  H75  1  0.01041000  0.90529000  0.19827000  1.0 0.0998697505
H  H76  1  0.16822000  0.96742000  0.14429000  1.0 0.1383418813
C  C1  1  0.11300000  0.01750000  0.64470000  1.0 0.0557769833
C  C2  1  0.09430000  0.91960000  0.61270000  1.0 -0.1885489321
C  C3  1  0.97950000  0.87580000  0.58200000  1.0 0.1695695772
C  C4  1  0.89020000  0.93660000  0.57330000  1.0 -0.1991538699
C  C5  1  0.91560000  0.02820000  0.61030000  1.0 0.048927004
C  C6  1  0.94840000  0.77590000  0.55300000  1.0 -0.1007370671
C  C7  1  0.91610000  0.69120000  0.53130000  1.0 -0.0710269857
C  C8  1  0.86690000  0.59090000  0.50720000  1.0 0.1209671107
C  C9  1  0.90380000  0.53590000  0.45020000  1.0 -0.1803846305
C  C10  1  0.85240000  0.43890000  0.42630000  1.0 0.1303869106
C  C11  1  0.76540000  0.39610000  0.45970000  1.0 -0.2095702019
C  C12  1  0.72670000  0.45170000  0.51740000  1.0 0.1383418813
C  C13  1  0.77980000  0.54910000  0.54100000  1.0 -0.1991538699
C  C14  1  0.63130000  0.40850000  0.55000000  1.0 -0.0587259403
C  C15  1  0.54990000  0.37350000  0.57630000  1.0 -0.0902291545
C  C16  1  0.44680000  0.33130000  0.60530000  1.0 0.1814510727
C  C17  1  0.32490000  0.29270000  0.57540000  1.0 -0.1991538699
C  C18  1  0.22580000  0.26150000  0.60640000  1.0 0.0674465055
C  C19  1  0.35490000  0.29770000  0.69380000  1.0 0.048927004
C  C20  1  0.46420000  0.33200000  0.66780000  1.0 -0.2095702019
C  C21  1  0.89050000  0.38140000  0.36860000  1.0 -0.1007370671
C  C22  1  0.92100000  0.33290000  0.32070000  1.0 -0.0710269857
C  C23  1  0.75350000  0.04870000  0.23400000  1.0 -0.2501085794
C  C24  1  0.91380000  0.18370000  0.23430000  1.0 0.2184246608
C  C25  1  0.96440000  0.13060000  0.18040000  1.0 -0.2874385512
C  C26  1  0.06690000  0.17590000  0.15390000  1.0 0.0386217253
C  C27  1  0.11930000  0.27010000  0.18220000  1.0 0.1695695772
C  C28  1  0.06760000  0.32480000  0.23730000  1.0 -0.0214213358
C  C29  1  0.96590000  0.28010000  0.26290000  1.0 -0.0117954353
C  C30  1  0.12290000  0.42600000  0.26090000  1.0 -0.0902291545
C  C31  1  0.23070000  0.45800000  0.24310000  1.0 -0.1885489321
C  C32  1  0.30800000  0.39330000  0.19860000  1.0 0.2184246608
C  C33  1  0.37300000  0.45640000  0.15980000  1.0 0.0386217253
C  C34  1  0.50550000  0.47600000  0.16000000  1.0 -0.1526662057
C  C35  1  0.56060000  0.53490000  0.12970000  1.0 -0.1079689906
C  C36  1  0.48320000  0.57430000  0.09920000  1.0 -0.118500196
C  C37  1  0.35070000  0.55480000  0.09910000  1.0 -0.118500196
C  C38  1  0.29560000  0.49580000  0.12940000  1.0 -0.1408498047
C  C39  1  0.40010000  0.35070000  0.23310000  1.0 0.0286259854
C  C40  1  0.43000000  0.26330000  0.20790000  1.0 -0.1306126635
C  C41  1  0.56600000  0.28170000  0.29880000  1.0 -0.0902291545
C  C42  1  0.51530000  0.22900000  0.24050000  1.0 -0.1079689906
C  C43  1  0.53980000  0.36940000  0.32600000  1.0 -0.1007370671
C  C44  1  0.45260000  0.40560000  0.29340000  1.0 -0.1612194425
C  C45  1  0.12340000  0.12030000  0.09990000  1.0 -0.0710269857
C  C46  1  0.17200000  0.07480000  0.05750000  1.0 -0.1007370671
C  C47  1  0.23640000  0.01820000  0.00670000  1.0 0.1383418813
C  C48  1  0.34040000  0.05950000  0.98060000  1.0 -0.2095702019
C  C49  1  0.40510000  0.00220000  0.93390000  1.0 0.1383418813
C  C50  1  0.36500000  0.90460000  0.91340000  1.0 -0.1991538699
C  C51  1  0.25940000  0.86230000  0.93750000  1.0 0.1383418813
C  C52  1  0.19440000  0.92020000  0.98490000  1.0 -0.2205922788
C  C53  1  0.21410000  0.76380000  0.91190000  1.0 -0.0710269857
C  C54  1  0.18150000  0.67950000  0.88530000  1.0 -0.1079689906
C  C55  1  0.14710000  0.58220000  0.84970000  1.0 0.1695695772
C  C56  1  0.17860000  0.54950000  0.78790000  1.0 -0.1991538699
C  C57  1  0.14950000  0.45480000  0.75420000  1.0 0.0767733136
C  C58  1  0.05680000  0.42030000  0.83780000  1.0 0.0386217253
C  C59  1  0.07980000  0.51240000  0.87400000  1.0 -0.2095702019
C  C60  1  0.50970000  0.04440000  0.90550000  1.0 -0.0800279921
C  C61  1  0.59410000  0.07620000  0.87780000  1.0 -0.118500196
C  C62  1  0.69500000  0.11300000  0.84500000  1.0 0.1859068924
C  C63  1  0.67840000  0.18390000  0.82000000  1.0 -0.2095702019
C  C64  1  0.77960000  0.21560000  0.78860000  1.0 0.0767733136
C  C65  1  0.90900000  0.11640000  0.80550000  1.0 0.048927004
C  C66  1  0.81510000  0.07910000  0.83840000  1.0 -0.1991538699
C  C67  1  0.88700000  0.98250000  0.35530000  1.0 0.0557769833
C  C68  1  0.90570000  0.08040000  0.38730000  1.0 -0.1885489321
C  C69  1  0.02050000  0.12420000  0.41800000  1.0 0.1695695772
C  C70  1  0.10980000  0.06340000  0.42670000  1.0 -0.1991538699
C  C71  1  0.08440000  0.97180000  0.38970000  1.0 0.048927004
C  C72  1  0.05160000  0.22410000  0.44700000  1.0 -0.1007370671
C  C73  1  0.08390000  0.30880000  0.46870000  1.0 -0.0710269857
C  C74  1  0.13310000  0.40910000  0.49280000  1.0 0.1209671107
C  C75  1  0.09620000  0.46410000  0.54980000  1.0 -0.1803846305
C  C76  1  0.14760000  0.56110000  0.57370000  1.0 0.1303869106
C  C77  1  0.23460000  0.60390000  0.54030000  1.0 -0.2095702019
C  C78  1  0.27330000  0.54830000  0.48260000  1.0 0.1383418813
C  C79  1  0.22020000  0.45090000  0.45900000  1.0 -0.1991538699
C  C80  1  0.36870000  0.59150000  0.45000000  1.0 -0.0587259403
C  C81  1  0.45010000  0.62650000  0.42370000  1.0 -0.0902291545
C  C82  1  0.55320000  0.66870000  0.39470000  1.0 0.1814510727
C  C83  1  0.67510000  0.70730000  0.42460000  1.0 -0.1991538699
C  C84  1  0.77420000  0.73850000  0.39360000  1.0 0.0674465055
C  C85  1  0.64510000  0.70230000  0.30620000  1.0 0.048927004
C  C86  1  0.53580000  0.66800000  0.33220000  1.0 -0.2095702019
C  C87  1  0.10950000  0.61860000  0.63140000  1.0 -0.1007370671
C  C88  1  0.07900000  0.66710000  0.67930000  1.0 -0.0710269857
C  C89  1  0.24650000  0.95130000  0.76600000  1.0 -0.2501085794
C  C90  1  0.08620000  0.81630000  0.76570000  1.0 0.2184246608
C  C91  1  0.03560000  0.86940000  0.81960000  1.0 -0.2874385512
C  C92  1  0.93310000  0.82410000  0.84610000  1.0 0.0386217253
C  C93  1  0.88070000  0.72990000  0.81780000  1.0 0.1695695772
C  C94  1  0.93240000  0.67520000  0.76270000  1.0 -0.0214213358
C  C95  1  0.03410000  0.71990000  0.73710000  1.0 -0.0117954353
C  C96  1  0.87710000  0.57400000  0.73910000  1.0 -0.0902291545
C  C97  1  0.76930000  0.54200000  0.75690000  1.0 -0.1885489321
C  C98  1  0.69200000  0.60670000  0.80140000  1.0 0.2184246608
C  C99  1  0.62700000  0.54360000  0.84020000  1.0 0.0386217253
C  C100  1  0.49450000  0.52400000  0.84000000  1.0 -0.1526662057
C  C101  1  0.43940000  0.46510000  0.87030000  1.0 -0.1079689906
C  C102  1  0.51680000  0.42570000  0.90080000  1.0 -0.1306126635
C  C103  1  0.64930000  0.44520000  0.90090000  1.0 -0.118500196
C  C104  1  0.70440000  0.50420000  0.87060000  1.0 -0.1408498047
C  C105  1  0.59990000  0.64930000  0.76690000  1.0 0.0286259854
C  C106  1  0.57000000  0.73670000  0.79210000  1.0 -0.1306126635
C  C107  1  0.43400000  0.71830000  0.70120000  1.0 -0.0902291545
C  C108  1  0.48470000  0.77100000  0.75950000  1.0 -0.1079689906
C  C109  1  0.46020000  0.63060000  0.67400000  1.0 -0.1007370671
C  C110  1  0.54740000  0.59440000  0.70660000  1.0 -0.1612194425
C  C111  1  0.87660000  0.87970000  0.90010000  1.0 -0.0710269857
C  C112  1  0.82800000  0.92520000  0.94250000  1.0 -0.1007370671
C  C113  1  0.76360000  0.98180000  0.99330000  1.0 0.1383418813
C  C114  1  0.65960000  0.94050000  0.01940000  1.0 -0.2095702019
C  C115  1  0.59490000  0.99780000  0.06610000  1.0 0.1383418813
C  C116  1  0.63500000  0.09540000  0.08660000  1.0 -0.1991538699
C  C117  1  0.74060000  0.13770000  0.06250000  1.0 0.1383418813
C  C118  1  0.80560000  0.07980000  0.01510000  1.0 -0.2095702019
C  C119  1  0.78590000  0.23620000  0.08810000  1.0 -0.0710269857
C  C120  1  0.81850000  0.32050000  0.11470000  1.0 -0.1079689906
C  C121  1  0.85290000  0.41780000  0.15030000  1.0 0.1695695772
C  C122  1  0.82140000  0.45050000  0.21210000  1.0 -0.1991538699
C  C123  1  0.85050000  0.54520000  0.24580000  1.0 0.0767733136
C  C124  1  0.94320000  0.57970000  0.16220000  1.0 0.0386217253
C  C125  1  0.92020000  0.48760000  0.12600000  1.0 -0.2095702019
C  C126  1  0.49030000  0.95560000  0.09450000  1.0 -0.0800279921
C  C127  1  0.40590000  0.92380000  0.12220000  1.0 -0.118500196
C  C128  1  0.30500000  0.88700000  0.15500000  1.0 0.1859068924
C  C129  1  0.32160000  0.81610000  0.18000000  1.0 -0.2095702019
C  C130  1  0.22040000  0.78440000  0.21140000  1.0 0.0767733136
C  C131  1  0.09100000  0.88360000  0.19450000  1.0 0.048927004
C  C132  1  0.18490000  0.92090000  0.16160000  1.0 -0.1991538699
Br  Br1  1  0.86067000  0.28937000  0.63769000  1.0 -0.6197738594
Br  Br2  1  0.13933000  0.71063000  0.36231000  1.0 -0.6197738594
N  N1  1  0.02270000  0.07050000  0.64900000  1.0 -0.2308907753
N  N2  1  0.23760000  0.26310000  0.66430000  1.0 -0.2205922788
N  N3  1  0.09230000  0.38930000  0.77820000  1.0 -0.2308907753
N  N4  1  0.88890000  0.18200000  0.77900000  1.0 -0.2205922788
N  N5  1  0.97730000  0.92950000  0.35100000  1.0 -0.2308907753
N  N6  1  0.76240000  0.73690000  0.33570000  1.0 -0.2205922788
N  N7  1  0.90770000  0.61070000  0.22180000  1.0 -0.2308907753
N  N8  1  0.11110000  0.81800000  0.22100000  1.0 -0.2205922788
O  O1  1  0.81380000  0.14730000  0.26320000  1.0 -0.1408498047
O  O2  1  0.21300000  0.31470000  0.15480000  1.0 -0.2095702019
O  O3  1  0.18620000  0.85270000  0.73680000  1.0 -0.1408498047
O  O4  1  0.78700000  0.68530000  0.84520000  1.0 -0.2095702019
