# DDEC6 charges by PACMAN v1.1 (https://github.com/mtap-research/PACMAN-charge/)
data_TIGFUN_ASR_pacman
_symmetry_space_group_name_H-M   'P 1'
_cell_length_a   15.36700000
_cell_length_b   15.36700000
_cell_length_c   20.85900000
_cell_angle_alpha   90.00000000
_cell_angle_beta   90.00000000
_cell_angle_gamma   120.00000000
_symmetry_Int_Tables_number   1
_chemical_formula_structural   Co3H36C48S12O13
_chemical_formula_sum   'Co6 H72 C96 S24 O26'
_cell_volume   4265.81776325
_cell_formula_units_Z   2
loop_
 _symmetry_equiv_pos_site_id
 _symmetry_equiv_pos_as_xyz
  1  'x, y, z'
loop_
 _atom_site_type_symbol
 _atom_site_label
 _atom_site_symmetry_multiplicity
 _atom_site_fract_x
 _atom_site_fract_y
 _atom_site_fract_z
 _atom_site_occupancy
 _atom_site_charge
Co  Co1  1  0.48671000  0.74335000  0.25000000  1.0 1.0972911163
Co  Co2  1  0.25665000  0.51329000  0.25000000  1.0 1.0972911163
Co  Co3  1  0.25665000  0.74335000  0.25000000  1.0 1.0972911163
Co  Co4  1  0.51329000  0.25665000  0.75000000  1.0 1.0972911163
Co  Co5  1  0.74335000  0.48671000  0.75000000  1.0 1.0972911163
Co  Co6  1  0.74335000  0.25665000  0.75000000  1.0 1.0972911163
H  H1  1  0.37510000  0.27990000  0.96580000  1.0 0.064928111
H  H2  1  0.39950000  0.30250000  0.89260000  1.0 0.0810319449
H  H3  1  0.32750000  0.33280000  0.92660000  1.0 0.064928111
H  H4  1  0.28090000  0.37570000  0.02800000  1.0 0.070550622
H  H5  1  0.29410000  0.41120000  0.09960000  1.0 0.0810319449
H  H6  1  0.32320000  0.33100000  0.07870000  1.0 0.070550622
H  H7  1  0.90480000  0.62490000  0.96580000  1.0 0.064928111
H  H8  1  0.90300000  0.60050000  0.89260000  1.0 0.0810319449
H  H9  1  0.00530000  0.67250000  0.92660000  1.0 0.064928111
H  H10  1  0.09480000  0.71910000  0.02800000  1.0 0.070550622
H  H11  1  0.11710000  0.70590000  0.09960000  1.0 0.0810319449
H  H12  1  0.00780000  0.67680000  0.07870000  1.0 0.070550622
H  H13  1  0.72010000  0.09520000  0.96580000  1.0 0.070550622
H  H14  1  0.69750000  0.09700000  0.89260000  1.0 0.0810319449
H  H15  1  0.66720000  0.99470000  0.92660000  1.0 0.064928111
H  H16  1  0.62430000  0.90520000  0.02800000  1.0 0.070550622
H  H17  1  0.58880000  0.88290000  0.09960000  1.0 0.0810319449
H  H18  1  0.66900000  0.99220000  0.07870000  1.0 0.070550622
H  H19  1  0.90480000  0.27990000  0.53420000  1.0 0.064928111
H  H20  1  0.90300000  0.30250000  0.60740000  1.0 0.0810319449
H  H21  1  0.00530000  0.33280000  0.57340000  1.0 0.064928111
H  H22  1  0.09480000  0.37570000  0.47200000  1.0 0.070550622
H  H23  1  0.11710000  0.41120000  0.40040000  1.0 0.0810319449
H  H24  1  0.00780000  0.33100000  0.42130000  1.0 0.070550622
H  H25  1  0.72010000  0.62490000  0.53420000  1.0 0.064928111
H  H26  1  0.69750000  0.60050000  0.60740000  1.0 0.0810319449
H  H27  1  0.66720000  0.67250000  0.57340000  1.0 0.064928111
H  H28  1  0.62430000  0.71910000  0.47200000  1.0 0.070550622
H  H29  1  0.58880000  0.70590000  0.40040000  1.0 0.0810319449
H  H30  1  0.66900000  0.67680000  0.42130000  1.0 0.070550622
H  H31  1  0.37510000  0.09520000  0.53420000  1.0 0.064928111
H  H32  1  0.39950000  0.09700000  0.60740000  1.0 0.0810319449
H  H33  1  0.32750000  0.99470000  0.57340000  1.0 0.064928111
H  H34  1  0.28090000  0.90520000  0.47200000  1.0 0.070550622
H  H35  1  0.29410000  0.88290000  0.40040000  1.0 0.0810319449
H  H36  1  0.32320000  0.99220000  0.42130000  1.0 0.070550622
H  H37  1  0.62490000  0.72010000  0.03420000  1.0 0.064928111
H  H38  1  0.60050000  0.69750000  0.10740000  1.0 0.0810319449
H  H39  1  0.67250000  0.66720000  0.07340000  1.0 0.064928111
H  H40  1  0.71910000  0.62430000  0.97200000  1.0 0.070550622
H  H41  1  0.70590000  0.58880000  0.90040000  1.0 0.0810319449
H  H42  1  0.67680000  0.66900000  0.92130000  1.0 0.070550622
H  H43  1  0.09520000  0.37510000  0.03420000  1.0 0.064928111
H  H44  1  0.09700000  0.39950000  0.10740000  1.0 0.0810319449
H  H45  1  0.99470000  0.32750000  0.07340000  1.0 0.064928111
H  H46  1  0.90520000  0.28090000  0.97200000  1.0 0.070550622
H  H47  1  0.88290000  0.29410000  0.90040000  1.0 0.0810319449
H  H48  1  0.99220000  0.32320000  0.92130000  1.0 0.070550622
H  H49  1  0.27990000  0.90480000  0.03420000  1.0 0.064928111
H  H50  1  0.30250000  0.90300000  0.10740000  1.0 0.0810319449
H  H51  1  0.33280000  0.00530000  0.07340000  1.0 0.064928111
H  H52  1  0.37570000  0.09480000  0.97200000  1.0 0.070550622
H  H53  1  0.41120000  0.11710000  0.90040000  1.0 0.0810319449
H  H54  1  0.33100000  0.00780000  0.92130000  1.0 0.070550622
H  H55  1  0.09520000  0.72010000  0.46580000  1.0 0.064928111
H  H56  1  0.09700000  0.69750000  0.39260000  1.0 0.0810319449
H  H57  1  0.99470000  0.66720000  0.42660000  1.0 0.064928111
H  H58  1  0.90520000  0.62430000  0.52800000  1.0 0.070550622
H  H59  1  0.88290000  0.58880000  0.59960000  1.0 0.0810319449
H  H60  1  0.99220000  0.66900000  0.57870000  1.0 0.070550622
H  H61  1  0.27990000  0.37510000  0.46580000  1.0 0.064928111
H  H62  1  0.30250000  0.39950000  0.39260000  1.0 0.0810319449
H  H63  1  0.33280000  0.32750000  0.42660000  1.0 0.064928111
H  H64  1  0.37570000  0.28090000  0.52800000  1.0 0.070550622
H  H65  1  0.41120000  0.29410000  0.59960000  1.0 0.0810319449
H  H66  1  0.33100000  0.32320000  0.57870000  1.0 0.070550622
H  H67  1  0.62490000  0.90480000  0.46580000  1.0 0.064928111
H  H68  1  0.60050000  0.90300000  0.39260000  1.0 0.0810319449
H  H69  1  0.67250000  0.00530000  0.42660000  1.0 0.064928111
H  H70  1  0.71910000  0.09480000  0.52800000  1.0 0.070550622
H  H71  1  0.70590000  0.11710000  0.59960000  1.0 0.0810319449
H  H72  1  0.67680000  0.00780000  0.57870000  1.0 0.070550622
C  C1  1  0.43010000  0.56950000  0.15580000  1.0 0.5488916977
C  C2  1  0.46180000  0.54360000  0.09430000  1.0 -0.1341431048
C  C3  1  0.49600000  0.49500000  0.99960000  1.0 -0.0427435124
C  C4  1  0.57070000  0.57190000  0.00000000  1.0 -0.0461358873
C  C5  1  0.38620000  0.32620000  0.93180000  1.0 -0.1213305385
C  C6  1  0.47530000  0.42810000  0.94830000  1.0 0.0029132687
C  C7  1  0.42750000  0.47340000  0.05110000  1.0 0.0084849368
C  C8  1  0.32180000  0.38980000  0.06570000  1.0 -0.1213305385
C  C9  1  0.13940000  0.56990000  0.15580000  1.0 0.5488916977
C  C10  1  0.08180000  0.53820000  0.09430000  1.0 -0.1341431048
C  C11  1  0.99900000  0.50400000  0.99960000  1.0 -0.0427435124
C  C12  1  0.00120000  0.42930000  0.00000000  1.0 -0.0461358873
C  C13  1  0.94000000  0.61380000  0.93180000  1.0 -0.1213305385
C  C14  1  0.95280000  0.52470000  0.94830000  1.0 0.0029132687
C  C15  1  0.04590000  0.57250000  0.05110000  1.0 0.0084849368
C  C16  1  0.06800000  0.67820000  0.06570000  1.0 -0.1213305385
C  C17  1  0.43050000  0.86060000  0.15580000  1.0 0.5488916977
C  C18  1  0.45640000  0.91820000  0.09430000  1.0 -0.1341431048
C  C19  1  0.50500000  0.00100000  0.99960000  1.0 -0.0427435124
C  C20  1  0.42810000  0.99880000  0.00000000  1.0 -0.0461358873
C  C21  1  0.67380000  0.06000000  0.93180000  1.0 -0.1213305385
C  C22  1  0.57190000  0.04720000  0.94830000  1.0 0.0029132687
C  C23  1  0.52660000  0.95410000  0.05110000  1.0 0.0084849368
C  C24  1  0.61020000  0.93200000  0.06570000  1.0 -0.1213305385
C  C25  1  0.13940000  0.56950000  0.34420000  1.0 0.5488916977
C  C26  1  0.08180000  0.54360000  0.40570000  1.0 -0.1354559791
C  C27  1  0.99900000  0.49500000  0.50040000  1.0 -0.0427435124
C  C28  1  0.00120000  0.57190000  0.50000000  1.0 -0.0461358873
C  C29  1  0.94000000  0.32620000  0.56820000  1.0 -0.1213305385
C  C30  1  0.95280000  0.42810000  0.55170000  1.0 0.0029132687
C  C31  1  0.04590000  0.47340000  0.44890000  1.0 0.0084849368
C  C32  1  0.06800000  0.38980000  0.43430000  1.0 -0.1213305385
C  C33  1  0.43050000  0.56990000  0.34420000  1.0 0.5488916977
C  C34  1  0.45640000  0.53820000  0.40570000  1.0 -0.1354559791
C  C35  1  0.50500000  0.50400000  0.50040000  1.0 -0.0427435124
C  C36  1  0.42810000  0.42930000  0.50000000  1.0 -0.0461358873
C  C37  1  0.67380000  0.61380000  0.56820000  1.0 -0.1213305385
C  C38  1  0.57190000  0.52470000  0.55170000  1.0 0.0029132687
C  C39  1  0.52660000  0.57250000  0.44890000  1.0 0.0084849368
C  C40  1  0.61020000  0.67820000  0.43430000  1.0 -0.1213305385
C  C41  1  0.43010000  0.86060000  0.34420000  1.0 0.5488916977
C  C42  1  0.46180000  0.91820000  0.40570000  1.0 -0.1341431048
C  C43  1  0.49600000  0.00100000  0.50040000  1.0 -0.0427435124
C  C44  1  0.57070000  0.99880000  0.50000000  1.0 -0.0461358873
C  C45  1  0.38620000  0.06000000  0.56820000  1.0 -0.1213305385
C  C46  1  0.47530000  0.04720000  0.55170000  1.0 0.0029132687
C  C47  1  0.42750000  0.95410000  0.44890000  1.0 0.0084849368
C  C48  1  0.32180000  0.93200000  0.43430000  1.0 -0.1213305385
C  C49  1  0.56990000  0.43050000  0.84420000  1.0 0.5488916977
C  C50  1  0.53820000  0.45640000  0.90570000  1.0 -0.1354559791
C  C51  1  0.50400000  0.50500000  0.00040000  1.0 -0.0427435124
C  C52  1  0.42930000  0.42810000  0.00000000  1.0 -0.0461358873
C  C53  1  0.61380000  0.67380000  0.06820000  1.0 -0.1213305385
C  C54  1  0.52470000  0.57190000  0.05170000  1.0 0.0029132687
C  C55  1  0.57250000  0.52660000  0.94890000  1.0 0.0084849368
C  C56  1  0.67820000  0.61020000  0.93430000  1.0 -0.1213305385
C  C57  1  0.86060000  0.43010000  0.84420000  1.0 0.5488916977
C  C58  1  0.91820000  0.46180000  0.90570000  1.0 -0.1354559791
C  C59  1  0.00100000  0.49600000  0.00040000  1.0 -0.0427435124
C  C60  1  0.99880000  0.57070000  0.00000000  1.0 -0.0461358873
C  C61  1  0.06000000  0.38620000  0.06820000  1.0 -0.1213305385
C  C62  1  0.04720000  0.47530000  0.05170000  1.0 0.0029132687
C  C63  1  0.95410000  0.42750000  0.94890000  1.0 0.0084849368
C  C64  1  0.93200000  0.32180000  0.93430000  1.0 -0.1213305385
C  C65  1  0.56950000  0.13940000  0.84420000  1.0 0.5488916977
C  C66  1  0.54360000  0.08180000  0.90570000  1.0 -0.1354559791
C  C67  1  0.49500000  0.99900000  0.00040000  1.0 -0.0427435124
C  C68  1  0.57190000  0.00120000  0.00000000  1.0 -0.0427435124
C  C69  1  0.32620000  0.94000000  0.06820000  1.0 -0.1213305385
C  C70  1  0.42810000  0.95280000  0.05170000  1.0 0.0029132687
C  C71  1  0.47340000  0.04590000  0.94890000  1.0 0.0084849368
C  C72  1  0.38980000  0.06800000  0.93430000  1.0 -0.1213305385
C  C73  1  0.86060000  0.43050000  0.65580000  1.0 0.5488916977
C  C74  1  0.91820000  0.45640000  0.59430000  1.0 -0.1341431048
C  C75  1  0.00100000  0.50500000  0.49960000  1.0 -0.0427435124
C  C76  1  0.99880000  0.42810000  0.50000000  1.0 -0.0461358873
C  C77  1  0.06000000  0.67380000  0.43180000  1.0 -0.1213305385
C  C78  1  0.04720000  0.57190000  0.44830000  1.0 0.0029132687
C  C79  1  0.95410000  0.52660000  0.55110000  1.0 0.0084849368
C  C80  1  0.93200000  0.61020000  0.56570000  1.0 -0.1213305385
C  C81  1  0.56950000  0.43010000  0.65580000  1.0 0.5488916977
C  C82  1  0.54360000  0.46180000  0.59430000  1.0 -0.1354559791
C  C83  1  0.49500000  0.49600000  0.49960000  1.0 -0.0427435124
C  C84  1  0.57190000  0.57070000  0.50000000  1.0 -0.0427435124
C  C85  1  0.32620000  0.38620000  0.43180000  1.0 -0.1213305385
C  C86  1  0.42810000  0.47530000  0.44830000  1.0 0.0029132687
C  C87  1  0.47340000  0.42750000  0.55110000  1.0 0.0084849368
C  C88  1  0.38980000  0.32180000  0.56570000  1.0 -0.1213305385
C  C89  1  0.56990000  0.13940000  0.65580000  1.0 0.5488916977
C  C90  1  0.53820000  0.08180000  0.59430000  1.0 -0.1341431048
C  C91  1  0.50400000  0.99900000  0.49960000  1.0 -0.0427435124
C  C92  1  0.42930000  0.00120000  0.50000000  1.0 -0.0427435124
C  C93  1  0.61380000  0.94000000  0.43180000  1.0 -0.1213305385
C  C94  1  0.52470000  0.95280000  0.44830000  1.0 0.0029132687
C  C95  1  0.57250000  0.04590000  0.55110000  1.0 0.0084849368
C  C96  1  0.67820000  0.06800000  0.56570000  1.0 -0.1213305385
S  S1  1  0.57860000  0.63570000  0.06490000  1.0 0.0199046004
S  S2  1  0.63630000  0.58130000  0.93460000  1.0 0.0084849368
S  S3  1  0.05710000  0.42140000  0.06490000  1.0 0.0199046004
S  S4  1  0.94500000  0.36370000  0.93460000  1.0 0.0084849368
S  S5  1  0.36430000  0.94290000  0.06490000  1.0 0.0199046004
S  S6  1  0.41870000  0.05500000  0.93460000  1.0 0.0084849368
S  S7  1  0.05710000  0.63570000  0.43510000  1.0 0.0199046004
S  S8  1  0.94500000  0.58130000  0.56540000  1.0 0.0084849368
S  S9  1  0.36430000  0.42140000  0.43510000  1.0 0.0199046004
S  S10  1  0.41870000  0.36370000  0.56540000  1.0 0.0084849368
S  S11  1  0.57860000  0.94290000  0.43510000  1.0 0.0199046004
S  S12  1  0.63630000  0.05500000  0.56540000  1.0 0.0084849368
S  S13  1  0.42140000  0.36430000  0.93510000  1.0 0.0199046004
S  S14  1  0.36370000  0.41870000  0.06540000  1.0 0.0084849368
S  S15  1  0.94290000  0.57860000  0.93510000  1.0 0.0199046004
S  S16  1  0.05500000  0.63630000  0.06540000  1.0 0.0084849368
S  S17  1  0.63570000  0.05710000  0.93510000  1.0 0.0199046004
S  S18  1  0.58130000  0.94500000  0.06540000  1.0 0.0084849368
S  S19  1  0.94290000  0.36430000  0.56490000  1.0 0.0199046004
S  S20  1  0.05500000  0.41870000  0.43460000  1.0 0.0084849368
S  S21  1  0.63570000  0.57860000  0.56490000  1.0 0.0199046004
S  S22  1  0.58130000  0.63630000  0.43460000  1.0 0.0084849368
S  S23  1  0.42140000  0.05710000  0.56490000  1.0 0.0199046004
S  S24  1  0.36370000  0.94500000  0.43460000  1.0 0.0084849368
O  O1  1  0.49300000  0.65250000  0.17875000  1.0 -0.4914285945
O  O2  1  0.34740000  0.50700000  0.17891000  1.0 -0.4789906921
O  O3  1  0.15950000  0.50700000  0.17875000  1.0 -0.4914285945
O  O4  1  0.15960000  0.65260000  0.17891000  1.0 -0.4789906921
O  O5  1  0.34750000  0.84050000  0.17875000  1.0 -0.4914285945
O  O6  1  0.49300000  0.84040000  0.17891000  1.0 -0.4789906921
O  O7  1  0.15950000  0.65250000  0.32125000  1.0 -0.4914285945
O  O8  1  0.15960000  0.50700000  0.32109000  1.0 -0.4789906921
O  O9  1  0.34750000  0.50700000  0.32125000  1.0 -0.4914285945
O  O10  1  0.49300000  0.65260000  0.32109000  1.0 -0.4789906921
O  O11  1  0.49300000  0.84050000  0.32125000  1.0 -0.4914285945
O  O12  1  0.34740000  0.84040000  0.32109000  1.0 -0.4789906921
O  O13  1  0.50700000  0.34750000  0.82125000  1.0 -0.4914285945
O  O14  1  0.65260000  0.49300000  0.82109000  1.0 -0.4789906921
O  O15  1  0.84050000  0.49300000  0.82125000  1.0 -0.4914285945
O  O16  1  0.84040000  0.34740000  0.82109000  1.0 -0.4789906921
O  O17  1  0.65250000  0.15950000  0.82125000  1.0 -0.4914285945
O  O18  1  0.50700000  0.15960000  0.82109000  1.0 -0.4789906921
O  O19  1  0.84050000  0.34750000  0.67875000  1.0 -0.4914285945
O  O20  1  0.84040000  0.49300000  0.67891000  1.0 -0.4789906921
O  O21  1  0.65250000  0.49300000  0.67875000  1.0 -0.4914285945
O  O22  1  0.50700000  0.34740000  0.67891000  1.0 -0.4789906921
O  O23  1  0.50700000  0.15950000  0.67875000  1.0 -0.4914285945
O  O24  1  0.65260000  0.15960000  0.67891000  1.0 -0.4789906921
O  O25  1  0.33333333  0.66666667  0.25000000  1.0 -0.8094221112
O  O26  1  0.66666667  0.33333333  0.75000000  1.0 -0.8094221112
