# DDEC6 charges by PACMAN v1.1 (https://github.com/mtap-research/PACMAN-charge/)
data_TIGQUX_FSR_pacman
_symmetry_space_group_name_H-M   'P 1'
_cell_length_a   17.24640000
_cell_length_b   17.24640000
_cell_length_c   17.24640000
_cell_angle_alpha   45.13900000
_cell_angle_beta   45.13900000
_cell_angle_gamma   45.13900000
_symmetry_Int_Tables_number   1
_chemical_formula_structural   AlPO4
_chemical_formula_sum   'Al18 P18 O72'
_cell_volume   2346.51103577
_cell_formula_units_Z   18
loop_
 _symmetry_equiv_pos_site_id
 _symmetry_equiv_pos_as_xyz
  1  'x, y, z'
loop_
 _atom_site_type_symbol
 _atom_site_label
 _atom_site_symmetry_multiplicity
 _atom_site_fract_x
 _atom_site_fract_y
 _atom_site_fract_z
 _atom_site_occupancy
 _atom_site_charge
Al  Al1  1  0.27190000  0.02789000  0.80057000  1.0 1.7434594394
Al  Al2  1  0.02789000  0.80057000  0.27190000  1.0 1.7452660562
Al  Al3  1  0.80057000  0.27190000  0.02789000  1.0 1.7434594394
Al  Al4  1  0.22810000  0.69943000  0.47211000  1.0 1.7452660562
Al  Al5  1  0.47211000  0.22810000  0.69943000  1.0 1.7452660562
Al  Al6  1  0.69943000  0.47211000  0.22810000  1.0 1.7452660562
Al  Al7  1  0.72810000  0.97211000  0.19943000  1.0 1.7434594394
Al  Al8  1  0.97211000  0.19943000  0.72810000  1.0 1.7434594394
Al  Al9  1  0.19943000  0.72810000  0.97211000  1.0 1.7452660562
Al  Al10  1  0.77190000  0.30057000  0.52789000  1.0 1.7452660562
Al  Al11  1  0.52789000  0.77190000  0.30057000  1.0 1.7452660562
Al  Al12  1  0.30057000  0.52789000  0.77190000  1.0 1.7452660562
Al  Al13  1  0.50610000  0.75000000  0.99390000  1.0 1.7286205293
Al  Al14  1  0.75000000  0.99390000  0.50610000  1.0 1.7286205293
Al  Al15  1  0.99390000  0.50610000  0.75000000  1.0 1.7235673429
Al  Al16  1  0.49390000  0.25000000  0.00610000  1.0 1.7286205293
Al  Al17  1  0.25000000  0.00610000  0.49390000  1.0 1.7286205293
Al  Al18  1  0.00610000  0.49390000  0.25000000  1.0 1.7286205293
P  P1  1  0.50854000  0.99146000  0.75000000  1.0 1.4015754224
P  P2  1  0.99146000  0.75000000  0.50854000  1.0 1.4015754224
P  P3  1  0.75000000  0.50854000  0.99146000  1.0 1.4015754224
P  P4  1  0.49146000  0.00854000  0.25000000  1.0 1.4015754224
P  P5  1  0.00854000  0.25000000  0.49146000  1.0 1.4015754224
P  P6  1  0.25000000  0.49146000  0.00854000  1.0 1.4015754224
P  P7  1  0.27021000  0.79138000  0.03922000  1.0 1.4326275675
P  P8  1  0.79138000  0.03922000  0.27021000  1.0 1.4326275675
P  P9  1  0.03922000  0.27021000  0.79138000  1.0 1.4350789548
P  P10  1  0.22979000  0.46078000  0.70862000  1.0 1.4326275675
P  P11  1  0.70862000  0.22979000  0.46078000  1.0 1.4326275675
P  P12  1  0.46078000  0.70862000  0.22979000  1.0 1.4326275675
P  P13  1  0.72979000  0.20862000  0.96078000  1.0 1.4326275675
P  P14  1  0.20862000  0.96078000  0.72979000  1.0 1.4326275675
P  P15  1  0.96078000  0.72979000  0.20862000  1.0 1.4326275675
P  P16  1  0.77021000  0.53922000  0.29138000  1.0 1.4326275675
P  P17  1  0.29138000  0.77021000  0.53922000  1.0 1.4326275675
P  P18  1  0.53922000  0.29138000  0.77021000  1.0 1.4326275675
O  O1  1  0.41052000  0.02416000  0.73467000  1.0 -0.7875862011
O  O2  1  0.02416000  0.73467000  0.41052000  1.0 -0.7875862011
O  O3  1  0.73467000  0.41052000  0.02416000  1.0 -0.7875862011
O  O4  1  0.08948000  0.76533000  0.47584000  1.0 -0.7875862011
O  O5  1  0.47584000  0.08948000  0.76533000  1.0 -0.7875862011
O  O6  1  0.76533000  0.47584000  0.08948000  1.0 -0.7875862011
O  O7  1  0.58948000  0.97584000  0.26533000  1.0 -0.7875862011
O  O8  1  0.97584000  0.26533000  0.58948000  1.0 -0.7875862011
O  O9  1  0.26533000  0.58948000  0.97584000  1.0 -0.7875862011
O  O10  1  0.91052000  0.23467000  0.52416000  1.0 -0.7875862011
O  O11  1  0.52416000  0.91052000  0.23467000  1.0 -0.7875862011
O  O12  1  0.23467000  0.52416000  0.91052000  1.0 -0.7875862011
O  O13  1  0.62300000  0.97534000  0.64025000  1.0 -0.7875862011
O  O14  1  0.97534000  0.64025000  0.62300000  1.0 -0.7875862011
O  O15  1  0.64025000  0.62300000  0.97534000  1.0 -0.7875862011
O  O16  1  0.87700000  0.85975000  0.52466000  1.0 -0.7875862011
O  O17  1  0.52466000  0.87700000  0.85975000  1.0 -0.7875862011
O  O18  1  0.85975000  0.52466000  0.87700000  1.0 -0.7875862011
O  O19  1  0.37700000  0.02466000  0.35975000  1.0 -0.7875862011
O  O20  1  0.02466000  0.35975000  0.37700000  1.0 -0.7875862011
O  O21  1  0.35975000  0.37700000  0.02466000  1.0 -0.7875862011
O  O22  1  0.12300000  0.14025000  0.47534000  1.0 -0.7875862011
O  O23  1  0.47534000  0.12300000  0.14025000  1.0 -0.7875862011
O  O24  1  0.14025000  0.47534000  0.12300000  1.0 -0.7875862011
O  O25  1  0.17538000  0.78527000  0.16463000  1.0 -0.7573539554
O  O26  1  0.78527000  0.16463000  0.17538000  1.0 -0.7573539554
O  O27  1  0.16463000  0.17538000  0.78527000  1.0 -0.7573539554
O  O28  1  0.32462000  0.33537000  0.71473000  1.0 -0.7573539554
O  O29  1  0.71473000  0.32462000  0.33537000  1.0 -0.7573539554
O  O30  1  0.33537000  0.71473000  0.32462000  1.0 -0.7573539554
O  O31  1  0.82462000  0.21473000  0.83537000  1.0 -0.7573539554
O  O32  1  0.21473000  0.83537000  0.82462000  1.0 -0.7573539554
O  O33  1  0.83537000  0.82462000  0.21473000  1.0 -0.7573539554
O  O34  1  0.67538000  0.66463000  0.28527000  1.0 -0.7573539554
O  O35  1  0.28527000  0.67538000  0.66463000  1.0 -0.7573539554
O  O36  1  0.66463000  0.28527000  0.67538000  1.0 -0.7573539554
O  O37  1  0.23894000  0.92224000  0.95174000  1.0 -0.8172146604
O  O38  1  0.92224000  0.95174000  0.23894000  1.0 -0.8172146604
O  O39  1  0.95174000  0.23894000  0.92224000  1.0 -0.8172146604
O  O40  1  0.26106000  0.54826000  0.57776000  1.0 -0.8172146604
O  O41  1  0.57776000  0.26106000  0.54826000  1.0 -0.8172146604
O  O42  1  0.54826000  0.57776000  0.26106000  1.0 -0.8172146604
O  O43  1  0.76106000  0.07776000  0.04826000  1.0 -0.8146833419
O  O44  1  0.07776000  0.04826000  0.76106000  1.0 -0.8172146604
O  O45  1  0.04826000  0.76106000  0.07776000  1.0 -0.8172146604
O  O46  1  0.73894000  0.45174000  0.42224000  1.0 -0.8172146604
O  O47  1  0.42224000  0.73894000  0.45174000  1.0 -0.8172146604
O  O48  1  0.45174000  0.42224000  0.73894000  1.0 -0.8172146604
O  O49  1  0.27586000  0.72198000  0.01017000  1.0 -0.8172146604
O  O50  1  0.72198000  0.01017000  0.27586000  1.0 -0.8172146604
O  O51  1  0.01017000  0.27586000  0.72198000  1.0 -0.8172146604
O  O52  1  0.22414000  0.48983000  0.77802000  1.0 -0.8172146604
O  O53  1  0.77802000  0.22414000  0.48983000  1.0 -0.8172146604
O  O54  1  0.48983000  0.77802000  0.22414000  1.0 -0.8172146604
O  O55  1  0.72414000  0.27802000  0.98983000  1.0 -0.8172146604
O  O56  1  0.27802000  0.98983000  0.72414000  1.0 -0.8172146604
O  O57  1  0.98983000  0.72414000  0.27802000  1.0 -0.8172146604
O  O58  1  0.77586000  0.51017000  0.22198000  1.0 -0.8172146604
O  O59  1  0.22198000  0.77586000  0.51017000  1.0 -0.8172146604
O  O60  1  0.51017000  0.22198000  0.77586000  1.0 -0.8172146604
O  O61  1  0.39145000  0.73209000  0.03360000  1.0 -0.7757709979
O  O62  1  0.73209000  0.03360000  0.39145000  1.0 -0.7737120627
O  O63  1  0.03360000  0.39145000  0.73209000  1.0 -0.7757709979
O  O64  1  0.10855000  0.46640000  0.76791000  1.0 -0.7757709979
O  O65  1  0.76791000  0.10855000  0.46640000  1.0 -0.7737120627
O  O66  1  0.46640000  0.76791000  0.10855000  1.0 -0.7757709979
O  O67  1  0.60855000  0.26791000  0.96640000  1.0 -0.7757709979
O  O68  1  0.26791000  0.96640000  0.60855000  1.0 -0.7757709979
O  O69  1  0.96640000  0.60855000  0.26791000  1.0 -0.7757709979
O  O70  1  0.89145000  0.53360000  0.23209000  1.0 -0.7757709979
O  O71  1  0.23209000  0.89145000  0.53360000  1.0 -0.7757709979
O  O72  1  0.53360000  0.23209000  0.89145000  1.0 -0.7757709979
