# DDEC6 charges by PACMAN v1.1 (https://github.com/mtap-research/PACMAN-charge/)
data_TIKXIV_FSR_pacman
_symmetry_space_group_name_H-M   'P 1'
_cell_length_a   11.54670000
_cell_length_b   11.54670000
_cell_length_c   17.26400000
_cell_angle_alpha   75.01190000
_cell_angle_beta   104.98800000
_cell_angle_gamma   132.62800000
_symmetry_Int_Tables_number   1
_chemical_formula_structural   NdCu2H8C14(NO4)2
_chemical_formula_sum   'Nd4 Cu8 H32 C56 N8 O32'
_cell_volume   1624.60963172
_cell_formula_units_Z   4
loop_
 _symmetry_equiv_pos_site_id
 _symmetry_equiv_pos_as_xyz
  1  'x, y, z'
loop_
 _atom_site_type_symbol
 _atom_site_label
 _atom_site_symmetry_multiplicity
 _atom_site_fract_x
 _atom_site_fract_y
 _atom_site_fract_z
 _atom_site_occupancy
 _atom_site_charge
Nd  Nd1  1  0.32977000  0.30235000  0.57317000  1.0 2.0631160648
Nd  Nd2  1  0.30235000  0.32977000  0.92683000  1.0 2.0631160648
Nd  Nd3  1  0.67023000  0.69765000  0.42683000  1.0 2.0631160648
Nd  Nd4  1  0.69765000  0.67023000  0.07317000  1.0 2.0631160648
Cu  Cu1  1  0.88758000  0.22042000  0.35970000  1.0 0.2685463341
Cu  Cu2  1  0.22042000  0.88758000  0.14030000  1.0 0.2685463341
Cu  Cu3  1  0.11242000  0.77958000  0.64030000  1.0 0.2685463341
Cu  Cu4  1  0.77958000  0.11242000  0.85970000  1.0 0.2685463341
Cu  Cu5  1  0.06010000  0.73910000  0.62380000  1.0 0.2872550847
Cu  Cu6  1  0.73910000  0.06010000  0.87620000  1.0 0.2872550847
Cu  Cu7  1  0.93990000  0.26090000  0.37620000  1.0 0.2872550847
Cu  Cu8  1  0.26090000  0.93990000  0.12380000  1.0 0.2872550847
H  H1  1  0.13920000  0.00720000  0.35710000  1.0 0.1415647068
H  H2  1  0.00720000  0.13920000  0.14290000  1.0 0.1415647068
H  H3  1  0.86080000  0.99280000  0.64290000  1.0 0.1415647068
H  H4  1  0.99280000  0.86080000  0.85710000  1.0 0.1415647068
H  H5  1  0.56180000  0.36560000  0.27900000  1.0 0.1480652602
H  H6  1  0.36560000  0.56180000  0.22100000  1.0 0.1480652602
H  H7  1  0.43820000  0.63440000  0.72100000  1.0 0.1480652602
H  H8  1  0.63440000  0.43820000  0.77900000  1.0 0.1480652602
H  H9  1  0.50390000  0.20590000  0.19330000  1.0 0.1001494811
H  H10  1  0.20590000  0.50390000  0.30670000  1.0 0.1001494811
H  H11  1  0.49610000  0.79410000  0.80670000  1.0 0.1001494811
H  H12  1  0.79410000  0.49610000  0.69330000  1.0 0.1001494811
H  H13  1  0.08940000  0.86240000  0.26530000  1.0 0.1091678651
H  H14  1  0.86240000  0.08940000  0.23470000  1.0 0.1091678651
H  H15  1  0.91060000  0.13760000  0.73470000  1.0 0.1091678651
H  H16  1  0.13760000  0.91060000  0.76530000  1.0 0.1091678651
H  H17  1  0.91780000  0.48160000  0.37690000  1.0 0.1001494811
H  H18  1  0.48160000  0.91780000  0.12310000  1.0 0.1001494811
H  H19  1  0.08220000  0.51840000  0.62310000  1.0 0.1001494811
H  H20  1  0.51840000  0.08220000  0.87690000  1.0 0.1001494811
H  H21  1  0.72180000  0.07260000  0.50460000  1.0 0.1091678651
H  H22  1  0.07260000  0.72180000  0.99540000  1.0 0.1091678651
H  H23  1  0.27820000  0.92740000  0.49540000  1.0 0.1091678651
H  H24  1  0.92740000  0.27820000  0.00460000  1.0 0.1091678651
H  H25  1  0.60810000  0.11310000  0.57360000  1.0 0.1331929626
H  H26  1  0.11310000  0.60810000  0.92640000  1.0 0.1331929626
H  H27  1  0.39190000  0.88690000  0.42640000  1.0 0.1331929626
H  H28  1  0.88690000  0.39190000  0.07360000  1.0 0.1331929626
H  H29  1  0.81690000  0.53550000  0.44520000  1.0 0.1415647068
H  H30  1  0.53550000  0.81690000  0.05480000  1.0 0.1415647068
H  H31  1  0.18310000  0.46450000  0.55480000  1.0 0.1415647068
H  H32  1  0.46450000  0.18310000  0.94520000  1.0 0.1415647068
C  C1  1  0.21430000  0.05170000  0.32310000  1.0 -0.1517450972
C  C2  1  0.05170000  0.21430000  0.17690000  1.0 -0.1517450972
C  C3  1  0.78570000  0.94830000  0.67690000  1.0 -0.1517450972
C  C4  1  0.94830000  0.78570000  0.82310000  1.0 -0.1517450972
C  C5  1  0.35519000  0.20481000  0.32692000  1.0 0.0030577272
C  C6  1  0.20481000  0.35519000  0.17308000  1.0 0.0030577272
C  C7  1  0.64481000  0.79519000  0.67308000  1.0 0.0030577272
C  C8  1  0.79519000  0.64481000  0.82692000  1.0 0.0030577272
C  C9  1  0.46459000  0.26301000  0.27740000  1.0 -0.1185066788
C  C10  1  0.26301000  0.46459000  0.22260000  1.0 -0.1185066788
C  C11  1  0.53541000  0.73699000  0.72260000  1.0 -0.1185066788
C  C12  1  0.73699000  0.53541000  0.77740000  1.0 -0.1185066788
C  C13  1  0.42794000  0.16686000  0.22540000  1.0 0.01830679
C  C14  1  0.16686000  0.42794000  0.27460000  1.0 0.01830679
C  C15  1  0.57206000  0.83314000  0.77460000  1.0 0.01830679
C  C16  1  0.83314000  0.57206000  0.72540000  1.0 0.01830679
C  C17  1  0.18610000  0.96530000  0.26810000  1.0 0.0379884789
C  C18  1  0.96530000  0.18610000  0.23190000  1.0 0.0379884789
C  C19  1  0.81390000  0.03470000  0.73190000  1.0 0.0379884789
C  C20  1  0.03470000  0.81390000  0.76810000  1.0 0.0379884789
C  C21  1  0.85294000  0.40506000  0.41640000  1.0 0.0076443847
C  C22  1  0.40506000  0.85294000  0.08360000  1.0 0.0076443847
C  C23  1  0.14706000  0.59494000  0.58360000  1.0 0.0076443847
C  C24  1  0.59494000  0.14706000  0.91640000  1.0 0.0076443847
C  C25  1  0.73740000  0.16540000  0.49070000  1.0 0.0273244619
C  C26  1  0.16540000  0.73740000  0.00930000  1.0 0.0273244619
C  C27  1  0.26260000  0.83460000  0.50930000  1.0 0.0273244619
C  C28  1  0.83460000  0.26260000  0.99070000  1.0 0.0273244619
C  C29  1  0.66977000  0.18963000  0.53300000  1.0 -0.1563493176
C  C30  1  0.18963000  0.66977000  0.96700000  1.0 -0.1563493176
C  C31  1  0.33023000  0.81037000  0.46700000  1.0 -0.1563493176
C  C32  1  0.81037000  0.33023000  0.03300000  1.0 -0.1563493176
C  C33  1  0.79179000  0.43781000  0.45700000  1.0 -0.1384922056
C  C34  1  0.43781000  0.79179000  0.04300000  1.0 -0.1384922056
C  C35  1  0.20821000  0.56219000  0.54300000  1.0 -0.1384922056
C  C36  1  0.56219000  0.20821000  0.95700000  1.0 -0.1384922056
C  C37  1  0.21845000  0.29395000  0.73171000  1.0 0.4670369537
C  C38  1  0.29395000  0.21845000  0.76829000  1.0 0.4670369537
C  C39  1  0.78155000  0.70605000  0.26829000  1.0 0.4670369537
C  C40  1  0.70605000  0.78155000  0.23171000  1.0 0.4670369537
C  C41  1  0.02030000  0.94770000  0.52353000  1.0 0.4610702606
C  C42  1  0.94770000  0.02030000  0.97647000  1.0 0.4610702606
C  C43  1  0.97970000  0.05230000  0.47647000  1.0 0.4610702606
C  C44  1  0.05230000  0.97970000  0.02353000  1.0 0.4610702606
C  C45  1  0.69438000  0.32742000  0.51462000  1.0 0.01830679
C  C46  1  0.32742000  0.69438000  0.98538000  1.0 0.01830679
C  C47  1  0.30562000  0.67258000  0.48538000  1.0 0.01830679
C  C48  1  0.67258000  0.30562000  0.01462000  1.0 0.01830679
C  C49  1  0.60612000  0.35048000  0.55078000  1.0 0.56795626
C  C50  1  0.35048000  0.60612000  0.94922000  1.0 0.56795626
C  C51  1  0.39388000  0.64952000  0.44922000  1.0 0.56795626
C  C52  1  0.64952000  0.39388000  0.05078000  1.0 0.56795626
C  C53  1  0.38956000  0.30824000  0.38286000  1.0 0.6161012562
C  C54  1  0.30824000  0.38956000  0.11714000  1.0 0.6161012562
C  C55  1  0.61044000  0.69176000  0.61714000  1.0 0.6161012562
C  C56  1  0.69176000  0.61044000  0.88286000  1.0 0.6161012562
N  N1  1  0.82354000  0.26886000  0.43124000  1.0 -0.1517450972
N  N2  1  0.26886000  0.82354000  0.06876000  1.0 -0.1517450972
N  N3  1  0.17646000  0.73114000  0.56876000  1.0 -0.1517450972
N  N4  1  0.73114000  0.17646000  0.93124000  1.0 -0.1517450972
N  N5  1  0.28883000  0.02057000  0.21878000  1.0 -0.1563493176
N  N6  1  0.02057000  0.28883000  0.28122000  1.0 -0.1563493176
N  N7  1  0.71117000  0.97943000  0.78122000  1.0 -0.1563493176
N  N8  1  0.97943000  0.71117000  0.71878000  1.0 -0.1563493176
O  O1  1  0.17633000  0.29327000  0.65731000  1.0 -0.6052266447
O  O2  1  0.29327000  0.17633000  0.84269000  1.0 -0.6052266447
O  O3  1  0.82367000  0.70673000  0.34269000  1.0 -0.6052266447
O  O4  1  0.70673000  0.82367000  0.15731000  1.0 -0.6052266447
O  O5  1  0.13625000  0.00715000  0.57707000  1.0 -0.5460417358
O  O6  1  0.00715000  0.13625000  0.92293000  1.0 -0.5460417358
O  O7  1  0.86375000  0.99285000  0.42293000  1.0 -0.5460417358
O  O8  1  0.99285000  0.86375000  0.07707000  1.0 -0.5460417358
O  O9  1  0.20220000  0.34500000  0.78032000  1.0 -0.6024696617
O  O10  1  0.34500000  0.20220000  0.71968000  1.0 -0.6024696617
O  O11  1  0.79780000  0.65500000  0.21968000  1.0 -0.6024696617
O  O12  1  0.65500000  0.79780000  0.28032000  1.0 -0.6024696617
O  O13  1  0.93314000  0.81066000  0.50441000  1.0 -0.5746075599
O  O14  1  0.81066000  0.93314000  0.99559000  1.0 -0.5746075599
O  O15  1  0.06686000  0.18934000  0.49559000  1.0 -0.5746075599
O  O16  1  0.18934000  0.06686000  0.00441000  1.0 -0.5746075599
O  O17  1  0.51071000  0.24189000  0.59935000  1.0 -0.6024696617
O  O18  1  0.24189000  0.51071000  0.90065000  1.0 -0.6024696617
O  O19  1  0.48929000  0.75811000  0.40065000  1.0 -0.6024696617
O  O20  1  0.75811000  0.48929000  0.09935000  1.0 -0.6024696617
O  O21  1  0.62487000  0.47473000  0.52724000  1.0 -0.7080593197
O  O22  1  0.47473000  0.62487000  0.97276000  1.0 -0.7080593197
O  O23  1  0.37513000  0.52527000  0.47276000  1.0 -0.7080593197
O  O24  1  0.52527000  0.37513000  0.02724000  1.0 -0.7080593197
O  O25  1  0.31593000  0.23867000  0.44355000  1.0 -0.6601151912
O  O26  1  0.23867000  0.31593000  0.05645000  1.0 -0.6601151912
O  O27  1  0.68407000  0.76133000  0.55645000  1.0 -0.6601151912
O  O28  1  0.76133000  0.68407000  0.94355000  1.0 -0.6601151912
O  O29  1  0.49024000  0.45496000  0.36439000  1.0 -0.6545556872
O  O30  1  0.45496000  0.49024000  0.13561000  1.0 -0.6545556872
O  O31  1  0.50976000  0.54504000  0.63561000  1.0 -0.6545556872
O  O32  1  0.54504000  0.50976000  0.86439000  1.0 -0.6545556872
