# DDEC6 charges by PACMAN v1.1 (https://github.com/mtap-research/PACMAN-charge/)
data_TILBIB01_ion_pacman
_symmetry_space_group_name_H-M   'P 1'
_cell_length_a   18.64270000
_cell_length_b   27.54250000
_cell_length_c   29.62210000
_cell_angle_alpha   61.80600000
_cell_angle_beta   72.87230000
_cell_angle_gamma   70.63900000
_symmetry_Int_Tables_number   1
_chemical_formula_structural   Pr8Sb24H14C39S7Cl24O67
_chemical_formula_sum   'Pr16 Sb48 H28 C78 S14 Cl48 O134'
_cell_volume   12472.18115711
_cell_formula_units_Z   2
loop_
 _symmetry_equiv_pos_site_id
 _symmetry_equiv_pos_as_xyz
  1  'x, y, z'
loop_
 _atom_site_type_symbol
 _atom_site_label
 _atom_site_symmetry_multiplicity
 _atom_site_fract_x
 _atom_site_fract_y
 _atom_site_fract_z
 _atom_site_occupancy
 _atom_site_charge
Pr  Pr1  1  0.38320000  0.69725000  0.12339000  1.0 1.9688817797
Pr  Pr2  1  0.61680000  0.30275000  0.87661000  1.0 1.9688817797
Pr  Pr3  1  0.65824000  0.64183000  0.12264000  1.0 1.9278752344
Pr  Pr4  1  0.34176000  0.35817000  0.87736000  1.0 1.9228218732
Pr  Pr5  1  0.55895000  0.66829000  0.97827000  1.0 1.7665378986
Pr  Pr6  1  0.44105000  0.33171000  0.02173000  1.0 1.7665378986
Pr  Pr7  1  0.52462000  0.50931000  0.14244000  1.0 1.9397317109
Pr  Pr8  1  0.47538000  0.49069000  0.85756000  1.0 1.9397317109
Pr  Pr9  1  0.09808000  0.14338000  0.60935000  1.0 1.9616855321
Pr  Pr10  1  0.90192000  0.85662000  0.39065000  1.0 1.9616855321
Pr  Pr11  1  0.24892000  0.14014000  0.44640000  1.0 1.8025930462
Pr  Pr12  1  0.75108000  0.85986000  0.55360000  1.0 1.8025930462
Pr  Pr13  1  0.04907000  0.03998000  0.53540000  1.0 1.9278752344
Pr  Pr14  1  0.95093000  0.96002000  0.46460000  1.0 1.9278752344
Pr  Pr15  1  0.28103000  0.97141000  0.60577000  1.0 1.6685425577
Pr  Pr16  1  0.71897000  0.02859000  0.39423000  1.0 1.6685425577
Sb  Sb1  1  0.34615000  0.70042000  0.00678000  1.0 1.2594431577
Sb  Sb2  1  0.65385000  0.29958000  0.99322000  1.0 1.2756599126
Sb  Sb3  1  0.31901000  0.58075000  0.13236000  1.0 1.3900846181
Sb  Sb4  1  0.68099000  0.41925000  0.86764000  1.0 1.4004220901
Sb  Sb5  1  0.39304000  0.56137000  0.24069000  1.0 1.3010404048
Sb  Sb6  1  0.60696000  0.43863000  0.75931000  1.0 1.3188986121
Sb  Sb7  1  0.49406000  0.66118000  0.22577000  1.0 1.4190543828
Sb  Sb8  1  0.50594000  0.33882000  0.77423000  1.0 1.4190543828
Sb  Sb9  1  0.51951000  0.78092000  0.10156000  1.0 1.4441573558
Sb  Sb10  1  0.48049000  0.21908000  0.89844000  1.0 1.4340816674
Sb  Sb11  1  0.44651000  0.80164000  0.99092000  1.0 1.2427104649
Sb  Sb12  1  0.55349000  0.19836000  0.00908000  1.0 1.2427104649
Sb  Sb13  1  0.44796000  0.55958000  0.02147000  1.0 1.220554286
Sb  Sb14  1  0.55204000  0.44042000  0.97853000  1.0 1.220554286
Sb  Sb15  1  0.59934000  0.51909000  0.24009000  1.0 1.3320631323
Sb  Sb16  1  0.40066000  0.48091000  0.75991000  1.0 1.3354334769
Sb  Sb17  1  0.65238000  0.75987000  0.99208000  1.0 1.1807335553
Sb  Sb18  1  0.34762000  0.24013000  0.00792000  1.0 1.1807335553
Sb  Sb19  1  0.65897000  0.51722000  0.01931000  1.0 1.2677524922
Sb  Sb20  1  0.34103000  0.48278000  0.98069000  1.0 1.2677524922
Sb  Sb21  1  0.73280000  0.49659000  0.12884000  1.0 1.3188986121
Sb  Sb22  1  0.26720000  0.50341000  0.87116000  1.0 1.3320631323
Sb  Sb23  1  0.75869000  0.61659000  0.00602000  1.0 1.2094736038
Sb  Sb24  1  0.24131000  0.38341000  0.99398000  1.0 1.2094736038
Sb  Sb25  1  0.94239000  0.17408000  0.54102000  1.0 1.3531110821
Sb  Sb26  1  0.05761000  0.82592000  0.45898000  1.0 1.3531110821
Sb  Sb27  1  0.13746000  0.00011000  0.71492000  1.0 1.200309628
Sb  Sb28  1  0.86254000  0.99989000  0.28508000  1.0 1.200309628
Sb  Sb29  1  0.29008000  0.07709000  0.64760000  1.0 1.2266703186
Sb  Sb30  1  0.70992000  0.92291000  0.35240000  1.0 1.2266703186
Sb  Sb31  1  0.26922000  0.20234000  0.52699000  1.0 1.3900846181
Sb  Sb32  1  0.73078000  0.79766000  0.47301000  1.0 1.3804193673
Sb  Sb33  1  0.05186000  0.17537000  0.41715000  1.0 1.1927102742
Sb  Sb34  1  0.94814000  0.82463000  0.58285000  1.0 1.1927102742
Sb  Sb35  1  0.19151000  0.04348000  0.41654000  1.0 1.1563700376
Sb  Sb36  1  0.80849000  0.95652000  0.58346000  1.0 1.1563700376
Sb  Sb37  1  0.10289000  0.91892000  0.66062000  1.0 1.2427104649
Sb  Sb38  1  0.89711000  0.08108000  0.33938000  1.0 1.2503584561
Sb  Sb39  1  0.36558000  0.99284000  0.46934000  1.0 1.1089871464
Sb  Sb40  1  0.63442000  0.00716000  0.53066000  1.0 1.1089871464
Sb  Sb41  1  0.40548000  0.07338000  0.52743000  1.0 1.1207763491
Sb  Sb42  1  0.59452000  0.92662000  0.47257000  1.0 1.1207763491
Sb  Sb43  1  0.09203000  0.25451000  0.47287000  1.0 1.3320631323
Sb  Sb44  1  0.90797000  0.74549000  0.52713000  1.0 1.3320631323
Sb  Sb45  1  0.21360000  0.91764000  0.53370000  1.0 1.2677524922
Sb  Sb46  1  0.78640000  0.08236000  0.46630000  1.0 1.2677524922
Sb  Sb47  1  0.96310000  0.04818000  0.65909000  1.0 1.3804193673
Sb  Sb48  1  0.03690000  0.95182000  0.34091000  1.0 1.3804193673
H  H1  1  0.17780000  0.75050000  0.21510000  1.0 0.1562563417
H  H2  1  0.82220000  0.24950000  0.78490000  1.0 0.1562563417
H  H3  1  0.07050000  0.77770000  0.27660000  1.0 0.1492793299
H  H4  1  0.92950000  0.22230000  0.72340000  1.0 0.1492793299
H  H5  1  0.61510000  0.31300000  0.20910000  1.0 0.1438263146
H  H6  1  0.38490000  0.68700000  0.79090000  1.0 0.1438263146
H  H7  1  0.64470000  0.21100000  0.25930000  1.0 0.1201743744
H  H8  1  0.35530000  0.78900000  0.74070000  1.0 0.1201743744
H  H9  1  0.44690000  0.33660000  0.24470000  1.0 0.1292312717
H  H10  1  0.55310000  0.66340000  0.75530000  1.0 0.1292312717
H  H11  1  0.39180000  0.26070000  0.31830000  1.0 0.1201743744
H  H12  1  0.60820000  0.73930000  0.68170000  1.0 0.1201743744
H  H13  1  0.33590000  0.24320000  0.27120000  1.0 0.0873956879
H  H14  1  0.66410000  0.75680000  0.72880000  1.0 0.0873956879
H  H15  1  0.37430000  0.28030000  0.17720000  1.0 0.1201743744
H  H16  1  0.62570000  0.71970000  0.82280000  1.0 0.1201743744
H  H17  1  0.44780000  0.83410000  0.71710000  1.0 0.1201743744
H  H18  1  0.55220000  0.16590000  0.28290000  1.0 0.1201743744
H  H19  1  0.49990000  0.76030000  0.79220000  1.0 0.1292312717
H  H20  1  0.50010000  0.23970000  0.20780000  1.0 0.1292312717
H  H21  1  0.53440000  0.32660000  0.28000000  1.0 0.1292312717
H  H22  1  0.46560000  0.67340000  0.72000000  1.0 0.1292312717
H  H23  1  0.56400000  0.22320000  0.32820000  1.0 0.1292312717
H  H24  1  0.43600000  0.77680000  0.67180000  1.0 0.1292312717
H  H25  1  0.35930000  0.19040000  0.28100000  1.0 0.0873956879
H  H26  1  0.64070000  0.80960000  0.71900000  1.0 0.0873956879
H  H27  1  0.38600000  0.24360000  0.18760000  1.0 0.1201743744
H  H28  1  0.61400000  0.75640000  0.81240000  1.0 0.1201743744
C  C1  1  0.32800000  0.76070000  0.20660000  1.0 0.653986567
C  C2  1  0.67200000  0.23930000  0.79340000  1.0 0.653986567
C  C3  1  0.25140000  0.77240000  0.23820000  1.0 -0.0997760097
C  C4  1  0.74860000  0.22760000  0.76180000  1.0 -0.0997760097
C  C5  1  0.18310000  0.76470000  0.23730000  1.0 -0.0709029461
C  C6  1  0.81690000  0.23530000  0.76270000  1.0 -0.0709029461
C  C7  1  0.12190000  0.78010000  0.27250000  1.0 -0.0825384358
C  C8  1  0.87810000  0.21990000  0.72750000  1.0 -0.0825384358
C  C9  1  0.14410000  0.79860000  0.29990000  1.0 -0.0884457851
C  C10  1  0.85590000  0.20140000  0.70010000  1.0 -0.0884457851
C  C11  1  0.09380000  0.82310000  0.33770000  1.0 0.6396632729
C  C12  1  0.90620000  0.17690000  0.66230000  1.0 0.6396632729
C  C13  1  0.62980000  0.39310000  0.22930000  1.0 0.4763745306
C  C14  1  0.37020000  0.60690000  0.77070000  1.0 0.4763745306
C  C15  1  0.64820000  0.33009000  0.25911000  1.0 -0.0321422393
C  C16  1  0.35180000  0.66991000  0.74089000  1.0 -0.0321422393
C  C17  1  0.67980000  0.22820000  0.30860000  1.0 -0.018344252
C  C18  1  0.32020000  0.77180000  0.69140000  1.0 -0.018344252
C  C19  1  0.63530000  0.29620000  0.24050000  1.0 -0.0638163524
C  C20  1  0.36470000  0.70380000  0.75950000  1.0 -0.0638163524
C  C21  1  0.65180000  0.23820000  0.26780000  1.0 -0.1308693892
C  C22  1  0.34820000  0.76180000  0.73220000  1.0 -0.1308693892
C  C23  1  0.70970000  0.17420000  0.35690000  1.0 0.3505950925
C  C24  1  0.29030000  0.82580000  0.64310000  1.0 0.3505950925
C  C25  1  0.36990000  0.45060000  0.22670000  1.0 0.6287059126
C  C26  1  0.63010000  0.54940000  0.77330000  1.0 0.6287059126
C  C27  1  0.35490000  0.39400000  0.26500000  1.0 -0.0997760097
C  C28  1  0.64510000  0.60600000  0.73500000  1.0 -0.0997760097
C  C29  1  0.40060000  0.34240000  0.26780000  1.0 -0.1225766899
C  C30  1  0.59940000  0.65760000  0.73220000  1.0 -0.1225766899
C  C31  1  0.36840000  0.29950000  0.31020000  1.0 -0.1308693892
C  C32  1  0.63160000  0.70050000  0.68980000  1.0 -0.1308693892
C  C33  1  0.30370000  0.31560000  0.33840000  1.0 -0.0825384358
C  C34  1  0.69630000  0.68440000  0.66160000  1.0 -0.0825384358
C  C35  1  0.25740000  0.28010000  0.38700000  1.0 0.6287059126
C  C36  1  0.74260000  0.71990000  0.61300000  1.0 0.6287059126
C  C37  1  0.21030000  0.17710000  0.32130000  1.0 0.4534086821
C  C38  1  0.78970000  0.82290000  0.67870000  1.0 0.4534086821
C  C39  1  0.25620000  0.20870000  0.26800000  1.0 -0.1308693892
C  C40  1  0.74380000  0.79130000  0.73200000  1.0 -0.1308693892
C  C41  1  0.31350000  0.23800000  0.24930000  1.0 -0.0321422393
C  C42  1  0.68650000  0.76200000  0.75070000  1.0 -0.0321422393
C  C43  1  0.33560000  0.25930000  0.19580000  1.0 -0.0321422393
C  C44  1  0.66440000  0.74070000  0.80420000  1.0 -0.0321422393
C  C45  1  0.29470000  0.24640000  0.17320000  1.0 -0.0638163524
C  C46  1  0.70530000  0.75360000  0.82680000  1.0 -0.0638163524
C  C47  1  0.29820000  0.26730000  0.11540000  1.0 0.3188808399
C  C48  1  0.70180000  0.73270000  0.88460000  1.0 0.3188808399
C  C49  1  0.33860000  0.93480000  0.71450000  1.0 0.5172810791
C  C50  1  0.66140000  0.06520000  0.28550000  1.0 0.5172810791
C  C51  1  0.38280000  0.88060000  0.75480000  1.0 -0.0825384358
C  C52  1  0.61720000  0.11940000  0.24520000  1.0 -0.0825384358
C  C53  1  0.43300000  0.83650000  0.74970000  1.0 -0.138337745
C  C54  1  0.56700000  0.16350000  0.25030000  1.0 -0.138337745
C  C55  1  0.46340000  0.79410000  0.79170000  1.0 -0.2112254711
C  C56  1  0.53660000  0.20590000  0.20830000  1.0 -0.2112254711
C  C57  1  0.43280000  0.80810000  0.83350000  1.0 -0.0709029461
C  C58  1  0.56720000  0.19190000  0.16650000  1.0 -0.0709029461
C  C59  1  0.44720000  0.77550000  0.89030000  1.0 0.4147277412
C  C60  1  0.55280000  0.22450000  0.10970000  1.0 0.4147277412
C  C61  1  0.58570000  0.30460000  0.28290000  1.0 -0.0997760097
C  C62  1  0.41430000  0.69540000  0.71710000  1.0 -0.0997760097
C  C63  1  0.60070000  0.24620000  0.31090000  1.0 -0.110992377
C  C64  1  0.39930000  0.75380000  0.68910000  1.0 -0.110992377
C  C65  1  0.72380000  0.16590000  0.33200000  1.0 0.3505950925
C  C66  1  0.27620000  0.83410000  0.66800000  1.0 0.3505950925
C  C67  1  0.21970000  0.18180000  0.32520000  1.0 0.4608543752
C  C68  1  0.78030000  0.81820000  0.67480000  1.0 0.4608543752
C  C69  1  0.24750000  0.20710000  0.26600000  1.0 -0.0997760097
C  C70  1  0.75250000  0.79290000  0.73400000  1.0 -0.0997760097
C  C71  1  0.32430000  0.20690000  0.25720000  1.0 -0.0134315441
C  C72  1  0.67570000  0.79310000  0.74280000  1.0 -0.0134315441
C  C73  1  0.33580000  0.23740000  0.20420000  1.0 -0.018344252
C  C74  1  0.66420000  0.76260000  0.79580000  1.0 -0.018344252
C  C75  1  0.28040000  0.25940000  0.17360000  1.0 -0.0451803791
C  C76  1  0.71960000  0.74060000  0.82640000  1.0 -0.0451803791
C  C77  1  0.28490000  0.28800000  0.11510000  1.0 0.3140605328
C  C78  1  0.71510000  0.71200000  0.88490000  1.0 0.3188808399
S  S1  1  0.24064000  0.79711000  0.28341000  1.0 0.200390817
S  S2  1  0.75936000  0.20289000  0.71659000  1.0 0.200390817
S  S3  1  0.68380000  0.28993000  0.31450000  1.0 0.0836099325
S  S4  1  0.31620000  0.71007000  0.68550000  1.0 0.0836099325
S  S5  1  0.27694000  0.38803000  0.31362000  1.0 0.3140605328
S  S6  1  0.72306000  0.61197000  0.68638000  1.0 0.3505950925
S  S7  1  0.23110000  0.20735000  0.21745000  1.0 0.1028574792
S  S8  1  0.76890000  0.79265000  0.78255000  1.0 0.1099399986
S  S9  1  0.36830000  0.87268000  0.81742000  1.0 0.1201743744
S  S10  1  0.63170000  0.12732000  0.18258000  1.0 0.1201743744
S  S11  1  0.72780000  0.28010000  0.27160000  1.0 0.1099399986
S  S12  1  0.27220000  0.71990000  0.72840000  1.0 0.1099399986
S  S13  1  0.19830000  0.24110000  0.21460000  1.0 0.0471493168
S  S14  1  0.80170000  0.75890000  0.78540000  1.0 0.0471493168
Cl  Cl1  1  0.53265000  0.62993000  0.09178000  1.0 -0.6494438636
Cl  Cl2  1  0.46735000  0.37007000  0.90822000  1.0 -0.6494438636
Cl  Cl3  1  0.27506000  0.79159000  0.05242000  1.0 -0.6389979246
Cl  Cl4  1  0.72494000  0.20841000  0.94758000  1.0 -0.6389979246
Cl  Cl5  1  0.24288000  0.65453000  0.19179000  1.0 -0.6494438636
Cl  Cl6  1  0.75712000  0.34547000  0.80821000  1.0 -0.6494438636
Cl  Cl7  1  0.63563000  0.71703000  0.17639000  1.0 -0.7138191524
Cl  Cl8  1  0.36437000  0.28297000  0.82361000  1.0 -0.7025217476
Cl  Cl9  1  0.79186000  0.68615000  0.06277000  1.0 -0.6389979246
Cl  Cl10  1  0.20814000  0.31385000  0.93723000  1.0 -0.6389979246
Cl  Cl11  1  0.76449000  0.55660000  0.19217000  1.0 -0.6809834304
Cl  Cl12  1  0.23551000  0.44340000  0.80783000  1.0 -0.6809834304
Cl  Cl13  1  0.57988000  0.59987000  0.91931000  1.0 -0.628452188
Cl  Cl14  1  0.42012000  0.40013000  0.08069000  1.0 -0.628452188
Cl  Cl15  1  0.28358000  0.60334000  0.02550000  1.0 -0.6184489789
Cl  Cl16  1  0.71642000  0.39666000  0.97450000  1.0 -0.6184489789
Cl  Cl17  1  0.17124000  0.07251000  0.54893000  1.0 -0.6494438636
Cl  Cl18  1  0.82876000  0.92749000  0.45107000  1.0 -0.6494438636
Cl  Cl19  1  0.10485000  0.26222000  0.57402000  1.0 -0.6689259025
Cl  Cl20  1  0.89515000  0.73778000  0.42598000  1.0 -0.6689259025
Cl  Cl21  1  0.13059000  0.12404000  0.70912000  1.0 -0.6494438636
Cl  Cl22  1  0.86941000  0.87596000  0.29088000  1.0 -0.6577568563
Cl  Cl23  1  0.41380000  0.10600000  0.40230000  1.0 0.1492793299
Cl  Cl24  1  0.58620000  0.89400000  0.59770000  1.0 0.1438263146
Cl  Cl25  1  0.00852000  0.93599000  0.56001000  1.0 -0.6934808555
Cl  Cl26  1  0.99148000  0.06401000  0.43999000  1.0 -0.6934808555
Cl  Cl27  1  0.88209000  0.06383000  0.57766000  1.0 -0.6494438636
Cl  Cl28  1  0.11791000  0.93617000  0.42234000  1.0 -0.6577568563
Cl  Cl29  1  0.45130000  0.94330000  0.57210000  1.0 0.0568534763
Cl  Cl30  1  0.54870000  0.05670000  0.42790000  1.0 0.0568534763
Cl  Cl31  1  0.31098000  0.93744000  0.42911000  1.0 -0.5378243985
Cl  Cl32  1  0.68902000  0.06256000  0.57089000  1.0 -0.5378243985
Cl  Cl33  1  0.02113000  0.93328000  0.75767000  1.0 -0.6100731435
Cl  Cl34  1  0.97887000  0.06672000  0.24233000  1.0 -0.6100731435
Cl  Cl35  1  0.46300000  0.75930000  0.89910000  1.0 0.2467854408
Cl  Cl36  1  0.53700000  0.24070000  0.10090000  1.0 0.2467854408
Cl  Cl37  1  0.32590000  0.94260000  0.70780000  1.0 0.5172810791
Cl  Cl38  1  0.67410000  0.05740000  0.29220000  1.0 0.5172810791
Cl  Cl39  1  0.59035000  0.85682000  0.41920000  1.0 -0.6184489789
Cl  Cl40  1  0.40965000  0.14318000  0.58080000  1.0 -0.6100731435
Cl  Cl41  1  0.06418000  0.72539000  0.56199000  1.0 -0.6689259025
Cl  Cl42  1  0.93582000  0.27461000  0.43801000  1.0 -0.6689259025
Cl  Cl43  1  0.17241000  0.50461000  0.97503000  1.0 -0.6389979246
Cl  Cl44  1  0.82759000  0.49539000  0.02497000  1.0 -0.6389979246
Cl  Cl45  1  0.44873000  0.12868000  0.01211000  1.0 -0.6389979246
Cl  Cl46  1  0.55127000  0.87132000  0.98789000  1.0 -0.6389979246
Cl  Cl47  1  0.52339000  0.45318000  0.67811000  1.0 -0.6577568563
Cl  Cl48  1  0.47661000  0.54682000  0.32189000  1.0 -0.6577568563
O  O1  1  0.42870000  0.72478000  0.01622000  1.0 -0.8517649186
O  O2  1  0.57130000  0.27522000  0.98378000  1.0 -0.8517649186
O  O3  1  0.33390000  0.65829000  0.08297000  1.0 -0.8607627414
O  O4  1  0.66610000  0.34171000  0.91703000  1.0 -0.8607627414
O  O5  1  0.39710000  0.58159000  0.16571000  1.0 -0.871200518
O  O6  1  0.60290000  0.41841000  0.83429000  1.0 -0.871200518
O  O7  1  0.41410000  0.63683000  0.21429000  1.0 -0.8424048911
O  O8  1  0.58590000  0.36317000  0.78571000  1.0 -0.8424048911
O  O9  1  0.50090000  0.70482000  0.14940000  1.0 -0.8848451438
O  O10  1  0.49910000  0.29518000  0.85060000  1.0 -0.8848451438
O  O11  1  0.44690000  0.77884000  0.06534000  1.0 -0.8517649186
O  O12  1  0.55310000  0.22116000  0.93466000  1.0 -0.8517649186
O  O13  1  0.43710000  0.64161000  0.99485000  1.0 -0.8200960005
O  O14  1  0.56290000  0.35839000  0.00515000  1.0 -0.8200960005
O  O15  1  0.41300000  0.54361000  0.09599000  1.0 -0.8104602269
O  O16  1  0.58700000  0.45639000  0.90401000  1.0 -0.8104602269
O  O17  1  0.50060000  0.52012000  0.22588000  1.0 -0.8517649186
O  O18  1  0.49940000  0.47988000  0.77412000  1.0 -0.8424048911
O  O19  1  0.57930000  0.60391000  0.20713000  1.0 -0.871200518
O  O20  1  0.42070000  0.39609000  0.79287000  1.0 -0.871200518
O  O21  1  0.60970000  0.74204000  0.06672000  1.0 -0.8517649186
O  O22  1  0.39030000  0.25796000  0.93328000  1.0 -0.8517649186
O  O23  1  0.55540000  0.76190000  0.97512000  1.0 -0.8200960005
O  O24  1  0.44460000  0.23810000  0.02488000  1.0 -0.8200960005
O  O25  1  0.54880000  0.55334000  0.03850000  1.0 -0.8104602269
O  O26  1  0.45120000  0.44666000  0.96150000  1.0 -0.8104602269
O  O27  1  0.63580000  0.52868000  0.16636000  1.0 -0.871200518
O  O28  1  0.36420000  0.47132000  0.83364000  1.0 -0.871200518
O  O29  1  0.66920000  0.67650000  0.01682000  1.0 -0.8104602269
O  O30  1  0.33080000  0.32350000  0.98318000  1.0 -0.8104602269
O  O31  1  0.67800000  0.59259000  0.99536000  1.0 -0.8026077213
O  O32  1  0.32200000  0.40741000  0.00464000  1.0 -0.8026077213
O  O33  1  0.66020000  0.49372000  0.09391000  1.0 -0.8200960005
O  O34  1  0.33980000  0.50628000  0.90609000  1.0 -0.8200960005
O  O35  1  0.73480000  0.57695000  0.08297000  1.0 -0.8517649186
O  O36  1  0.26520000  0.42305000  0.91703000  1.0 -0.8517649186
O  O37  1  0.53860000  0.43630000  0.10790000  1.0 -0.5310916366
O  O38  1  0.46140000  0.56370000  0.89210000  1.0 -0.5310916366
O  O39  1  0.02970000  0.20310000  0.53490000  1.0 -0.8607627414
O  O40  1  0.97030000  0.79690000  0.46510000  1.0 -0.8607627414
O  O41  1  0.00250000  0.10385000  0.59075000  1.0 -0.8932534518
O  O42  1  0.99750000  0.89615000  0.40925000  1.0 -0.8932534518
O  O43  1  0.05150000  0.05640000  0.67860000  1.0 -0.8319385933
O  O44  1  0.94850000  0.94360000  0.32140000  1.0 -0.8319385933
O  O45  1  0.20390000  0.04580000  0.65310000  1.0 -0.8424048911
O  O46  1  0.79610000  0.95420000  0.34690000  1.0 -0.8424048911
O  O47  1  0.23390000  0.14610000  0.59610000  1.0 -0.8607627414
O  O48  1  0.76610000  0.85390000  0.40390000  1.0 -0.8607627414
O  O49  1  0.18210000  0.19650000  0.50520000  1.0 -0.8607627414
O  O50  1  0.81790000  0.80350000  0.49480000  1.0 -0.8607627414
O  O51  1  0.32710000  0.14410000  0.50040000  1.0 -0.8104602269
O  O52  1  0.67290000  0.85590000  0.49960000  1.0 -0.8104602269
O  O53  1  0.11750000  0.20840000  0.43230000  1.0 -0.8424048911
O  O54  1  0.88250000  0.79160000  0.56770000  1.0 -0.8424048911
O  O55  1  0.13210000  0.10414000  0.44166000  1.0 -0.8319385933
O  O56  1  0.86790000  0.89586000  0.55834000  1.0 -0.8319385933
O  O57  1  0.34380000  0.04210000  0.50750000  1.0 -0.8104602269
O  O58  1  0.65620000  0.95790000  0.49250000  1.0 -0.8104602269
O  O59  1  0.28000000  0.05177000  0.43473000  1.0 -0.8104602269
O  O60  1  0.72000000  0.94823000  0.56527000  1.0 -0.8200960005
O  O61  1  0.00020000  0.14024000  0.49112000  1.0 -0.8607627414
O  O62  1  0.99980000  0.85976000  0.50888000  1.0 -0.8517649186
O  O63  1  0.02940000  0.99187000  0.63073000  1.0 -0.8517649186
O  O64  1  0.97060000  0.00813000  0.36927000  1.0 -0.8517649186
O  O65  1  0.16070000  0.94620000  0.58860000  1.0 -0.8200960005
O  O66  1  0.83930000  0.05380000  0.41140000  1.0 -0.8200960005
O  O67  1  0.15660000  0.99399000  0.48931000  1.0 -0.8200960005
O  O68  1  0.84340000  0.00601000  0.51069000  1.0 -0.8200960005
O  O69  1  0.16700000  0.95300000  0.67480000  1.0 -0.8319385933
O  O70  1  0.83300000  0.04700000  0.32520000  1.0 -0.8319385933
O  O71  1  0.34190000  0.04350000  0.59690000  1.0 -0.8319385933
O  O72  1  0.65810000  0.95650000  0.40310000  1.0 -0.8319385933
O  O73  1  0.29730000  0.94840000  0.53070000  1.0 -0.8026077213
O  O74  1  0.70270000  0.05160000  0.46930000  1.0 -0.8026077213
O  O75  1  0.32730000  0.75680000  0.16621000  1.0 -0.6389979246
O  O76  1  0.67270000  0.24320000  0.83379000  1.0 -0.6389979246
O  O77  1  0.38680000  0.75620000  0.22190000  1.0 -0.5863103332
O  O78  1  0.61320000  0.24380000  0.77810000  1.0 -0.5863103332
O  O79  1  0.02690000  0.81830000  0.35200000  1.0 -0.6007838907
O  O80  1  0.97310000  0.18170000  0.64800000  1.0 -0.6007838907
O  O81  1  0.12500000  0.84890000  0.34950000  1.0 -0.6100731435
O  O82  1  0.87500000  0.15110000  0.65050000  1.0 -0.6100731435
O  O83  1  0.60290000  0.41850000  0.19130000  1.0 -0.0007386945
O  O84  1  0.39710000  0.58150000  0.80870000  1.0 -0.0007386945
O  O85  1  0.63950000  0.41380000  0.25850000  1.0 -0.3192758225
O  O86  1  0.36050000  0.58620000  0.74150000  1.0 -0.3192758225
O  O87  1  0.71010000  0.13040000  0.35350000  1.0 -0.110992377
O  O88  1  0.28990000  0.86960000  0.64650000  1.0 -0.110992377
O  O89  1  0.73450000  0.17360000  0.39260000  1.0 -0.4066933753
O  O90  1  0.26550000  0.82640000  0.60740000  1.0 -0.4066933753
O  O91  1  0.43280000  0.45200000  0.19800000  1.0 -0.5659095111
O  O92  1  0.56720000  0.54800000  0.80200000  1.0 -0.5659095111
O  O93  1  0.31730000  0.49220000  0.22730000  1.0 -0.5839769306
O  O94  1  0.68270000  0.50780000  0.77270000  1.0 -0.5839769306
O  O95  1  0.19840000  0.30390000  0.40610000  1.0 -0.5460201564
O  O96  1  0.80160000  0.69610000  0.59390000  1.0 -0.5460201564
O  O97  1  0.28410000  0.22860000  0.40130000  1.0 -0.628452188
O  O98  1  0.71590000  0.77140000  0.59870000  1.0 -0.628452188
O  O99  1  0.24870000  0.15850000  0.35660000  1.0 -0.0825384358
O  O100  1  0.75130000  0.84150000  0.64340000  1.0 -0.0825384358
O  O101  1  0.13750000  0.18550000  0.32850000  1.0 -0.3010851355
O  O102  1  0.86250000  0.81450000  0.67150000  1.0 -0.3010851355
O  O103  1  0.33550000  0.30490000  0.08720000  1.0 -0.2027539449
O  O104  1  0.66450000  0.69510000  0.91280000  1.0 -0.2027539449
O  O105  1  0.27070000  0.24320000  0.10000000  1.0 -0.2628433766
O  O106  1  0.72930000  0.75680000  0.90000000  1.0 -0.2700046214
O  O107  1  0.33800000  0.93010000  0.67450000  1.0 -0.3192758225
O  O108  1  0.66200000  0.06990000  0.32550000  1.0 -0.3192758225
O  O109  1  0.28940000  0.96760000  0.73300000  1.0 -0.3192758225
O  O110  1  0.71060000  0.03240000  0.26700000  1.0 -0.3192758225
O  O111  1  0.49940000  0.73150000  0.90200000  1.0 -0.2628433766
O  O112  1  0.50060000  0.26850000  0.09800000  1.0 -0.2628433766
O  O113  1  0.41440000  0.80560000  0.91500000  1.0 -0.3856904271
O  O114  1  0.58560000  0.19440000  0.08500000  1.0 -0.3856904271
O  O115  1  0.38510000  0.13440000  0.39520000  1.0 -0.110992377
O  O116  1  0.61490000  0.86560000  0.60480000  1.0 -0.110992377
O  O117  1  0.43690000  0.91920000  0.57680000  1.0 -0.0997760097
O  O118  1  0.56310000  0.08080000  0.42320000  1.0 -0.0997760097
O  O119  1  0.57300000  0.42120000  0.20680000  1.0 -0.1308693892
O  O120  1  0.42700000  0.57880000  0.79320000  1.0 -0.1308693892
O  O121  1  0.69650000  0.40460000  0.21130000  1.0 -0.281807856
O  O122  1  0.30350000  0.59540000  0.78870000  1.0 -0.2700046214
O  O123  1  0.68940000  0.12690000  0.35040000  1.0 -0.2112254711
O  O124  1  0.31060000  0.87310000  0.64960000  1.0 -0.2112254711
O  O125  1  0.79480000  0.16090000  0.32620000  1.0 -0.281807856
O  O126  1  0.20520000  0.83910000  0.67380000  1.0 -0.281807856
O  O127  1  0.25140000  0.18180000  0.35710000  1.0 -0.1514373111
O  O128  1  0.74860000  0.81820000  0.64290000  1.0 -0.1514373111
O  O129  1  0.20070000  0.13880000  0.33070000  1.0 -0.1787035825
O  O130  1  0.79930000  0.86120000  0.66930000  1.0 -0.1787035825
O  O131  1  0.35250000  0.28690000  0.09140000  1.0 -0.2286152566
O  O132  1  0.64750000  0.71310000  0.90860000  1.0 -0.2286152566
O  O133  1  0.22500000  0.30890000  0.09540000  1.0 -0.2286152566
O  O134  1  0.77500000  0.69110000  0.90460000  1.0 -0.2286152566
