# DDEC6 charges by PACMAN v1.1 (https://github.com/mtap-research/PACMAN-charge/)
data_TILBIB_ion_pacman
_symmetry_space_group_name_H-M   'P 1'
_cell_length_a   18.63000000
_cell_length_b   27.45500000
_cell_length_c   29.60530000
_cell_angle_alpha   61.84730000
_cell_angle_beta   72.99000000
_cell_angle_gamma   70.48500000
_symmetry_Int_Tables_number   1
_chemical_formula_structural   Pr8Sb24H14C39S7Cl24O67
_chemical_formula_sum   'Pr16 Sb48 H28 C78 S14 Cl48 O134'
_cell_volume   12417.29301018
_cell_formula_units_Z   2
loop_
 _symmetry_equiv_pos_site_id
 _symmetry_equiv_pos_as_xyz
  1  'x, y, z'
loop_
 _atom_site_type_symbol
 _atom_site_label
 _atom_site_symmetry_multiplicity
 _atom_site_fract_x
 _atom_site_fract_y
 _atom_site_fract_z
 _atom_site_occupancy
 _atom_site_charge
Pr  Pr1  1  0.38272000  0.69805000  0.12331000  1.0 1.9683912727
Pr  Pr2  1  0.61728000  0.30195000  0.87669000  1.0 1.9683912727
Pr  Pr3  1  0.65822000  0.64315000  0.12216000  1.0 1.9277490112
Pr  Pr4  1  0.34178000  0.35685000  0.87784000  1.0 1.9232303037
Pr  Pr5  1  0.55716000  0.66910000  0.97815000  1.0 1.7571408484
Pr  Pr6  1  0.44284000  0.33090000  0.02185000  1.0 1.7655907604
Pr  Pr7  1  0.52562000  0.50983000  0.14203000  1.0 1.9427123997
Pr  Pr8  1  0.47438000  0.49017000  0.85797000  1.0 1.9427123997
Pr  Pr9  1  0.09840000  0.14462000  0.60834000  1.0 1.9629676673
Pr  Pr10  1  0.90160000  0.85538000  0.39166000  1.0 1.9629676673
Pr  Pr11  1  0.24782000  0.14042000  0.44562000  1.0 1.8116782639
Pr  Pr12  1  0.75218000  0.85958000  0.55438000  1.0 1.8116782639
Pr  Pr13  1  0.04914000  0.04042000  0.53507000  1.0 1.9232303037
Pr  Pr14  1  0.95086000  0.95958000  0.46493000  1.0 1.9232303037
Pr  Pr15  1  0.28166000  0.97071000  0.60452000  1.0 1.6621625754
Pr  Pr16  1  0.71834000  0.02929000  0.39548000  1.0 1.6621625754
Sb  Sb1  1  0.34418000  0.70095000  0.00727000  1.0 1.2611194286
Sb  Sb2  1  0.65582000  0.29905000  0.99273000  1.0 1.2701339457
Sb  Sb3  1  0.31887000  0.58073000  0.13278000  1.0 1.411239518
Sb  Sb4  1  0.68113000  0.41927000  0.86722000  1.0 1.433694515
Sb  Sb5  1  0.39434000  0.56176000  0.24047000  1.0 1.3012365235
Sb  Sb6  1  0.60566000  0.43824000  0.75953000  1.0 1.3012365235
Sb  Sb7  1  0.49443000  0.66233000  0.22537000  1.0 1.411239518
Sb  Sb8  1  0.50557000  0.33767000  0.77463000  1.0 1.411239518
Sb  Sb9  1  0.51819000  0.78250000  0.10136000  1.0 1.4457388851
Sb  Sb10  1  0.48181000  0.21750000  0.89864000  1.0 1.433694515
Sb  Sb11  1  0.44387000  0.80303000  0.99100000  1.0 1.2701339457
Sb  Sb12  1  0.55613000  0.19697000  0.00900000  1.0 1.2611194286
Sb  Sb13  1  0.44712000  0.55968000  0.02172000  1.0 1.2236813042
Sb  Sb14  1  0.55288000  0.44032000  0.97828000  1.0 1.2236813042
Sb  Sb15  1  0.60114000  0.51974000  0.23960000  1.0 1.3602187369
Sb  Sb16  1  0.39886000  0.48026000  0.76040000  1.0 1.340181205
Sb  Sb17  1  0.65010000  0.76133000  0.99169000  1.0 1.1786133382
Sb  Sb18  1  0.34990000  0.23867000  0.00831000  1.0 1.1786133382
Sb  Sb19  1  0.65864000  0.51806000  0.01854000  1.0 1.279135916
Sb  Sb20  1  0.34136000  0.48194000  0.98146000  1.0 1.2701339457
Sb  Sb21  1  0.73355000  0.49769000  0.12764000  1.0 1.3012365235
Sb  Sb22  1  0.26645000  0.50231000  0.87236000  1.0 1.3124657604
Sb  Sb23  1  0.75819000  0.61793000  0.00513000  1.0 1.1939935419
Sb  Sb24  1  0.24181000  0.38207000  0.99487000  1.0 1.2027939889
Sb  Sb25  1  0.94193000  0.17501000  0.54034000  1.0 1.3602187369
Sb  Sb26  1  0.05807000  0.82499000  0.45966000  1.0 1.3602187369
Sb  Sb27  1  0.13801000  0.00134000  0.71433000  1.0 1.2027939889
Sb  Sb28  1  0.86199000  0.99866000  0.28567000  1.0 1.2085184786
Sb  Sb29  1  0.29092000  0.07806000  0.64658000  1.0 1.2536054585
Sb  Sb30  1  0.70908000  0.92194000  0.35342000  1.0 1.2382844422
Sb  Sb31  1  0.26946000  0.20292000  0.52548000  1.0 1.3885262939
Sb  Sb32  1  0.73054000  0.79708000  0.47452000  1.0 1.3885262939
Sb  Sb33  1  0.05061000  0.17583000  0.41649000  1.0 1.1786133382
Sb  Sb34  1  0.94939000  0.82417000  0.58351000  1.0 1.1786133382
Sb  Sb35  1  0.19080000  0.04311000  0.41648000  1.0 1.1605461571
Sb  Sb36  1  0.80920000  0.95689000  0.58352000  1.0 1.1530487272
Sb  Sb37  1  0.10397000  0.91956000  0.66012000  1.0 1.2236813042
Sb  Sb38  1  0.89603000  0.08044000  0.33988000  1.0 1.2291793558
Sb  Sb39  1  0.36524000  0.99151000  0.46899000  1.0 1.1354671452
Sb  Sb40  1  0.63476000  0.00849000  0.53101000  1.0 1.1354671452
Sb  Sb41  1  0.40534000  0.07248000  0.52711000  1.0 1.1321786377
Sb  Sb42  1  0.59466000  0.92752000  0.47289000  1.0 1.1242804262
Sb  Sb43  1  0.09124000  0.25551000  0.47180000  1.0 1.345124099
Sb  Sb44  1  0.90876000  0.74449000  0.52820000  1.0 1.3323956463
Sb  Sb45  1  0.21243000  0.91676000  0.53327000  1.0 1.2611194286
Sb  Sb46  1  0.78757000  0.08324000  0.46673000  1.0 1.2611194286
Sb  Sb47  1  0.96333000  0.04904000  0.65856000  1.0 1.3736620876
Sb  Sb48  1  0.03667000  0.95096000  0.34144000  1.0 1.3842477533
H  H1  1  0.17630000  0.75520000  0.21200000  1.0 0.1596322241
H  H2  1  0.82370000  0.24480000  0.78800000  1.0 0.1596322241
H  H3  1  0.07080000  0.77670000  0.27700000  1.0 0.1528751734
H  H4  1  0.92920000  0.22330000  0.72300000  1.0 0.1528751734
H  H5  1  0.61520000  0.31450000  0.20980000  1.0 0.1413731012
H  H6  1  0.38480000  0.68550000  0.79020000  1.0 0.1413731012
H  H7  1  0.64690000  0.21240000  0.26110000  1.0 0.1201516796
H  H8  1  0.35310000  0.78760000  0.73890000  1.0 0.1201516796
H  H9  1  0.44860000  0.33530000  0.24520000  1.0 0.1311632304
H  H10  1  0.55140000  0.66470000  0.75480000  1.0 0.1311632304
H  H11  1  0.39340000  0.25870000  0.31850000  1.0 0.1201516796
H  H12  1  0.60660000  0.74130000  0.68150000  1.0 0.1201516796
H  H13  1  0.33780000  0.24050000  0.27090000  1.0 0.0981594953
H  H14  1  0.66220000  0.75950000  0.72910000  1.0 0.0981594953
H  H15  1  0.37790000  0.27870000  0.17710000  1.0 0.0981594953
H  H16  1  0.62210000  0.72130000  0.82290000  1.0 0.0981594953
H  H17  1  0.44800000  0.83040000  0.71870000  1.0 0.1311632304
H  H18  1  0.55200000  0.16960000  0.28130000  1.0 0.1311632304
H  H19  1  0.49480000  0.76020000  0.79550000  1.0 0.1311632304
H  H20  1  0.50520000  0.23980000  0.20450000  1.0 0.1311632304
H  H21  1  0.52900000  0.33780000  0.28450000  1.0 0.1311632304
H  H22  1  0.47100000  0.66220000  0.71550000  1.0 0.1311632304
H  H23  1  0.56610000  0.23470000  0.33270000  1.0 0.1311632304
H  H24  1  0.43390000  0.76530000  0.66730000  1.0 0.1311632304
H  H25  1  0.36020000  0.19480000  0.28000000  1.0 0.0879311446
H  H26  1  0.63980000  0.80520000  0.72000000  1.0 0.0879311446
H  H27  1  0.38730000  0.24760000  0.18660000  1.0 0.1097110781
H  H28  1  0.61270000  0.75240000  0.81340000  1.0 0.1201516796
C  C1  1  0.32830000  0.76200000  0.20630000  1.0 0.6484433346
C  C2  1  0.67170000  0.23800000  0.79370000  1.0 0.6484433346
C  C3  1  0.25160000  0.77210000  0.23810000  1.0 -0.0895871264
C  C4  1  0.74840000  0.22790000  0.76190000  1.0 -0.0895871264
C  C5  1  0.18260000  0.76680000  0.23590000  1.0 -0.0709740822
C  C6  1  0.81740000  0.23320000  0.76410000  1.0 -0.0709740822
C  C7  1  0.12190000  0.78010000  0.27240000  1.0 -0.0709740822
C  C8  1  0.87810000  0.21990000  0.72760000  1.0 -0.0709740822
C  C9  1  0.14380000  0.79820000  0.30040000  1.0 -0.0992787286
C  C10  1  0.85620000  0.20180000  0.69960000  1.0 -0.0992787286
C  C11  1  0.09350000  0.82200000  0.33810000  1.0 0.6484433346
C  C12  1  0.90650000  0.17800000  0.66190000  1.0 0.6434268686
C  C13  1  0.63000000  0.39410000  0.23020000  1.0 0.4830212328
C  C14  1  0.37000000  0.60590000  0.76980000  1.0 0.4830212328
C  C15  1  0.64930000  0.33130000  0.26070000  1.0 -0.0386883412
C  C16  1  0.35070000  0.66870000  0.73930000  1.0 -0.0386883412
C  C17  1  0.68140000  0.22890000  0.31120000  1.0 -0.0278339448
C  C18  1  0.31860000  0.77110000  0.68880000  1.0 -0.0278339448
C  C19  1  0.63560000  0.29790000  0.24110000  1.0 -0.0639204499
C  C20  1  0.36440000  0.70210000  0.75890000  1.0 -0.0639204499
C  C21  1  0.65340000  0.23990000  0.26950000  1.0 -0.1403988865
C  C22  1  0.34660000  0.76010000  0.73050000  1.0 -0.1403988865
C  C23  1  0.71150000  0.17380000  0.35790000  1.0 0.3271801952
C  C24  1  0.28850000  0.82620000  0.64210000  1.0 0.3271801952
C  C25  1  0.37150000  0.44960000  0.22690000  1.0 0.6343428525
C  C26  1  0.62850000  0.55040000  0.77310000  1.0 0.6343428525
C  C27  1  0.35790000  0.39290000  0.26440000  1.0 -0.0895871264
C  C28  1  0.64210000  0.60710000  0.73560000  1.0 -0.0992787286
C  C29  1  0.40210000  0.34130000  0.26800000  1.0 -0.1079101951
C  C30  1  0.59790000  0.65870000  0.73200000  1.0 -0.1079101951
C  C31  1  0.37010000  0.29780000  0.31010000  1.0 -0.1403988865
C  C32  1  0.62990000  0.70220000  0.68990000  1.0 -0.1403988865
C  C33  1  0.30420000  0.31570000  0.33750000  1.0 -0.0817992152
C  C34  1  0.69580000  0.68430000  0.66250000  1.0 -0.0817992152
C  C35  1  0.25720000  0.28060000  0.38540000  1.0 0.6241106126
C  C36  1  0.74280000  0.71940000  0.61460000  1.0 0.6241106126
C  C37  1  0.20610000  0.17760000  0.32010000  1.0 0.4404711756
C  C38  1  0.79390000  0.82240000  0.67990000  1.0 0.4404711756
C  C39  1  0.25460000  0.20900000  0.26800000  1.0 -0.1495828566
C  C40  1  0.74540000  0.79100000  0.73200000  1.0 -0.1495828566
C  C41  1  0.31420000  0.23680000  0.24860000  1.0 -0.0278339448
C  C42  1  0.68580000  0.76320000  0.75140000  1.0 -0.0278339448
C  C43  1  0.33790000  0.25890000  0.19530000  1.0 -0.0278339448
C  C44  1  0.66210000  0.74110000  0.80470000  1.0 -0.0278339448
C  C45  1  0.29380000  0.24730000  0.17330000  1.0 -0.0992787286
C  C46  1  0.70620000  0.75270000  0.82670000  1.0 -0.0992787286
C  C47  1  0.29840000  0.26810000  0.11500000  1.0 0.4177559349
C  C48  1  0.70160000  0.73190000  0.88500000  1.0 0.4177559349
C  C49  1  0.34050000  0.93420000  0.71410000  1.0 0.4495905224
C  C50  1  0.65950000  0.06580000  0.28590000  1.0 0.4495905224
C  C51  1  0.38360000  0.87970000  0.75470000  1.0 -0.0895871264
C  C52  1  0.61640000  0.12030000  0.24530000  1.0 -0.0895871264
C  C53  1  0.43260000  0.83450000  0.75050000  1.0 -0.1296751392
C  C54  1  0.56740000  0.16550000  0.24950000  1.0 -0.1296751392
C  C55  1  0.45910000  0.79500000  0.79340000  1.0 -0.1807926488
C  C56  1  0.54090000  0.20500000  0.20660000  1.0 -0.1807926488
C  C57  1  0.43040000  0.80910000  0.83360000  1.0 -0.0544318747
C  C58  1  0.56960000  0.19090000  0.16640000  1.0 -0.0544318747
C  C59  1  0.44460000  0.77670000  0.89050000  1.0 0.4094682816
C  C60  1  0.55540000  0.22330000  0.10950000  1.0 0.4094682816
C  C61  1  0.58010000  0.31480000  0.28560000  1.0 -0.1163458046
C  C62  1  0.41990000  0.68520000  0.71440000  1.0 -0.1163458046
C  C63  1  0.60390000  0.25630000  0.31270000  1.0 -0.0817992152
C  C64  1  0.39610000  0.74370000  0.68730000  1.0 -0.0817992152
C  C65  1  0.72000000  0.16480000  0.33710000  1.0 0.3366970006
C  C66  1  0.28000000  0.83520000  0.66290000  1.0 0.3366970006
C  C67  1  0.21550000  0.18360000  0.32350000  1.0 0.4495905224
C  C68  1  0.78450000  0.81640000  0.67650000  1.0 0.4495905224
C  C69  1  0.24980000  0.20740000  0.26570000  1.0 -0.1296751392
C  C70  1  0.75020000  0.79260000  0.73430000  1.0 -0.1296751392
C  C71  1  0.32540000  0.20990000  0.25620000  1.0 0.0006743451
C  C72  1  0.67460000  0.79010000  0.74380000  1.0 0.0006743451
C  C73  1  0.33770000  0.24010000  0.20310000  1.0 -0.0386883412
C  C74  1  0.66230000  0.75990000  0.79690000  1.0 -0.0386883412
C  C75  1  0.28200000  0.25990000  0.17290000  1.0 -0.0895871264
C  C76  1  0.71800000  0.74010000  0.82710000  1.0 -0.0895871264
C  C77  1  0.28780000  0.28380000  0.11440000  1.0 0.4094682816
C  C78  1  0.71220000  0.71620000  0.88560000  1.0 0.4094682816
S  S1  1  0.24016000  0.79720000  0.28371000  1.0 0.2011425156
S  S2  1  0.75984000  0.20280000  0.71629000  1.0 0.2011425156
S  S3  1  0.68480000  0.29053000  0.31487000  1.0 0.1097110781
S  S4  1  0.31520000  0.70947000  0.68513000  1.0 0.1097110781
S  S5  1  0.27825000  0.38811000  0.31231000  1.0 0.2412573629
S  S6  1  0.72175000  0.61189000  0.68769000  1.0 0.2679737839
S  S7  1  0.22710000  0.21040000  0.21670000  1.0 0.0981594953
S  S8  1  0.77290000  0.78960000  0.78330000  1.0 0.0981594953
S  S9  1  0.36720000  0.87500000  0.81650000  1.0 0.1311632304
S  S10  1  0.63280000  0.12500000  0.18350000  1.0 0.1311632304
S  S11  1  0.73170000  0.27950000  0.27070000  1.0 0.1097110781
S  S12  1  0.26830000  0.72050000  0.72930000  1.0 0.1097110781
S  S13  1  0.20160000  0.23930000  0.21410000  1.0 0.0619640458
S  S14  1  0.79840000  0.76070000  0.78590000  1.0 0.0619640458
Cl  Cl1  1  0.53234000  0.63066000  0.09148000  1.0 -0.6508084469
Cl  Cl2  1  0.46766000  0.36934000  0.90852000  1.0 -0.6508084469
Cl  Cl3  1  0.27327000  0.79240000  0.05294000  1.0 -0.6318508552
Cl  Cl4  1  0.72673000  0.20760000  0.94706000  1.0 -0.6318508552
Cl  Cl5  1  0.24317000  0.65456000  0.19234000  1.0 -0.6399179167
Cl  Cl6  1  0.75683000  0.34544000  0.80766000  1.0 -0.6399179167
Cl  Cl7  1  0.63539000  0.71903000  0.17583000  1.0 -0.711328831
Cl  Cl8  1  0.36461000  0.28097000  0.82417000  1.0 -0.711328831
Cl  Cl9  1  0.79099000  0.68779000  0.06248000  1.0 -0.6508084469
Cl  Cl10  1  0.20901000  0.31221000  0.93752000  1.0 -0.6399179167
Cl  Cl11  1  0.76531000  0.55810000  0.19127000  1.0 -0.6865635581
Cl  Cl12  1  0.23469000  0.44190000  0.80873000  1.0 -0.6771713164
Cl  Cl13  1  0.57837000  0.60050000  0.91900000  1.0 -0.6318508552
Cl  Cl14  1  0.42163000  0.39950000  0.08100000  1.0 -0.6318508552
Cl  Cl15  1  0.28290000  0.60323000  0.02592000  1.0 -0.6176646021
Cl  Cl16  1  0.71710000  0.39677000  0.97408000  1.0 -0.6123463445
Cl  Cl17  1  0.54958000  0.87302000  0.98761000  1.0 -0.6399179167
Cl  Cl18  1  0.45042000  0.12698000  0.01239000  1.0 -0.6399179167
Cl  Cl19  1  0.17156000  0.07267000  0.54839000  1.0 -0.6508084469
Cl  Cl20  1  0.82844000  0.92733000  0.45161000  1.0 -0.6399179167
Cl  Cl21  1  0.10471000  0.26425000  0.57184000  1.0 -0.6508084469
Cl  Cl22  1  0.89529000  0.73575000  0.42816000  1.0 -0.6614036229
Cl  Cl23  1  0.12930000  0.12688000  0.70771000  1.0 -0.6399179167
Cl  Cl24  1  0.87070000  0.87312000  0.29229000  1.0 -0.6399179167
Cl  Cl25  1  0.41520000  0.10320000  0.40290000  1.0 0.1201516796
Cl  Cl26  1  0.58480000  0.89680000  0.59710000  1.0 0.1201516796
Cl  Cl27  1  0.00890000  0.93598000  0.56002000  1.0 -0.6865635581
Cl  Cl28  1  0.99110000  0.06402000  0.43998000  1.0 -0.6865635581
Cl  Cl29  1  0.88225000  0.06429000  0.57744000  1.0 -0.6508084469
Cl  Cl30  1  0.11775000  0.93571000  0.42256000  1.0 -0.6508084469
Cl  Cl31  1  0.45150000  0.94260000  0.57220000  1.0 0.0265564262
Cl  Cl32  1  0.54850000  0.05740000  0.42780000  1.0 0.0265564262
Cl  Cl33  1  0.30996000  0.93712000  0.42824000  1.0 -0.5376425651
Cl  Cl34  1  0.69004000  0.06288000  0.57176000  1.0 -0.5376425651
Cl  Cl35  1  0.02255000  0.93346000  0.75659000  1.0 -0.6123463445
Cl  Cl36  1  0.97745000  0.06654000  0.24341000  1.0 -0.6123463445
Cl  Cl37  1  0.41045000  0.14345000  0.57901000  1.0 -0.6123463445
Cl  Cl38  1  0.58955000  0.85655000  0.42099000  1.0 -0.6123463445
Cl  Cl39  1  0.46050000  0.75940000  0.89880000  1.0 0.2412573629
Cl  Cl40  1  0.53950000  0.24060000  0.10120000  1.0 0.2412573629
Cl  Cl41  1  0.32920000  0.94430000  0.70420000  1.0 0.3658377263
Cl  Cl42  1  0.67080000  0.05570000  0.29580000  1.0 0.3658377263
Cl  Cl43  1  0.06584000  0.72464000  0.56242000  1.0 -0.6508084469
Cl  Cl44  1  0.93416000  0.27536000  0.43758000  1.0 -0.6508084469
Cl  Cl45  1  0.17265000  0.50413000  0.97546000  1.0 -0.6399179167
Cl  Cl46  1  0.82735000  0.49587000  0.02454000  1.0 -0.6399179167
Cl  Cl47  1  0.52251000  0.45228000  0.67838000  1.0 -0.6614036229
Cl  Cl48  1  0.47749000  0.54772000  0.32162000  1.0 -0.6614036229
O  O1  1  0.42690000  0.72600000  0.01610000  1.0 -0.850448913
O  O2  1  0.57310000  0.27400000  0.98390000  1.0 -0.850448913
O  O3  1  0.33333333  0.65860000  0.08360000  1.0 -0.8667527106
O  O4  1  0.66666667  0.34140000  0.91640000  1.0 -0.8667527106
O  O5  1  0.39700000  0.58230000  0.16550000  1.0 -0.8667527106
O  O6  1  0.60300000  0.41770000  0.83450000  1.0 -0.8667527106
O  O7  1  0.41410000  0.63780000  0.21400000  1.0 -0.8416265932
O  O8  1  0.58590000  0.36220000  0.78600000  1.0 -0.8416265932
O  O9  1  0.49990000  0.70630000  0.14910000  1.0 -0.8795382794
O  O10  1  0.50010000  0.29370000  0.85090000  1.0 -0.8795382794
O  O11  1  0.44590000  0.78000000  0.06530000  1.0 -0.850448913
O  O12  1  0.55410000  0.22000000  0.93470000  1.0 -0.850448913
O  O13  1  0.43550000  0.64240000  0.99540000  1.0 -0.8198465145
O  O14  1  0.56450000  0.35760000  0.00460000  1.0 -0.829047848
O  O15  1  0.41350000  0.54320000  0.09610000  1.0 -0.8094330911
O  O16  1  0.58650000  0.45680000  0.90390000  1.0 -0.8094330911
O  O17  1  0.50230000  0.52030000  0.22570000  1.0 -0.8416265932
O  O18  1  0.49770000  0.47970000  0.77430000  1.0 -0.8416265932
O  O19  1  0.58080000  0.60500000  0.20620000  1.0 -0.8795382794
O  O20  1  0.41920000  0.39500000  0.79380000  1.0 -0.8795382794
O  O21  1  0.60890000  0.74350000  0.06630000  1.0 -0.8588379887
O  O22  1  0.39110000  0.25650000  0.93370000  1.0 -0.850448913
O  O23  1  0.55280000  0.76310000  0.97500000  1.0 -0.829047848
O  O24  1  0.44720000  0.23690000  0.02500000  1.0 -0.829047848
O  O25  1  0.54850000  0.55380000  0.03790000  1.0 -0.8094330911
O  O26  1  0.45150000  0.44620000  0.96210000  1.0 -0.8094330911
O  O27  1  0.63690000  0.52940000  0.16630000  1.0 -0.8667527106
O  O28  1  0.36310000  0.47060000  0.83370000  1.0 -0.8588379887
O  O29  1  0.66790000  0.67780000  0.01640000  1.0 -0.8198465145
O  O30  1  0.33210000  0.32220000  0.98360000  1.0 -0.8198465145
O  O31  1  0.67770000  0.59360000  0.99470000  1.0 -0.8030043807
O  O32  1  0.32230000  0.40640000  0.00530000  1.0 -0.8094330911
O  O33  1  0.66100000  0.49450000  0.09260000  1.0 -0.8198465145
O  O34  1  0.33900000  0.50550000  0.90740000  1.0 -0.8094330911
O  O35  1  0.73460000  0.57830000  0.08200000  1.0 -0.850448913
O  O36  1  0.26540000  0.42170000  0.91800000  1.0 -0.850448913
O  O37  1  0.54060000  0.43640000  0.10710000  1.0 -0.5256382492
O  O38  1  0.45940000  0.56360000  0.89290000  1.0 -0.5256382492
O  O39  1  0.02940000  0.20430000  0.53420000  1.0 -0.8667527106
O  O40  1  0.97060000  0.79570000  0.46580000  1.0 -0.8667527106
O  O41  1  0.00250000  0.10480000  0.59000000  1.0 -0.8921616342
O  O42  1  0.99750000  0.89520000  0.41000000  1.0 -0.8921616342
O  O43  1  0.05120000  0.05790000  0.67840000  1.0 -0.829047848
O  O44  1  0.94880000  0.94210000  0.32160000  1.0 -0.829047848
O  O45  1  0.20470000  0.04750000  0.65310000  1.0 -0.8416265932
O  O46  1  0.79530000  0.95250000  0.34690000  1.0 -0.8416265932
O  O47  1  0.23360000  0.14790000  0.59490000  1.0 -0.8667527106
O  O48  1  0.76640000  0.85210000  0.40510000  1.0 -0.8667527106
O  O49  1  0.18060000  0.19760000  0.50430000  1.0 -0.8588379887
O  O50  1  0.81940000  0.80240000  0.49570000  1.0 -0.8588379887
O  O51  1  0.32660000  0.14330000  0.49930000  1.0 -0.8198465145
O  O52  1  0.67340000  0.85670000  0.50070000  1.0 -0.8198465145
O  O53  1  0.11630000  0.20900000  0.43070000  1.0 -0.8416265932
O  O54  1  0.88370000  0.79100000  0.56930000  1.0 -0.8416265932
O  O55  1  0.13120000  0.10470000  0.44130000  1.0 -0.829047848
O  O56  1  0.86880000  0.89530000  0.55870000  1.0 -0.8198465145
O  O57  1  0.34470000  0.03940000  0.50840000  1.0 -0.8094330911
O  O58  1  0.65530000  0.96060000  0.49160000  1.0 -0.8030043807
O  O59  1  0.27960000  0.05080000  0.43510000  1.0 -0.8094330911
O  O60  1  0.72040000  0.94920000  0.56490000  1.0 -0.8094330911
O  O61  1  0.99950000  0.14080000  0.49080000  1.0 -0.850448913
O  O62  1  0.00050000  0.85920000  0.50920000  1.0 -0.850448913
O  O63  1  0.02990000  0.99240000  0.63050000  1.0 -0.8416265932
O  O64  1  0.97010000  0.00760000  0.36950000  1.0 -0.8416265932
O  O65  1  0.16160000  0.94630000  0.58790000  1.0 -0.8198465145
O  O66  1  0.83840000  0.05370000  0.41210000  1.0 -0.8198465145
O  O67  1  0.15520000  0.99380000  0.48920000  1.0 -0.8198465145
O  O68  1  0.84480000  0.00620000  0.51080000  1.0 -0.8198465145
O  O69  1  0.16800000  0.95450000  0.67360000  1.0 -0.829047848
O  O70  1  0.83200000  0.04550000  0.32640000  1.0 -0.829047848
O  O71  1  0.34300000  0.04270000  0.59670000  1.0 -0.8198465145
O  O72  1  0.65700000  0.95730000  0.40330000  1.0 -0.8198465145
O  O73  1  0.29790000  0.94700000  0.53020000  1.0 -0.8094330911
O  O74  1  0.70210000  0.05300000  0.46980000  1.0 -0.8094330911
O  O75  1  0.32680000  0.75810000  0.16580000  1.0 -0.6399179167
O  O76  1  0.67320000  0.24190000  0.83420000  1.0 -0.6399179167
O  O77  1  0.38610000  0.75810000  0.22140000  1.0 -0.5716740754
O  O78  1  0.61390000  0.24190000  0.77860000  1.0 -0.5716740754
O  O79  1  0.02580000  0.81700000  0.35310000  1.0 -0.6123463445
O  O80  1  0.97420000  0.18300000  0.64690000  1.0 -0.6123463445
O  O81  1  0.12500000  0.84790000  0.35070000  1.0 -0.6123463445
O  O82  1  0.87500000  0.15210000  0.64930000  1.0 -0.6123463445
O  O83  1  0.60510000  0.41890000  0.19080000  1.0 -0.0278339448
O  O84  1  0.39490000  0.58110000  0.80920000  1.0 -0.0278339448
O  O85  1  0.64100000  0.41440000  0.25880000  1.0 -0.3170393971
O  O86  1  0.35900000  0.58560000  0.74120000  1.0 -0.3170393971
O  O87  1  0.71240000  0.13070000  0.35300000  1.0 -0.0386883412
O  O88  1  0.28760000  0.86930000  0.64700000  1.0 -0.0278339448
O  O89  1  0.73540000  0.17450000  0.39320000  1.0 -0.4313015011
O  O90  1  0.26460000  0.82550000  0.60680000  1.0 -0.4313015011
O  O91  1  0.43690000  0.45040000  0.19860000  1.0 -0.5716740754
O  O92  1  0.56310000  0.54960000  0.80140000  1.0 -0.5716740754
O  O93  1  0.31890000  0.49220000  0.22510000  1.0 -0.5871776012
O  O94  1  0.68110000  0.50780000  0.77490000  1.0 -0.5871776012
O  O95  1  0.19770000  0.30520000  0.40500000  1.0 -0.5576308635
O  O96  1  0.80230000  0.69480000  0.59500000  1.0 -0.5576308635
O  O97  1  0.28340000  0.22850000  0.40100000  1.0 -0.6318508552
O  O98  1  0.71660000  0.77150000  0.59900000  1.0 -0.6318508552
O  O99  1  0.24690000  0.15560000  0.35510000  1.0 -0.1296751392
O  O100  1  0.75310000  0.84440000  0.64490000  1.0 -0.1296751392
O  O101  1  0.13250000  0.19240000  0.32720000  1.0 -0.2285606878
O  O102  1  0.86750000  0.80760000  0.67280000  1.0 -0.2424559659
O  O103  1  0.33650000  0.30510000  0.08730000  1.0 -0.196970087
O  O104  1  0.66350000  0.69490000  0.91270000  1.0 -0.1943027493
O  O105  1  0.26940000  0.24450000  0.09950000  1.0 -0.2798145902
O  O106  1  0.73060000  0.75550000  0.90050000  1.0 -0.2798145902
O  O107  1  0.33830000  0.92650000  0.67610000  1.0 -0.2798145902
O  O108  1  0.66170000  0.07350000  0.32390000  1.0 -0.2798145902
O  O109  1  0.29940000  0.97300000  0.72790000  1.0 -0.3099672315
O  O110  1  0.70060000  0.02700000  0.27210000  1.0 -0.3099672315
O  O111  1  0.49730000  0.73210000  0.90210000  1.0 -0.2707978156
O  O112  1  0.50270000  0.26790000  0.09790000  1.0 -0.2707978156
O  O113  1  0.41140000  0.80620000  0.91620000  1.0 -0.3983670142
O  O114  1  0.58860000  0.19380000  0.08380000  1.0 -0.3983670142
O  O115  1  0.38590000  0.13330000  0.39630000  1.0 -0.0992787286
O  O116  1  0.61410000  0.86670000  0.60370000  1.0 -0.1079101951
O  O117  1  0.43180000  0.91380000  0.57880000  1.0 -0.0895871264
O  O118  1  0.56820000  0.08620000  0.42120000  1.0 -0.0895871264
O  O119  1  0.57110000  0.42210000  0.20890000  1.0 -0.1495828566
O  O120  1  0.42890000  0.57790000  0.79110000  1.0 -0.1403988865
O  O121  1  0.69610000  0.40500000  0.21300000  1.0 -0.2622877327
O  O122  1  0.30390000  0.59500000  0.78700000  1.0 -0.2622877327
O  O123  1  0.68600000  0.12800000  0.34600000  1.0 -0.1403988865
O  O124  1  0.31400000  0.87200000  0.65400000  1.0 -0.1403988865
O  O125  1  0.79200000  0.16200000  0.32200000  1.0 -0.298701596
O  O126  1  0.20800000  0.83800000  0.67800000  1.0 -0.298701596
O  O127  1  0.24960000  0.17620000  0.35750000  1.0 -0.1495828566
O  O128  1  0.75040000  0.82380000  0.64250000  1.0 -0.1495828566
O  O129  1  0.14970000  0.17540000  0.32990000  1.0 -0.1807926488
O  O130  1  0.85030000  0.82460000  0.67010000  1.0 -0.1807926488
O  O131  1  0.35540000  0.28590000  0.09230000  1.0 -0.2285606878
O  O132  1  0.64460000  0.71410000  0.90770000  1.0 -0.2285606878
O  O133  1  0.22690000  0.30870000  0.09550000  1.0 -0.2424559659
O  O134  1  0.77310000  0.69130000  0.90450000  1.0 -0.2424559659
