# DDEC6 charges by PACMAN v1.1 (https://github.com/mtap-research/PACMAN-charge/)
data_TILBOH_ion_pacman
_symmetry_space_group_name_H-M   'P 1'
_cell_length_a   18.09730000
_cell_length_b   27.35540000
_cell_length_c   28.90520000
_cell_angle_alpha   109.66200000
_cell_angle_beta   105.12300000
_cell_angle_gamma   107.42100000
_symmetry_Int_Tables_number   1
_chemical_formula_structural   Pr16Sb48H24C72S12Cl48O127
_chemical_formula_sum   'Pr16 Sb48 H24 C72 S12 Cl48 O127'
_cell_volume   11769.95853532
_cell_formula_units_Z   1
loop_
 _symmetry_equiv_pos_site_id
 _symmetry_equiv_pos_as_xyz
  1  'x, y, z'
loop_
 _atom_site_type_symbol
 _atom_site_label
 _atom_site_symmetry_multiplicity
 _atom_site_fract_x
 _atom_site_fract_y
 _atom_site_fract_z
 _atom_site_occupancy
 _atom_site_charge
Pr  Pr1  1  0.92422000  0.98519000  0.55135000  1.0 2.0405929069
Pr  Pr2  1  0.07578000  0.01481000  0.44865000  1.0 2.0343008022
Pr  Pr3  1  0.92386000  0.30254000  0.12105000  1.0 1.9605470876
Pr  Pr4  1  0.07614000  0.69746000  0.87895000  1.0 1.9544229488
Pr  Pr5  1  0.69359000  0.35708000  0.11631000  1.0 1.9111636262
Pr  Pr6  1  0.30641000  0.64292000  0.88369000  1.0 1.9111636262
Pr  Pr7  1  0.78136000  0.32921000  0.97138000  1.0 1.8886460046
Pr  Pr8  1  0.21864000  0.67079000  0.02862000  1.0 1.8886460046
Pr  Pr9  1  0.95914000  0.49380000  0.14492000  1.0 2.0543515662
Pr  Pr10  1  0.04086000  0.50620000  0.85508000  1.0 2.0405929069
Pr  Pr11  1  0.77796000  0.85400000  0.61045000  1.0 1.8455576877
Pr  Pr12  1  0.22204000  0.14600000  0.38955000  1.0 1.8371273259
Pr  Pr13  1  0.61660000  0.86797000  0.45640000  1.0 2.0090586722
Pr  Pr14  1  0.38340000  0.13203000  0.54360000  1.0 2.0017174463
Pr  Pr15  1  0.73748000  0.02609000  0.63826000  1.0 2.0090586722
Pr  Pr16  1  0.26252000  0.97391000  0.36174000  1.0 2.0090586722
Sb  Sb1  1  0.96946000  0.29970000  0.00279000  1.0 1.5295384507
Sb  Sb2  1  0.03054000  0.70030000  0.99721000  1.0 1.5295384507
Sb  Sb3  1  0.10255000  0.42217000  0.13497000  1.0 1.4496680478
Sb  Sb4  1  0.89745000  0.57783000  0.86503000  1.0 1.4392626266
Sb  Sb5  1  0.03648000  0.44226000  0.24432000  1.0 1.3812104047
Sb  Sb6  1  0.96352000  0.55774000  0.75568000  1.0 1.3882599453
Sb  Sb7  1  0.83409000  0.33925000  0.22198000  1.0 1.3812104047
Sb  Sb8  1  0.16591000  0.66075000  0.77802000  1.0 1.3690454542
Sb  Sb9  1  0.70186000  0.21728000  0.09264000  1.0 1.413025556
Sb  Sb10  1  0.29814000  0.78272000  0.90736000  1.0 1.4014838319
Sb  Sb11  1  0.76353000  0.19444000  0.98032000  1.0 1.413025556
Sb  Sb12  1  0.23647000  0.80556000  0.01968000  1.0 1.4014838319
Sb  Sb13  1  0.99817000  0.44154000  0.02129000  1.0 1.2905739526
Sb  Sb14  1  0.00183000  0.55846000  0.97871000  1.0 1.2843799571
Sb  Sb15  1  0.86186000  0.48222000  0.24076000  1.0 1.4332275371
Sb  Sb16  1  0.13814000  0.51778000  0.75924000  1.0 1.4228816013
Sb  Sb17  1  0.59211000  0.23726000  0.98069000  1.0 1.1984422187
Sb  Sb18  1  0.40789000  0.76274000  0.01931000  1.0 1.1984422187
Sb  Sb19  1  0.82016000  0.48196000  0.01688000  1.0 1.3257800321
Sb  Sb20  1  0.17984000  0.51804000  0.98312000  1.0 1.3128193597
Sb  Sb21  1  0.75581000  0.50314000  0.12780000  1.0 1.3882599453
Sb  Sb22  1  0.24419000  0.49686000  0.87220000  1.0 1.3812104047
Sb  Sb23  1  0.62116000  0.38102000  0.99795000  1.0 1.2315976004
Sb  Sb24  1  0.37884000  0.61898000  0.00205000  1.0 1.2373661976
Sb  Sb25  1  0.91268000  0.84209000  0.53653000  1.0 1.3481216411
Sb  Sb26  1  0.08732000  0.15791000  0.46347000  1.0 1.3411728124
Sb  Sb27  1  0.86506000  0.98948000  0.73484000  1.0 1.413025556
Sb  Sb28  1  0.13494000  0.01052000  0.26516000  1.0 1.413025556
Sb  Sb29  1  0.63589000  0.90237000  0.66404000  1.0 1.3690454542
Sb  Sb30  1  0.36411000  0.09763000  0.33596000  1.0 1.3600717763
Sb  Sb31  1  0.54533000  0.78858000  0.52858000  1.0 1.2056184987
Sb  Sb32  1  0.45467000  0.21142000  0.47142000  1.0 1.2056184987
Sb  Sb33  1  0.80102000  0.85366000  0.41989000  1.0 1.1984422187
Sb  Sb34  1  0.19898000  0.14634000  0.58011000  1.0 1.1984422187
Sb  Sb35  1  0.75995000  0.98445000  0.44093000  1.0 1.2220500092
Sb  Sb36  1  0.24005000  0.01555000  0.55907000  1.0 1.2220500092
Sb  Sb37  1  0.96726000  0.08650000  0.68815000  1.0 1.3600717763
Sb  Sb38  1  0.03274000  0.91350000  0.31185000  1.0 1.3690454542
Sb  Sb39  1  0.84941000  0.10102000  0.57410000  1.0 1.3202160577
Sb  Sb40  1  0.15059000  0.89898000  0.42590000  1.0 1.3035478572
Sb  Sb41  1  0.62529000  0.01740000  0.50631000  1.0 1.2373661976
Sb  Sb42  1  0.37471000  0.98260000  0.49369000  1.0 1.2315976004
Sb  Sb43  1  0.68553000  0.75704000  0.46264000  1.0 1.1858872156
Sb  Sb44  1  0.31447000  0.24296000  0.53736000  1.0 1.1858872156
Sb  Sb45  1  0.51462000  0.91704000  0.55309000  1.0 1.3882599453
Sb  Sb46  1  0.48538000  0.08296000  0.44691000  1.0 1.3882599453
Sb  Sb47  1  0.00318000  0.95884000  0.66938000  1.0 1.4392626266
Sb  Sb48  1  0.99682000  0.04116000  0.33062000  1.0 1.4392626266
H  H1  1  0.45150000  0.81110000  0.30350000  1.0 0.1398306432
H  H2  1  0.54850000  0.18890000  0.69650000  1.0 0.1398306432
H  H3  1  0.35340000  0.75900000  0.20850000  1.0 0.1597826337
H  H4  1  0.64660000  0.24100000  0.79150000  1.0 0.1597826337
H  H5  1  0.06950000  0.25910000  0.22800000  1.0 0.1696808765
H  H6  1  0.93050000  0.74090000  0.77200000  1.0 0.1781913072
H  H7  1  0.14280000  0.23700000  0.29690000  1.0 0.1491440887
H  H8  1  0.85720000  0.76300000  0.70310000  1.0 0.1597826337
H  H9  1  0.91830000  0.70980000  0.29520000  1.0 0.1597826337
H  H10  1  0.08170000  0.29020000  0.70480000  1.0 0.1597826337
H  H11  1  0.02060000  0.80590000  0.31870000  1.0 0.1081158089
H  H12  1  0.97940000  0.19410000  0.68130000  1.0 0.1038616503
H  H13  1  0.21620000  0.67360000  0.24880000  1.0 0.1491440887
H  H14  1  0.78380000  0.32640000  0.75120000  1.0 0.1491440887
H  H15  1  0.35480000  0.75030000  0.31680000  1.0 0.1491440887
H  H16  1  0.64520000  0.24970000  0.68320000  1.0 0.1491440887
H  H17  1  0.70400000  0.65540000  0.48020000  1.0 0.1081158089
H  H18  1  0.29600000  0.34460000  0.51980000  1.0 0.1081158089
H  H19  1  0.72150000  0.56560000  0.45810000  1.0 0.1781913072
H  H20  1  0.27850000  0.43440000  0.54190000  1.0 0.1781913072
H  H21  1  0.46610000  0.83860000  0.30630000  1.0 0.1398306432
H  H22  1  0.53390000  0.16140000  0.69370000  1.0 0.1398306432
H  H23  1  0.36760000  0.77570000  0.21140000  1.0 0.1696808765
H  H24  1  0.63240000  0.22430000  0.78860000  1.0 0.1696808765
C  C1  1  0.63350000  0.85380000  0.33500000  1.0 0.5310404132
C  C2  1  0.36650000  0.14620000  0.66500000  1.0 0.5310404132
C  C3  1  0.55370000  0.82100000  0.28330000  1.0 -0.1133465023
C  C4  1  0.44630000  0.17900000  0.71670000  1.0 -0.1133465023
C  C5  1  0.46970000  0.80350000  0.27490000  1.0 -0.0312020054
C  C6  1  0.53030000  0.19650000  0.72510000  1.0 -0.0312020054
C  C7  1  0.41330000  0.77390000  0.22110000  1.0 -0.080661924
C  C8  1  0.58670000  0.22610000  0.77890000  1.0 -0.080661924
C  C9  1  0.45740000  0.76930000  0.18900000  1.0 -0.0378997206
C  C10  1  0.54260000  0.23070000  0.81100000  1.0 -0.0312020054
C  C11  1  0.41820000  0.73790000  0.12770000  1.0 0.4077196896
C  C12  1  0.58180000  0.26210000  0.87230000  1.0 0.4077196896
C  C13  1  0.89470000  0.23120000  0.19710000  1.0 0.6567553858
C  C14  1  0.10530000  0.76880000  0.80290000  1.0 0.6567553858
C  C15  1  0.95790000  0.22270000  0.23440000  1.0 -0.1002532586
C  C16  1  0.04210000  0.77730000  0.76560000  1.0 -0.0910905753
C  C17  1  0.04220000  0.24020000  0.24510000  1.0 -0.0705414775
C  C18  1  0.95780000  0.75980000  0.75490000  1.0 -0.0705414775
C  C19  1  0.08380000  0.22700000  0.28420000  1.0 -0.080661924
C  C20  1  0.91620000  0.77300000  0.71580000  1.0 -0.0705414775
C  C21  1  0.03260000  0.19900000  0.30170000  1.0 -0.080661924
C  C22  1  0.96740000  0.80100000  0.69830000  1.0 -0.080661924
C  C23  1  0.05300000  0.17430000  0.33940000  1.0 0.648374794
C  C24  1  0.94700000  0.82570000  0.66060000  1.0 0.648374794
C  C25  1  0.93270000  0.60950000  0.23210000  1.0 0.6197874377
C  C26  1  0.06730000  0.39050000  0.76790000  1.0 0.6197874377
C  C27  1  0.98230000  0.67420000  0.25440000  1.0 -0.0572983369
C  C28  1  0.01770000  0.32580000  0.74560000  1.0 -0.0572983369
C  C29  1  0.96450000  0.71680000  0.28480000  1.0 -0.0705414775
C  C30  1  0.03550000  0.28320000  0.71520000  1.0 -0.0705414775
C  C31  1  0.02310000  0.77150000  0.29820000  1.0 -0.1504779627
C  C32  1  0.97690000  0.22850000  0.70180000  1.0 -0.1504779627
C  C33  1  0.08460000  0.77080000  0.27890000  1.0 -0.0705414775
C  C34  1  0.91540000  0.22920000  0.72110000  1.0 -0.0705414775
C  C35  1  0.15810000  0.82240000  0.28660000  1.0 0.6197874377
C  C36  1  0.84190000  0.17760000  0.71340000  1.0 0.6197874377
C  C37  1  0.17180000  0.55870000  0.23300000  1.0 0.6383137832
C  C38  1  0.82820000  0.44130000  0.76700000  1.0 0.6383137832
C  C39  1  0.24630000  0.61480000  0.26820000  1.0 -0.080661924
C  C40  1  0.75370000  0.38520000  0.73180000  1.0 -0.080661924
C  C41  1  0.25750000  0.66710000  0.27080000  1.0 -0.080661924
C  C42  1  0.74250000  0.33290000  0.72920000  1.0 -0.080661924
C  C43  1  0.33730000  0.71120000  0.30970000  1.0 -0.0910905753
C  C44  1  0.66270000  0.28880000  0.69030000  1.0 -0.0910905753
C  C45  1  0.38590000  0.69180000  0.33560000  1.0 -0.1002532586
C  C46  1  0.61410000  0.30820000  0.66440000  1.0 -0.1002532586
C  C47  1  0.47080000  0.72520000  0.38010000  1.0 0.6383137832
C  C48  1  0.52920000  0.27480000  0.61990000  1.0 0.6383137832
C  C49  1  0.69660000  0.71300000  0.58370000  1.0 0.4077196896
C  C50  1  0.30340000  0.28700000  0.41630000  1.0 0.4077196896
C  C51  1  0.70640000  0.65890000  0.55220000  1.0 -0.0378997206
C  C52  1  0.29360000  0.34110000  0.44780000  1.0 -0.0378997206
C  C53  1  0.70880000  0.63780000  0.50340000  1.0 -0.080661924
C  C54  1  0.29120000  0.36220000  0.49660000  1.0 -0.0910905753
C  C55  1  0.71880000  0.58650000  0.49090000  1.0 -0.0489023198
C  C56  1  0.28120000  0.41350000  0.50910000  1.0 -0.0572983369
C  C57  1  0.72380000  0.57050000  0.52890000  1.0 -0.0378997206
C  C58  1  0.27620000  0.42950000  0.47110000  1.0 -0.0489023198
C  C59  1  0.73470000  0.51720000  0.53050000  1.0 0.7606515269
C  C60  1  0.26530000  0.48280000  0.46950000  1.0 0.7093940357
C  C61  1  0.62720000  0.84110000  0.33440000  1.0 0.5310404132
C  C62  1  0.37280000  0.15890000  0.66560000  1.0 0.5310404132
C  C63  1  0.55540000  0.81750000  0.27940000  1.0 -0.0910905753
C  C64  1  0.44460000  0.18250000  0.72060000  1.0 -0.080661924
C  C65  1  0.47900000  0.81860000  0.27790000  1.0 -0.012779656
C  C66  1  0.52100000  0.18140000  0.72210000  1.0 -0.012779656
C  C67  1  0.42560000  0.78280000  0.22400000  1.0 -0.1133465023
C  C68  1  0.57440000  0.21720000  0.77600000  1.0 -0.1133465023
C  C69  1  0.45760000  0.75780000  0.18900000  1.0 -0.012779656
C  C70  1  0.54240000  0.24220000  0.81100000  1.0 -0.012779656
C  C71  1  0.41630000  0.72230000  0.12750000  1.0 0.4077196896
C  C72  1  0.58370000  0.27770000  0.87250000  1.0 0.4077196896
S  S1  1  0.56400000  0.80060000  0.22300000  1.0 0.1038616503
S  S2  1  0.43600000  0.19940000  0.77700000  1.0 0.1081158089
S  S3  1  0.93140000  0.19130000  0.27322000  1.0 0.2589153256
S  S4  1  0.06860000  0.80870000  0.72678000  1.0 0.2589153256
S  S5  1  0.07041000  0.70191000  0.24318000  1.0 0.1998743023
S  S6  1  0.92959000  0.29809000  0.75682000  1.0 0.1998743023
S  S7  1  0.33436000  0.61904000  0.31360000  1.0 0.3683464508
S  S8  1  0.66564000  0.38096000  0.68640000  1.0 0.3683464508
S  S9  1  0.71675000  0.61645000  0.58346000  1.0 0.1895477901
S  S10  1  0.28325000  0.38355000  0.41654000  1.0 0.1895477901
S  S11  1  0.56290000  0.77750000  0.22200000  1.0 0.0516004729
S  S12  1  0.43710000  0.22250000  0.77800000  1.0 0.0580493378
Cl  Cl1  1  0.63816000  0.28120000  0.16817000  1.0 -0.6621610319
Cl  Cl2  1  0.36184000  0.71880000  0.83183000  1.0 -0.6621610319
Cl  Cl3  1  0.12545000  0.39785000  0.02443000  1.0 -0.6693679412
Cl  Cl4  1  0.87455000  0.60215000  0.97557000  1.0 -0.6508103331
Cl  Cl5  1  0.95013000  0.45153000  0.32126000  1.0 -0.6125172694
Cl  Cl6  1  0.04987000  0.54847000  0.67874000  1.0 -0.6125172694
Cl  Cl7  1  0.59530000  0.12342000  0.97592000  1.0 -0.6621610319
Cl  Cl8  1  0.40470000  0.87658000  0.02408000  1.0 -0.6621610319
Cl  Cl9  1  0.67185000  0.50386000  0.02030000  1.0 -0.5996108671
Cl  Cl10  1  0.32815000  0.49614000  0.97970000  1.0 -0.5996108671
Cl  Cl11  1  0.76004000  0.93261000  0.56193000  1.0 -0.6621610319
Cl  Cl12  1  0.23996000  0.06739000  0.43807000  1.0 -0.6621610319
Cl  Cl13  1  0.03967000  0.11310000  0.61130000  1.0 -0.5699900647
Cl  Cl14  1  0.96033000  0.88690000  0.38870000  1.0 -0.5699900647
Cl  Cl15  1  0.08002000  0.95996000  0.58776000  1.0 -0.5575670321
Cl  Cl16  1  0.91998000  0.04004000  0.41224000  1.0 -0.5575670321
Cl  Cl17  1  0.73158000  0.09183000  0.47469000  1.0 -0.5699900647
Cl  Cl18  1  0.26842000  0.90817000  0.52531000  1.0 -0.5776825448
Cl  Cl19  1  0.04598000  0.06409000  0.78055000  1.0 -0.6781153102
Cl  Cl20  1  0.95402000  0.93591000  0.21945000  1.0 -0.6899033209
Cl  Cl21  1  0.82508000  0.74670000  0.42361000  1.0 -0.5516890903
Cl  Cl22  1  0.17492000  0.25330000  0.57639000  1.0 -0.5516890903
Cl  Cl23  1  0.45036000  0.83017000  0.58888000  1.0 -0.6402453502
Cl  Cl24  1  0.54964000  0.16983000  0.41112000  1.0 -0.6402453502
Cl  Cl25  1  0.83825000  0.36942000  0.08758000  1.0 -0.6508103331
Cl  Cl26  1  0.16175000  0.63058000  0.91242000  1.0 -0.6402453502
Cl  Cl27  1  0.94727000  0.20720000  0.04668000  1.0 -0.6621610319
Cl  Cl28  1  0.05273000  0.79280000  0.95332000  1.0 -0.6621610319
Cl  Cl29  1  0.10320000  0.34780000  0.19402000  1.0 -0.6306935569
Cl  Cl30  1  0.89680000  0.65220000  0.80598000  1.0 -0.6306935569
Cl  Cl31  1  0.51823000  0.31574000  0.05276000  1.0 -0.6402453502
Cl  Cl32  1  0.48177000  0.68426000  0.94724000  1.0 -0.6402453502
Cl  Cl33  1  0.66378000  0.44429000  0.18988000  1.0 -0.6781153102
Cl  Cl34  1  0.33622000  0.55571000  0.81012000  1.0 -0.6693679412
Cl  Cl35  1  0.83454000  0.39362000  0.91250000  1.0 -0.5776825448
Cl  Cl36  1  0.16546000  0.60638000  0.08750000  1.0 -0.5776825448
Cl  Cl37  1  0.75800000  0.85100000  0.70820000  1.0 0.1597826337
Cl  Cl38  1  0.24200000  0.14900000  0.29180000  1.0 0.1491440887
Cl  Cl39  1  0.46809000  0.89879000  0.43138000  1.0 -0.6166709979
Cl  Cl40  1  0.53191000  0.10121000  0.56862000  1.0 -0.6166709979
Cl  Cl41  1  0.72607000  0.03816000  0.74268000  1.0 -0.6306935569
Cl  Cl42  1  0.27393000  0.96184000  0.25732000  1.0 -0.6306935569
Cl  Cl43  1  0.79290000  0.23940000  0.89140000  1.0 -0.5938133617
Cl  Cl44  1  0.20710000  0.76060000  0.10860000  1.0 -0.5996108671
Cl  Cl45  1  0.65190000  0.72850000  0.55620000  1.0 0.0516004729
Cl  Cl46  1  0.34810000  0.27150000  0.44380000  1.0 0.0516004729
Cl  Cl47  1  0.96460000  0.15280000  0.52010000  1.0 -0.4434615989
Cl  Cl48  1  0.03540000  0.84720000  0.47990000  1.0 -0.4434615989
O  O1  1  0.85660000  0.27100000  0.00570000  1.0 -0.8888344983
O  O2  1  0.14340000  0.72900000  0.99430000  1.0 -0.8786050697
O  O3  1  0.01400000  0.34280000  0.08150000  1.0 -0.8888344983
O  O4  1  0.98600000  0.65720000  0.91850000  1.0 -0.8888344983
O  O5  1  0.01960000  0.42180000  0.16800000  1.0 -0.8786050697
O  O6  1  0.98040000  0.57820000  0.83200000  1.0 -0.8786050697
O  O7  1  0.94250000  0.36480000  0.21350000  1.0 -0.8491923124
O  O8  1  0.05750000  0.63520000  0.78650000  1.0 -0.8491923124
O  O9  1  0.79160000  0.29520000  0.14290000  1.0 -0.8786050697
O  O10  1  0.20840000  0.70480000  0.85710000  1.0 -0.8786050697
O  O11  1  0.78230000  0.21940000  0.05630000  1.0 -0.8571177996
O  O12  1  0.21770000  0.78060000  0.94370000  1.0 -0.8491923124
O  O13  1  0.93350000  0.35780000  0.99200000  1.0 -0.8286421676
O  O14  1  0.06650000  0.64220000  0.00800000  1.0 -0.8286421676
O  O15  1  0.04490000  0.45920000  0.09810000  1.0 -0.8286421676
O  O16  1  0.95510000  0.54080000  0.90190000  1.0 -0.8185553703
O  O17  1  0.96580000  0.48320000  0.22910000  1.0 -0.8491923124
O  O18  1  0.03420000  0.51680000  0.77090000  1.0 -0.8491923124
O  O19  1  0.80220000  0.39670000  0.20500000  1.0 -0.8786050697
O  O20  1  0.19780000  0.60330000  0.79500000  1.0 -0.8697656214
O  O21  1  0.64850000  0.25590000  0.05740000  1.0 -0.8491923124
O  O22  1  0.35150000  0.74410000  0.94260000  1.0 -0.8491923124
O  O23  1  0.69130000  0.23430000  0.96460000  1.0 -0.8185553703
O  O24  1  0.30870000  0.76570000  0.03540000  1.0 -0.8185553703
O  O25  1  0.89740000  0.44560000  0.03550000  1.0 -0.8286421676
O  O26  1  0.10260000  0.55440000  0.96450000  1.0 -0.8286421676
O  O27  1  0.82160000  0.47080000  0.16510000  1.0 -0.8888344983
O  O28  1  0.17840000  0.52920000  0.83490000  1.0 -0.8786050697
O  O29  1  0.65540000  0.32100000  0.00670000  1.0 -0.8185553703
O  O30  1  0.34460000  0.67900000  0.99330000  1.0 -0.8185553703
O  O31  1  0.72870000  0.40480000  0.98810000  1.0 -0.8185553703
O  O32  1  0.27130000  0.59520000  0.01190000  1.0 -0.8185553703
O  O33  1  0.83600000  0.50590000  0.09250000  1.0 -0.8126117011
O  O34  1  0.16400000  0.49410000  0.90750000  1.0 -0.8126117011
O  O35  1  0.68050000  0.42170000  0.07730000  1.0 -0.8491923124
O  O36  1  0.31950000  0.57830000  0.92270000  1.0 -0.8491923124
O  O37  1  0.79350000  0.80550000  0.52730000  1.0 -0.8035438677
O  O38  1  0.20650000  0.19450000  0.47270000  1.0 -0.8035438677
O  O39  1  0.91340000  0.90530000  0.59680000  1.0 -0.8397801166
O  O40  1  0.08660000  0.09470000  0.40320000  1.0 -0.8397801166
O  O41  1  0.90450000  0.93940000  0.69020000  1.0 -0.8491923124
O  O42  1  0.09550000  0.06060000  0.30980000  1.0 -0.8491923124
O  O43  1  0.75350000  0.93910000  0.67060000  1.0 -0.8888344983
O  O44  1  0.24650000  0.06090000  0.32940000  1.0 -0.8888344983
O  O45  1  0.63260000  0.84030000  0.60180000  1.0 -0.8571177996
O  O46  1  0.36740000  0.15970000  0.39820000  1.0 -0.8571177996
O  O47  1  0.63930000  0.80470000  0.50410000  1.0 -0.8126117011
O  O48  1  0.36070000  0.19530000  0.49590000  1.0 -0.8126117011
O  O49  1  0.53770000  0.85360000  0.51280000  1.0 -0.8397801166
O  O50  1  0.46230000  0.14640000  0.48720000  1.0 -0.8397801166
O  O51  1  0.70100000  0.81470000  0.43300000  1.0 -0.8185553703
O  O52  1  0.29900000  0.18530000  0.56700000  1.0 -0.8185553703
O  O53  1  0.79420000  0.92740000  0.45680000  1.0 -0.7902988215
O  O54  1  0.20580000  0.07260000  0.54320000  1.0 -0.7902988215
O  O55  1  0.60840000  0.97360000  0.54870000  1.0 -0.8397801166
O  O56  1  0.39160000  0.02640000  0.45130000  1.0 -0.8397801166
O  O57  1  0.67100000  0.96670000  0.46970000  1.0 -0.8126117011
O  O58  1  0.32900000  0.03330000  0.53030000  1.0 -0.8126117011
O  O59  1  0.88700000  0.88320000  0.49510000  1.0 -0.7780375947
O  O60  1  0.11300000  0.11680000  0.50490000  1.0 -0.7780375947
O  O61  1  0.98210000  0.01820000  0.64920000  1.0 -0.8571177996
O  O62  1  0.01790000  0.98180000  0.35080000  1.0 -0.8571177996
O  O63  1  0.87400000  0.05980000  0.61770000  1.0 -0.8697656214
O  O64  1  0.12600000  0.94020000  0.38230000  1.0 -0.8697656214
O  O65  1  0.84700000  0.03580000  0.51550000  1.0 -0.7780375947
O  O66  1  0.15300000  0.96420000  0.48450000  1.0 -0.7780375947
O  O67  1  0.87170000  0.04050000  0.70010000  1.0 -0.8571177996
O  O68  1  0.12830000  0.95950000  0.29990000  1.0 -0.8571177996
O  O69  1  0.60860000  0.94400000  0.62320000  1.0 -0.8397801166
O  O70  1  0.39140000  0.05600000  0.37680000  1.0 -0.8397801166
O  O71  1  0.73360000  0.06440000  0.57070000  1.0 -0.7902988215
O  O72  1  0.26640000  0.93560000  0.42930000  1.0 -0.7902988215
O  O73  1  0.62390000  0.87710000  0.37720000  1.0 -0.5212282409
O  O74  1  0.37610000  0.12290000  0.62280000  1.0 -0.5212282409
O  O75  1  0.69140000  0.83760000  0.33250000  1.0 -0.229781057
O  O76  1  0.30860000  0.16240000  0.66750000  1.0 -0.229781057
O  O77  1  0.34180000  0.70440000  0.10600000  1.0 -0.2467252483
O  O78  1  0.65820000  0.29560000  0.89400000  1.0 -0.2467252483
O  O79  1  0.46700000  0.74910000  0.10540000  1.0 -0.2080321928
O  O80  1  0.53300000  0.25090000  0.89460000  1.0 -0.2080321928
O  O81  1  0.00000000  0.00000000  0.50000000  1.0 -1.1385128518
O  O82  1  0.00990000  0.56930000  0.10960000  1.0 -0.5106334706
O  O83  1  0.99010000  0.43070000  0.89040000  1.0 -0.5106334706
O  O84  1  0.64790000  0.08070000  0.65570000  1.0 -0.229781057
O  O85  1  0.35210000  0.91930000  0.34430000  1.0 -0.229781057
O  O86  1  0.91430000  0.24130000  0.16140000  1.0 -0.6402453502
O  O87  1  0.08570000  0.75870000  0.83860000  1.0 -0.6402453502
O  O88  1  0.82870000  0.22790000  0.20350000  1.0 -0.5699900647
O  O89  1  0.17130000  0.77210000  0.79650000  1.0 -0.5699900647
O  O90  1  0.13050000  0.18880000  0.36510000  1.0 -0.6402453502
O  O91  1  0.86950000  0.81120000  0.63490000  1.0 -0.6306935569
O  O92  1  0.99260000  0.14020000  0.34270000  1.0 -0.5699900647
O  O93  1  0.00740000  0.85980000  0.65730000  1.0 -0.5699900647
O  O94  1  0.96020000  0.58330000  0.20380000  1.0 -0.5699900647
O  O95  1  0.03980000  0.41670000  0.79620000  1.0 -0.5699900647
O  O96  1  0.87860000  0.59250000  0.24990000  1.0 -0.5699900647
O  O97  1  0.12140000  0.40750000  0.75010000  1.0 -0.5699900647
O  O98  1  0.16380000  0.87040000  0.31180000  1.0 -0.5996108671
O  O99  1  0.83620000  0.12960000  0.68820000  1.0 -0.5996108671
O  O100  1  0.21350000  0.81070000  0.27230000  1.0 -0.467014419
O  O101  1  0.78650000  0.18930000  0.72770000  1.0 -0.467014419
O  O102  1  0.10620000  0.55900000  0.20620000  1.0 -0.5699900647
O  O103  1  0.89380000  0.44100000  0.79380000  1.0 -0.5699900647
O  O104  1  0.18030000  0.51530000  0.23170000  1.0 -0.5776825448
O  O105  1  0.81970000  0.48470000  0.76830000  1.0 -0.5699900647
O  O106  1  0.50460000  0.70210000  0.40300000  1.0 -0.5212282409
O  O107  1  0.49540000  0.29790000  0.59700000  1.0 -0.5212282409
O  O108  1  0.50570000  0.77870000  0.39260000  1.0 -0.6508103331
O  O109  1  0.49430000  0.22130000  0.60740000  1.0 -0.6508103331
O  O110  1  0.69110000  0.74590000  0.56250000  1.0 -0.17471868
O  O111  1  0.30890000  0.25410000  0.43750000  1.0 -0.1823958103
O  O112  1  0.69420000  0.71990000  0.62840000  1.0 -0.229781057
O  O113  1  0.30580000  0.28010000  0.37160000  1.0 -0.2408762991
O  O114  1  0.71920000  0.47800000  0.48700000  1.0 -0.5699900647
O  O115  1  0.28080000  0.52200000  0.51300000  1.0 -0.5776825448
O  O116  1  0.74930000  0.51600000  0.57500000  1.0 -0.5407934209
O  O117  1  0.25070000  0.48400000  0.42500000  1.0 -0.5407934209
O  O118  1  0.75210000  0.83110000  0.68240000  1.0 -0.1504779627
O  O119  1  0.24790000  0.16890000  0.31760000  1.0 -0.1552473326
O  O120  1  0.61220000  0.86720000  0.37320000  1.0 -0.5030778964
O  O121  1  0.38780000  0.13280000  0.62680000  1.0 -0.5030778964
O  O122  1  0.69930000  0.85600000  0.33280000  1.0 -0.229781057
O  O123  1  0.30070000  0.14400000  0.66720000  1.0 -0.229781057
O  O124  1  0.34540000  0.72100000  0.10750000  1.0 -0.2408762991
O  O125  1  0.65460000  0.27900000  0.89250000  1.0 -0.2408762991
O  O126  1  0.45480000  0.70020000  0.10340000  1.0 -0.1823958103
O  O127  1  0.54520000  0.29980000  0.89660000  1.0 -0.1864166727
