# DDEC6 charges by PACMAN v1.1 (https://github.com/mtap-research/PACMAN-charge/)
data_TILHEC_ASR_pacman
_symmetry_space_group_name_H-M   'P 1'
_cell_length_a   9.82106000
_cell_length_b   9.82106000
_cell_length_c   11.31780000
_cell_angle_alpha   75.61040000
_cell_angle_beta   104.39000000
_cell_angle_gamma   85.83420000
_symmetry_Int_Tables_number   1
_chemical_formula_structural   NaCoH8(C2O)8
_chemical_formula_sum   'Na2 Co2 H16 C32 O16'
_cell_volume   1013.65426009
_cell_formula_units_Z   2
loop_
 _symmetry_equiv_pos_site_id
 _symmetry_equiv_pos_as_xyz
  1  'x, y, z'
loop_
 _atom_site_type_symbol
 _atom_site_label
 _atom_site_symmetry_multiplicity
 _atom_site_fract_x
 _atom_site_fract_y
 _atom_site_fract_z
 _atom_site_occupancy
 _atom_site_charge
Na  Na1  1  0.00000000  0.00000000  0.50000000  1.0 0.8731151634
Na  Na2  1  0.00000000  0.00000000  0.00000000  1.0 0.8731151634
Co  Co1  1  0.88634000  0.88634000  0.75000000  1.0 0.9326021188
Co  Co2  1  0.11366000  0.11366000  0.25000000  1.0 0.9326021188
H  H1  1  0.42980000  0.88200000  0.77710000  1.0 0.1389602088
H  H2  1  0.88200000  0.42980000  0.72290000  1.0 0.1389602088
H  H3  1  0.57020000  0.11800000  0.22290000  1.0 0.1389602088
H  H4  1  0.11800000  0.57020000  0.27710000  1.0 0.1389602088
H  H5  1  0.27150000  0.78690000  0.07720000  1.0 0.1389602088
H  H6  1  0.78690000  0.27150000  0.42280000  1.0 0.1389602088
H  H7  1  0.72850000  0.21310000  0.92280000  1.0 0.1389602088
H  H8  1  0.21310000  0.72850000  0.57720000  1.0 0.1389602088
H  H9  1  0.68960000  0.79020000  0.12760000  1.0 0.1293299832
H  H10  1  0.79020000  0.68960000  0.37240000  1.0 0.1293299832
H  H11  1  0.31040000  0.20980000  0.87240000  1.0 0.1293299832
H  H12  1  0.20980000  0.31040000  0.62760000  1.0 0.1293299832
H  H13  1  0.49940000  0.75340000  0.21040000  1.0 0.1293299832
H  H14  1  0.75340000  0.49940000  0.28960000  1.0 0.1293299832
H  H15  1  0.50060000  0.24660000  0.78960000  1.0 0.1293299832
H  H16  1  0.24660000  0.50060000  0.71040000  1.0 0.1293299832
C  C1  1  0.17870000  0.86470000  0.82440000  1.0 0.5907511228
C  C2  1  0.86470000  0.17870000  0.67560000  1.0 0.5907511228
C  C3  1  0.82130000  0.13530000  0.17560000  1.0 0.5907511228
C  C4  1  0.13530000  0.82130000  0.32440000  1.0 0.5907511228
C  C5  1  0.32590000  0.83910000  0.91200000  1.0 -0.0185531796
C  C6  1  0.83910000  0.32590000  0.58800000  1.0 -0.0185531796
C  C7  1  0.67410000  0.16090000  0.08800000  1.0 -0.0185531796
C  C8  1  0.16090000  0.67410000  0.41200000  1.0 -0.0185531796
C  C9  1  0.44310000  0.85710000  0.86440000  1.0 -0.0902299489
C  C10  1  0.85710000  0.44310000  0.63560000  1.0 -0.0902299489
C  C11  1  0.55690000  0.14290000  0.13560000  1.0 -0.0902299489
C  C12  1  0.14290000  0.55690000  0.36440000  1.0 -0.0902299489
C  C13  1  0.70250000  0.86230000  0.88700000  1.0 0.5584295206
C  C14  1  0.86230000  0.70250000  0.61300000  1.0 0.5584295206
C  C15  1  0.29750000  0.13770000  0.11300000  1.0 0.5584295206
C  C16  1  0.13770000  0.29750000  0.38700000  1.0 0.5584295206
C  C17  1  0.34810000  0.79990000  0.04310000  1.0 -0.0902299489
C  C18  1  0.79990000  0.34810000  0.45690000  1.0 -0.0902299489
C  C19  1  0.65190000  0.20010000  0.95690000  1.0 -0.0902299489
C  C20  1  0.20010000  0.65190000  0.54310000  1.0 -0.0902299489
C  C21  1  0.57780000  0.83900000  0.94370000  1.0 0.000773385
C  C22  1  0.83900000  0.57780000  0.55630000  1.0 0.000773385
C  C23  1  0.42220000  0.16100000  0.05630000  1.0 0.000773385
C  C24  1  0.16100000  0.42220000  0.44370000  1.0 0.000773385
C  C25  1  0.59860000  0.80140000  0.07360000  1.0 -0.0902299489
C  C26  1  0.80140000  0.59860000  0.42640000  1.0 -0.0902299489
C  C27  1  0.40140000  0.19860000  0.92640000  1.0 -0.0902299489
C  C28  1  0.19860000  0.40140000  0.57360000  1.0 -0.0902299489
C  C29  1  0.48480000  0.78060000  0.12290000  1.0 -0.0902299489
C  C30  1  0.78060000  0.48480000  0.37710000  1.0 -0.0902299489
C  C31  1  0.51520000  0.21940000  0.87710000  1.0 -0.0902299489
C  C32  1  0.21940000  0.51520000  0.62290000  1.0 -0.0902299489
O  O1  1  0.16050000  0.89170000  0.70860000  1.0 -0.5745110697
O  O2  1  0.89170000  0.16050000  0.79140000  1.0 -0.5745110697
O  O3  1  0.83950000  0.10830000  0.29140000  1.0 -0.5745110697
O  O4  1  0.10830000  0.83950000  0.20860000  1.0 -0.5745110697
O  O5  1  0.07670000  0.85630000  0.87620000  1.0 -0.5958665348
O  O6  1  0.85630000  0.07670000  0.62380000  1.0 -0.5958665348
O  O7  1  0.92330000  0.14370000  0.12380000  1.0 -0.5958665348
O  O8  1  0.14370000  0.92330000  0.37620000  1.0 -0.5958665348
O  O9  1  0.68200000  0.88660000  0.77150000  1.0 -0.4864396638
O  O10  1  0.88660000  0.68200000  0.72850000  1.0 -0.4864396638
O  O11  1  0.31800000  0.11340000  0.22850000  1.0 -0.4864396638
O  O12  1  0.11340000  0.31800000  0.27150000  1.0 -0.4864396638
O  O13  1  0.82080000  0.85360000  0.95850000  1.0 -0.5531028099
O  O14  1  0.85360000  0.82080000  0.54150000  1.0 -0.5531028099
O  O15  1  0.17920000  0.14640000  0.04150000  1.0 -0.5531028099
O  O16  1  0.14640000  0.17920000  0.45850000  1.0 -0.5531028099
