# DDEC6 charges by PACMAN v1.1 (https://github.com/mtap-research/PACMAN-charge/)
data_TILKEI_FSR_pacman
_symmetry_space_group_name_H-M   'P 1'
_cell_length_a   7.09960000
_cell_length_b   17.27910000
_cell_length_c   17.48700000
_cell_angle_alpha   90.00000000
_cell_angle_beta   90.00000000
_cell_angle_gamma   90.00000000
_symmetry_Int_Tables_number   1
_chemical_formula_structural   Co2H16C14N6O11
_chemical_formula_sum   'Co8 H64 C56 N24 O44'
_cell_volume   2145.21245022
_cell_formula_units_Z   4
loop_
 _symmetry_equiv_pos_site_id
 _symmetry_equiv_pos_as_xyz
  1  'x, y, z'
loop_
 _atom_site_type_symbol
 _atom_site_label
 _atom_site_symmetry_multiplicity
 _atom_site_fract_x
 _atom_site_fract_y
 _atom_site_fract_z
 _atom_site_occupancy
 _atom_site_charge
Co  Co1  1  0.75000000  0.29340000  0.07428000  1.0 0.8373230406
Co  Co2  1  0.75000000  0.79340000  0.42572000  1.0 0.8373230406
Co  Co3  1  0.75000000  0.39094000  0.26027000  1.0 0.8459980497
Co  Co4  1  0.75000000  0.89094000  0.23973000  1.0 0.8459980497
Co  Co5  1  0.25000000  0.20660000  0.57428000  1.0 0.8373230406
Co  Co6  1  0.25000000  0.70660000  0.92572000  1.0 0.8373230406
Co  Co7  1  0.25000000  0.10906000  0.76027000  1.0 0.8459980497
Co  Co8  1  0.25000000  0.60906000  0.73973000  1.0 0.8459980497
H  H1  1  0.75000000  0.43710000  0.93490000  1.0 0.2787535199
H  H2  1  0.75000000  0.93710000  0.56510000  1.0 0.2787535199
H  H3  1  0.40860000  0.18830000  0.11760000  1.0 0.1262322226
H  H4  1  0.09140000  0.68830000  0.38240000  1.0 0.1262322226
H  H5  1  0.40860000  0.68830000  0.38240000  1.0 0.1262322226
H  H6  1  0.09140000  0.18830000  0.11760000  1.0 0.1262322226
H  H7  1  0.40960000  0.39940000  0.03870000  1.0 0.1190371876
H  H8  1  0.09040000  0.89940000  0.46130000  1.0 0.1190371876
H  H9  1  0.40960000  0.89940000  0.46130000  1.0 0.1190371876
H  H10  1  0.09040000  0.39940000  0.03870000  1.0 0.1190371876
H  H11  1  0.75000000  0.26880000  0.78730000  1.0 0.1637167865
H  H12  1  0.75000000  0.76880000  0.71270000  1.0 0.1637167865
H  H13  1  0.42290000  0.38340000  0.30380000  1.0 0.3140715221
H  H14  1  0.07710000  0.88340000  0.19620000  1.0 0.3140715221
H  H15  1  0.42290000  0.88340000  0.19620000  1.0 0.3140715221
H  H16  1  0.07710000  0.38340000  0.30380000  1.0 0.3140715221
H  H17  1  0.42030000  0.42660000  0.23970000  1.0 0.3256427207
H  H18  1  0.07970000  0.92660000  0.26030000  1.0 0.3256427207
H  H19  1  0.42030000  0.92660000  0.26030000  1.0 0.3256427207
H  H20  1  0.07970000  0.42660000  0.23970000  1.0 0.3256427207
H  H21  1  0.83900000  0.43530000  0.39420000  1.0 0.1408930206
H  H22  1  0.66100000  0.93530000  0.10580000  1.0 0.1408930206
H  H23  1  0.83900000  0.93530000  0.10580000  1.0 0.1408930206
H  H24  1  0.66100000  0.43530000  0.39420000  1.0 0.1408930206
H  H25  1  0.75000000  0.07960000  0.17560000  1.0 0.2905132481
H  H26  1  0.75000000  0.57960000  0.32440000  1.0 0.2905132481
H  H27  1  0.75000000  0.14070000  0.38960000  1.0 0.1491976985
H  H28  1  0.75000000  0.64070000  0.11040000  1.0 0.1491976985
H  H29  1  0.77640000  0.36200000  0.40210000  1.0 0.2787535199
H  H30  1  0.72360000  0.86200000  0.09790000  1.0 0.2787535199
H  H31  1  0.77640000  0.86200000  0.09790000  1.0 0.2787535199
H  H32  1  0.72360000  0.36200000  0.40210000  1.0 0.2787535199
H  H33  1  0.25000000  0.06290000  0.43490000  1.0 0.2787535199
H  H34  1  0.25000000  0.56290000  0.06510000  1.0 0.2787535199
H  H35  1  0.59140000  0.31170000  0.61760000  1.0 0.1262322226
H  H36  1  0.90860000  0.81170000  0.88240000  1.0 0.1262322226
H  H37  1  0.59140000  0.81170000  0.88240000  1.0 0.1262322226
H  H38  1  0.90860000  0.31170000  0.61760000  1.0 0.1262322226
H  H39  1  0.59040000  0.10060000  0.53870000  1.0 0.1190371876
H  H40  1  0.90960000  0.60060000  0.96130000  1.0 0.1190371876
H  H41  1  0.59040000  0.60060000  0.96130000  1.0 0.1190371876
H  H42  1  0.90960000  0.10060000  0.53870000  1.0 0.1190371876
H  H43  1  0.25000000  0.23120000  0.28730000  1.0 0.1637167865
H  H44  1  0.25000000  0.73120000  0.21270000  1.0 0.1637167865
H  H45  1  0.57710000  0.11660000  0.80380000  1.0 0.3140715221
H  H46  1  0.92290000  0.61660000  0.69620000  1.0 0.3140715221
H  H47  1  0.57710000  0.61660000  0.69620000  1.0 0.3140715221
H  H48  1  0.92290000  0.11660000  0.80380000  1.0 0.3140715221
H  H49  1  0.57970000  0.07340000  0.73970000  1.0 0.3256427207
H  H50  1  0.92030000  0.57340000  0.76030000  1.0 0.3256427207
H  H51  1  0.57970000  0.57340000  0.76030000  1.0 0.3256427207
H  H52  1  0.92030000  0.07340000  0.73970000  1.0 0.3256427207
H  H53  1  0.16100000  0.06470000  0.89420000  1.0 0.1408930206
H  H54  1  0.33900000  0.56470000  0.60580000  1.0 0.1408930206
H  H55  1  0.16100000  0.56470000  0.60580000  1.0 0.1408930206
H  H56  1  0.33900000  0.06470000  0.89420000  1.0 0.1408930206
H  H57  1  0.25000000  0.42040000  0.67560000  1.0 0.2905132481
H  H58  1  0.25000000  0.92040000  0.82440000  1.0 0.2905132481
H  H59  1  0.25000000  0.35930000  0.88960000  1.0 0.1491976985
H  H60  1  0.25000000  0.85930000  0.61040000  1.0 0.1491976985
H  H61  1  0.22360000  0.13800000  0.90210000  1.0 0.2787535199
H  H62  1  0.27640000  0.63800000  0.59790000  1.0 0.2787535199
H  H63  1  0.22360000  0.63800000  0.59790000  1.0 0.2787535199
H  H64  1  0.27640000  0.13800000  0.90210000  1.0 0.2787535199
C  C1  1  0.75000000  0.19070000  0.93970000  1.0 0.5446700761
C  C2  1  0.75000000  0.69070000  0.56030000  1.0 0.5446700761
C  C3  1  0.75000000  0.21970000  0.23780000  1.0 0.5563661763
C  C4  1  0.75000000  0.71970000  0.26220000  1.0 0.5563661763
C  C5  1  0.75000000  0.26900000  0.90600000  1.0 0.0260156682
C  C6  1  0.75000000  0.76900000  0.59400000  1.0 0.0260156682
C  C7  1  0.34540000  0.23210000  0.10030000  1.0 0.0219487072
C  C8  1  0.15460000  0.73210000  0.39970000  1.0 0.0219487072
C  C9  1  0.34540000  0.73210000  0.39970000  1.0 0.0219487072
C  C10  1  0.15460000  0.23210000  0.10030000  1.0 0.0219487072
C  C11  1  0.34640000  0.35500000  0.05440000  1.0 0.0392780859
C  C12  1  0.15360000  0.85500000  0.44560000  1.0 0.0392780859
C  C13  1  0.34640000  0.85500000  0.44560000  1.0 0.0392780859
C  C14  1  0.15360000  0.35500000  0.05440000  1.0 0.0392780859
C  C15  1  0.75000000  0.13920000  0.27100000  1.0 0.0677668089
C  C16  1  0.75000000  0.63920000  0.22900000  1.0 0.0677668089
C  C17  1  0.75000000  0.37600000  0.84030000  1.0 0.0392780859
C  C18  1  0.75000000  0.87600000  0.65970000  1.0 0.0392780859
C  C19  1  0.75000000  0.29710000  0.83250000  1.0 -0.2176625273
C  C20  1  0.75000000  0.79710000  0.66750000  1.0 -0.2176625273
C  C21  1  0.75000000  0.11200000  0.34450000  1.0 -0.2384651742
C  C22  1  0.75000000  0.61200000  0.15550000  1.0 -0.2384651742
C  C23  1  0.75000000  0.43840000  0.78250000  1.0 0.5210950384
C  C24  1  0.75000000  0.93840000  0.71750000  1.0 0.5210950384
C  C25  1  0.75000000  0.03090000  0.33660000  1.0 0.0646110707
C  C26  1  0.75000000  0.53090000  0.16340000  1.0 0.0646110707
C  C27  1  0.75000000  0.96860000  0.39430000  1.0 0.5462004849
C  C28  1  0.75000000  0.46860000  0.10570000  1.0 0.5462004849
C  C29  1  0.25000000  0.30930000  0.43970000  1.0 0.5446700761
C  C30  1  0.25000000  0.80930000  0.06030000  1.0 0.5446700761
C  C31  1  0.25000000  0.28030000  0.73780000  1.0 0.5563661763
C  C32  1  0.25000000  0.78030000  0.76220000  1.0 0.5563661763
C  C33  1  0.25000000  0.23100000  0.40600000  1.0 0.0260156682
C  C34  1  0.25000000  0.73100000  0.09400000  1.0 0.0260156682
C  C35  1  0.65460000  0.26790000  0.60030000  1.0 0.0219487072
C  C36  1  0.84540000  0.76790000  0.89970000  1.0 0.0219487072
C  C37  1  0.65460000  0.76790000  0.89970000  1.0 0.0219487072
C  C38  1  0.84540000  0.26790000  0.60030000  1.0 0.0219487072
C  C39  1  0.65360000  0.14500000  0.55440000  1.0 0.0392780859
C  C40  1  0.84640000  0.64500000  0.94560000  1.0 0.0392780859
C  C41  1  0.65360000  0.64500000  0.94560000  1.0 0.0392780859
C  C42  1  0.84640000  0.14500000  0.55440000  1.0 0.0392780859
C  C43  1  0.25000000  0.36080000  0.77100000  1.0 0.0677668089
C  C44  1  0.25000000  0.86080000  0.72900000  1.0 0.0677668089
C  C45  1  0.25000000  0.12400000  0.34030000  1.0 0.0392780859
C  C46  1  0.25000000  0.62400000  0.15970000  1.0 0.0392780859
C  C47  1  0.25000000  0.20290000  0.33250000  1.0 -0.2176625273
C  C48  1  0.25000000  0.70290000  0.16750000  1.0 -0.2176625273
C  C49  1  0.25000000  0.38800000  0.84450000  1.0 -0.2384651742
C  C50  1  0.25000000  0.88800000  0.65550000  1.0 -0.2384651742
C  C51  1  0.25000000  0.06160000  0.28250000  1.0 0.5210950384
C  C52  1  0.25000000  0.56160000  0.21750000  1.0 0.5210950384
C  C53  1  0.25000000  0.46910000  0.83660000  1.0 0.0646110707
C  C54  1  0.25000000  0.96910000  0.66340000  1.0 0.0646110707
C  C55  1  0.25000000  0.53140000  0.89430000  1.0 0.5462004849
C  C56  1  0.25000000  0.03140000  0.60570000  1.0 0.5462004849
N  N1  1  0.75000000  0.32730000  0.95710000  1.0 -0.2269342831
N  N2  1  0.75000000  0.82730000  0.54290000  1.0 -0.2269342831
N  N3  1  0.44720000  0.29340000  0.07620000  1.0 -0.1947778604
N  N4  1  0.05280000  0.79340000  0.42380000  1.0 -0.1947778604
N  N5  1  0.44720000  0.79340000  0.42380000  1.0 -0.1947778604
N  N6  1  0.05280000  0.29340000  0.07620000  1.0 -0.1947778604
N  N7  1  0.75000000  0.39120000  0.91580000  1.0 -0.0561699039
N  N8  1  0.75000000  0.89120000  0.58420000  1.0 -0.0561699039
N  N9  1  0.75000000  0.01010000  0.26390000  1.0 -0.2502691439
N  N10  1  0.75000000  0.51010000  0.23610000  1.0 -0.2502691439
N  N11  1  0.75000000  0.07690000  0.22470000  1.0 -0.0715465611
N  N12  1  0.75000000  0.57690000  0.27530000  1.0 -0.0715465611
N  N13  1  0.25000000  0.17270000  0.45710000  1.0 -0.2269342831
N  N14  1  0.25000000  0.67270000  0.04290000  1.0 -0.2269342831
N  N15  1  0.55280000  0.20660000  0.57620000  1.0 -0.1947778604
N  N16  1  0.94720000  0.70660000  0.92380000  1.0 -0.1951980433
N  N17  1  0.55280000  0.70660000  0.92380000  1.0 -0.1951980433
N  N18  1  0.94720000  0.20660000  0.57620000  1.0 -0.1947778604
N  N19  1  0.25000000  0.10880000  0.41580000  1.0 -0.0561699039
N  N20  1  0.25000000  0.60880000  0.08420000  1.0 -0.0561699039
N  N21  1  0.25000000  0.48990000  0.76390000  1.0 -0.2502691439
N  N22  1  0.25000000  0.98990000  0.73610000  1.0 -0.2502691439
N  N23  1  0.25000000  0.42310000  0.72470000  1.0 -0.0715465611
N  N24  1  0.25000000  0.92310000  0.77530000  1.0 -0.0715465611
O  O1  1  0.75000000  0.18630000  0.01130000  1.0 -0.5561912572
O  O2  1  0.75000000  0.68630000  0.48870000  1.0 -0.5561912572
O  O3  1  0.75000000  0.22240000  0.16730000  1.0 -0.5265328577
O  O4  1  0.75000000  0.72240000  0.33270000  1.0 -0.5265328577
O  O5  1  0.75000000  0.89880000  0.36640000  1.0 -0.5954034618
O  O6  1  0.75000000  0.39880000  0.13360000  1.0 -0.5954034618
O  O7  1  0.75000000  0.13300000  0.89450000  1.0 -0.5392709514
O  O8  1  0.75000000  0.63300000  0.60550000  1.0 -0.5392709514
O  O9  1  0.75000000  0.27330000  0.28380000  1.0 -0.5392709514
O  O10  1  0.75000000  0.77330000  0.21620000  1.0 -0.5392709514
O  O11  1  0.46470000  0.38520000  0.25900000  1.0 -0.672611489
O  O12  1  0.03530000  0.88520000  0.24100000  1.0 -0.672611489
O  O13  1  0.46470000  0.88520000  0.24100000  1.0 -0.672611489
O  O14  1  0.03530000  0.38520000  0.25900000  1.0 -0.672611489
O  O15  1  0.75000000  0.40460000  0.38150000  1.0 -0.501203551
O  O16  1  0.75000000  0.90460000  0.11850000  1.0 -0.501203551
O  O17  1  0.75000000  0.50760000  0.80920000  1.0 -0.5497159651
O  O18  1  0.75000000  0.00760000  0.69080000  1.0 -0.5497159651
O  O19  1  0.75000000  0.42040000  0.71470000  1.0 -0.5561912572
O  O20  1  0.75000000  0.92040000  0.78530000  1.0 -0.5561912572
O  O21  1  0.75000000  0.98570000  0.46140000  1.0 -0.5056026271
O  O22  1  0.75000000  0.48570000  0.03860000  1.0 -0.5056026271
O  O23  1  0.25000000  0.31370000  0.51130000  1.0 -0.5561912572
O  O24  1  0.25000000  0.81370000  0.98870000  1.0 -0.5561912572
O  O25  1  0.25000000  0.27760000  0.66730000  1.0 -0.5265328577
O  O26  1  0.25000000  0.77760000  0.83270000  1.0 -0.5265328577
O  O27  1  0.25000000  0.60120000  0.86640000  1.0 -0.5954034618
O  O28  1  0.25000000  0.10120000  0.63360000  1.0 -0.5954034618
O  O29  1  0.25000000  0.36700000  0.39450000  1.0 -0.5392709514
O  O30  1  0.25000000  0.86700000  0.10550000  1.0 -0.5392709514
O  O31  1  0.25000000  0.22670000  0.78380000  1.0 -0.5392709514
O  O32  1  0.25000000  0.72670000  0.71620000  1.0 -0.5392709514
O  O33  1  0.53530000  0.11480000  0.75900000  1.0 -0.672611489
O  O34  1  0.96470000  0.61480000  0.74100000  1.0 -0.672611489
O  O35  1  0.53530000  0.61480000  0.74100000  1.0 -0.672611489
O  O36  1  0.96470000  0.11480000  0.75900000  1.0 -0.672611489
O  O37  1  0.25000000  0.09540000  0.88150000  1.0 -0.501203551
O  O38  1  0.25000000  0.59540000  0.61850000  1.0 -0.501203551
O  O39  1  0.25000000  0.99240000  0.30920000  1.0 -0.5497159651
O  O40  1  0.25000000  0.49240000  0.19080000  1.0 -0.5497159651
O  O41  1  0.25000000  0.07960000  0.21470000  1.0 -0.5561912572
O  O42  1  0.25000000  0.57960000  0.28530000  1.0 -0.5561912572
O  O43  1  0.25000000  0.51430000  0.96140000  1.0 -0.501203551
O  O44  1  0.25000000  0.01430000  0.53860000  1.0 -0.501203551
