# DDEC6 charges by PACMAN v1.1 (https://github.com/mtap-research/PACMAN-charge/)
data_TILKAE_FSR_pacman
_symmetry_space_group_name_H-M   'P 1'
_cell_length_a   7.13170000
_cell_length_b   17.20400000
_cell_length_c   17.74600000
_cell_angle_alpha   90.00000000
_cell_angle_beta   90.00000000
_cell_angle_gamma   90.00000000
_symmetry_Int_Tables_number   1
_chemical_formula_structural   Co2H19C15N6O11
_chemical_formula_sum   'Co8 H76 C60 N24 O44'
_cell_volume   2177.32358563
_cell_formula_units_Z   4
loop_
 _symmetry_equiv_pos_site_id
 _symmetry_equiv_pos_as_xyz
  1  'x, y, z'
loop_
 _atom_site_type_symbol
 _atom_site_label
 _atom_site_symmetry_multiplicity
 _atom_site_fract_x
 _atom_site_fract_y
 _atom_site_fract_z
 _atom_site_occupancy
 _atom_site_charge
Co  Co1  1  0.75000000  0.70753000  0.07518000  1.0 0.8261438436
Co  Co2  1  0.75000000  0.20753000  0.42482000  1.0 0.8261438436
Co  Co3  1  0.75000000  0.60980000  0.26000000  1.0 0.9193672663
Co  Co4  1  0.75000000  0.10980000  0.24000000  1.0 0.9193672663
Co  Co5  1  0.25000000  0.79247000  0.57518000  1.0 0.8261438436
Co  Co6  1  0.25000000  0.29247000  0.92482000  1.0 0.8261438436
Co  Co7  1  0.25000000  0.89020000  0.76000000  1.0 0.9193672663
Co  Co8  1  0.25000000  0.39020000  0.74000000  1.0 0.9193672663
H  H1  1  0.75000000  0.56150000  0.93740000  1.0 0.2821077383
H  H2  1  0.75000000  0.06150000  0.56260000  1.0 0.2821077383
H  H3  1  0.75000000  0.92160000  0.17600000  1.0 0.309754563
H  H4  1  0.75000000  0.42160000  0.32400000  1.0 0.309754563
H  H5  1  0.75000000  0.73010000  0.79130000  1.0 0.1677685356
H  H6  1  0.75000000  0.23010000  0.70870000  1.0 0.1677685356
H  H7  1  0.75000000  0.85960000  0.38650000  1.0 0.1677685356
H  H8  1  0.75000000  0.35960000  0.11350000  1.0 0.1677685356
H  H9  1  0.40970000  0.60300000  0.03540000  1.0 0.1328146061
H  H10  1  0.09030000  0.10300000  0.46460000  1.0 0.1328146061
H  H11  1  0.40970000  0.10300000  0.46460000  1.0 0.1328146061
H  H12  1  0.09030000  0.60300000  0.03540000  1.0 0.1328146061
H  H13  1  0.40960000  0.80890000  0.12540000  1.0 0.1328146061
H  H14  1  0.09040000  0.30890000  0.37460000  1.0 0.1328146061
H  H15  1  0.40960000  0.30890000  0.37460000  1.0 0.1328146061
H  H16  1  0.09040000  0.80890000  0.12540000  1.0 0.1328146061
H  H17  1  0.40900000  0.61600000  0.30110000  1.0 0.29036322
H  H18  1  0.09100000  0.11600000  0.19890000  1.0 0.29036322
H  H19  1  0.40900000  0.11600000  0.19890000  1.0 0.29036322
H  H20  1  0.09100000  0.61600000  0.30110000  1.0 0.29036322
H  H21  1  0.39600000  0.57900000  0.24400000  1.0 0.2821077383
H  H22  1  0.10400000  0.07900000  0.25600000  1.0 0.2821077383
H  H23  1  0.39600000  0.07900000  0.25600000  1.0 0.2821077383
H  H24  1  0.10400000  0.57900000  0.24400000  1.0 0.2821077383
H  H25  1  0.75000000  0.55100000  0.39800000  1.0 0.3396813622
H  H26  1  0.75000000  0.05100000  0.10200000  1.0 0.3396813622
H  H27  1  0.69370000  0.69870000  0.41580000  1.0 0.0674160596
H  H28  1  0.80630000  0.19870000  0.08420000  1.0 0.0674160596
H  H29  1  0.69370000  0.19870000  0.08420000  1.0 0.0674160596
H  H30  1  0.80630000  0.69870000  0.41580000  1.0 0.0674160596
H  H31  1  0.67960000  0.63340000  0.47710000  1.0 0.0619204645
H  H32  1  0.82040000  0.13340000  0.02290000  1.0 0.0619204645
H  H33  1  0.67960000  0.13340000  0.02290000  1.0 0.0619204645
H  H34  1  0.82040000  0.63340000  0.47710000  1.0 0.0619204645
H  H35  1  0.87670000  0.66250000  0.44990000  1.0 0.0619204645
H  H36  1  0.62330000  0.16250000  0.05010000  1.0 0.0619204645
H  H37  1  0.87670000  0.16250000  0.05010000  1.0 0.0619204645
H  H38  1  0.62330000  0.66250000  0.44990000  1.0 0.0619204645
H  H39  1  0.25000000  0.93850000  0.43740000  1.0 0.2821077383
H  H40  1  0.25000000  0.43850000  0.06260000  1.0 0.2821077383
H  H41  1  0.25000000  0.57840000  0.67600000  1.0 0.309754563
H  H42  1  0.25000000  0.07840000  0.82400000  1.0 0.309754563
H  H43  1  0.25000000  0.76990000  0.29130000  1.0 0.1677685356
H  H44  1  0.25000000  0.26990000  0.20870000  1.0 0.1677685356
H  H45  1  0.25000000  0.64040000  0.88650000  1.0 0.1677685356
H  H46  1  0.25000000  0.14040000  0.61350000  1.0 0.1677685356
H  H47  1  0.59030000  0.89700000  0.53540000  1.0 0.1328146061
H  H48  1  0.90970000  0.39700000  0.96460000  1.0 0.1328146061
H  H49  1  0.59030000  0.39700000  0.96460000  1.0 0.1328146061
H  H50  1  0.90970000  0.89700000  0.53540000  1.0 0.1328146061
H  H51  1  0.59040000  0.69110000  0.62540000  1.0 0.1328146061
H  H52  1  0.90960000  0.19110000  0.87460000  1.0 0.1328146061
H  H53  1  0.59040000  0.19110000  0.87460000  1.0 0.1328146061
H  H54  1  0.90960000  0.69110000  0.62540000  1.0 0.1328146061
H  H55  1  0.59100000  0.88400000  0.80110000  1.0 0.29036322
H  H56  1  0.90900000  0.38400000  0.69890000  1.0 0.29036322
H  H57  1  0.59100000  0.38400000  0.69890000  1.0 0.29036322
H  H58  1  0.90900000  0.88400000  0.80110000  1.0 0.29036322
H  H59  1  0.60400000  0.92100000  0.74400000  1.0 0.2821077383
H  H60  1  0.89600000  0.42100000  0.75600000  1.0 0.2821077383
H  H61  1  0.60400000  0.42100000  0.75600000  1.0 0.2821077383
H  H62  1  0.89600000  0.92100000  0.74400000  1.0 0.2821077383
H  H63  1  0.25000000  0.94900000  0.89800000  1.0 0.3396813622
H  H64  1  0.25000000  0.44900000  0.60200000  1.0 0.3396813622
H  H65  1  0.30630000  0.80130000  0.91580000  1.0 0.0674160596
H  H66  1  0.19370000  0.30130000  0.58420000  1.0 0.0674160596
H  H67  1  0.30630000  0.30130000  0.58420000  1.0 0.0674160596
H  H68  1  0.19370000  0.80130000  0.91580000  1.0 0.0674160596
H  H69  1  0.32040000  0.86660000  0.97710000  1.0 0.0619204645
H  H70  1  0.17960000  0.36660000  0.52290000  1.0 0.0619204645
H  H71  1  0.32040000  0.36660000  0.52290000  1.0 0.0619204645
H  H72  1  0.17960000  0.86660000  0.97710000  1.0 0.0619204645
H  H73  1  0.12330000  0.83750000  0.94990000  1.0 0.0619204645
H  H74  1  0.37670000  0.33750000  0.55010000  1.0 0.0619204645
H  H75  1  0.12330000  0.33750000  0.55010000  1.0 0.0619204645
H  H76  1  0.37670000  0.83750000  0.94990000  1.0 0.0619204645
C  C1  1  0.75000000  0.81080000  0.94000000  1.0 0.5418878919
C  C2  1  0.75000000  0.31080000  0.56000000  1.0 0.5418878919
C  C3  1  0.75000000  0.73070000  0.90920000  1.0 0.0422252828
C  C4  1  0.75000000  0.23070000  0.59080000  1.0 0.0422252828
C  C5  1  0.75000000  0.70180000  0.83590000  1.0 -0.212294268
C  C6  1  0.75000000  0.20180000  0.66410000  1.0 -0.212294268
C  C7  1  0.75000000  0.62290000  0.84390000  1.0 0.0619204645
C  C8  1  0.75000000  0.12290000  0.65610000  1.0 0.0619204645
C  C9  1  0.75000000  0.55930000  0.78670000  1.0 0.5210266239
C  C10  1  0.75000000  0.05930000  0.71330000  1.0 0.5210266239
C  C11  1  0.75000000  0.78160000  0.23710000  1.0 0.551280362
C  C12  1  0.75000000  0.28160000  0.26290000  1.0 0.551280362
C  C13  1  0.75000000  0.86140000  0.26950000  1.0 0.0619204645
C  C14  1  0.75000000  0.36140000  0.23050000  1.0 0.0619204645
C  C15  1  0.75000000  0.88870000  0.34230000  1.0 -0.2300334745
C  C16  1  0.75000000  0.38870000  0.15770000  1.0 -0.2300334745
C  C17  1  0.75000000  0.96960000  0.33580000  1.0 0.0674160596
C  C18  1  0.75000000  0.46960000  0.16420000  1.0 0.0674160596
C  C19  1  0.75000000  0.03220000  0.39270000  1.0 0.5659583932
C  C20  1  0.75000000  0.53220000  0.10730000  1.0 0.5659583932
C  C21  1  0.34660000  0.64650000  0.05350000  1.0 0.0422252828
C  C22  1  0.15340000  0.14650000  0.44650000  1.0 0.0422252828
C  C23  1  0.34660000  0.14650000  0.44650000  1.0 0.0422252828
C  C24  1  0.15340000  0.64650000  0.05350000  1.0 0.0422252828
C  C25  1  0.34630000  0.76620000  0.10580000  1.0 0.0219350285
C  C26  1  0.15370000  0.26620000  0.39420000  1.0 0.0219350285
C  C27  1  0.34630000  0.26620000  0.39420000  1.0 0.0219350285
C  C28  1  0.15370000  0.76620000  0.10580000  1.0 0.0219350285
C  C29  1  0.75000000  0.65190000  0.43470000  1.0 -0.1956014992
C  C30  1  0.75000000  0.15190000  0.06530000  1.0 -0.1956014992
C  C31  1  0.25000000  0.68920000  0.44000000  1.0 0.5418878919
C  C32  1  0.25000000  0.18920000  0.06000000  1.0 0.5418878919
C  C33  1  0.25000000  0.76930000  0.40920000  1.0 0.0422252828
C  C34  1  0.25000000  0.26930000  0.09080000  1.0 0.0422252828
C  C35  1  0.25000000  0.79820000  0.33590000  1.0 -0.212294268
C  C36  1  0.25000000  0.29820000  0.16410000  1.0 -0.212294268
C  C37  1  0.25000000  0.87710000  0.34390000  1.0 0.0619204645
C  C38  1  0.25000000  0.37710000  0.15610000  1.0 0.0619204645
C  C39  1  0.25000000  0.94070000  0.28670000  1.0 0.5210266239
C  C40  1  0.25000000  0.44070000  0.21330000  1.0 0.5210266239
C  C41  1  0.25000000  0.71840000  0.73710000  1.0 0.551280362
C  C42  1  0.25000000  0.21840000  0.76290000  1.0 0.551280362
C  C43  1  0.25000000  0.63860000  0.76950000  1.0 0.0619204645
C  C44  1  0.25000000  0.13860000  0.73050000  1.0 0.0619204645
C  C45  1  0.25000000  0.61130000  0.84230000  1.0 -0.2300334745
C  C46  1  0.25000000  0.11130000  0.65770000  1.0 -0.2300334745
C  C47  1  0.25000000  0.53040000  0.83580000  1.0 0.0674160596
C  C48  1  0.25000000  0.03040000  0.66420000  1.0 0.0674160596
C  C49  1  0.25000000  0.46780000  0.89270000  1.0 0.5659583932
C  C50  1  0.25000000  0.96780000  0.60730000  1.0 0.5659583932
C  C51  1  0.65340000  0.85350000  0.55350000  1.0 0.0422252828
C  C52  1  0.84660000  0.35350000  0.94650000  1.0 0.0422252828
C  C53  1  0.65340000  0.35350000  0.94650000  1.0 0.0422252828
C  C54  1  0.84660000  0.85350000  0.55350000  1.0 0.0422252828
C  C55  1  0.65370000  0.73380000  0.60580000  1.0 0.0219350285
C  C56  1  0.84630000  0.23380000  0.89420000  1.0 0.0219350285
C  C57  1  0.65370000  0.23380000  0.89420000  1.0 0.0219350285
C  C58  1  0.84630000  0.73380000  0.60580000  1.0 0.0219350285
C  C59  1  0.25000000  0.84810000  0.93470000  1.0 -0.1956014992
C  C60  1  0.25000000  0.34810000  0.56530000  1.0 -0.1956014992
N  N1  1  0.75000000  0.67270000  0.95950000  1.0 -0.2300334745
N  N2  1  0.75000000  0.17270000  0.54050000  1.0 -0.2300334745
N  N3  1  0.75000000  0.60760000  0.91850000  1.0 -0.0692810962
N  N4  1  0.75000000  0.10760000  0.58150000  1.0 -0.0692810962
N  N5  1  0.75000000  0.92400000  0.22450000  1.0 -0.0616096021
N  N6  1  0.75000000  0.42400000  0.27550000  1.0 -0.0616096021
N  N7  1  0.75000000  0.99060000  0.26330000  1.0 -0.2372480356
N  N8  1  0.75000000  0.49060000  0.23670000  1.0 -0.2372480356
N  N9  1  0.44560000  0.70658000  0.07847000  1.0 -0.1812134707
N  N10  1  0.05440000  0.20658000  0.42153000  1.0 -0.1812134707
N  N11  1  0.44560000  0.20658000  0.42153000  1.0 -0.1812134707
N  N12  1  0.05440000  0.70658000  0.07847000  1.0 -0.1812134707
N  N13  1  0.25000000  0.82730000  0.45950000  1.0 -0.2300334745
N  N14  1  0.25000000  0.32730000  0.04050000  1.0 -0.2300334745
N  N15  1  0.25000000  0.89240000  0.41850000  1.0 -0.0692810962
N  N16  1  0.25000000  0.39240000  0.08150000  1.0 -0.0692810962
N  N17  1  0.25000000  0.57600000  0.72450000  1.0 -0.0616096021
N  N18  1  0.25000000  0.07600000  0.77550000  1.0 -0.0616096021
N  N19  1  0.25000000  0.50940000  0.76330000  1.0 -0.2372480356
N  N20  1  0.25000000  0.00940000  0.73670000  1.0 -0.2372480356
N  N21  1  0.55440000  0.79342000  0.57847000  1.0 -0.1812134707
N  N22  1  0.94560000  0.29342000  0.92153000  1.0 -0.1812134707
N  N23  1  0.55440000  0.29342000  0.92153000  1.0 -0.1812134707
N  N24  1  0.94560000  0.79342000  0.57847000  1.0 -0.1812134707
O  O1  1  0.75000000  0.81480000  0.01150000  1.0 -0.5710054361
O  O2  1  0.75000000  0.31480000  0.48850000  1.0 -0.5710054361
O  O3  1  0.75000000  0.86690000  0.89590000  1.0 -0.5157738501
O  O4  1  0.75000000  0.36690000  0.60410000  1.0 -0.5157738501
O  O5  1  0.75000000  0.49080000  0.81300000  1.0 -0.5329434672
O  O6  1  0.75000000  0.99080000  0.68700000  1.0 -0.5329434672
O  O7  1  0.75000000  0.57870000  0.72090000  1.0 -0.5551086539
O  O8  1  0.75000000  0.07870000  0.77910000  1.0 -0.5551086539
O  O9  1  0.75000000  0.77920000  0.16640000  1.0 -0.5329434672
O  O10  1  0.75000000  0.27920000  0.33360000  1.0 -0.5329434672
O  O11  1  0.75000000  0.72710000  0.28210000  1.0 -0.4888801524
O  O12  1  0.75000000  0.22710000  0.21790000  1.0 -0.4888801524
O  O13  1  0.75000000  0.10160000  0.36560000  1.0 -0.5884038084
O  O14  1  0.75000000  0.60160000  0.13440000  1.0 -0.5884038084
O  O15  1  0.75000000  0.01460000  0.45970000  1.0 -0.5057969266
O  O16  1  0.75000000  0.51460000  0.04030000  1.0 -0.5057969266
O  O17  1  0.46480000  0.61500000  0.25941000  1.0 -0.6706348532
O  O18  1  0.03520000  0.11500000  0.24059000  1.0 -0.6706348532
O  O19  1  0.46480000  0.11500000  0.24059000  1.0 -0.6706348532
O  O20  1  0.03520000  0.61500000  0.25941000  1.0 -0.6706348532
O  O21  1  0.75000000  0.59640000  0.37910000  1.0 -0.3832719723
O  O22  1  0.75000000  0.09640000  0.12090000  1.0 -0.3832719723
O  O23  1  0.25000000  0.68520000  0.51150000  1.0 -0.5710054361
O  O24  1  0.25000000  0.18520000  0.98850000  1.0 -0.5710054361
O  O25  1  0.25000000  0.63310000  0.39590000  1.0 -0.5157738501
O  O26  1  0.25000000  0.13310000  0.10410000  1.0 -0.5157738501
O  O27  1  0.25000000  0.00920000  0.31300000  1.0 -0.5329434672
O  O28  1  0.25000000  0.50920000  0.18700000  1.0 -0.5329434672
O  O29  1  0.25000000  0.92130000  0.22090000  1.0 -0.5551086539
O  O30  1  0.25000000  0.42130000  0.27910000  1.0 -0.5551086539
O  O31  1  0.25000000  0.72080000  0.66640000  1.0 -0.5329434672
O  O32  1  0.25000000  0.22080000  0.83360000  1.0 -0.5329434672
O  O33  1  0.25000000  0.77290000  0.78210000  1.0 -0.4888801524
O  O34  1  0.25000000  0.27290000  0.71790000  1.0 -0.4888801524
O  O35  1  0.25000000  0.39840000  0.86560000  1.0 -0.5884038084
O  O36  1  0.25000000  0.89840000  0.63440000  1.0 -0.5884038084
O  O37  1  0.25000000  0.48540000  0.95970000  1.0 -0.5044699186
O  O38  1  0.25000000  0.98540000  0.54030000  1.0 -0.5044699186
O  O39  1  0.53520000  0.88500000  0.75941000  1.0 -0.6706348532
O  O40  1  0.96480000  0.38500000  0.74059000  1.0 -0.6706348532
O  O41  1  0.53520000  0.38500000  0.74059000  1.0 -0.6706348532
O  O42  1  0.96480000  0.88500000  0.75941000  1.0 -0.6706348532
O  O43  1  0.25000000  0.90360000  0.87910000  1.0 -0.3832719723
O  O44  1  0.25000000  0.40360000  0.62090000  1.0 -0.3832719723
