# DDEC6 charges by PACMAN v1.1 (https://github.com/mtap-research/PACMAN-charge/)
data_TILVUF_ASR_pacman
_symmetry_space_group_name_H-M   'P 1'
_cell_length_a   8.97800000
_cell_length_b   8.97800000
_cell_length_c   11.93400000
_cell_angle_alpha   90.00000000
_cell_angle_beta   90.00000000
_cell_angle_gamma   90.00000000
_symmetry_Int_Tables_number   1
_chemical_formula_structural   CdC4
_chemical_formula_sum   'Cd4 C16'
_cell_volume   961.93391206
_cell_formula_units_Z   4
loop_
 _symmetry_equiv_pos_site_id
 _symmetry_equiv_pos_as_xyz
  1  'x, y, z'
loop_
 _atom_site_type_symbol
 _atom_site_label
 _atom_site_symmetry_multiplicity
 _atom_site_fract_x
 _atom_site_fract_y
 _atom_site_fract_z
 _atom_site_occupancy
 _atom_site_charge
Cd  Cd1  1  0.29630000  0.29630000  0.00000000  1.0 0.7608589843
Cd  Cd2  1  0.20370000  0.79630000  0.25000000  1.0 0.7522518054
Cd  Cd3  1  0.79630000  0.20370000  0.75000000  1.0 0.7522518054
Cd  Cd4  1  0.70370000  0.70370000  0.50000000  1.0 0.7608589843
C  C1  1  0.26100000  0.12200000  0.12700000  1.0 -0.1511814319
C  C2  1  0.37800000  0.76100000  0.37700000  1.0 -0.1666386212
C  C3  1  0.76100000  0.37800000  0.62300000  1.0 -0.1666386212
C  C4  1  0.73900000  0.87800000  0.62700000  1.0 -0.1511814319
C  C5  1  0.12200000  0.26100000  0.87300000  1.0 -0.1511814319
C  C6  1  0.62200000  0.23900000  0.87700000  1.0 -0.1643988922
C  C7  1  0.23900000  0.62200000  0.12300000  1.0 -0.1666386212
C  C8  1  0.87800000  0.73900000  0.37300000  1.0 -0.1511814319
C  C9  1  0.51400000  0.26600000  0.92400000  1.0 -0.2200451181
C  C10  1  0.23400000  0.01400000  0.17400000  1.0 -0.2293548122
C  C11  1  0.01400000  0.23400000  0.82600000  1.0 -0.2293548122
C  C12  1  0.48600000  0.73400000  0.42400000  1.0 -0.2127787059
C  C13  1  0.26600000  0.51400000  0.07600000  1.0 -0.2127787059
C  C14  1  0.76600000  0.98600000  0.67400000  1.0 -0.2200451181
C  C15  1  0.98600000  0.76600000  0.32600000  1.0 -0.2200451181
C  C16  1  0.73400000  0.48600000  0.57600000  1.0 -0.2127787059
