# DDEC6 charges by PACMAN v1.1 (https://github.com/mtap-research/PACMAN-charge/)
data_TILWEQ_ASR_pacman
_symmetry_space_group_name_H-M   'P 1'
_cell_length_a   12.48300000
_cell_length_b   12.48300000
_cell_length_c   12.71900000
_cell_angle_alpha   90.00000000
_cell_angle_beta   90.00000000
_cell_angle_gamma   90.00000000
_symmetry_Int_Tables_number   1
_chemical_formula_structural   CdC4
_chemical_formula_sum   'Cd8 C32'
_cell_volume   1981.94185079
_cell_formula_units_Z   8
loop_
 _symmetry_equiv_pos_site_id
 _symmetry_equiv_pos_as_xyz
  1  'x, y, z'
loop_
 _atom_site_type_symbol
 _atom_site_label
 _atom_site_symmetry_multiplicity
 _atom_site_fract_x
 _atom_site_fract_y
 _atom_site_fract_z
 _atom_site_occupancy
 _atom_site_charge
Cd  Cd1  1  0.96046000  0.24420000  0.08709000  1.0 0.6860676162
Cd  Cd2  1  0.25580000  0.46046000  0.33709000  1.0 0.6860676162
Cd  Cd3  1  0.46046000  0.25580000  0.66291000  1.0 0.6845301889
Cd  Cd4  1  0.03954000  0.75580000  0.58709000  1.0 0.6845301889
Cd  Cd5  1  0.24420000  0.96046000  0.91291000  1.0 0.6845301889
Cd  Cd6  1  0.74420000  0.53954000  0.83709000  1.0 0.6845301889
Cd  Cd7  1  0.53954000  0.74420000  0.16291000  1.0 0.6860676162
Cd  Cd8  1  0.75580000  0.03954000  0.41291000  1.0 0.6860676162
C  C1  1  0.06960000  0.34550000  0.18940000  1.0 -0.0871204065
C  C2  1  0.15450000  0.56960000  0.43940000  1.0 -0.0871204065
C  C3  1  0.56960000  0.15450000  0.56060000  1.0 -0.0871204065
C  C4  1  0.93040000  0.65450000  0.68940000  1.0 -0.0871204065
C  C5  1  0.34550000  0.06960000  0.81060000  1.0 -0.0871204065
C  C6  1  0.84550000  0.43040000  0.93940000  1.0 -0.0871204065
C  C7  1  0.43040000  0.84550000  0.06060000  1.0 -0.0871204065
C  C8  1  0.65450000  0.93040000  0.31060000  1.0 -0.0828262515
C  C9  1  0.88420000  0.37080000  0.99040000  1.0 -0.232109886
C  C10  1  0.12920000  0.38420000  0.24040000  1.0 -0.232109886
C  C11  1  0.38420000  0.12920000  0.75960000  1.0 -0.232109886
C  C12  1  0.11580000  0.62920000  0.49040000  1.0 -0.232109886
C  C13  1  0.37080000  0.88420000  0.00960000  1.0 -0.232109886
C  C14  1  0.87080000  0.61580000  0.74040000  1.0 -0.232109886
C  C15  1  0.61580000  0.87080000  0.25960000  1.0 -0.232109886
C  C16  1  0.62920000  0.11580000  0.50960000  1.0 -0.232109886
C  C17  1  0.08630000  0.14510000  0.01840000  1.0 -0.1865898706
C  C18  1  0.35490000  0.58630000  0.26840000  1.0 -0.1865898706
C  C19  1  0.58630000  0.35490000  0.73160000  1.0 -0.1865898706
C  C20  1  0.91370000  0.85490000  0.51840000  1.0 -0.1865898706
C  C21  1  0.14510000  0.08630000  0.98160000  1.0 -0.1818085166
C  C22  1  0.64510000  0.41370000  0.76840000  1.0 -0.1818085166
C  C23  1  0.41370000  0.64510000  0.23160000  1.0 -0.1865898706
C  C24  1  0.85490000  0.91370000  0.48160000  1.0 -0.1818085166
C  C25  1  0.87490000  0.16450000  0.21540000  1.0 -0.1818085166
C  C26  1  0.33550000  0.37490000  0.46540000  1.0 -0.1818085166
C  C27  1  0.37490000  0.33550000  0.53460000  1.0 -0.1818085166
C  C28  1  0.12510000  0.83550000  0.71540000  1.0 -0.1818085166
C  C29  1  0.16450000  0.87490000  0.78460000  1.0 -0.1818085166
C  C30  1  0.66450000  0.62510000  0.96540000  1.0 -0.1818085166
C  C31  1  0.62510000  0.66450000  0.03460000  1.0 -0.1818085166
C  C32  1  0.83550000  0.12510000  0.28460000  1.0 -0.1818085166
