# DDEC6 charges by PACMAN v1.1 (https://github.com/mtap-research/PACMAN-charge/)
data_TIPSOE_ASR_pacman
_symmetry_space_group_name_H-M   'P 1'
_cell_length_a   25.50120000
_cell_length_b   25.50120000
_cell_length_c   14.05130000
_cell_angle_alpha   90.00000000
_cell_angle_beta   90.00000000
_cell_angle_gamma   120.00000000
_symmetry_Int_Tables_number   1
_chemical_formula_structural   Zr3B10H16(C3O2)6
_chemical_formula_sum   'Zr18 B60 H96 C108 O72'
_cell_volume   7913.49573424
_cell_formula_units_Z   6
loop_
 _symmetry_equiv_pos_site_id
 _symmetry_equiv_pos_as_xyz
  1  'x, y, z'
loop_
 _atom_site_type_symbol
 _atom_site_label
 _atom_site_symmetry_multiplicity
 _atom_site_fract_x
 _atom_site_fract_y
 _atom_site_fract_z
 _atom_site_occupancy
 _atom_site_charge
Zr  Zr1  1  0.56909000  0.56909000  0.37439000  1.0 2.5034254501
Zr  Zr2  1  0.43091000  0.00000000  0.37439000  1.0 2.5034254501
Zr  Zr3  1  0.00000000  0.43091000  0.37439000  1.0 2.5034254501
Zr  Zr4  1  0.43091000  0.43091000  0.37439000  1.0 2.5034254501
Zr  Zr5  1  0.56909000  0.00000000  0.37439000  1.0 2.5034254501
Zr  Zr6  1  0.00000000  0.56909000  0.37439000  1.0 2.5034254501
Zr  Zr7  1  0.56909000  0.56909000  0.62561000  1.0 2.5034254501
Zr  Zr8  1  0.00000000  0.43091000  0.62561000  1.0 2.5034254501
Zr  Zr9  1  0.43091000  0.00000000  0.62561000  1.0 2.5034254501
Zr  Zr10  1  0.43091000  0.43091000  0.62561000  1.0 2.5034254501
Zr  Zr11  1  0.00000000  0.56909000  0.62561000  1.0 2.5034254501
Zr  Zr12  1  0.56909000  0.00000000  0.62561000  1.0 2.5034254501
Zr  Zr13  1  0.55588000  0.44412000  0.50000000  1.0 2.4245658825
Zr  Zr14  1  0.55588000  0.11176000  0.50000000  1.0 2.4261676262
Zr  Zr15  1  0.88824000  0.44412000  0.50000000  1.0 2.4261676262
Zr  Zr16  1  0.44412000  0.55588000  0.50000000  1.0 2.4261676262
Zr  Zr17  1  0.44412000  0.88824000  0.50000000  1.0 2.4261676262
Zr  Zr18  1  0.11176000  0.55588000  0.50000000  1.0 2.4261676262
B  B1  1  0.70460000  0.85230000  0.10220000  1.0 -0.1018605446
B  B2  1  0.14770000  0.85230000  0.10220000  1.0 -0.1083380321
B  B3  1  0.14770000  0.29540000  0.10220000  1.0 -0.1018605446
B  B4  1  0.29540000  0.14770000  0.10220000  1.0 -0.1018605446
B  B5  1  0.85230000  0.14770000  0.10220000  1.0 -0.1018605446
B  B6  1  0.85230000  0.70460000  0.10220000  1.0 -0.1018605446
B  B7  1  0.85230000  0.70460000  0.89780000  1.0 -0.1018605446
B  B8  1  0.85230000  0.14770000  0.89780000  1.0 -0.1018605446
B  B9  1  0.29540000  0.14770000  0.89780000  1.0 -0.1018605446
B  B10  1  0.14770000  0.29540000  0.89780000  1.0 -0.1018605446
B  B11  1  0.14770000  0.85230000  0.89780000  1.0 -0.1083380321
B  B12  1  0.70460000  0.85230000  0.89780000  1.0 -0.1018605446
B  B13  1  0.72950000  0.89960000  0.00000000  1.0 -0.1083380321
B  B14  1  0.10040000  0.82990000  0.00000000  1.0 -0.1083380321
B  B15  1  0.17010000  0.27050000  0.00000000  1.0 -0.1083380321
B  B16  1  0.27050000  0.10040000  0.00000000  1.0 -0.1083380321
B  B17  1  0.89960000  0.17010000  0.00000000  1.0 -0.1083380321
B  B18  1  0.82990000  0.72950000  0.00000000  1.0 -0.1083380321
B  B19  1  0.89960000  0.72950000  0.00000000  1.0 -0.1018605446
B  B20  1  0.82990000  0.10040000  0.00000000  1.0 -0.1083380321
B  B21  1  0.27050000  0.17010000  0.00000000  1.0 -0.1083380321
B  B22  1  0.10040000  0.27050000  0.00000000  1.0 -0.1083380321
B  B23  1  0.17010000  0.89960000  0.00000000  1.0 -0.1018605446
B  B24  1  0.72950000  0.82990000  0.00000000  1.0 -0.1083380321
B  B25  1  0.66418000  0.88856000  0.06270000  1.0 -0.1216908538
B  B26  1  0.11144000  0.77562000  0.06270000  1.0 -0.1216908538
B  B27  1  0.22438000  0.33582000  0.06270000  1.0 -0.1216908538
B  B28  1  0.33582000  0.11144000  0.06270000  1.0 -0.1216908538
B  B29  1  0.88856000  0.22438000  0.06270000  1.0 -0.1216908538
B  B30  1  0.77562000  0.66418000  0.06270000  1.0 -0.1216908538
B  B31  1  0.88856000  0.66418000  0.93730000  1.0 -0.1216908538
B  B32  1  0.77562000  0.11144000  0.93730000  1.0 -0.1216908538
B  B33  1  0.33582000  0.22438000  0.93730000  1.0 -0.1216908538
B  B34  1  0.11144000  0.33582000  0.93730000  1.0 -0.1216908538
B  B35  1  0.22438000  0.88856000  0.93730000  1.0 -0.1216908538
B  B36  1  0.66418000  0.77562000  0.93730000  1.0 -0.1216908538
B  B37  1  0.33582000  0.11144000  0.93730000  1.0 -0.1216908538
B  B38  1  0.88856000  0.22438000  0.93730000  1.0 -0.1216908538
B  B39  1  0.77562000  0.66418000  0.93730000  1.0 -0.1216908538
B  B40  1  0.66418000  0.88856000  0.93730000  1.0 -0.1216908538
B  B41  1  0.11144000  0.77562000  0.93730000  1.0 -0.1216908538
B  B42  1  0.22438000  0.33582000  0.93730000  1.0 -0.1216908538
B  B43  1  0.11144000  0.33582000  0.06270000  1.0 -0.1216908538
B  B44  1  0.22438000  0.88856000  0.06270000  1.0 -0.1216908538
B  B45  1  0.66418000  0.77562000  0.06270000  1.0 -0.1216908538
B  B46  1  0.88856000  0.66418000  0.06270000  1.0 -0.1216908538
B  B47  1  0.77562000  0.11144000  0.06270000  1.0 -0.1216908538
B  B48  1  0.33582000  0.22438000  0.06270000  1.0 -0.1216908538
B  B49  1  0.59990000  0.83380000  0.00000000  1.0 -0.1275921321
B  B50  1  0.16620000  0.76610000  0.00000000  1.0 -0.1275921321
B  B51  1  0.23390000  0.40010000  0.00000000  1.0 -0.1275921321
B  B52  1  0.40010000  0.16620000  0.00000000  1.0 -0.1275921321
B  B53  1  0.83380000  0.23390000  0.00000000  1.0 -0.1275921321
B  B54  1  0.76610000  0.59990000  0.00000000  1.0 -0.1275921321
B  B55  1  0.83380000  0.59990000  0.00000000  1.0 -0.1275921321
B  B56  1  0.76610000  0.16620000  0.00000000  1.0 -0.1275921321
B  B57  1  0.40010000  0.23390000  0.00000000  1.0 -0.1275921321
B  B58  1  0.16620000  0.40010000  0.00000000  1.0 -0.1275921321
B  B59  1  0.23390000  0.83380000  0.00000000  1.0 -0.1275921321
B  B60  1  0.59990000  0.76610000  0.00000000  1.0 -0.1275921321
H  H1  1  0.58193000  0.71195000  0.19695000  1.0 0.2701080663
H  H2  1  0.28805000  0.86998000  0.19695000  1.0 0.2701080663
H  H3  1  0.13002000  0.41807000  0.19695000  1.0 0.2701080663
H  H4  1  0.41807000  0.28805000  0.19695000  1.0 0.2701080663
H  H5  1  0.71195000  0.13002000  0.19695000  1.0 0.2701080663
H  H6  1  0.86998000  0.58193000  0.19695000  1.0 0.2701080663
H  H7  1  0.71195000  0.58193000  0.80305000  1.0 0.2701080663
H  H8  1  0.86998000  0.28805000  0.80305000  1.0 0.2701080663
H  H9  1  0.41807000  0.13002000  0.80305000  1.0 0.2701080663
H  H10  1  0.28805000  0.41807000  0.80305000  1.0 0.2701080663
H  H11  1  0.13002000  0.71195000  0.80305000  1.0 0.2701080663
H  H12  1  0.58193000  0.86998000  0.80305000  1.0 0.2701080663
H  H13  1  0.41807000  0.28805000  0.80305000  1.0 0.2701080663
H  H14  1  0.71195000  0.13002000  0.80305000  1.0 0.2701080663
H  H15  1  0.86998000  0.58193000  0.80305000  1.0 0.2701080663
H  H16  1  0.58193000  0.71195000  0.80305000  1.0 0.2701080663
H  H17  1  0.28805000  0.86998000  0.80305000  1.0 0.2701080663
H  H18  1  0.13002000  0.41807000  0.80305000  1.0 0.2701080663
H  H19  1  0.28805000  0.41807000  0.19695000  1.0 0.2701080663
H  H20  1  0.13002000  0.71195000  0.19695000  1.0 0.2701080663
H  H21  1  0.58193000  0.86998000  0.19695000  1.0 0.2701080663
H  H22  1  0.71195000  0.58193000  0.19695000  1.0 0.2701080663
H  H23  1  0.86998000  0.28805000  0.19695000  1.0 0.2701080663
H  H24  1  0.41807000  0.13002000  0.19695000  1.0 0.2701080663
H  H25  1  0.48290000  0.74145000  0.39435000  1.0 0.1669081857
H  H26  1  0.25855000  0.74145000  0.39435000  1.0 0.1669081857
H  H27  1  0.25855000  0.51710000  0.39435000  1.0 0.1669081857
H  H28  1  0.51710000  0.25855000  0.39435000  1.0 0.1669081857
H  H29  1  0.74145000  0.25855000  0.39435000  1.0 0.1669081857
H  H30  1  0.74145000  0.48290000  0.39435000  1.0 0.1669081857
H  H31  1  0.74145000  0.48290000  0.60565000  1.0 0.1669081857
H  H32  1  0.74145000  0.25855000  0.60565000  1.0 0.1669081857
H  H33  1  0.51710000  0.25855000  0.60565000  1.0 0.1669081857
H  H34  1  0.25855000  0.51710000  0.60565000  1.0 0.1669081857
H  H35  1  0.25855000  0.74145000  0.60565000  1.0 0.1669081857
H  H36  1  0.48290000  0.74145000  0.60565000  1.0 0.1669081857
H  H37  1  0.73078000  0.86539000  0.17050000  1.0 -0.1625265469
H  H38  1  0.13461000  0.86539000  0.17050000  1.0 -0.1625265469
H  H39  1  0.13461000  0.26922000  0.17050000  1.0 -0.1625265469
H  H40  1  0.26922000  0.13461000  0.17050000  1.0 -0.1625265469
H  H41  1  0.86539000  0.13461000  0.17050000  1.0 -0.1625265469
H  H42  1  0.86539000  0.73078000  0.17050000  1.0 -0.1625265469
H  H43  1  0.86539000  0.73078000  0.82950000  1.0 -0.1625265469
H  H44  1  0.86539000  0.13461000  0.82950000  1.0 -0.1625265469
H  H45  1  0.26922000  0.13461000  0.82950000  1.0 -0.1625265469
H  H46  1  0.13461000  0.26922000  0.82950000  1.0 -0.1625265469
H  H47  1  0.13461000  0.86539000  0.82950000  1.0 -0.1625265469
H  H48  1  0.73078000  0.86539000  0.82950000  1.0 -0.1625265469
H  H49  1  0.77263000  0.94421000  0.00000000  1.0 -0.141172588
H  H50  1  0.05579000  0.82842000  0.00000000  1.0 -0.141172588
H  H51  1  0.17158000  0.22737000  0.00000000  1.0 -0.141172588
H  H52  1  0.22737000  0.05579000  0.00000000  1.0 -0.141172588
H  H53  1  0.94421000  0.17158000  0.00000000  1.0 -0.141172588
H  H54  1  0.82842000  0.77263000  0.00000000  1.0 -0.141172588
H  H55  1  0.94421000  0.77263000  0.00000000  1.0 -0.141172588
H  H56  1  0.82842000  0.05579000  0.00000000  1.0 -0.141172588
H  H57  1  0.22737000  0.17158000  0.00000000  1.0 -0.141172588
H  H58  1  0.05579000  0.22737000  0.00000000  1.0 -0.1472714073
H  H59  1  0.17158000  0.94421000  0.00000000  1.0 -0.141172588
H  H60  1  0.77263000  0.82842000  0.00000000  1.0 -0.141172588
H  H61  1  0.66361000  0.92559000  0.10478000  1.0 -0.1275921321
H  H62  1  0.07441000  0.73802000  0.10478000  1.0 -0.1275921321
H  H63  1  0.26198000  0.33639000  0.10478000  1.0 -0.1275921321
H  H64  1  0.33639000  0.07441000  0.10478000  1.0 -0.1216908538
H  H65  1  0.92559000  0.26198000  0.10478000  1.0 -0.1275921321
H  H66  1  0.73802000  0.66361000  0.10478000  1.0 -0.1216908538
H  H67  1  0.92559000  0.66361000  0.89522000  1.0 -0.1216908538
H  H68  1  0.73802000  0.07441000  0.89522000  1.0 -0.1216908538
H  H69  1  0.33639000  0.26198000  0.89522000  1.0 -0.1216908538
H  H70  1  0.07441000  0.33639000  0.89522000  1.0 -0.1275921321
H  H71  1  0.26198000  0.92559000  0.89522000  1.0 -0.1216908538
H  H72  1  0.66361000  0.73802000  0.89522000  1.0 -0.1216908538
H  H73  1  0.33639000  0.07441000  0.89522000  1.0 -0.1216908538
H  H74  1  0.92559000  0.26198000  0.89522000  1.0 -0.1275921321
H  H75  1  0.73802000  0.66361000  0.89522000  1.0 -0.1216908538
H  H76  1  0.66361000  0.92559000  0.89522000  1.0 -0.1216908538
H  H77  1  0.07441000  0.73802000  0.89522000  1.0 -0.1275921321
H  H78  1  0.26198000  0.33639000  0.89522000  1.0 -0.1275921321
H  H79  1  0.07441000  0.33639000  0.10478000  1.0 -0.1275921321
H  H80  1  0.26198000  0.92559000  0.10478000  1.0 -0.1216908538
H  H81  1  0.66361000  0.73802000  0.10478000  1.0 -0.1275921321
H  H82  1  0.92559000  0.66361000  0.10478000  1.0 -0.1216908538
H  H83  1  0.73802000  0.07441000  0.10478000  1.0 -0.1275921321
H  H84  1  0.33639000  0.26198000  0.10478000  1.0 -0.1216908538
H  H85  1  0.55627000  0.83434000  0.00000000  1.0 -0.141172588
H  H86  1  0.16566000  0.72193000  0.00000000  1.0 -0.1472714073
H  H87  1  0.27807000  0.44373000  0.00000000  1.0 -0.1472714073
H  H88  1  0.44373000  0.16566000  0.00000000  1.0 -0.1472714073
H  H89  1  0.83434000  0.27807000  0.00000000  1.0 -0.1472714073
H  H90  1  0.72193000  0.55627000  0.00000000  1.0 -0.1472714073
H  H91  1  0.83434000  0.55627000  0.00000000  1.0 -0.1472714073
H  H92  1  0.72193000  0.16566000  0.00000000  1.0 -0.1472714073
H  H93  1  0.44373000  0.27807000  0.00000000  1.0 -0.141172588
H  H94  1  0.16566000  0.44373000  0.00000000  1.0 -0.1472714073
H  H95  1  0.27807000  0.83434000  0.00000000  1.0 -0.1472714073
H  H96  1  0.55627000  0.72193000  0.00000000  1.0 -0.1472714073
C  C1  1  0.62690000  0.81345000  0.09550000  1.0 0.0031833361
C  C2  1  0.18655000  0.81345000  0.09550000  1.0 0.007641434
C  C3  1  0.18655000  0.37310000  0.09550000  1.0 0.007641434
C  C4  1  0.37310000  0.18655000  0.09550000  1.0 0.007641434
C  C5  1  0.81345000  0.18655000  0.09550000  1.0 0.007641434
C  C6  1  0.81345000  0.62690000  0.09550000  1.0 0.0031833361
C  C7  1  0.81345000  0.62690000  0.90450000  1.0 0.007641434
C  C8  1  0.81345000  0.18655000  0.90450000  1.0 0.007641434
C  C9  1  0.37310000  0.18655000  0.90450000  1.0 0.007641434
C  C10  1  0.18655000  0.37310000  0.90450000  1.0 0.007641434
C  C11  1  0.18655000  0.81345000  0.90450000  1.0 0.007641434
C  C12  1  0.62690000  0.81345000  0.90450000  1.0 0.0031833361
C  C13  1  0.58770000  0.79385000  0.18260000  1.0 0.0717876463
C  C14  1  0.20615000  0.79385000  0.18260000  1.0 0.0717876463
C  C15  1  0.20615000  0.41230000  0.18260000  1.0 0.0754767778
C  C16  1  0.41230000  0.20615000  0.18260000  1.0 0.0717876463
C  C17  1  0.79385000  0.20615000  0.18260000  1.0 0.0717876463
C  C18  1  0.79385000  0.58770000  0.18260000  1.0 0.0717876463
C  C19  1  0.79385000  0.58770000  0.81740000  1.0 0.0717876463
C  C20  1  0.79385000  0.20615000  0.81740000  1.0 0.0717876463
C  C21  1  0.41230000  0.20615000  0.81740000  1.0 0.0717876463
C  C22  1  0.20615000  0.41230000  0.81740000  1.0 0.0754767778
C  C23  1  0.20615000  0.79385000  0.81740000  1.0 0.0717876463
C  C24  1  0.58770000  0.79385000  0.81740000  1.0 0.0717876463
C  C25  1  0.56847000  0.73757000  0.22290000  1.0 -0.1275921321
C  C26  1  0.26243000  0.83090000  0.22290000  1.0 -0.1216908538
C  C27  1  0.16910000  0.43153000  0.22290000  1.0 -0.1216908538
C  C28  1  0.43153000  0.26243000  0.22290000  1.0 -0.1275921321
C  C29  1  0.73757000  0.16910000  0.22290000  1.0 -0.1275921321
C  C30  1  0.83090000  0.56847000  0.22290000  1.0 -0.1275921321
C  C31  1  0.73757000  0.56847000  0.77710000  1.0 -0.1275921321
C  C32  1  0.83090000  0.26243000  0.77710000  1.0 -0.1275921321
C  C33  1  0.43153000  0.16910000  0.77710000  1.0 -0.1275921321
C  C34  1  0.26243000  0.43153000  0.77710000  1.0 -0.1216908538
C  C35  1  0.16910000  0.73757000  0.77710000  1.0 -0.1216908538
C  C36  1  0.56847000  0.83090000  0.77710000  1.0 -0.1216908538
C  C37  1  0.43153000  0.26243000  0.77710000  1.0 -0.1275921321
C  C38  1  0.73757000  0.16910000  0.77710000  1.0 -0.1275921321
C  C39  1  0.83090000  0.56847000  0.77710000  1.0 -0.1275921321
C  C40  1  0.56847000  0.73757000  0.77710000  1.0 -0.1275921321
C  C41  1  0.26243000  0.83090000  0.77710000  1.0 -0.1216908538
C  C42  1  0.16910000  0.43153000  0.77710000  1.0 -0.1216908538
C  C43  1  0.26243000  0.43153000  0.22290000  1.0 -0.1216908538
C  C44  1  0.16910000  0.73757000  0.22290000  1.0 -0.1216908538
C  C45  1  0.56847000  0.83090000  0.22290000  1.0 -0.1216908538
C  C46  1  0.73757000  0.56847000  0.22290000  1.0 -0.1275921321
C  C47  1  0.83090000  0.26243000  0.22290000  1.0 -0.1275921321
C  C48  1  0.43153000  0.16910000  0.22290000  1.0 -0.1275921321
C  C49  1  0.52944000  0.71786000  0.30150000  1.0 0.0164912561
C  C50  1  0.28214000  0.81158000  0.30150000  1.0 0.0164912561
C  C51  1  0.18842000  0.47056000  0.30150000  1.0 0.0164912561
C  C52  1  0.47056000  0.28214000  0.30150000  1.0 0.0164912561
C  C53  1  0.71786000  0.18842000  0.30150000  1.0 0.0164912561
C  C54  1  0.81158000  0.52944000  0.30150000  1.0 0.0164912561
C  C55  1  0.71786000  0.52944000  0.69850000  1.0 0.0164912561
C  C56  1  0.81158000  0.28214000  0.69850000  1.0 0.0164912561
C  C57  1  0.47056000  0.18842000  0.69850000  1.0 0.0164912561
C  C58  1  0.28214000  0.47056000  0.69850000  1.0 0.0164912561
C  C59  1  0.18842000  0.71786000  0.69850000  1.0 0.0164912561
C  C60  1  0.52944000  0.81158000  0.69850000  1.0 0.0164912561
C  C61  1  0.47056000  0.28214000  0.69850000  1.0 0.0164912561
C  C62  1  0.71786000  0.18842000  0.69850000  1.0 0.0164912561
C  C63  1  0.81158000  0.52944000  0.69850000  1.0 0.0164912561
C  C64  1  0.52944000  0.71786000  0.69850000  1.0 0.0164912561
C  C65  1  0.28214000  0.81158000  0.69850000  1.0 0.0164912561
C  C66  1  0.18842000  0.47056000  0.69850000  1.0 0.0164912561
C  C67  1  0.28214000  0.47056000  0.30150000  1.0 0.0164912561
C  C68  1  0.18842000  0.71786000  0.30150000  1.0 0.0164912561
C  C69  1  0.52944000  0.81158000  0.30150000  1.0 0.0164912561
C  C70  1  0.71786000  0.52944000  0.30150000  1.0 0.0164912561
C  C71  1  0.81158000  0.28214000  0.30150000  1.0 0.0164912561
C  C72  1  0.47056000  0.18842000  0.30150000  1.0 0.0164912561
C  C73  1  0.50950000  0.75475000  0.34120000  1.0 -0.0033572617
C  C74  1  0.24525000  0.75475000  0.34120000  1.0 -0.0033572617
C  C75  1  0.24525000  0.49050000  0.34120000  1.0 -0.0033572617
C  C76  1  0.49050000  0.24525000  0.34120000  1.0 -0.0033572617
C  C77  1  0.75475000  0.24525000  0.34120000  1.0 -0.0033572617
C  C78  1  0.75475000  0.50950000  0.34120000  1.0 -0.0033572617
C  C79  1  0.75475000  0.50950000  0.65880000  1.0 -0.0033572617
C  C80  1  0.75475000  0.24525000  0.65880000  1.0 -0.0033572617
C  C81  1  0.49050000  0.24525000  0.65880000  1.0 -0.0033572617
C  C82  1  0.24525000  0.49050000  0.65880000  1.0 -0.0033572617
C  C83  1  0.24525000  0.75475000  0.65880000  1.0 -0.0033572617
C  C84  1  0.50950000  0.75475000  0.65880000  1.0 -0.0033572617
C  C85  1  0.51490000  0.65933000  0.34680000  1.0 0.6981103132
C  C86  1  0.34067000  0.85557000  0.34680000  1.0 0.6981103132
C  C87  1  0.14443000  0.48510000  0.34680000  1.0 0.6981103132
C  C88  1  0.48510000  0.34067000  0.34680000  1.0 0.6981103132
C  C89  1  0.65933000  0.14443000  0.34680000  1.0 0.6981103132
C  C90  1  0.85557000  0.51490000  0.34680000  1.0 0.6981103132
C  C91  1  0.65933000  0.51490000  0.65320000  1.0 0.6981103132
C  C92  1  0.85557000  0.34067000  0.65320000  1.0 0.6981103132
C  C93  1  0.48510000  0.14443000  0.65320000  1.0 0.6981103132
C  C94  1  0.34067000  0.48510000  0.65320000  1.0 0.6981103132
C  C95  1  0.14443000  0.65933000  0.65320000  1.0 0.6981103132
C  C96  1  0.51490000  0.85557000  0.65320000  1.0 0.6981103132
C  C97  1  0.48510000  0.34067000  0.65320000  1.0 0.6981103132
C  C98  1  0.65933000  0.14443000  0.65320000  1.0 0.6981103132
C  C99  1  0.85557000  0.51490000  0.65320000  1.0 0.6981103132
C  C100  1  0.51490000  0.65933000  0.65320000  1.0 0.6981103132
C  C101  1  0.34067000  0.85557000  0.65320000  1.0 0.6981103132
C  C102  1  0.14443000  0.48510000  0.65320000  1.0 0.6981103132
C  C103  1  0.34067000  0.48510000  0.34680000  1.0 0.6981103132
C  C104  1  0.14443000  0.65933000  0.34680000  1.0 0.6981103132
C  C105  1  0.51490000  0.85557000  0.34680000  1.0 0.6981103132
C  C106  1  0.65933000  0.51490000  0.34680000  1.0 0.6981103132
C  C107  1  0.85557000  0.34067000  0.34680000  1.0 0.6981103132
C  C108  1  0.48510000  0.14443000  0.34680000  1.0 0.6981103132
O  O1  1  0.47131000  0.63482000  0.40544000  1.0 -0.5230881426
O  O2  1  0.36518000  0.83649000  0.40544000  1.0 -0.5230881426
O  O3  1  0.16351000  0.52869000  0.40544000  1.0 -0.5230881426
O  O4  1  0.52869000  0.36518000  0.40544000  1.0 -0.5230881426
O  O5  1  0.63482000  0.16351000  0.40544000  1.0 -0.5230881426
O  O6  1  0.83649000  0.47131000  0.40544000  1.0 -0.5230881426
O  O7  1  0.63482000  0.47131000  0.59456000  1.0 -0.5230881426
O  O8  1  0.83649000  0.36518000  0.59456000  1.0 -0.5230881426
O  O9  1  0.52869000  0.16351000  0.59456000  1.0 -0.5230881426
O  O10  1  0.36518000  0.52869000  0.59456000  1.0 -0.5230881426
O  O11  1  0.16351000  0.63482000  0.59456000  1.0 -0.5230881426
O  O12  1  0.47131000  0.83649000  0.59456000  1.0 -0.5251896669
O  O13  1  0.52869000  0.36518000  0.59456000  1.0 -0.5230881426
O  O14  1  0.63482000  0.16351000  0.59456000  1.0 -0.5230881426
O  O15  1  0.83649000  0.47131000  0.59456000  1.0 -0.5230881426
O  O16  1  0.47131000  0.63482000  0.59456000  1.0 -0.5230881426
O  O17  1  0.36518000  0.83649000  0.59456000  1.0 -0.5230881426
O  O18  1  0.16351000  0.52869000  0.59456000  1.0 -0.5230881426
O  O19  1  0.36518000  0.52869000  0.40544000  1.0 -0.5230881426
O  O20  1  0.16351000  0.63482000  0.40544000  1.0 -0.5230881426
O  O21  1  0.47131000  0.83649000  0.40544000  1.0 -0.5251896669
O  O22  1  0.63482000  0.47131000  0.40544000  1.0 -0.5230881426
O  O23  1  0.83649000  0.36518000  0.40544000  1.0 -0.5230881426
O  O24  1  0.52869000  0.16351000  0.40544000  1.0 -0.5230881426
O  O25  1  0.54974000  0.63970000  0.32300000  1.0 -0.5590698311
O  O26  1  0.36030000  0.91004000  0.32300000  1.0 -0.5590698311
O  O27  1  0.08996000  0.45026000  0.32300000  1.0 -0.5590698311
O  O28  1  0.45026000  0.36030000  0.32300000  1.0 -0.5590698311
O  O29  1  0.63970000  0.08996000  0.32300000  1.0 -0.5590698311
O  O30  1  0.91004000  0.54974000  0.32300000  1.0 -0.5590698311
O  O31  1  0.63970000  0.54974000  0.67700000  1.0 -0.5590698311
O  O32  1  0.91004000  0.36030000  0.67700000  1.0 -0.5590698311
O  O33  1  0.45026000  0.08996000  0.67700000  1.0 -0.5590698311
O  O34  1  0.36030000  0.45026000  0.67700000  1.0 -0.5590698311
O  O35  1  0.08996000  0.63970000  0.67700000  1.0 -0.5590698311
O  O36  1  0.54974000  0.91004000  0.67700000  1.0 -0.5590698311
O  O37  1  0.45026000  0.36030000  0.67700000  1.0 -0.5590698311
O  O38  1  0.63970000  0.08996000  0.67700000  1.0 -0.5590698311
O  O39  1  0.91004000  0.54974000  0.67700000  1.0 -0.5590698311
O  O40  1  0.54974000  0.63970000  0.67700000  1.0 -0.5590698311
O  O41  1  0.36030000  0.91004000  0.67700000  1.0 -0.5590698311
O  O42  1  0.08996000  0.45026000  0.67700000  1.0 -0.5590698311
O  O43  1  0.36030000  0.45026000  0.32300000  1.0 -0.5590698311
O  O44  1  0.08996000  0.63970000  0.32300000  1.0 -0.5590698311
O  O45  1  0.54974000  0.91004000  0.32300000  1.0 -0.5590698311
O  O46  1  0.63970000  0.54974000  0.32300000  1.0 -0.5590698311
O  O47  1  0.91004000  0.36030000  0.32300000  1.0 -0.5590698311
O  O48  1  0.45026000  0.08996000  0.32300000  1.0 -0.5590698311
O  O49  1  0.59710000  0.54250000  0.50000000  1.0 -1.1175187849
O  O50  1  0.45750000  0.05460000  0.50000000  1.0 -1.1175187849
O  O51  1  0.94540000  0.40290000  0.50000000  1.0 -1.1132770866
O  O52  1  0.40290000  0.45750000  0.50000000  1.0 -1.1175187849
O  O53  1  0.54250000  0.94540000  0.50000000  1.0 -1.1175187849
O  O54  1  0.05460000  0.59710000  0.50000000  1.0 -1.1132770866
O  O55  1  0.54250000  0.59710000  0.50000000  1.0 -1.1132770866
O  O56  1  0.05460000  0.45750000  0.50000000  1.0 -1.1132770866
O  O57  1  0.40290000  0.94540000  0.50000000  1.0 -1.1175187849
O  O58  1  0.45750000  0.40290000  0.50000000  1.0 -1.1175187849
O  O59  1  0.94540000  0.54250000  0.50000000  1.0 -1.1175187849
O  O60  1  0.59710000  0.05460000  0.50000000  1.0 -1.1175187849
O  O61  1  0.52710000  0.47290000  0.37480000  1.0 -1.1175187849
O  O62  1  0.52710000  0.05420000  0.37480000  1.0 -1.1175187849
O  O63  1  0.94580000  0.47290000  0.37480000  1.0 -1.1175187849
O  O64  1  0.47290000  0.52710000  0.37480000  1.0 -1.1175187849
O  O65  1  0.47290000  0.94580000  0.37480000  1.0 -1.1132770866
O  O66  1  0.05420000  0.52710000  0.37480000  1.0 -1.1175187849
O  O67  1  0.47290000  0.52710000  0.62520000  1.0 -1.1175187849
O  O68  1  0.05420000  0.52710000  0.62520000  1.0 -1.1175187849
O  O69  1  0.47290000  0.94580000  0.62520000  1.0 -1.1132770866
O  O70  1  0.52710000  0.47290000  0.62520000  1.0 -1.1175187849
O  O71  1  0.94580000  0.47290000  0.62520000  1.0 -1.1175187849
O  O72  1  0.52710000  0.05420000  0.62520000  1.0 -1.1175187849
