# DDEC6 charges by PACMAN v1.1 (https://github.com/mtap-research/PACMAN-charge/)
data_TIPZUP_ASR_pacman
_symmetry_space_group_name_H-M   'P 1'
_cell_length_a   28.86410000
_cell_length_b   12.83310000
_cell_length_c   14.76320000
_cell_angle_alpha   90.00000000
_cell_angle_beta   113.11000000
_cell_angle_gamma   90.00000000
_symmetry_Int_Tables_number   1
_chemical_formula_structural   Ag9H12C30N2(O8F9)2
_chemical_formula_sum   'Ag36 H48 C120 N8 O64 F72'
_cell_volume   5029.69116129
_cell_formula_units_Z   4
loop_
 _symmetry_equiv_pos_site_id
 _symmetry_equiv_pos_as_xyz
  1  'x, y, z'
loop_
 _atom_site_type_symbol
 _atom_site_label
 _atom_site_symmetry_multiplicity
 _atom_site_fract_x
 _atom_site_fract_y
 _atom_site_fract_z
 _atom_site_occupancy
 _atom_site_charge
Ag  Ag1  1  0.98535000  0.88215000  0.02667000  1.0 0.4580244183
Ag  Ag2  1  0.01465000  0.11785000  0.97333000  1.0 0.4580244183
Ag  Ag3  1  0.01465000  0.88215000  0.47333000  1.0 0.4580244183
Ag  Ag4  1  0.98535000  0.11785000  0.52667000  1.0 0.4580244183
Ag  Ag5  1  0.48535000  0.38215000  0.02667000  1.0 0.4580244183
Ag  Ag6  1  0.51465000  0.61785000  0.97333000  1.0 0.4580244183
Ag  Ag7  1  0.51465000  0.38215000  0.47333000  1.0 0.4580244183
Ag  Ag8  1  0.48535000  0.61785000  0.52667000  1.0 0.4580244183
Ag  Ag9  1  0.91834000  0.98445000  0.09232000  1.0 0.4945315815
Ag  Ag10  1  0.08166000  0.01555000  0.90768000  1.0 0.4945315815
Ag  Ag11  1  0.08166000  0.98445000  0.40768000  1.0 0.4945315815
Ag  Ag12  1  0.91834000  0.01555000  0.59232000  1.0 0.4945315815
Ag  Ag13  1  0.41834000  0.48445000  0.09232000  1.0 0.4945315815
Ag  Ag14  1  0.58166000  0.51555000  0.90768000  1.0 0.4945315815
Ag  Ag15  1  0.58166000  0.48445000  0.40768000  1.0 0.4945315815
Ag  Ag16  1  0.41834000  0.51555000  0.59232000  1.0 0.4945315815
Ag  Ag17  1  0.92211000  0.94834000  0.30494000  1.0 0.4978973925
Ag  Ag18  1  0.07789000  0.05166000  0.69506000  1.0 0.4978973925
Ag  Ag19  1  0.07789000  0.94834000  0.19506000  1.0 0.4978973925
Ag  Ag20  1  0.92211000  0.05166000  0.80494000  1.0 0.4978973925
Ag  Ag21  1  0.42211000  0.44834000  0.30494000  1.0 0.4978973925
Ag  Ag22  1  0.57789000  0.55166000  0.69506000  1.0 0.4978973925
Ag  Ag23  1  0.57789000  0.44834000  0.19506000  1.0 0.4978973925
Ag  Ag24  1  0.42211000  0.55166000  0.80494000  1.0 0.4978973925
Ag  Ag25  1  0.00000000  0.87307000  0.25000000  1.0 0.2699141934
Ag  Ag26  1  0.00000000  0.12693000  0.75000000  1.0 0.2699141934
Ag  Ag27  1  0.50000000  0.37307000  0.25000000  1.0 0.2699141934
Ag  Ag28  1  0.50000000  0.62693000  0.75000000  1.0 0.2699141934
Ag  Ag29  1  0.69361000  0.52169000  0.62315000  1.0 0.5349093437
Ag  Ag30  1  0.30639000  0.47831000  0.37685000  1.0 0.5349093437
Ag  Ag31  1  0.30639000  0.52169000  0.87685000  1.0 0.5349093437
Ag  Ag32  1  0.69361000  0.47831000  0.12315000  1.0 0.5349093437
Ag  Ag33  1  0.19361000  0.02169000  0.62315000  1.0 0.5349093437
Ag  Ag34  1  0.80639000  0.97831000  0.37685000  1.0 0.5349093437
Ag  Ag35  1  0.80639000  0.02169000  0.87685000  1.0 0.5349093437
Ag  Ag36  1  0.19361000  0.97831000  0.12315000  1.0 0.5349093437
H  H1  1  0.00355000  0.26473000  0.16659000  1.0 0.120736382
H  H2  1  0.99645000  0.73527000  0.83341000  1.0 0.120736382
H  H3  1  0.99645000  0.26473000  0.33341000  1.0 0.120736382
H  H4  1  0.00355000  0.73527000  0.66659000  1.0 0.120736382
H  H5  1  0.50355000  0.76473000  0.16659000  1.0 0.120736382
H  H6  1  0.49645000  0.23527000  0.83341000  1.0 0.120736382
H  H7  1  0.49645000  0.76473000  0.33341000  1.0 0.120736382
H  H8  1  0.50355000  0.23527000  0.66659000  1.0 0.120736382
H  H9  1  0.05603000  0.20722000  0.26436000  1.0 0.1079495683
H  H10  1  0.94397000  0.79278000  0.73564000  1.0 0.1079495683
H  H11  1  0.94397000  0.20722000  0.23564000  1.0 0.1079495683
H  H12  1  0.05603000  0.79278000  0.76436000  1.0 0.1079495683
H  H13  1  0.55603000  0.70722000  0.26436000  1.0 0.1079495683
H  H14  1  0.44397000  0.29278000  0.73564000  1.0 0.1079495683
H  H15  1  0.44397000  0.70722000  0.23564000  1.0 0.1079495683
H  H16  1  0.55603000  0.29278000  0.76436000  1.0 0.1079495683
H  H17  1  0.87726000  0.67585000  0.76899000  1.0 0.135342047
H  H18  1  0.12274000  0.32415000  0.23101000  1.0 0.135342047
H  H19  1  0.12274000  0.67585000  0.73101000  1.0 0.135342047
H  H20  1  0.87726000  0.32415000  0.26899000  1.0 0.135342047
H  H21  1  0.37726000  0.17585000  0.76899000  1.0 0.135342047
H  H22  1  0.62274000  0.82415000  0.23101000  1.0 0.135342047
H  H23  1  0.62274000  0.17585000  0.73101000  1.0 0.135342047
H  H24  1  0.37726000  0.82415000  0.26899000  1.0 0.135342047
H  H25  1  0.80497000  0.57028000  0.65361000  1.0 0.0916597083
H  H26  1  0.19503000  0.42972000  0.34639000  1.0 0.0916597083
H  H27  1  0.19503000  0.57028000  0.84639000  1.0 0.0916597083
H  H28  1  0.80497000  0.42972000  0.15361000  1.0 0.0916597083
H  H29  1  0.30497000  0.07028000  0.65361000  1.0 0.0916597083
H  H30  1  0.69503000  0.92972000  0.34639000  1.0 0.0916597083
H  H31  1  0.69503000  0.07028000  0.84639000  1.0 0.0916597083
H  H32  1  0.30497000  0.92972000  0.15361000  1.0 0.0916597083
H  H33  1  0.77641000  0.80368000  0.89275000  1.0 0.120736382
H  H34  1  0.22359000  0.19632000  0.10725000  1.0 0.120736382
H  H35  1  0.22359000  0.80368000  0.60725000  1.0 0.120736382
H  H36  1  0.77641000  0.19632000  0.39275000  1.0 0.120736382
H  H37  1  0.27641000  0.30368000  0.89275000  1.0 0.120736382
H  H38  1  0.72359000  0.69632000  0.10725000  1.0 0.120736382
H  H39  1  0.72359000  0.30368000  0.60725000  1.0 0.120736382
H  H40  1  0.27641000  0.69632000  0.39275000  1.0 0.120736382
H  H41  1  0.70734000  0.69100000  0.77501000  1.0 0.1079495683
H  H42  1  0.29266000  0.30900000  0.22499000  1.0 0.1079495683
H  H43  1  0.29266000  0.69100000  0.72499000  1.0 0.1079495683
H  H44  1  0.70734000  0.30900000  0.27501000  1.0 0.1079495683
H  H45  1  0.20734000  0.19100000  0.77501000  1.0 0.1079495683
H  H46  1  0.79266000  0.80900000  0.22499000  1.0 0.1079495683
H  H47  1  0.79266000  0.19100000  0.72499000  1.0 0.1079495683
H  H48  1  0.20734000  0.80900000  0.27501000  1.0 0.1079495683
C  C1  1  0.99938000  0.00838000  0.12976000  1.0 -0.577852273
C  C2  1  0.00062000  0.99162000  0.87024000  1.0 -0.577852273
C  C3  1  0.00062000  0.00838000  0.37024000  1.0 -0.577852273
C  C4  1  0.99938000  0.99162000  0.62976000  1.0 -0.577852273
C  C5  1  0.49938000  0.50838000  0.12976000  1.0 -0.577852273
C  C6  1  0.50062000  0.49162000  0.87024000  1.0 -0.577852273
C  C7  1  0.50062000  0.50838000  0.37024000  1.0 -0.577852273
C  C8  1  0.49938000  0.49162000  0.62976000  1.0 -0.577852273
C  C9  1  0.00878000  0.09997000  0.16197000  1.0 0.120736382
C  C10  1  0.99122000  0.90003000  0.83803000  1.0 0.120736382
C  C11  1  0.99122000  0.09997000  0.33803000  1.0 0.120736382
C  C12  1  0.00878000  0.90003000  0.66197000  1.0 0.120736382
C  C13  1  0.50878000  0.59997000  0.16197000  1.0 0.120736382
C  C14  1  0.49122000  0.40003000  0.83803000  1.0 0.120736382
C  C15  1  0.49122000  0.59997000  0.33803000  1.0 0.120736382
C  C16  1  0.50878000  0.40003000  0.66197000  1.0 0.120736382
C  C17  1  0.01555000  0.19668000  0.21675000  1.0 -0.1286460185
C  C18  1  0.98445000  0.80332000  0.78325000  1.0 -0.1286460185
C  C19  1  0.98445000  0.19668000  0.28325000  1.0 -0.1286460185
C  C20  1  0.01555000  0.80332000  0.71675000  1.0 -0.1286460185
C  C21  1  0.51555000  0.69668000  0.21675000  1.0 -0.1286460185
C  C22  1  0.48445000  0.30332000  0.78325000  1.0 -0.1286460185
C  C23  1  0.48445000  0.69668000  0.28325000  1.0 -0.1286460185
C  C24  1  0.51555000  0.30332000  0.71675000  1.0 -0.1286460185
C  C25  1  0.08761000  0.78690000  0.03975000  1.0 0.4329640627
C  C26  1  0.91239000  0.21310000  0.96025000  1.0 0.4329640627
C  C27  1  0.91239000  0.78690000  0.46025000  1.0 0.4329640627
C  C28  1  0.08761000  0.21310000  0.53975000  1.0 0.4329640627
C  C29  1  0.58761000  0.28690000  0.03975000  1.0 0.4329640627
C  C30  1  0.41239000  0.71310000  0.96025000  1.0 0.4329640627
C  C31  1  0.41239000  0.28690000  0.46025000  1.0 0.4329640627
C  C32  1  0.58761000  0.71310000  0.53975000  1.0 0.4329640627
C  C33  1  0.11842000  0.70009000  0.01428000  1.0 0.5889786218
C  C34  1  0.88158000  0.29991000  0.98572000  1.0 0.5889786218
C  C35  1  0.88158000  0.70009000  0.48572000  1.0 0.5889786218
C  C36  1  0.11842000  0.29991000  0.51428000  1.0 0.5889786218
C  C37  1  0.61842000  0.20009000  0.01428000  1.0 0.5889786218
C  C38  1  0.38158000  0.79991000  0.98572000  1.0 0.5889786218
C  C39  1  0.38158000  0.20009000  0.48572000  1.0 0.5889786218
C  C40  1  0.61842000  0.79991000  0.51428000  1.0 0.5889786218
C  C41  1  0.82329000  0.04386000  0.14066000  1.0 0.4441555872
C  C42  1  0.17671000  0.95614000  0.85934000  1.0 0.4441555872
C  C43  1  0.17671000  0.04386000  0.35934000  1.0 0.4441555872
C  C44  1  0.82329000  0.95614000  0.64066000  1.0 0.4441555872
C  C45  1  0.32329000  0.54386000  0.14066000  1.0 0.4441555872
C  C46  1  0.67671000  0.45614000  0.85934000  1.0 0.4441555872
C  C47  1  0.67671000  0.54386000  0.35934000  1.0 0.4441555872
C  C48  1  0.32329000  0.45614000  0.64066000  1.0 0.4441555872
C  C49  1  0.76594000  0.06862000  0.09387000  1.0 0.5889786218
C  C50  1  0.23406000  0.93138000  0.90613000  1.0 0.5889786218
C  C51  1  0.23406000  0.06862000  0.40613000  1.0 0.5889786218
C  C52  1  0.76594000  0.93138000  0.59387000  1.0 0.5889786218
C  C53  1  0.26594000  0.56862000  0.09387000  1.0 0.5889786218
C  C54  1  0.73406000  0.43138000  0.90613000  1.0 0.5889786218
C  C55  1  0.73406000  0.56862000  0.40613000  1.0 0.5889786218
C  C56  1  0.26594000  0.43138000  0.59387000  1.0 0.5889786218
C  C57  1  0.89730000  0.74826000  0.18428000  1.0 0.4211272657
C  C58  1  0.10270000  0.25174000  0.81572000  1.0 0.4211272657
C  C59  1  0.10270000  0.74826000  0.31572000  1.0 0.4211272657
C  C60  1  0.89730000  0.25174000  0.68428000  1.0 0.4211272657
C  C61  1  0.39730000  0.24826000  0.18428000  1.0 0.4211272657
C  C62  1  0.60270000  0.75174000  0.81572000  1.0 0.4211272657
C  C63  1  0.60270000  0.24826000  0.31572000  1.0 0.4211272657
C  C64  1  0.39730000  0.75174000  0.68428000  1.0 0.4211272657
C  C65  1  0.86531000  0.64952000  0.13886000  1.0 0.5889786218
C  C66  1  0.13469000  0.35048000  0.86114000  1.0 0.5889786218
C  C67  1  0.13469000  0.64952000  0.36114000  1.0 0.5889786218
C  C68  1  0.86531000  0.35048000  0.63886000  1.0 0.5889786218
C  C69  1  0.36531000  0.14952000  0.13886000  1.0 0.5889786218
C  C70  1  0.63469000  0.85048000  0.86114000  1.0 0.5889786218
C  C71  1  0.63469000  0.14952000  0.36114000  1.0 0.5889786218
C  C72  1  0.36531000  0.85048000  0.63886000  1.0 0.5889786218
C  C73  1  0.87386000  0.81784000  0.90557000  1.0 0.5743227139
C  C74  1  0.12614000  0.18216000  0.09443000  1.0 0.5743227139
C  C75  1  0.12614000  0.81784000  0.59443000  1.0 0.5743227139
C  C76  1  0.87386000  0.18216000  0.40557000  1.0 0.5743227139
C  C77  1  0.37386000  0.31784000  0.90557000  1.0 0.5743227139
C  C78  1  0.62614000  0.68216000  0.09443000  1.0 0.5743227139
C  C79  1  0.62614000  0.31784000  0.59443000  1.0 0.5743227139
C  C80  1  0.37386000  0.68216000  0.40557000  1.0 0.5743227139
C  C81  1  0.83171000  0.75010000  0.83756000  1.0 0.021148239
C  C82  1  0.16829000  0.24990000  0.16244000  1.0 0.021148239
C  C83  1  0.16829000  0.75010000  0.66244000  1.0 0.021148239
C  C84  1  0.83171000  0.24990000  0.33756000  1.0 0.021148239
C  C85  1  0.33171000  0.25010000  0.83756000  1.0 0.021148239
C  C86  1  0.66829000  0.74990000  0.16244000  1.0 0.021148239
C  C87  1  0.66829000  0.25010000  0.66244000  1.0 0.021148239
C  C88  1  0.33171000  0.74990000  0.33756000  1.0 0.021148239
C  C89  1  0.83993000  0.68222000  0.77098000  1.0 -0.1197979987
C  C90  1  0.16007000  0.31778000  0.22902000  1.0 -0.1197979987
C  C91  1  0.16007000  0.68222000  0.72902000  1.0 -0.1197979987
C  C92  1  0.83993000  0.31778000  0.27098000  1.0 -0.1197979987
C  C93  1  0.33993000  0.18222000  0.77098000  1.0 -0.1197979987
C  C94  1  0.66007000  0.81778000  0.22902000  1.0 -0.1197979987
C  C95  1  0.66007000  0.18222000  0.72902000  1.0 -0.1197979987
C  C96  1  0.33993000  0.81778000  0.27098000  1.0 -0.1197979987
C  C97  1  0.80000000  0.62270000  0.70769000  1.0 0.0916597083
C  C98  1  0.20000000  0.37730000  0.29231000  1.0 0.0916597083
C  C99  1  0.20000000  0.62270000  0.79231000  1.0 0.0916597083
C  C100  1  0.80000000  0.37730000  0.20769000  1.0 0.0916597083
C  C101  1  0.30000000  0.12270000  0.70769000  1.0 0.0916597083
C  C102  1  0.70000000  0.87730000  0.29231000  1.0 0.0916597083
C  C103  1  0.70000000  0.12270000  0.79231000  1.0 0.0916597083
C  C104  1  0.30000000  0.87730000  0.20769000  1.0 0.0916597083
C  C105  1  0.78365000  0.75328000  0.83998000  1.0 -0.1286460185
C  C106  1  0.21635000  0.24672000  0.16002000  1.0 -0.1286460185
C  C107  1  0.21635000  0.75328000  0.66002000  1.0 -0.1286460185
C  C108  1  0.78365000  0.24672000  0.33998000  1.0 -0.1286460185
C  C109  1  0.28365000  0.25328000  0.83998000  1.0 -0.1286460185
C  C110  1  0.71635000  0.74672000  0.16002000  1.0 -0.1286460185
C  C111  1  0.71635000  0.25328000  0.66002000  1.0 -0.1286460185
C  C112  1  0.28365000  0.74672000  0.33998000  1.0 -0.1286460185
C  C113  1  0.74547000  0.69049000  0.77547000  1.0 0.1009281188
C  C114  1  0.25453000  0.30951000  0.22453000  1.0 0.1009281188
C  C115  1  0.25453000  0.69049000  0.72453000  1.0 0.1009281188
C  C116  1  0.74547000  0.30951000  0.27547000  1.0 0.1009281188
C  C117  1  0.24547000  0.19049000  0.77547000  1.0 0.1009281188
C  C118  1  0.75453000  0.80951000  0.22453000  1.0 0.1009281188
C  C119  1  0.75453000  0.19049000  0.72453000  1.0 0.1009281188
C  C120  1  0.24547000  0.80951000  0.27547000  1.0 0.1009281188
N  N1  1  0.75321000  0.62609000  0.70940000  1.0 -0.2213361949
N  N2  1  0.24679000  0.37391000  0.29060000  1.0 -0.2213361949
N  N3  1  0.24679000  0.62609000  0.79060000  1.0 -0.2213361949
N  N4  1  0.75321000  0.37391000  0.20940000  1.0 -0.2213361949
N  N5  1  0.25321000  0.12609000  0.70940000  1.0 -0.2213361949
N  N6  1  0.74679000  0.87391000  0.29060000  1.0 -0.2213361949
N  N7  1  0.74679000  0.12609000  0.79060000  1.0 -0.2213361949
N  N8  1  0.25321000  0.87391000  0.20940000  1.0 -0.2213361949
O  O1  1  0.10905000  0.87404000  0.06885000  1.0 -0.5189267263
O  O2  1  0.89095000  0.12596000  0.93115000  1.0 -0.5189267263
O  O3  1  0.89095000  0.87404000  0.43115000  1.0 -0.5189267263
O  O4  1  0.10905000  0.12596000  0.56885000  1.0 -0.5189267263
O  O5  1  0.60905000  0.37404000  0.06885000  1.0 -0.5189267263
O  O6  1  0.39095000  0.62596000  0.93115000  1.0 -0.5189267263
O  O7  1  0.39095000  0.37404000  0.43115000  1.0 -0.5189267263
O  O8  1  0.60905000  0.62596000  0.56885000  1.0 -0.5189267263
O  O9  1  0.04307000  0.75868000  0.02369000  1.0 -0.4576068734
O  O10  1  0.95693000  0.24132000  0.97631000  1.0 -0.4576068734
O  O11  1  0.95693000  0.75868000  0.47631000  1.0 -0.4576068734
O  O12  1  0.04307000  0.24132000  0.52369000  1.0 -0.4576068734
O  O13  1  0.54307000  0.25868000  0.02369000  1.0 -0.4576068734
O  O14  1  0.45693000  0.74132000  0.97631000  1.0 -0.4576068734
O  O15  1  0.45693000  0.25868000  0.47631000  1.0 -0.4576068734
O  O16  1  0.54307000  0.74132000  0.52369000  1.0 -0.4576068734
O  O17  1  0.84236000  0.03560000  0.07653000  1.0 -0.4803563706
O  O18  1  0.15764000  0.96440000  0.92347000  1.0 -0.4803563706
O  O19  1  0.15764000  0.03560000  0.42347000  1.0 -0.4803563706
O  O20  1  0.84236000  0.96440000  0.57653000  1.0 -0.4803563706
O  O21  1  0.34236000  0.53560000  0.07653000  1.0 -0.4803563706
O  O22  1  0.65764000  0.46440000  0.92347000  1.0 -0.4803563706
O  O23  1  0.65764000  0.53560000  0.42347000  1.0 -0.4803563706
O  O24  1  0.34236000  0.46440000  0.57653000  1.0 -0.4803563706
O  O25  1  0.84390000  0.03664000  0.23314000  1.0 -0.4803563706
O  O26  1  0.15610000  0.96336000  0.76686000  1.0 -0.4803563706
O  O27  1  0.15610000  0.03664000  0.26686000  1.0 -0.4803563706
O  O28  1  0.84390000  0.96336000  0.73314000  1.0 -0.4803563706
O  O29  1  0.34390000  0.53664000  0.23314000  1.0 -0.4803563706
O  O30  1  0.65610000  0.46336000  0.76686000  1.0 -0.4803563706
O  O31  1  0.65610000  0.53664000  0.26686000  1.0 -0.4803563706
O  O32  1  0.34390000  0.46336000  0.73314000  1.0 -0.4803563706
O  O33  1  0.93879000  0.75154000  0.17459000  1.0 -0.4508460924
O  O34  1  0.06121000  0.24846000  0.82541000  1.0 -0.4508460924
O  O35  1  0.06121000  0.75154000  0.32541000  1.0 -0.4508460924
O  O36  1  0.93879000  0.24846000  0.67459000  1.0 -0.4508460924
O  O37  1  0.43879000  0.25154000  0.17459000  1.0 -0.4508460924
O  O38  1  0.56121000  0.74846000  0.82541000  1.0 -0.4508460924
O  O39  1  0.56121000  0.25154000  0.32541000  1.0 -0.4508460924
O  O40  1  0.43879000  0.74846000  0.67459000  1.0 -0.4508460924
O  O41  1  0.87718000  0.81081000  0.22497000  1.0 -0.4576068734
O  O42  1  0.12282000  0.18919000  0.77503000  1.0 -0.4576068734
O  O43  1  0.12282000  0.81081000  0.27503000  1.0 -0.4576068734
O  O44  1  0.87718000  0.18919000  0.72497000  1.0 -0.4576068734
O  O45  1  0.37718000  0.31081000  0.22497000  1.0 -0.4576068734
O  O46  1  0.62282000  0.68919000  0.77503000  1.0 -0.4576068734
O  O47  1  0.62282000  0.31081000  0.27503000  1.0 -0.4576068734
O  O48  1  0.37718000  0.68919000  0.72497000  1.0 -0.4576068734
O  O49  1  0.91870000  0.79257000  0.92023000  1.0 -0.4576068734
O  O50  1  0.08130000  0.20743000  0.07977000  1.0 -0.4576068734
O  O51  1  0.08130000  0.79257000  0.57977000  1.0 -0.4576068734
O  O52  1  0.91870000  0.20743000  0.42023000  1.0 -0.4576068734
O  O53  1  0.41870000  0.29257000  0.92023000  1.0 -0.4576068734
O  O54  1  0.58130000  0.70743000  0.07977000  1.0 -0.4576068734
O  O55  1  0.58130000  0.29257000  0.57977000  1.0 -0.4576068734
O  O56  1  0.41870000  0.70743000  0.42023000  1.0 -0.4576068734
O  O57  1  0.86166000  0.89698000  0.94614000  1.0 -0.5189267263
O  O58  1  0.13834000  0.10302000  0.05386000  1.0 -0.5189267263
O  O59  1  0.13834000  0.89698000  0.55386000  1.0 -0.5189267263
O  O60  1  0.86166000  0.10302000  0.44614000  1.0 -0.5189267263
O  O61  1  0.36166000  0.39698000  0.94614000  1.0 -0.5189267263
O  O62  1  0.63834000  0.60302000  0.05386000  1.0 -0.5189267263
O  O63  1  0.63834000  0.39698000  0.55386000  1.0 -0.5189267263
O  O64  1  0.36166000  0.60302000  0.44614000  1.0 -0.5189267263
F  F1  1  0.09749000  0.68411000  0.91277000  1.0 -0.1999235839
F  F2  1  0.90251000  0.31589000  0.08723000  1.0 -0.1999235839
F  F3  1  0.90251000  0.68411000  0.58723000  1.0 -0.1999235839
F  F4  1  0.09749000  0.31589000  0.41277000  1.0 -0.1999235839
F  F5  1  0.59749000  0.18411000  0.91277000  1.0 -0.1999235839
F  F6  1  0.40251000  0.81589000  0.08723000  1.0 -0.1999235839
F  F7  1  0.40251000  0.18411000  0.58723000  1.0 -0.1999235839
F  F8  1  0.59749000  0.81589000  0.41277000  1.0 -0.1999235839
F  F9  1  0.16794000  0.72480000  0.03906000  1.0 -0.1999235839
F  F10  1  0.83206000  0.27520000  0.96094000  1.0 -0.1999235839
F  F11  1  0.83206000  0.72480000  0.46094000  1.0 -0.1999235839
F  F12  1  0.16794000  0.27520000  0.53906000  1.0 -0.1999235839
F  F13  1  0.66794000  0.22480000  0.03906000  1.0 -0.1999235839
F  F14  1  0.33206000  0.77520000  0.96094000  1.0 -0.1999235839
F  F15  1  0.33206000  0.22480000  0.46094000  1.0 -0.1999235839
F  F16  1  0.66794000  0.77520000  0.53906000  1.0 -0.1999235839
F  F17  1  0.11680000  0.60759000  0.05867000  1.0 -0.1905724099
F  F18  1  0.88320000  0.39241000  0.94133000  1.0 -0.1905724099
F  F19  1  0.88320000  0.60759000  0.44133000  1.0 -0.1905724099
F  F20  1  0.11680000  0.39241000  0.55867000  1.0 -0.1905724099
F  F21  1  0.61680000  0.10759000  0.05867000  1.0 -0.1905724099
F  F22  1  0.38320000  0.89241000  0.94133000  1.0 -0.1905724099
F  F23  1  0.38320000  0.10759000  0.44133000  1.0 -0.1905724099
F  F24  1  0.61680000  0.89241000  0.55867000  1.0 -0.1905724099
F  F25  1  0.74026000  0.99188000  0.02729000  1.0 -0.2088248726
F  F26  1  0.25974000  0.00812000  0.97271000  1.0 -0.2088248726
F  F27  1  0.25974000  0.99188000  0.47271000  1.0 -0.2088248726
F  F28  1  0.74026000  0.00812000  0.52729000  1.0 -0.2088248726
F  F29  1  0.24026000  0.49188000  0.02729000  1.0 -0.2088248726
F  F30  1  0.75974000  0.50812000  0.97271000  1.0 -0.2088248726
F  F31  1  0.75974000  0.49188000  0.47271000  1.0 -0.2088248726
F  F32  1  0.24026000  0.50812000  0.52729000  1.0 -0.2088248726
F  F33  1  0.74508000  0.07486000  0.16229000  1.0 -0.1999235839
F  F34  1  0.25492000  0.92514000  0.83771000  1.0 -0.1999235839
F  F35  1  0.25492000  0.07486000  0.33771000  1.0 -0.1999235839
F  F36  1  0.74508000  0.92514000  0.66229000  1.0 -0.1999235839
F  F37  1  0.24508000  0.57486000  0.16229000  1.0 -0.1999235839
F  F38  1  0.75492000  0.42514000  0.83771000  1.0 -0.1999235839
F  F39  1  0.75492000  0.57486000  0.33771000  1.0 -0.1999235839
F  F40  1  0.24508000  0.42514000  0.66229000  1.0 -0.1999235839
F  F41  1  0.75796000  0.16136000  0.04404000  1.0 -0.1905724099
F  F42  1  0.24204000  0.83864000  0.95596000  1.0 -0.1905724099
F  F43  1  0.24204000  0.16136000  0.45596000  1.0 -0.1905724099
F  F44  1  0.75796000  0.83864000  0.54404000  1.0 -0.1905724099
F  F45  1  0.25796000  0.66136000  0.04404000  1.0 -0.1905724099
F  F46  1  0.74204000  0.33864000  0.95596000  1.0 -0.1905724099
F  F47  1  0.74204000  0.66136000  0.45596000  1.0 -0.1905724099
F  F48  1  0.25796000  0.33864000  0.54404000  1.0 -0.1905724099
F  F49  1  0.86416000  0.62691000  0.04748000  1.0 -0.1905724099
F  F50  1  0.13584000  0.37309000  0.95252000  1.0 -0.1905724099
F  F51  1  0.13584000  0.62691000  0.45252000  1.0 -0.1905724099
F  F52  1  0.86416000  0.37309000  0.54748000  1.0 -0.1905724099
F  F53  1  0.36416000  0.12691000  0.04748000  1.0 -0.1905724099
F  F54  1  0.63584000  0.87309000  0.95252000  1.0 -0.1905724099
F  F55  1  0.63584000  0.12691000  0.45252000  1.0 -0.1905724099
F  F56  1  0.36416000  0.87309000  0.54748000  1.0 -0.1905724099
F  F57  1  0.88478000  0.56435000  0.19857000  1.0 -0.1999235839
F  F58  1  0.11522000  0.43565000  0.80143000  1.0 -0.1999235839
F  F59  1  0.11522000  0.56435000  0.30143000  1.0 -0.1999235839
F  F60  1  0.88478000  0.43565000  0.69857000  1.0 -0.1999235839
F  F61  1  0.38478000  0.06435000  0.19857000  1.0 -0.1999235839
F  F62  1  0.61522000  0.93565000  0.80143000  1.0 -0.1999235839
F  F63  1  0.61522000  0.06435000  0.30143000  1.0 -0.1999235839
F  F64  1  0.38478000  0.93565000  0.69857000  1.0 -0.1999235839
F  F65  1  0.81614000  0.66240000  0.12920000  1.0 -0.1999235839
F  F66  1  0.18386000  0.33760000  0.87080000  1.0 -0.1999235839
F  F67  1  0.18386000  0.66240000  0.37080000  1.0 -0.1999235839
F  F68  1  0.81614000  0.33760000  0.62920000  1.0 -0.1999235839
F  F69  1  0.31614000  0.16240000  0.12920000  1.0 -0.1999235839
F  F70  1  0.68386000  0.83760000  0.87080000  1.0 -0.1999235839
F  F71  1  0.68386000  0.16240000  0.37080000  1.0 -0.1999235839
F  F72  1  0.31614000  0.83760000  0.62920000  1.0 -0.1999235839
