# DDEC6 charges by PACMAN v1.1 (https://github.com/mtap-research/PACMAN-charge/)
data_TIQWEZ_ASR_pacman
_symmetry_space_group_name_H-M   'P 1'
_cell_length_a   13.16480000
_cell_length_b   13.16480000
_cell_length_c   12.15570000
_cell_angle_alpha   89.54900000
_cell_angle_beta   90.45100000
_cell_angle_gamma   55.11220000
_symmetry_Int_Tables_number   1
_chemical_formula_structural   CoH24C12(NO)4
_chemical_formula_sum   'Co2 H48 C24 N8 O8'
_cell_volume   1727.84352277
_cell_formula_units_Z   2
loop_
 _symmetry_equiv_pos_site_id
 _symmetry_equiv_pos_as_xyz
  1  'x, y, z'
loop_
 _atom_site_type_symbol
 _atom_site_label
 _atom_site_symmetry_multiplicity
 _atom_site_fract_x
 _atom_site_fract_y
 _atom_site_fract_z
 _atom_site_occupancy
 _atom_site_charge
Co  Co1  1  0.50000000  0.00000000  0.50000000  1.0 0.6331593861
Co  Co2  1  0.00000000  0.50000000  0.00000000  1.0 0.6350416412
H  H1  1  0.35691000  0.07803000  0.13732000  1.0 0.1218661227
H  H2  1  0.07803000  0.35691000  0.36268000  1.0 0.1218661227
H  H3  1  0.64309000  0.92197000  0.86268000  1.0 0.1218661227
H  H4  1  0.92197000  0.64309000  0.63732000  1.0 0.1218661227
H  H5  1  0.30001000  0.00923000  0.18733000  1.0 0.1218661227
H  H6  1  0.00923000  0.30001000  0.31267000  1.0 0.1218661227
H  H7  1  0.69999000  0.99077000  0.81267000  1.0 0.1218661227
H  H8  1  0.99077000  0.69999000  0.68733000  1.0 0.1218661227
H  H9  1  0.31485000  0.25997000  0.36250000  1.0 0.127021302
H  H10  1  0.25997000  0.31485000  0.13750000  1.0 0.127021302
H  H11  1  0.68515000  0.74003000  0.63750000  1.0 0.127021302
H  H12  1  0.74003000  0.68515000  0.86250000  1.0 0.127021302
H  H13  1  0.40629000  0.19299000  0.26265000  1.0 0.127021302
H  H14  1  0.19299000  0.40629000  0.23735000  1.0 0.127021302
H  H15  1  0.59371000  0.80701000  0.73735000  1.0 0.127021302
H  H16  1  0.80701000  0.59371000  0.76265000  1.0 0.127021302
H  H17  1  0.16907000  0.10531000  0.35022000  1.0 0.1218661227
H  H18  1  0.10531000  0.16907000  0.14978000  1.0 0.1218661227
H  H19  1  0.83093000  0.89469000  0.64978000  1.0 0.1218661227
H  H20  1  0.89469000  0.83093000  0.85022000  1.0 0.1218661227
H  H21  1  0.20505000  0.16839000  0.43869000  1.0 0.1218661227
H  H22  1  0.16839000  0.20505000  0.06131000  1.0 0.1218661227
H  H23  1  0.79495000  0.83161000  0.56131000  1.0 0.1218661227
H  H24  1  0.83161000  0.79495000  0.93869000  1.0 0.1218661227
H  H25  1  0.13441000  0.36345000  0.60599000  1.0 0.1218661227
H  H26  1  0.36345000  0.13441000  0.89401000  1.0 0.1218661227
H  H27  1  0.86559000  0.63655000  0.39401000  1.0 0.1218661227
H  H28  1  0.63655000  0.86559000  0.10599000  1.0 0.1218661227
H  H29  1  0.12337000  0.24943000  0.60725000  1.0 0.1218661227
H  H30  1  0.24943000  0.12337000  0.89275000  1.0 0.1218661227
H  H31  1  0.87663000  0.75057000  0.39275000  1.0 0.1218661227
H  H32  1  0.75057000  0.87663000  0.10725000  1.0 0.1218661227
H  H33  1  0.43246000  0.21092000  0.72256000  1.0 0.127021302
H  H34  1  0.21092000  0.43246000  0.77744000  1.0 0.127021302
H  H35  1  0.56754000  0.78908000  0.27744000  1.0 0.127021302
H  H36  1  0.78908000  0.56754000  0.22256000  1.0 0.127021302
H  H37  1  0.34096000  0.32460000  0.64293000  1.0 0.127021302
H  H38  1  0.32460000  0.34096000  0.85707000  1.0 0.127021302
H  H39  1  0.65904000  0.67540000  0.35707000  1.0 0.127021302
H  H40  1  0.67540000  0.65904000  0.14293000  1.0 0.127021302
H  H41  1  0.27792000  0.06642000  0.71810000  1.0 0.1218661227
H  H42  1  0.06643000  0.27792000  0.78190000  1.0 0.1218661227
H  H43  1  0.72209000  0.93358000  0.28190000  1.0 0.127021302
H  H44  1  0.93358000  0.72208000  0.21810000  1.0 0.1218661227
H  H45  1  0.41304000  0.03454000  0.73597000  1.0 0.1218661227
H  H46  1  0.03454000  0.41304000  0.76403000  1.0 0.1218661227
H  H47  1  0.58696000  0.96546000  0.26403000  1.0 0.1218661227
H  H48  1  0.96546000  0.58696000  0.23597000  1.0 0.1218661227
C  C1  1  0.29238000  0.08778000  0.18520000  1.0 -0.2092458884
C  C2  1  0.08778000  0.29238000  0.31480000  1.0 -0.2092458884
C  C3  1  0.70762000  0.91222000  0.81480000  1.0 -0.2092458884
C  C4  1  0.91222000  0.70762000  0.68520000  1.0 -0.2092458884
C  C5  1  0.32359000  0.22419000  0.28990000  1.0 -0.2092458884
C  C6  1  0.22419000  0.32359000  0.21010000  1.0 -0.2092458884
C  C7  1  0.67641000  0.77581000  0.71010000  1.0 -0.2092458884
C  C8  1  0.77581000  0.67641000  0.78990000  1.0 -0.2092458884
C  C9  1  0.19179000  0.16379000  0.36000000  1.0 -0.1909303709
C  C10  1  0.16379000  0.19179000  0.14000000  1.0 -0.1909303709
C  C11  1  0.80821000  0.83621000  0.64000000  1.0 -0.1909303709
C  C12  1  0.83621000  0.80821000  0.86000000  1.0 -0.1909303709
C  C13  1  0.15659000  0.28899000  0.64730000  1.0 -0.2092458884
C  C14  1  0.28899000  0.15659000  0.85270000  1.0 -0.2092458884
C  C15  1  0.84341000  0.71101000  0.35270000  1.0 -0.2092458884
C  C16  1  0.71101000  0.84341000  0.14730000  1.0 -0.2092458884
C  C17  1  0.34540000  0.26960000  0.70050000  1.0 -0.202523459
C  C18  1  0.26960000  0.34540000  0.79950000  1.0 -0.1909303709
C  C19  1  0.65460000  0.73040000  0.29950000  1.0 -0.1909303709
C  C20  1  0.73040000  0.65460000  0.20050000  1.0 -0.1909303709
C  C21  1  0.32440000  0.10120000  0.73760000  1.0 -0.202523459
C  C22  1  0.10120000  0.32440000  0.76240000  1.0 -0.202523459
C  C23  1  0.67560000  0.89880000  0.26240000  1.0 -0.202523459
C  C24  1  0.89880000  0.67560000  0.23760000  1.0 -0.202523459
N  N1  1  0.30765000  0.12087000  0.29838000  1.0 0.2903414538
N  N2  1  0.12087000  0.30765000  0.20162000  1.0 0.2903414538
N  N3  1  0.69235000  0.87913000  0.70162000  1.0 0.2903414538
N  N4  1  0.87913000  0.69235000  0.79838000  1.0 0.2903414538
N  N5  1  0.29497000  0.20131000  0.65771000  1.0 0.2784344425
N  N6  1  0.20131000  0.29497000  0.84229000  1.0 0.2784344425
N  N7  1  0.70503000  0.79869000  0.34229000  1.0 0.2784344425
N  N8  1  0.79869000  0.70503000  0.15771000  1.0 0.2784344425
O  O1  1  0.40995000  0.01603000  0.34859000  1.0 -0.5775544996
O  O2  1  0.01603000  0.40995000  0.15141000  1.0 -0.5775544996
O  O3  1  0.59005000  0.98397000  0.65141000  1.0 -0.5775544996
O  O4  1  0.98397000  0.59005000  0.84859000  1.0 -0.5775544996
O  O5  1  0.34121000  0.15709000  0.55319000  1.0 -0.5775544996
O  O6  1  0.15709000  0.34121000  0.94681000  1.0 -0.5775544996
O  O7  1  0.65879000  0.84291000  0.44681000  1.0 -0.5775544996
O  O8  1  0.84291000  0.65879000  0.05319000  1.0 -0.5775544996
