# DDEC6 charges by PACMAN v1.1 (https://github.com/mtap-research/PACMAN-charge/)
data_TIQWID_ASR_pacman
_symmetry_space_group_name_H-M   'P 1'
_cell_length_a   13.02920000
_cell_length_b   13.02920000
_cell_length_c   11.98420000
_cell_angle_alpha   89.26240000
_cell_angle_beta   90.73760000
_cell_angle_gamma   55.77820000
_symmetry_Int_Tables_number   1
_chemical_formula_structural   NiH24C12(NO)4
_chemical_formula_sum   'Ni2 H48 C24 N8 O8'
_cell_volume   1681.57211689
_cell_formula_units_Z   2
loop_
 _symmetry_equiv_pos_site_id
 _symmetry_equiv_pos_as_xyz
  1  'x, y, z'
loop_
 _atom_site_type_symbol
 _atom_site_label
 _atom_site_symmetry_multiplicity
 _atom_site_fract_x
 _atom_site_fract_y
 _atom_site_fract_z
 _atom_site_occupancy
 _atom_site_charge
Ni  Ni1  1  0.50000000  0.00000000  0.50000000  1.0 0.4383934719
Ni  Ni2  1  0.00000000  0.50000000  0.00000000  1.0 0.4383934719
H  H1  1  0.35593000  0.08255000  0.13366000  1.0 0.1217678449
H  H2  1  0.08255000  0.35593000  0.36634000  1.0 0.1217678449
H  H3  1  0.64407000  0.91745000  0.86634000  1.0 0.1217678449
H  H4  1  0.91745000  0.64407000  0.63366000  1.0 0.1217678449
H  H5  1  0.30051000  0.00901000  0.18404000  1.0 0.1217678449
H  H6  1  0.00901000  0.30051000  0.31596000  1.0 0.1217678449
H  H7  1  0.69949000  0.99099000  0.81596000  1.0 0.1217678449
H  H8  1  0.99099000  0.69949000  0.68404000  1.0 0.1217678449
H  H9  1  0.31711000  0.26105000  0.36506000  1.0 0.1280732193
H  H10  1  0.26105000  0.31711000  0.13494000  1.0 0.1280732193
H  H11  1  0.68289000  0.73895000  0.63494000  1.0 0.1280732193
H  H12  1  0.73895000  0.68289000  0.86506000  1.0 0.1280732193
H  H13  1  0.40912000  0.19508000  0.26302000  1.0 0.1280732193
H  H14  1  0.19508000  0.40912000  0.23698000  1.0 0.1280732193
H  H15  1  0.59088000  0.80492000  0.73698000  1.0 0.1280732193
H  H16  1  0.80492000  0.59088000  0.76302000  1.0 0.1280732193
H  H17  1  0.16904000  0.10304000  0.34959000  1.0 0.1217678449
H  H18  1  0.10304000  0.16904000  0.15041000  1.0 0.1217678449
H  H19  1  0.83096000  0.89696000  0.65041000  1.0 0.1217678449
H  H20  1  0.89696000  0.83096000  0.84959000  1.0 0.1217678449
H  H21  1  0.20807000  0.16409000  0.44189000  1.0 0.1217678449
H  H22  1  0.16409000  0.20807000  0.05811000  1.0 0.1217678449
H  H23  1  0.79193000  0.83591000  0.55811000  1.0 0.1217678449
H  H24  1  0.83591000  0.79193000  0.94189000  1.0 0.1217678449
H  H25  1  0.13737000  0.36823000  0.60406000  1.0 0.1217678449
H  H26  1  0.36823000  0.13737000  0.89594000  1.0 0.1217678449
H  H27  1  0.86262000  0.63177000  0.39594000  1.0 0.1217678449
H  H28  1  0.63178000  0.86263000  0.10406000  1.0 0.1217678449
H  H29  1  0.12419000  0.25303000  0.60258000  1.0 0.1217678449
H  H30  1  0.25303000  0.12419000  0.89742000  1.0 0.1217678449
H  H31  1  0.87581000  0.74697000  0.39742000  1.0 0.1217678449
H  H32  1  0.74697000  0.87581000  0.10258000  1.0 0.1217678449
H  H33  1  0.43696000  0.21242000  0.72594000  1.0 0.1280732193
H  H34  1  0.21242000  0.43696000  0.77406000  1.0 0.1280732193
H  H35  1  0.56304000  0.78758000  0.27406000  1.0 0.1280732193
H  H36  1  0.78758000  0.56304000  0.22594000  1.0 0.1280732193
H  H37  1  0.34749000  0.32671000  0.64162000  1.0 0.1280732193
H  H38  1  0.32671000  0.34749000  0.85838000  1.0 0.1280732193
H  H39  1  0.65251000  0.67329000  0.35838000  1.0 0.1280732193
H  H40  1  0.67329000  0.65251000  0.14162000  1.0 0.1280732193
H  H41  1  0.27566000  0.06920000  0.71945000  1.0 0.1280732193
H  H42  1  0.06920000  0.27566000  0.78055000  1.0 0.1280732193
H  H43  1  0.72434000  0.93080000  0.28055000  1.0 0.1280732193
H  H44  1  0.93080000  0.72434000  0.21945000  1.0 0.1280732193
H  H45  1  0.41431000  0.03427000  0.73745000  1.0 0.1217678449
H  H46  1  0.03427000  0.41431000  0.76255000  1.0 0.1217678449
H  H47  1  0.58569000  0.96573000  0.26255000  1.0 0.1217678449
H  H48  1  0.96573000  0.58569000  0.23745000  1.0 0.1217678449
C  C1  1  0.29199000  0.08947000  0.18291000  1.0 -0.2085250671
C  C2  1  0.08947000  0.29199000  0.31709000  1.0 -0.2085250671
C  C3  1  0.70801000  0.91053000  0.81709000  1.0 -0.2085250671
C  C4  1  0.91053000  0.70801000  0.68291000  1.0 -0.2085250671
C  C5  1  0.32546000  0.22558000  0.29051000  1.0 -0.2001403452
C  C6  1  0.22558000  0.32546000  0.20949000  1.0 -0.2001403452
C  C7  1  0.67454000  0.77442000  0.70949000  1.0 -0.2001403452
C  C8  1  0.77442000  0.67454000  0.79051000  1.0 -0.2001403452
C  C9  1  0.19330000  0.16186000  0.36099000  1.0 -0.1894734072
C  C10  1  0.16186000  0.19330000  0.13901000  1.0 -0.1894734072
C  C11  1  0.80670000  0.83814000  0.63901000  1.0 -0.1894734072
C  C12  1  0.83814000  0.80670000  0.86099000  1.0 -0.1894734072
C  C13  1  0.15877000  0.29199000  0.64523000  1.0 -0.2085250671
C  C14  1  0.29199000  0.15877000  0.85477000  1.0 -0.2085250671
C  C15  1  0.84123000  0.70801000  0.35477000  1.0 -0.2085250671
C  C16  1  0.70801000  0.84123000  0.14523000  1.0 -0.2085250671
C  C17  1  0.34956000  0.27192000  0.70091000  1.0 -0.2001403452
C  C18  1  0.27192000  0.34956000  0.79909000  1.0 -0.2001403452
C  C19  1  0.65044000  0.72808000  0.29909000  1.0 -0.2001403452
C  C20  1  0.72808000  0.65044000  0.20091000  1.0 -0.1894734072
C  C21  1  0.32523000  0.10285000  0.73879000  1.0 -0.2001403452
C  C22  1  0.10285000  0.32523000  0.76121000  1.0 -0.2001403452
C  C23  1  0.67477000  0.89715000  0.26121000  1.0 -0.2001403452
C  C24  1  0.89715000  0.67477000  0.23879000  1.0 -0.2001403452
N  N1  1  0.30916000  0.12050000  0.29851000  1.0 0.305918513
N  N2  1  0.12050000  0.30916000  0.20149000  1.0 0.305918513
N  N3  1  0.69084000  0.87950000  0.70149000  1.0 0.305918513
N  N4  1  0.87950000  0.69084000  0.79851000  1.0 0.305918513
N  N5  1  0.29772000  0.20344000  0.65653000  1.0 0.2988492233
N  N6  1  0.20344000  0.29772000  0.84347000  1.0 0.2988492233
N  N7  1  0.70228000  0.79656000  0.34347000  1.0 0.2988492233
N  N8  1  0.79656000  0.70228000  0.15653000  1.0 0.2988492233
O  O1  1  0.41249000  0.01521000  0.34847000  1.0 -0.5562138203
O  O2  1  0.01521000  0.41249000  0.15153000  1.0 -0.5562138203
O  O3  1  0.58751000  0.98479000  0.65153000  1.0 -0.5562138203
O  O4  1  0.98479000  0.58751000  0.84847000  1.0 -0.5562138203
O  O5  1  0.34365000  0.16019000  0.55110000  1.0 -0.5562138203
O  O6  1  0.16019000  0.34365000  0.94890000  1.0 -0.5562138203
O  O7  1  0.65635000  0.83981000  0.44890000  1.0 -0.5562138203
O  O8  1  0.83981000  0.65635000  0.05110000  1.0 -0.5562138203
