# DDEC6 charges by PACMAN v1.1 (https://github.com/mtap-research/PACMAN-charge/)
data_TISKOW_FSR_pacman
_symmetry_space_group_name_H-M   'P 1'
_cell_length_a   14.46010000
_cell_length_b   14.46010000
_cell_length_c   18.71900000
_cell_angle_alpha   64.52060000
_cell_angle_beta   115.47900000
_cell_angle_gamma   121.17000000
_symmetry_Int_Tables_number   1
_chemical_formula_structural   Zn7H16C32(N9O11)2
_chemical_formula_sum   'Zn14 H32 C64 N36 O44'
_cell_volume   2912.10987128
_cell_formula_units_Z   2
loop_
 _symmetry_equiv_pos_site_id
 _symmetry_equiv_pos_as_xyz
  1  'x, y, z'
loop_
 _atom_site_type_symbol
 _atom_site_label
 _atom_site_symmetry_multiplicity
 _atom_site_fract_x
 _atom_site_fract_y
 _atom_site_fract_z
 _atom_site_occupancy
 _atom_site_charge
Zn  Zn1  1  0.50000000  0.50000000  0.50000000  1.0 0.5341915535
Zn  Zn2  1  0.50000000  0.50000000  0.00000000  1.0 0.5425004707
Zn  Zn3  1  0.24192000  0.59868000  0.63508000  1.0 0.7976601618
Zn  Zn4  1  0.59868000  0.24192000  0.86492000  1.0 0.7976601618
Zn  Zn5  1  0.75808000  0.40132000  0.36492000  1.0 0.7976601618
Zn  Zn6  1  0.40132000  0.75808000  0.13508000  1.0 0.7976601618
Zn  Zn7  1  0.62123000  0.99345000  0.42350000  1.0 0.8587087439
Zn  Zn8  1  0.99345000  0.62123000  0.07650000  1.0 0.8587087439
Zn  Zn9  1  0.37877000  0.00655000  0.57650000  1.0 0.8587087439
Zn  Zn10  1  0.00655000  0.37877000  0.92350000  1.0 0.8587087439
Zn  Zn11  1  0.81017000  0.63141000  0.59473000  1.0 0.7289492684
Zn  Zn12  1  0.63141000  0.81017000  0.90527000  1.0 0.7289492684
Zn  Zn13  1  0.18983000  0.36859000  0.40527000  1.0 0.7289492684
Zn  Zn14  1  0.36859000  0.18983000  0.09473000  1.0 0.7289492684
H  H1  1  0.48740000  0.74100000  0.43750000  1.0 0.1219348017
H  H2  1  0.74100000  0.48740000  0.06250000  1.0 0.1219348017
H  H3  1  0.51260000  0.25900000  0.56250000  1.0 0.1219348017
H  H4  1  0.25900000  0.51260000  0.93750000  1.0 0.1219348017
H  H5  1  0.46620000  0.32400000  0.68050000  1.0 0.1219348017
H  H6  1  0.32400000  0.46620000  0.81950000  1.0 0.1219348017
H  H7  1  0.53380000  0.67600000  0.31950000  1.0 0.1219348017
H  H8  1  0.67600000  0.53380000  0.18050000  1.0 0.1219348017
H  H9  1  0.78730000  0.44590000  0.77750000  1.0 0.1219348017
H  H10  1  0.44590000  0.78730000  0.72250000  1.0 0.1219348017
H  H11  1  0.21270000  0.55410000  0.22250000  1.0 0.1219348017
H  H12  1  0.55410000  0.21270000  0.27750000  1.0 0.1219348017
H  H13  1  0.12780000  0.45700000  0.50770000  1.0 0.1219348017
H  H14  1  0.45700000  0.12780000  0.99230000  1.0 0.1219348017
H  H15  1  0.87220000  0.54300000  0.49230000  1.0 0.1219348017
H  H16  1  0.54300000  0.87220000  0.00770000  1.0 0.1219348017
H  H17  1  0.19160000  0.11680000  0.47790000  1.0 0.1219348017
H  H18  1  0.11680000  0.19160000  0.02210000  1.0 0.1219348017
H  H19  1  0.80840000  0.88320000  0.52210000  1.0 0.1219348017
H  H20  1  0.88320000  0.80840000  0.97790000  1.0 0.1219348017
H  H21  1  0.26000000  0.85260000  0.25480000  1.0 0.1303058164
H  H22  1  0.85260000  0.26000000  0.24520000  1.0 0.1303058164
H  H23  1  0.74000000  0.14740000  0.74520000  1.0 0.1303058164
H  H24  1  0.14740000  0.74000000  0.75480000  1.0 0.1303058164
H  H25  1  0.07730000  0.65230000  0.45930000  1.0 0.1219348017
H  H26  1  0.65230000  0.07730000  0.04070000  1.0 0.1219348017
H  H27  1  0.92270000  0.34770000  0.54070000  1.0 0.1219348017
H  H28  1  0.34770000  0.92270000  0.95930000  1.0 0.1219348017
H  H29  1  0.44610000  0.58610000  0.61380000  1.0 0.1219348017
H  H30  1  0.58610000  0.44610000  0.88620000  1.0 0.1219348017
H  H31  1  0.55390000  0.41390000  0.38620000  1.0 0.1219348017
H  H32  1  0.41390000  0.55390000  0.11380000  1.0 0.1219348017
C  C1  1  0.56220000  0.75220000  0.46320000  1.0 0.1491547919
C  C2  1  0.75220000  0.56220000  0.03680000  1.0 0.1491547919
C  C3  1  0.43780000  0.24780000  0.53680000  1.0 0.1491547919
C  C4  1  0.24780000  0.43780000  0.96320000  1.0 0.1491547919
C  C5  1  0.38660000  0.93820000  0.37760000  1.0 0.5632970231
C  C6  1  0.93820000  0.38660000  0.12240000  1.0 0.5632970231
C  C7  1  0.61340000  0.06180000  0.62240000  1.0 0.5632970231
C  C8  1  0.06180000  0.61340000  0.87760000  1.0 0.5632970231
C  C9  1  0.21700000  0.78340000  0.43010000  1.0 -0.0741400802
C  C10  1  0.78340000  0.21700000  0.06990000  1.0 -0.0741400802
C  C11  1  0.78300000  0.21660000  0.56990000  1.0 -0.0741400802
C  C12  1  0.21660000  0.78300000  0.93010000  1.0 -0.0741400802
C  C13  1  0.94470000  0.57950000  0.32860000  1.0 0.5479463863
C  C14  1  0.57950000  0.94470000  0.17140000  1.0 0.5479463863
C  C15  1  0.05530000  0.42050000  0.67140000  1.0 0.5479463863
C  C16  1  0.42050000  0.05530000  0.82860000  1.0 0.5479463863
C  C17  1  0.54280000  0.36800000  0.68750000  1.0 0.141534877
C  C18  1  0.36800000  0.54280000  0.81250000  1.0 0.141534877
C  C19  1  0.45720000  0.63200000  0.31250000  1.0 0.141534877
C  C20  1  0.63200000  0.45720000  0.18750000  1.0 0.141534877
C  C21  1  0.71690000  0.43390000  0.74030000  1.0 0.1573487989
C  C22  1  0.43390000  0.71690000  0.75970000  1.0 0.1573487989
C  C23  1  0.28310000  0.56610000  0.25970000  1.0 0.1573487989
C  C24  1  0.56610000  0.28310000  0.24030000  1.0 0.1573487989
C  C25  1  0.20490000  0.47830000  0.52320000  1.0 0.1573487989
C  C26  1  0.47830000  0.20490000  0.97680000  1.0 0.1491547919
C  C27  1  0.79510000  0.52170000  0.47680000  1.0 0.1491547919
C  C28  1  0.52170000  0.79510000  0.02320000  1.0 0.1573487989
C  C29  1  0.06270000  0.66490000  0.34350000  1.0 -0.0392667456
C  C30  1  0.66490000  0.06270000  0.15650000  1.0 -0.0392667456
C  C31  1  0.93730000  0.33510000  0.65650000  1.0 -0.0392667456
C  C32  1  0.33510000  0.93730000  0.84350000  1.0 -0.0392667456
C  C33  1  0.26430000  0.17070000  0.49100000  1.0 0.1754813874
C  C34  1  0.17070000  0.26430000  0.00900000  1.0 0.1754813874
C  C35  1  0.73570000  0.82930000  0.50900000  1.0 0.1754813874
C  C36  1  0.82930000  0.73570000  0.99100000  1.0 0.1754813874
C  C37  1  0.26380000  0.82280000  0.50510000  1.0 0.6114480095
C  C38  1  0.82280000  0.26380000  0.99490000  1.0 0.6114480095
C  C39  1  0.73620000  0.17720000  0.49490000  1.0 0.6114480095
C  C40  1  0.17720000  0.73620000  0.00510000  1.0 0.6114480095
C  C41  1  0.07670000  0.70330000  0.19910000  1.0 0.5425004707
C  C42  1  0.70330000  0.07670000  0.30090000  1.0 0.5479463863
C  C43  1  0.92330000  0.29670000  0.80090000  1.0 0.5425004707
C  C44  1  0.29670000  0.92330000  0.69910000  1.0 0.5425004707
C  C45  1  0.22190000  0.81330000  0.29540000  1.0 -0.132550518
C  C46  1  0.81330000  0.22190000  0.20460000  1.0 -0.132550518
C  C47  1  0.77810000  0.18670000  0.70460000  1.0 -0.132550518
C  C48  1  0.18670000  0.77810000  0.79540000  1.0 -0.132550518
C  C49  1  0.11890000  0.72750000  0.28080000  1.0 -0.0199071442
C  C50  1  0.72750000  0.11890000  0.21920000  1.0 -0.0199071442
C  C51  1  0.88110000  0.27250000  0.71920000  1.0 -0.0199071442
C  C52  1  0.27250000  0.88110000  0.78080000  1.0 -0.0199071442
C  C53  1  0.11340000  0.69380000  0.41760000  1.0 -0.1461521787
C  C54  1  0.69380000  0.11340000  0.08240000  1.0 -0.1461521787
C  C55  1  0.88660000  0.30620000  0.58240000  1.0 -0.1461521787
C  C56  1  0.30620000  0.88660000  0.91760000  1.0 -0.1461521787
C  C57  1  0.37790000  0.54830000  0.58060000  1.0 0.141534877
C  C58  1  0.54830000  0.37790000  0.91940000  1.0 0.141534877
C  C59  1  0.62210000  0.45170000  0.41940000  1.0 0.141534877
C  C60  1  0.45170000  0.62210000  0.08060000  1.0 0.141534877
C  C61  1  0.27220000  0.84440000  0.36800000  1.0 -0.0199071442
C  C62  1  0.84440000  0.27220000  0.13200000  1.0 -0.0199071442
C  C63  1  0.72780000  0.15560000  0.63200000  1.0 -0.0199071442
C  C64  1  0.15560000  0.72780000  0.86800000  1.0 -0.0199071442
N  N1  1  0.58590000  0.45190000  0.62930000  1.0 -0.1908739562
N  N2  1  0.45190000  0.58590000  0.87070000  1.0 -0.202843864
N  N3  1  0.41410000  0.54810000  0.37070000  1.0 -0.1908739562
N  N4  1  0.54810000  0.41410000  0.12930000  1.0 -0.1908739562
N  N5  1  0.69959000  0.49561000  0.66340000  1.0 -0.202843864
N  N6  1  0.49561000  0.69959000  0.83660000  1.0 -0.202843864
N  N7  1  0.30041000  0.50439000  0.33660000  1.0 -0.202843864
N  N8  1  0.50439000  0.30041000  0.16340000  1.0 -0.202843864
N  N9  1  0.28959000  0.27861000  0.47180000  1.0 -0.1908739562
N  N10  1  0.27861000  0.28959000  0.02820000  1.0 -0.1908739562
N  N11  1  0.71041000  0.72139000  0.52820000  1.0 -0.1908739562
N  N12  1  0.72139000  0.71041000  0.97180000  1.0 -0.1908739562
N  N13  1  0.64590000  0.85210000  0.46900000  1.0 -0.3080591587
N  N14  1  0.85210000  0.64590000  0.03100000  1.0 -0.3080591587
N  N15  1  0.35410000  0.14790000  0.53100000  1.0 -0.3080591587
N  N16  1  0.14790000  0.35410000  0.96900000  1.0 -0.3080591587
N  N17  1  0.27850000  0.53850000  0.57810000  1.0 -0.3414408182
N  N18  1  0.53850000  0.27850000  0.92190000  1.0 -0.3414408182
N  N19  1  0.72150000  0.46150000  0.42190000  1.0 -0.3414408182
N  N20  1  0.46150000  0.72150000  0.07810000  1.0 -0.3414408182
N  N21  1  0.62080000  0.35200000  0.75850000  1.0 -0.3414408182
N  N22  1  0.35200000  0.62080000  0.74150000  1.0 -0.3414408182
N  N23  1  0.37920000  0.64800000  0.24150000  1.0 -0.3414408182
N  N24  1  0.64800000  0.37920000  0.25850000  1.0 -0.3414408182
N  N25  1  0.25500000  0.45320000  0.49410000  1.0 -0.1908739562
N  N26  1  0.45320000  0.25500000  0.00590000  1.0 -0.1908739562
N  N27  1  0.74500000  0.54680000  0.50590000  1.0 -0.1908739562
N  N28  1  0.54680000  0.74500000  0.99410000  1.0 -0.1908739562
N  N29  1  0.59727000  0.67133000  0.49790000  1.0 -0.1908739562
N  N30  1  0.67133000  0.59727000  0.00210000  1.0 -0.1908739562
N  N31  1  0.40273000  0.32867000  0.50210000  1.0 -0.1908739562
N  N32  1  0.32867000  0.40273000  0.99790000  1.0 -0.1908739562
N  N33  1  0.36870000  0.49930000  0.53180000  1.0 -0.1908739562
N  N34  1  0.49930000  0.36870000  0.96820000  1.0 -0.1908739562
N  N35  1  0.63130000  0.50070000  0.46820000  1.0 -0.1908739562
N  N36  1  0.50070000  0.63130000  0.03180000  1.0 -0.1908739562
O  O1  1  0.05440000  0.42280000  0.33750000  1.0 0.1021379242
O  O2  1  0.42280000  0.05440000  0.16250000  1.0 0.1021379242
O  O3  1  0.94560000  0.57720000  0.66250000  1.0 0.1021379242
O  O4  1  0.57720000  0.94560000  0.83750000  1.0 0.1021379242
O  O5  1  0.11250000  0.27350000  0.31630000  1.0 -0.1659074379
O  O6  1  0.27350000  0.11250000  0.18370000  1.0 -0.1616961263
O  O7  1  0.88750000  0.72650000  0.68370000  1.0 -0.1616961263
O  O8  1  0.72650000  0.88750000  0.81630000  1.0 -0.1616961263
O  O9  1  0.04110000  0.60530000  0.19880000  1.0 -0.4583630813
O  O10  1  0.60530000  0.04110000  0.30120000  1.0 -0.4583630813
O  O11  1  0.95890000  0.39470000  0.80120000  1.0 -0.4583630813
O  O12  1  0.39470000  0.95890000  0.69880000  1.0 -0.4583630813
O  O13  1  0.46371000  0.91169000  0.43200000  1.0 -0.523474182
O  O14  1  0.91169000  0.46371000  0.06800000  1.0 -0.523474182
O  O15  1  0.53629000  0.08831000  0.56800000  1.0 -0.523474182
O  O16  1  0.08831000  0.53629000  0.93200000  1.0 -0.523474182
O  O17  1  0.08000000  0.78040000  0.13510000  1.0 -0.4960613005
O  O18  1  0.78040000  0.08000000  0.36490000  1.0 -0.4944704128
O  O19  1  0.92000000  0.21960000  0.86490000  1.0 -0.4960613005
O  O20  1  0.21960000  0.92000000  0.63510000  1.0 -0.4960613005
O  O21  1  0.74137000  0.24463000  0.42520000  1.0 -0.5272625936
O  O22  1  0.24463000  0.74137000  0.07480000  1.0 -0.5272625936
O  O23  1  0.25863000  0.75537000  0.57480000  1.0 -0.5272625936
O  O24  1  0.75537000  0.25863000  0.92520000  1.0 -0.5272625936
O  O25  1  0.30325000  0.92655000  0.49230000  1.0 -0.4821737511
O  O26  1  0.92655000  0.30325000  0.00770000  1.0 -0.4821737511
O  O27  1  0.69675000  0.07345000  0.50770000  1.0 -0.4821737511
O  O28  1  0.07345000  0.69675000  0.99230000  1.0 -0.4821737511
O  O29  1  0.87250000  0.60450000  0.27050000  1.0 -0.5102905286
O  O30  1  0.60450000  0.87250000  0.22950000  1.0 -0.5102905286
O  O31  1  0.12750000  0.39550000  0.72950000  1.0 -0.5102905286
O  O32  1  0.39550000  0.12750000  0.77050000  1.0 -0.5102905286
O  O33  1  0.07650000  0.51750000  0.61780000  1.0 -0.523474182
O  O34  1  0.51750000  0.07650000  0.88220000  1.0 -0.523474182
O  O35  1  0.92350000  0.48250000  0.38220000  1.0 -0.523474182
O  O36  1  0.48250000  0.92350000  0.11780000  1.0 -0.523474182
O  O37  1  0.40120000  0.03340000  0.32840000  1.0 -0.4458518577
O  O38  1  0.03340000  0.40120000  0.17160000  1.0 -0.4458518577
O  O39  1  0.59880000  0.96660000  0.67160000  1.0 -0.4458518577
O  O40  1  0.96660000  0.59880000  0.82840000  1.0 -0.4458518577
O  O41  1  0.05900000  0.23700000  0.47210000  1.0 -0.2159630311
O  O42  1  0.23700000  0.05900000  0.02790000  1.0 -0.2119656456
O  O43  1  0.94100000  0.76300000  0.52790000  1.0 -0.2119656456
O  O44  1  0.76300000  0.94100000  0.97210000  1.0 -0.2119656456
