# DDEC6 charges by PACMAN v1.1 (https://github.com/mtap-research/PACMAN-charge/)
data_TIVYEF_ASR_pacman
_symmetry_space_group_name_H-M   'P 1'
_cell_length_a   7.62360000
_cell_length_b   9.98520000
_cell_length_c   17.56060000
_cell_angle_alpha   90.00000000
_cell_angle_beta   90.00000000
_cell_angle_gamma   90.00000000
_symmetry_Int_Tables_number   1
_chemical_formula_structural   Zn2H5(C2N3)3
_chemical_formula_sum   'Zn8 H20 C24 N36'
_cell_volume   1336.76855175
_cell_formula_units_Z   4
loop_
 _symmetry_equiv_pos_site_id
 _symmetry_equiv_pos_as_xyz
  1  'x, y, z'
loop_
 _atom_site_type_symbol
 _atom_site_label
 _atom_site_symmetry_multiplicity
 _atom_site_fract_x
 _atom_site_fract_y
 _atom_site_fract_z
 _atom_site_occupancy
 _atom_site_charge
Zn  Zn1  1  0.65386000  0.25000000  0.58045000  1.0 0.5999779145
Zn  Zn2  1  0.50608000  0.25000000  0.23827000  1.0 0.5276224056
Zn  Zn3  1  0.84614000  0.75000000  0.08045000  1.0 0.5999779145
Zn  Zn4  1  0.99392000  0.75000000  0.73827000  1.0 0.5276224056
Zn  Zn5  1  0.34614000  0.75000000  0.41955000  1.0 0.5999779145
Zn  Zn6  1  0.49392000  0.75000000  0.76173000  1.0 0.5276224056
Zn  Zn7  1  0.15386000  0.25000000  0.91955000  1.0 0.5999779145
Zn  Zn8  1  0.00608000  0.25000000  0.26173000  1.0 0.5276224056
H  H1  1  0.02770000  0.96030000  0.17830000  1.0 0.1003487771
H  H2  1  0.53370000  0.96610000  0.13190000  1.0 0.1003487771
H  H3  1  0.47230000  0.03970000  0.67830000  1.0 0.1003487771
H  H4  1  0.96630000  0.03390000  0.63190000  1.0 0.1003487771
H  H5  1  0.97230000  0.46030000  0.82170000  1.0 0.1003487771
H  H6  1  0.46630000  0.46610000  0.86810000  1.0 0.1003487771
H  H7  1  0.52770000  0.53970000  0.32170000  1.0 0.1003487771
H  H8  1  0.03370000  0.53390000  0.36810000  1.0 0.1003487771
H  H9  1  0.97230000  0.03970000  0.82170000  1.0 0.1003487771
H  H10  1  0.46630000  0.03390000  0.86810000  1.0 0.1003487771
H  H11  1  0.52770000  0.96030000  0.32170000  1.0 0.1003487771
H  H12  1  0.03370000  0.96610000  0.36810000  1.0 0.1003487771
H  H13  1  0.02770000  0.53970000  0.17830000  1.0 0.1003487771
H  H14  1  0.53370000  0.53390000  0.13190000  1.0 0.1003487771
H  H15  1  0.47230000  0.46030000  0.67830000  1.0 0.1003487771
H  H16  1  0.96630000  0.46610000  0.63190000  1.0 0.1003487771
H  H17  1  0.46720000  0.25000000  0.42250000  1.0 0.1073558172
H  H18  1  0.03280000  0.75000000  0.92250000  1.0 0.1073558172
H  H19  1  0.53280000  0.75000000  0.57750000  1.0 0.1073558172
H  H20  1  0.96720000  0.25000000  0.07750000  1.0 0.1073558172
C  C1  1  0.91080000  0.98620000  0.17540000  1.0 0.1073558172
C  C2  1  0.64380000  0.98950000  0.15040000  1.0 0.1003487771
C  C3  1  0.58920000  0.01380000  0.67540000  1.0 0.1073558172
C  C4  1  0.85620000  0.01050000  0.65040000  1.0 0.1003487771
C  C5  1  0.08920000  0.48620000  0.82460000  1.0 0.1073558172
C  C6  1  0.35620000  0.48950000  0.84960000  1.0 0.1003487771
C  C7  1  0.41080000  0.51380000  0.32460000  1.0 0.1073558172
C  C8  1  0.14380000  0.51050000  0.34960000  1.0 0.1003487771
C  C9  1  0.08920000  0.01380000  0.82460000  1.0 0.1073558172
C  C10  1  0.35620000  0.01050000  0.84960000  1.0 0.1003487771
C  C11  1  0.41080000  0.98620000  0.32460000  1.0 0.1073558172
C  C12  1  0.14380000  0.98950000  0.34960000  1.0 0.1003487771
C  C13  1  0.91080000  0.51380000  0.17540000  1.0 0.1073558172
C  C14  1  0.64380000  0.51050000  0.15040000  1.0 0.1003487771
C  C15  1  0.58920000  0.48620000  0.67540000  1.0 0.1073558172
C  C16  1  0.85620000  0.48950000  0.65040000  1.0 0.1003487771
C  C17  1  0.58760000  0.25000000  0.41390000  1.0 0.0913036207
C  C18  1  0.86180000  0.25000000  0.43180000  1.0 0.0660255237
C  C19  1  0.91240000  0.75000000  0.91390000  1.0 0.0913036207
C  C20  1  0.63820000  0.75000000  0.93180000  1.0 0.0660255237
C  C21  1  0.41240000  0.75000000  0.58610000  1.0 0.0913036207
C  C22  1  0.13820000  0.75000000  0.56820000  1.0 0.0660255237
C  C23  1  0.08760000  0.25000000  0.08610000  1.0 0.0913036207
C  C24  1  0.36180000  0.25000000  0.06820000  1.0 0.0660255237
N  N1  1  0.67450000  0.09760000  0.19170000  1.0 -0.1885918384
N  N2  1  0.78940000  0.91740000  0.13790000  1.0 -0.3529710804
N  N3  1  0.84820000  0.09530000  0.20830000  1.0 -0.1885918384
N  N4  1  0.82550000  0.90240000  0.69170000  1.0 -0.1885918384
N  N5  1  0.71060000  0.08260000  0.63790000  1.0 -0.3529710804
N  N6  1  0.65180000  0.90470000  0.70830000  1.0 -0.1885918384
N  N7  1  0.32550000  0.59760000  0.80830000  1.0 -0.1885918384
N  N8  1  0.21060000  0.41740000  0.86210000  1.0 -0.3529710804
N  N9  1  0.15180000  0.59530000  0.79170000  1.0 -0.1885918384
N  N10  1  0.17450000  0.40240000  0.30830000  1.0 -0.1885918384
N  N11  1  0.28940000  0.58260000  0.36210000  1.0 -0.3529710804
N  N12  1  0.34820000  0.40470000  0.29170000  1.0 -0.1885918384
N  N13  1  0.32550000  0.90240000  0.80830000  1.0 -0.1885918384
N  N14  1  0.21060000  0.08260000  0.86210000  1.0 -0.3529710804
N  N15  1  0.15180000  0.90470000  0.79170000  1.0 -0.1885918384
N  N16  1  0.17450000  0.09760000  0.30830000  1.0 -0.1885918384
N  N17  1  0.28940000  0.91740000  0.36210000  1.0 -0.3529710804
N  N18  1  0.34820000  0.09530000  0.29170000  1.0 -0.1885918384
N  N19  1  0.67450000  0.40240000  0.19170000  1.0 -0.1885918384
N  N20  1  0.78940000  0.58260000  0.13790000  1.0 -0.3529710804
N  N21  1  0.84820000  0.40470000  0.20830000  1.0 -0.1885918384
N  N22  1  0.82550000  0.59760000  0.69170000  1.0 -0.1885918384
N  N23  1  0.71060000  0.41740000  0.63790000  1.0 -0.3529710804
N  N24  1  0.65180000  0.59530000  0.70830000  1.0 -0.1885918384
N  N25  1  0.83690000  0.25000000  0.35740000  1.0 -0.2229354193
N  N26  1  0.65850000  0.25000000  0.34560000  1.0 -0.1885918384
N  N27  1  0.70810000  0.25000000  0.47060000  1.0 -0.3372528066
N  N28  1  0.66310000  0.75000000  0.85740000  1.0 -0.2229354193
N  N29  1  0.84150000  0.75000000  0.84560000  1.0 -0.1885918384
N  N30  1  0.79190000  0.75000000  0.97060000  1.0 -0.3372528066
N  N31  1  0.16310000  0.75000000  0.64260000  1.0 -0.2229354193
N  N32  1  0.34150000  0.75000000  0.65440000  1.0 -0.1885918384
N  N33  1  0.29190000  0.75000000  0.52940000  1.0 -0.3372528066
N  N34  1  0.33690000  0.25000000  0.14260000  1.0 -0.2229354193
N  N35  1  0.15850000  0.25000000  0.15440000  1.0 -0.1885918384
N  N36  1  0.20810000  0.25000000  0.02940000  1.0 -0.3372528066
