# DDEC6 charges by PACMAN v1.1 (https://github.com/mtap-research/PACMAN-charge/)
data_TIVYAZ_ASR_pacman
_symmetry_space_group_name_H-M   'P 1'
_cell_length_a   14.99100000
_cell_length_b   23.77500000
_cell_length_c   28.13200000
_cell_angle_alpha   90.00000000
_cell_angle_beta   90.00000000
_cell_angle_gamma   90.00000000
_symmetry_Int_Tables_number   1
_chemical_formula_structural   Co6H24C42N2O27
_chemical_formula_sum   'Co24 H96 C168 N8 O108'
_cell_volume   10026.55495530
_cell_formula_units_Z   4
loop_
 _symmetry_equiv_pos_site_id
 _symmetry_equiv_pos_as_xyz
  1  'x, y, z'
loop_
 _atom_site_type_symbol
 _atom_site_label
 _atom_site_symmetry_multiplicity
 _atom_site_fract_x
 _atom_site_fract_y
 _atom_site_fract_z
 _atom_site_occupancy
 _atom_site_charge
Co  Co1  1  0.90331000  0.37951000  0.25000000  1.0 1.1464250563
Co  Co2  1  0.40331000  0.12049000  0.75000000  1.0 1.1464250563
Co  Co3  1  0.59669000  0.87951000  0.25000000  1.0 1.1464250563
Co  Co4  1  0.09669000  0.62049000  0.75000000  1.0 1.1464250563
Co  Co5  1  0.11544000  0.44800000  0.25000000  1.0 0.9421418784
Co  Co6  1  0.61544000  0.05200000  0.75000000  1.0 0.9421418784
Co  Co7  1  0.38456000  0.94800000  0.25000000  1.0 0.9421418784
Co  Co8  1  0.88456000  0.55200000  0.75000000  1.0 0.9421418784
Co  Co9  1  0.41375000  0.35439000  0.47847000  1.0 1.0217875618
Co  Co10  1  0.91375000  0.14561000  0.52153000  1.0 1.0276308833
Co  Co11  1  0.08625000  0.85439000  0.02153000  1.0 1.0217875618
Co  Co12  1  0.58625000  0.64561000  0.97847000  1.0 1.0217875618
Co  Co13  1  0.58625000  0.64561000  0.52153000  1.0 1.0276308833
Co  Co14  1  0.08625000  0.85439000  0.47847000  1.0 1.0217875618
Co  Co15  1  0.91375000  0.14561000  0.97847000  1.0 1.0217875618
Co  Co16  1  0.41375000  0.35439000  0.02153000  1.0 1.0217875618
Co  Co17  1  0.74164000  0.70705000  0.43614000  1.0 1.0884046434
Co  Co18  1  0.24164000  0.79295000  0.56386000  1.0 1.0884046434
Co  Co19  1  0.75836000  0.20705000  0.06386000  1.0 1.0884046434
Co  Co20  1  0.25836000  0.29295000  0.93614000  1.0 1.0884046434
Co  Co21  1  0.25836000  0.29295000  0.56386000  1.0 1.0884046434
Co  Co22  1  0.75836000  0.20705000  0.43614000  1.0 1.0884046434
Co  Co23  1  0.24164000  0.79295000  0.93614000  1.0 1.0884046434
Co  Co24  1  0.74164000  0.70705000  0.06386000  1.0 1.0884046434
H  H1  1  0.69830000  0.38750000  0.36190000  1.0 0.1207490219
H  H2  1  0.19830000  0.11250000  0.63810000  1.0 0.1207490219
H  H3  1  0.80170000  0.88750000  0.13810000  1.0 0.1207490219
H  H4  1  0.30170000  0.61250000  0.86190000  1.0 0.1207490219
H  H5  1  0.30170000  0.61250000  0.63810000  1.0 0.1207490219
H  H6  1  0.80170000  0.88750000  0.36190000  1.0 0.1207490219
H  H7  1  0.19830000  0.11250000  0.86190000  1.0 0.1207490219
H  H8  1  0.69830000  0.38750000  0.13810000  1.0 0.1207490219
H  H9  1  0.59180000  0.49220000  0.45840000  1.0 0.1302642677
H  H10  1  0.09180000  0.00780000  0.54160000  1.0 0.1302642677
H  H11  1  0.90820000  0.99220000  0.04160000  1.0 0.1302642677
H  H12  1  0.40820000  0.50780000  0.95840000  1.0 0.1302642677
H  H13  1  0.40820000  0.50780000  0.54160000  1.0 0.1302642677
H  H14  1  0.90820000  0.99220000  0.45840000  1.0 0.1302642677
H  H15  1  0.09180000  0.00780000  0.95840000  1.0 0.1302642677
H  H16  1  0.59180000  0.49220000  0.04160000  1.0 0.1302642677
H  H17  1  0.79430000  0.54340000  0.37710000  1.0 0.1207490219
H  H18  1  0.29430000  0.95660000  0.62290000  1.0 0.1207490219
H  H19  1  0.70570000  0.04340000  0.12290000  1.0 0.1207490219
H  H20  1  0.20570000  0.45660000  0.87710000  1.0 0.1207490219
H  H21  1  0.20570000  0.45660000  0.62290000  1.0 0.1207490219
H  H22  1  0.70570000  0.04340000  0.37710000  1.0 0.1207490219
H  H23  1  0.29430000  0.95660000  0.87710000  1.0 0.1207490219
H  H24  1  0.79430000  0.54340000  0.12290000  1.0 0.1207490219
H  H25  1  0.20130000  0.35530000  0.12990000  1.0 0.1094487189
H  H26  1  0.70130000  0.14470000  0.87010000  1.0 0.1094487189
H  H27  1  0.29870000  0.85530000  0.37010000  1.0 0.1094487189
H  H28  1  0.79870000  0.64470000  0.62990000  1.0 0.1094487189
H  H29  1  0.79870000  0.64470000  0.87010000  1.0 0.1094487189
H  H30  1  0.29870000  0.85530000  0.12990000  1.0 0.1094487189
H  H31  1  0.70130000  0.14470000  0.62990000  1.0 0.1094487189
H  H32  1  0.20130000  0.35530000  0.37010000  1.0 0.1094487189
H  H33  1  0.13070000  0.25060000  0.02410000  1.0 0.1302642677
H  H34  1  0.63070000  0.24940000  0.97590000  1.0 0.1302642677
H  H35  1  0.36930000  0.75060000  0.47590000  1.0 0.1302642677
H  H36  1  0.86930000  0.74940000  0.52410000  1.0 0.1302642677
H  H37  1  0.86930000  0.74940000  0.97590000  1.0 0.1302642677
H  H38  1  0.36930000  0.75060000  0.02410000  1.0 0.1302642677
H  H39  1  0.63070000  0.24940000  0.52410000  1.0 0.1302642677
H  H40  1  0.13070000  0.25060000  0.47590000  1.0 0.1302642677
H  H41  1  0.96040000  0.28500000  0.13050000  1.0 0.1302642677
H  H42  1  0.46040000  0.21500000  0.86950000  1.0 0.1302642677
H  H43  1  0.53960000  0.78500000  0.36950000  1.0 0.1302642677
H  H44  1  0.03960000  0.71500000  0.63050000  1.0 0.1302642677
H  H45  1  0.03960000  0.71500000  0.86950000  1.0 0.1302642677
H  H46  1  0.53960000  0.78500000  0.13050000  1.0 0.1302642677
H  H47  1  0.46040000  0.21500000  0.63050000  1.0 0.1302642677
H  H48  1  0.96040000  0.28500000  0.36950000  1.0 0.1302642677
H  H49  1  0.35750000  0.44780000  0.14970000  1.0 0.1400143806
H  H50  1  0.85750000  0.05220000  0.85030000  1.0 0.1400143806
H  H51  1  0.14250000  0.94780000  0.35030000  1.0 0.1400143806
H  H52  1  0.64250000  0.55220000  0.64970000  1.0 0.1400143806
H  H53  1  0.64250000  0.55220000  0.85030000  1.0 0.1400143806
H  H54  1  0.14250000  0.94780000  0.14970000  1.0 0.1400143806
H  H55  1  0.85750000  0.05220000  0.64970000  1.0 0.1400143806
H  H56  1  0.35750000  0.44780000  0.35030000  1.0 0.1400143806
H  H57  1  0.45250000  0.42160000  0.15680000  1.0 0.1400143806
H  H58  1  0.95250000  0.07840000  0.84320000  1.0 0.1400143806
H  H59  1  0.04750000  0.92160000  0.34320000  1.0 0.1400143806
H  H60  1  0.54750000  0.57840000  0.65680000  1.0 0.1400143806
H  H61  1  0.54750000  0.57840000  0.84320000  1.0 0.1400143806
H  H62  1  0.04750000  0.92160000  0.15680000  1.0 0.1400143806
H  H63  1  0.95250000  0.07840000  0.65680000  1.0 0.1400143806
H  H64  1  0.45250000  0.42160000  0.34320000  1.0 0.1400143806
H  H65  1  0.41480000  0.46430000  0.19410000  1.0 0.1207490219
H  H66  1  0.91480000  0.03570000  0.80590000  1.0 0.1207490219
H  H67  1  0.08520000  0.96430000  0.30590000  1.0 0.1207490219
H  H68  1  0.58520000  0.53570000  0.69410000  1.0 0.1207490219
H  H69  1  0.58520000  0.53570000  0.80590000  1.0 0.1207490219
H  H70  1  0.08520000  0.96430000  0.19410000  1.0 0.1207490219
H  H71  1  0.91480000  0.03570000  0.69410000  1.0 0.1207490219
H  H72  1  0.41480000  0.46430000  0.30590000  1.0 0.1207490219
H  H73  1  0.45360000  0.32340000  0.19880000  1.0 0.1400143806
H  H74  1  0.95360000  0.17660000  0.80120000  1.0 0.1400143806
H  H75  1  0.04640000  0.82340000  0.30120000  1.0 0.1400143806
H  H76  1  0.54640000  0.67660000  0.69880000  1.0 0.1400143806
H  H77  1  0.54640000  0.67660000  0.80120000  1.0 0.1400143806
H  H78  1  0.04640000  0.82340000  0.19880000  1.0 0.1400143806
H  H79  1  0.95360000  0.17660000  0.69880000  1.0 0.1400143806
H  H80  1  0.45360000  0.32340000  0.30120000  1.0 0.1400143806
H  H81  1  0.37880000  0.31460000  0.16060000  1.0 0.1481587766
H  H82  1  0.87880000  0.18540000  0.83940000  1.0 0.1481587766
H  H83  1  0.12120000  0.81460000  0.33940000  1.0 0.1481587766
H  H84  1  0.62120000  0.68540000  0.66060000  1.0 0.1481587766
H  H85  1  0.62120000  0.68540000  0.83940000  1.0 0.1481587766
H  H86  1  0.12120000  0.81460000  0.16060000  1.0 0.1481587766
H  H87  1  0.87880000  0.18540000  0.66060000  1.0 0.1481587766
H  H88  1  0.37880000  0.31460000  0.33940000  1.0 0.1481587766
H  H89  1  0.35910000  0.30200000  0.21430000  1.0 0.1004605116
H  H90  1  0.85910000  0.19800000  0.78570000  1.0 0.1004605116
H  H91  1  0.14090000  0.80200000  0.28570000  1.0 0.1004605116
H  H92  1  0.64090000  0.69800000  0.71430000  1.0 0.1004605116
H  H93  1  0.64090000  0.69800000  0.78570000  1.0 0.1004605116
H  H94  1  0.14090000  0.80200000  0.21430000  1.0 0.1004605116
H  H95  1  0.85910000  0.19800000  0.71430000  1.0 0.1004605116
H  H96  1  0.35910000  0.30200000  0.28570000  1.0 0.1004605116
C  C1  1  0.82410000  0.45350000  0.32490000  1.0 0.5486440985
C  C2  1  0.32410000  0.04650000  0.67510000  1.0 0.5486440985
C  C3  1  0.67590000  0.95350000  0.17510000  1.0 0.5486440985
C  C4  1  0.17590000  0.54650000  0.82490000  1.0 0.5486440985
C  C5  1  0.17590000  0.54650000  0.67510000  1.0 0.5486440985
C  C6  1  0.67590000  0.95350000  0.32490000  1.0 0.5486440985
C  C7  1  0.32410000  0.04650000  0.82490000  1.0 0.5486440985
C  C8  1  0.82410000  0.45350000  0.17510000  1.0 0.5486440985
C  C9  1  0.75700000  0.46410000  0.36400000  1.0 -0.0093837088
C  C10  1  0.25700000  0.03590000  0.63600000  1.0 -0.0093837088
C  C11  1  0.74300000  0.96410000  0.13600000  1.0 -0.0093837088
C  C12  1  0.24300000  0.53590000  0.86400000  1.0 -0.0093837088
C  C13  1  0.24300000  0.53590000  0.63600000  1.0 -0.0093837088
C  C14  1  0.74300000  0.96410000  0.36400000  1.0 -0.0093837088
C  C15  1  0.25700000  0.03590000  0.86400000  1.0 -0.0093837088
C  C16  1  0.75700000  0.46410000  0.13600000  1.0 -0.0093837088
C  C17  1  0.69640000  0.42240000  0.37680000  1.0 -0.1153857754
C  C18  1  0.19640000  0.07760000  0.62320000  1.0 -0.1153857754
C  C19  1  0.80360000  0.92240000  0.12320000  1.0 -0.1153857754
C  C20  1  0.30360000  0.57760000  0.87680000  1.0 -0.1153857754
C  C21  1  0.30360000  0.57760000  0.62320000  1.0 -0.1153857754
C  C22  1  0.80360000  0.92240000  0.37680000  1.0 -0.1153857754
C  C23  1  0.19640000  0.07760000  0.87680000  1.0 -0.1153857754
C  C24  1  0.69640000  0.42240000  0.12320000  1.0 -0.1153857754
C  C25  1  0.63380000  0.43280000  0.41150000  1.0 -0.0259562898
C  C26  1  0.13380000  0.06720000  0.58850000  1.0 -0.023239295
C  C27  1  0.86620000  0.93280000  0.08850000  1.0 -0.023239295
C  C28  1  0.36620000  0.56720000  0.91150000  1.0 -0.0259562898
C  C29  1  0.36620000  0.56720000  0.58850000  1.0 -0.0259562898
C  C30  1  0.86620000  0.93280000  0.41150000  1.0 -0.023239295
C  C31  1  0.13380000  0.06720000  0.91150000  1.0 -0.023239295
C  C32  1  0.63380000  0.43280000  0.08850000  1.0 -0.0259562898
C  C33  1  0.63300000  0.48530000  0.43440000  1.0 -0.1090116271
C  C34  1  0.13300000  0.01470000  0.56560000  1.0 -0.1090116271
C  C35  1  0.86700000  0.98530000  0.06560000  1.0 -0.1090116271
C  C36  1  0.36700000  0.51470000  0.93440000  1.0 -0.1090116271
C  C37  1  0.36700000  0.51470000  0.56560000  1.0 -0.1090116271
C  C38  1  0.86700000  0.98530000  0.43440000  1.0 -0.1090116271
C  C39  1  0.13300000  0.01470000  0.93440000  1.0 -0.1090116271
C  C40  1  0.63300000  0.48530000  0.06560000  1.0 -0.1090116271
C  C41  1  0.69230000  0.52620000  0.42160000  1.0 -0.023239295
C  C42  1  0.19230000  0.97380000  0.57840000  1.0 -0.023239295
C  C43  1  0.80770000  0.02620000  0.07840000  1.0 -0.023239295
C  C44  1  0.30770000  0.47380000  0.92160000  1.0 -0.023239295
C  C45  1  0.30770000  0.47380000  0.57840000  1.0 -0.023239295
C  C46  1  0.80770000  0.02620000  0.42160000  1.0 -0.023239295
C  C47  1  0.19230000  0.97380000  0.92160000  1.0 -0.023239295
C  C48  1  0.69230000  0.52620000  0.07840000  1.0 -0.023239295
C  C49  1  0.75420000  0.51540000  0.38610000  1.0 -0.1014287735
C  C50  1  0.25420000  0.98460000  0.61390000  1.0 -0.1014287735
C  C51  1  0.74580000  0.01540000  0.11390000  1.0 -0.1014287735
C  C52  1  0.24580000  0.48460000  0.88610000  1.0 -0.1014287735
C  C53  1  0.24580000  0.48460000  0.61390000  1.0 -0.1014287735
C  C54  1  0.74580000  0.01540000  0.38610000  1.0 -0.1014287735
C  C55  1  0.25420000  0.98460000  0.88610000  1.0 -0.1014287735
C  C56  1  0.75420000  0.51540000  0.11390000  1.0 -0.1014287735
C  C57  1  0.56630000  0.38910000  0.42610000  1.0 0.5486440985
C  C58  1  0.06630000  0.11090000  0.57390000  1.0 0.5486440985
C  C59  1  0.93370000  0.88910000  0.07390000  1.0 0.5486440985
C  C60  1  0.43370000  0.61090000  0.92610000  1.0 0.5486440985
C  C61  1  0.43370000  0.61090000  0.57390000  1.0 0.5486440985
C  C62  1  0.93370000  0.88910000  0.42610000  1.0 0.5486440985
C  C63  1  0.06630000  0.11090000  0.92610000  1.0 0.5486440985
C  C64  1  0.56630000  0.38910000  0.07390000  1.0 0.5486440985
C  C65  1  0.68880000  0.58360000  0.44510000  1.0 0.6080782591
C  C66  1  0.18880000  0.91640000  0.55490000  1.0 0.6080782591
C  C67  1  0.81120000  0.08360000  0.05490000  1.0 0.6080782591
C  C68  1  0.31120000  0.41640000  0.94510000  1.0 0.6080782591
C  C69  1  0.31120000  0.41640000  0.55490000  1.0 0.6080782591
C  C70  1  0.81120000  0.08360000  0.44510000  1.0 0.6080782591
C  C71  1  0.18880000  0.91640000  0.94510000  1.0 0.6080782591
C  C72  1  0.68880000  0.58360000  0.05490000  1.0 0.6080782591
C  C73  1  0.05330000  0.35650000  0.18140000  1.0 0.5978927268
C  C74  1  0.55330000  0.14350000  0.81860000  1.0 0.5978927268
C  C75  1  0.44670000  0.85650000  0.31860000  1.0 0.5978927268
C  C76  1  0.94670000  0.64350000  0.68140000  1.0 0.5978927268
C  C77  1  0.94670000  0.64350000  0.81860000  1.0 0.5978927268
C  C78  1  0.44670000  0.85650000  0.18140000  1.0 0.5978927268
C  C79  1  0.55330000  0.14350000  0.68140000  1.0 0.5978927268
C  C80  1  0.05330000  0.35650000  0.31860000  1.0 0.5978927268
C  C81  1  0.07640000  0.32460000  0.13680000  1.0 -0.023239295
C  C82  1  0.57640000  0.17540000  0.86320000  1.0 -0.023239295
C  C83  1  0.42360000  0.82460000  0.36320000  1.0 -0.023239295
C  C84  1  0.92360000  0.67540000  0.63680000  1.0 -0.023239295
C  C85  1  0.92360000  0.67540000  0.86320000  1.0 -0.023239295
C  C86  1  0.42360000  0.82460000  0.13680000  1.0 -0.023239295
C  C87  1  0.57640000  0.17540000  0.63680000  1.0 -0.023239295
C  C88  1  0.07640000  0.32460000  0.36320000  1.0 -0.023239295
C  C89  1  0.15930000  0.33170000  0.11590000  1.0 -0.1014287735
C  C90  1  0.65930000  0.16830000  0.88410000  1.0 -0.1090116271
C  C91  1  0.34070000  0.83170000  0.38410000  1.0 -0.1014287735
C  C92  1  0.84070000  0.66830000  0.61590000  1.0 -0.1014287735
C  C93  1  0.84070000  0.66830000  0.88410000  1.0 -0.1014287735
C  C94  1  0.34070000  0.83170000  0.11590000  1.0 -0.1014287735
C  C95  1  0.65930000  0.16830000  0.61590000  1.0 -0.1090116271
C  C96  1  0.15930000  0.33170000  0.38410000  1.0 -0.1014287735
C  C97  1  0.17960000  0.30330000  0.07380000  1.0 -0.0382156126
C  C98  1  0.67960000  0.19670000  0.92620000  1.0 -0.0382156126
C  C99  1  0.32040000  0.80330000  0.42620000  1.0 -0.0382156126
C  C100  1  0.82040000  0.69670000  0.57380000  1.0 -0.0382156126
C  C101  1  0.82040000  0.69670000  0.92620000  1.0 -0.0382156126
C  C102  1  0.32040000  0.80330000  0.07380000  1.0 -0.0382156126
C  C103  1  0.67960000  0.19670000  0.57380000  1.0 -0.0382156126
C  C104  1  0.17960000  0.30330000  0.42620000  1.0 -0.0382156126
C  C105  1  0.11740000  0.26850000  0.05260000  1.0 -0.1014287735
C  C106  1  0.61740000  0.23150000  0.94740000  1.0 -0.1014287735
C  C107  1  0.38260000  0.76850000  0.44740000  1.0 -0.1014287735
C  C108  1  0.88260000  0.73150000  0.55260000  1.0 -0.1014287735
C  C109  1  0.88260000  0.73150000  0.94740000  1.0 -0.1014287735
C  C110  1  0.38260000  0.76850000  0.05260000  1.0 -0.1014287735
C  C111  1  0.61740000  0.23150000  0.55260000  1.0 -0.1014287735
C  C112  1  0.11740000  0.26850000  0.44740000  1.0 -0.1014287735
C  C113  1  0.03450000  0.26050000  0.07410000  1.0 -0.0382156126
C  C114  1  0.53450000  0.23950000  0.92590000  1.0 -0.0382156126
C  C115  1  0.46550000  0.76050000  0.42590000  1.0 -0.0382156126
C  C116  1  0.96550000  0.73950000  0.57410000  1.0 -0.0382156126
C  C117  1  0.96550000  0.73950000  0.92590000  1.0 -0.0382156126
C  C118  1  0.46550000  0.76050000  0.07410000  1.0 -0.0382156126
C  C119  1  0.53450000  0.23950000  0.57410000  1.0 -0.0382156126
C  C120  1  0.03450000  0.26050000  0.42590000  1.0 -0.0382156126
C  C121  1  0.01580000  0.28970000  0.11620000  1.0 -0.090951261
C  C122  1  0.51580000  0.21030000  0.88380000  1.0 -0.090951261
C  C123  1  0.48420000  0.78970000  0.38380000  1.0 -0.090951261
C  C124  1  0.98420000  0.71030000  0.61620000  1.0 -0.090951261
C  C125  1  0.98420000  0.71030000  0.88380000  1.0 -0.090951261
C  C126  1  0.48420000  0.78970000  0.11620000  1.0 -0.090951261
C  C127  1  0.51580000  0.21030000  0.61620000  1.0 -0.090951261
C  C128  1  0.01580000  0.28970000  0.38380000  1.0 -0.090951261
C  C129  1  0.26850000  0.31390000  0.05150000  1.0 0.5750568091
C  C130  1  0.76850000  0.18610000  0.94850000  1.0 0.5741832434
C  C131  1  0.23150000  0.81390000  0.44850000  1.0 0.5741832434
C  C132  1  0.73150000  0.68610000  0.55150000  1.0 0.5750568091
C  C133  1  0.73150000  0.68610000  0.94850000  1.0 0.5750568091
C  C134  1  0.23150000  0.81390000  0.05150000  1.0 0.5741832434
C  C135  1  0.76850000  0.18610000  0.55150000  1.0 0.5741832434
C  C136  1  0.26850000  0.31390000  0.44850000  1.0 0.5750568091
C  C137  1  0.96570000  0.22370000  0.05280000  1.0 0.5978927268
C  C138  1  0.46570000  0.27630000  0.94720000  1.0 0.5978927268
C  C139  1  0.53430000  0.72370000  0.44720000  1.0 0.5978927268
C  C140  1  0.03430000  0.77630000  0.55280000  1.0 0.5978927268
C  C141  1  0.03430000  0.77630000  0.94720000  1.0 0.5978927268
C  C142  1  0.53430000  0.72370000  0.05280000  1.0 0.5978927268
C  C143  1  0.46570000  0.27630000  0.55280000  1.0 0.5978927268
C  C144  1  0.96570000  0.22370000  0.44720000  1.0 0.5978927268
C  C145  1  0.28740000  0.39500000  0.22580000  1.0 0.2159846304
C  C146  1  0.78740000  0.10500000  0.77420000  1.0 0.2159846304
C  C147  1  0.21260000  0.89500000  0.27420000  1.0 0.2159846304
C  C148  1  0.71260000  0.60500000  0.72580000  1.0 0.2159846304
C  C149  1  0.71260000  0.60500000  0.77420000  1.0 0.2159846304
C  C150  1  0.21260000  0.89500000  0.22580000  1.0 0.2159846304
C  C151  1  0.78740000  0.10500000  0.72580000  1.0 0.2159846304
C  C152  1  0.28740000  0.39500000  0.27420000  1.0 0.2159846304
C  C153  1  0.39970000  0.43440000  0.17270000  1.0 -0.3404155643
C  C154  1  0.89970000  0.06560000  0.82730000  1.0 -0.3404155643
C  C155  1  0.10030000  0.93440000  0.32730000  1.0 -0.3404155643
C  C156  1  0.60030000  0.56560000  0.67270000  1.0 -0.3404155643
C  C157  1  0.60030000  0.56560000  0.82730000  1.0 -0.3404155643
C  C158  1  0.10030000  0.93440000  0.17270000  1.0 -0.3404155643
C  C159  1  0.89970000  0.06560000  0.67270000  1.0 -0.3404155643
C  C160  1  0.39970000  0.43440000  0.32730000  1.0 -0.3404155643
C  C161  1  0.39080000  0.32610000  0.19270000  1.0 -0.3404155643
C  C162  1  0.89080000  0.17390000  0.80730000  1.0 -0.3404155643
C  C163  1  0.10920000  0.82610000  0.30730000  1.0 -0.3404155643
C  C164  1  0.60920000  0.67390000  0.69270000  1.0 -0.3404155643
C  C165  1  0.60920000  0.67390000  0.80730000  1.0 -0.3404155643
C  C166  1  0.10920000  0.82610000  0.19270000  1.0 -0.3404155643
C  C167  1  0.89080000  0.17390000  0.69270000  1.0 -0.3404155643
C  C168  1  0.39080000  0.32610000  0.30730000  1.0 -0.3404155643
N  N1  1  0.36000000  0.38740000  0.19970000  1.0 -0.0688024824
N  N2  1  0.86000000  0.11260000  0.80030000  1.0 -0.0688024824
N  N3  1  0.14000000  0.88740000  0.30030000  1.0 -0.0688024824
N  N4  1  0.64000000  0.61260000  0.69970000  1.0 -0.0688024824
N  N5  1  0.64000000  0.61260000  0.80030000  1.0 -0.0688024824
N  N6  1  0.14000000  0.88740000  0.19970000  1.0 -0.0688024824
N  N7  1  0.86000000  0.11260000  0.69970000  1.0 -0.0688024824
N  N8  1  0.36000000  0.38740000  0.30030000  1.0 -0.0688024824
O  O1  1  0.88500000  0.48950000  0.32030000  1.0 -0.4133799942
O  O2  1  0.38500000  0.01050000  0.67970000  1.0 -0.4133799942
O  O3  1  0.61500000  0.98950000  0.17970000  1.0 -0.4133799942
O  O4  1  0.11500000  0.51050000  0.82030000  1.0 -0.4133799942
O  O5  1  0.11500000  0.51050000  0.67970000  1.0 -0.4133799942
O  O6  1  0.61500000  0.98950000  0.32030000  1.0 -0.4133799942
O  O7  1  0.38500000  0.01050000  0.82030000  1.0 -0.4133799942
O  O8  1  0.88500000  0.48950000  0.17970000  1.0 -0.4133799942
O  O9  1  0.81670000  0.41030000  0.30100000  1.0 -0.5181828113
O  O10  1  0.31670000  0.08970000  0.69900000  1.0 -0.5181828113
O  O11  1  0.68330000  0.91030000  0.19900000  1.0 -0.5181828113
O  O12  1  0.18330000  0.58970000  0.80100000  1.0 -0.5181828113
O  O13  1  0.18330000  0.58970000  0.69900000  1.0 -0.5181828113
O  O14  1  0.68330000  0.91030000  0.30100000  1.0 -0.5181828113
O  O15  1  0.31670000  0.08970000  0.80100000  1.0 -0.5181828113
O  O16  1  0.81670000  0.41030000  0.19900000  1.0 -0.5181828113
O  O17  1  0.57380000  0.33935000  0.41260000  1.0 -0.5480232359
O  O18  1  0.07380000  0.16065000  0.58740000  1.0 -0.5480232359
O  O19  1  0.92620000  0.83935000  0.08740000  1.0 -0.5480232359
O  O20  1  0.42620000  0.66065000  0.91260000  1.0 -0.5480232359
O  O21  1  0.42620000  0.66065000  0.58740000  1.0 -0.5480232359
O  O22  1  0.92620000  0.83935000  0.41260000  1.0 -0.5480232359
O  O23  1  0.07380000  0.16065000  0.91260000  1.0 -0.5480232359
O  O24  1  0.57380000  0.33935000  0.08740000  1.0 -0.5480232359
O  O25  1  0.50420000  0.40714000  0.45265000  1.0 -0.5302279638
O  O26  1  0.00420000  0.09286000  0.54735000  1.0 -0.5302279638
O  O27  1  0.99580000  0.90714000  0.04735000  1.0 -0.5302279638
O  O28  1  0.49580000  0.59286000  0.95265000  1.0 -0.5302279638
O  O29  1  0.49580000  0.59286000  0.54735000  1.0 -0.5302279638
O  O30  1  0.99580000  0.90714000  0.45265000  1.0 -0.5302279638
O  O31  1  0.00420000  0.09286000  0.95265000  1.0 -0.5302279638
O  O32  1  0.50420000  0.40714000  0.04735000  1.0 -0.5302279638
O  O33  1  0.73600000  0.62170000  0.42850000  1.0 -0.5672438861
O  O34  1  0.23600000  0.87830000  0.57150000  1.0 -0.5672438861
O  O35  1  0.76400000  0.12170000  0.07150000  1.0 -0.5672438861
O  O36  1  0.26400000  0.37830000  0.92850000  1.0 -0.5672438861
O  O37  1  0.26400000  0.37830000  0.57150000  1.0 -0.5672438861
O  O38  1  0.76400000  0.12170000  0.42850000  1.0 -0.5672438861
O  O39  1  0.23600000  0.87830000  0.92850000  1.0 -0.5672438861
O  O40  1  0.73600000  0.62170000  0.07150000  1.0 -0.5672438861
O  O41  1  0.63580000  0.58681000  0.48015000  1.0 -0.5568511521
O  O42  1  0.13580000  0.91319000  0.51985000  1.0 -0.5568511521
O  O43  1  0.86420000  0.08681000  0.01985000  1.0 -0.5568511521
O  O44  1  0.36420000  0.41319000  0.98015000  1.0 -0.5568511521
O  O45  1  0.36420000  0.41319000  0.51985000  1.0 -0.5568511521
O  O46  1  0.86420000  0.08681000  0.48015000  1.0 -0.5568511521
O  O47  1  0.13580000  0.91319000  0.98015000  1.0 -0.5568511521
O  O48  1  0.63580000  0.58681000  0.01985000  1.0 -0.5568511521
O  O49  1  0.11090000  0.38970000  0.19675000  1.0 -0.5907090576
O  O50  1  0.61090000  0.11030000  0.80325000  1.0 -0.5907090576
O  O51  1  0.38910000  0.88970000  0.30325000  1.0 -0.5907090576
O  O52  1  0.88910000  0.61030000  0.69675000  1.0 -0.5907090576
O  O53  1  0.88910000  0.61030000  0.80325000  1.0 -0.5907090576
O  O54  1  0.38910000  0.88970000  0.19675000  1.0 -0.5907090576
O  O55  1  0.61090000  0.11030000  0.69675000  1.0 -0.5907090576
O  O56  1  0.11090000  0.38970000  0.30325000  1.0 -0.5907090576
O  O57  1  0.97860000  0.34610000  0.19890000  1.0 -0.5302279638
O  O58  1  0.47860000  0.15390000  0.80110000  1.0 -0.5302279638
O  O59  1  0.52140000  0.84610000  0.30110000  1.0 -0.5302279638
O  O60  1  0.02140000  0.65390000  0.69890000  1.0 -0.5302279638
O  O61  1  0.02140000  0.65390000  0.80110000  1.0 -0.5302279638
O  O62  1  0.52140000  0.84610000  0.19890000  1.0 -0.5302279638
O  O63  1  0.47860000  0.15390000  0.69890000  1.0 -0.5302279638
O  O64  1  0.97860000  0.34610000  0.30110000  1.0 -0.5302279638
O  O65  1  0.32770000  0.33980000  0.42560000  1.0 -0.5181828113
O  O66  1  0.82770000  0.16020000  0.57440000  1.0 -0.5181828113
O  O67  1  0.17230000  0.83980000  0.07440000  1.0 -0.5133032174
O  O68  1  0.67230000  0.66020000  0.92560000  1.0 -0.5133032174
O  O69  1  0.67230000  0.66020000  0.57440000  1.0 -0.5133032174
O  O70  1  0.17230000  0.83980000  0.42560000  1.0 -0.5133032174
O  O71  1  0.82770000  0.16020000  0.92560000  1.0 -0.5181828113
O  O72  1  0.32770000  0.33980000  0.07440000  1.0 -0.5181828113
O  O73  1  0.28450000  0.29793000  0.49071000  1.0 -0.6218920694
O  O74  1  0.78450000  0.20207000  0.50929000  1.0 -0.6218920694
O  O75  1  0.21550000  0.79793000  0.00929000  1.0 -0.6218920694
O  O76  1  0.71550000  0.70207000  0.99071000  1.0 -0.6218920694
O  O77  1  0.71550000  0.70207000  0.50929000  1.0 -0.6218920694
O  O78  1  0.21550000  0.79793000  0.49071000  1.0 -0.6218920694
O  O79  1  0.78450000  0.20207000  0.99071000  1.0 -0.6218920694
O  O80  1  0.28450000  0.29793000  0.00929000  1.0 -0.6218920694
O  O81  1  0.48710000  0.30132000  0.51403000  1.0 -0.5568511521
O  O82  1  0.98710000  0.19868000  0.48597000  1.0 -0.5568511521
O  O83  1  0.01290000  0.80132000  0.98597000  1.0 -0.5480232359
O  O84  1  0.51290000  0.69868000  0.01403000  1.0 -0.5568511521
O  O85  1  0.51290000  0.69868000  0.48597000  1.0 -0.5568511521
O  O86  1  0.01290000  0.80132000  0.51403000  1.0 -0.5480232359
O  O87  1  0.98710000  0.19868000  0.01403000  1.0 -0.5568511521
O  O88  1  0.48710000  0.30132000  0.98597000  1.0 -0.5568511521
O  O89  1  0.60720000  0.71860000  0.42617000  1.0 -0.6002078773
O  O90  1  0.10720000  0.78140000  0.57383000  1.0 -0.6002078773
O  O91  1  0.89280000  0.21860000  0.07383000  1.0 -0.6002078773
O  O92  1  0.39280000  0.28140000  0.92617000  1.0 -0.6002078773
O  O93  1  0.39280000  0.28140000  0.57383000  1.0 -0.6002078773
O  O94  1  0.89280000  0.21860000  0.42617000  1.0 -0.6002078773
O  O95  1  0.10720000  0.78140000  0.92617000  1.0 -0.6002078773
O  O96  1  0.60720000  0.71860000  0.07383000  1.0 -0.6002078773
O  O97  1  0.97710000  0.45770000  0.25000000  1.0 -0.6080293478
O  O98  1  0.47710000  0.04230000  0.75000000  1.0 -0.6080293478
O  O99  1  0.52290000  0.95770000  0.25000000  1.0 -0.6080293478
O  O100  1  0.02290000  0.54230000  0.75000000  1.0 -0.6080293478
O  O101  1  0.25340000  0.43960000  0.23480000  1.0 0.0017059965
O  O102  1  0.75340000  0.06040000  0.76520000  1.0 -0.0028803478
O  O103  1  0.24660000  0.93960000  0.26520000  1.0 0.0017059965
O  O104  1  0.74660000  0.56040000  0.73480000  1.0 0.0017059965
O  O105  1  0.74660000  0.56040000  0.76520000  1.0 0.0017059965
O  O106  1  0.24660000  0.93960000  0.23480000  1.0 0.0017059965
O  O107  1  0.75340000  0.06040000  0.73480000  1.0 -0.0028803478
O  O108  1  0.25340000  0.43960000  0.26520000  1.0 0.0017059965
