# DDEC6 charges by PACMAN v1.1 (https://github.com/mtap-research/PACMAN-charge/)
data_TIZFUF_FSR_pacman
_symmetry_space_group_name_H-M   'P 1'
_cell_length_a   17.43540000
_cell_length_b   17.43540000
_cell_length_c   17.43540000
_cell_angle_alpha   139.58500000
_cell_angle_beta   107.34300000
_cell_angle_gamma   86.59080000
_symmetry_Int_Tables_number   1
_chemical_formula_structural   K3Cu4PH16W12C8N4(ClO29)2
_chemical_formula_sum   'K6 Cu8 P2 H32 W24 C16 N8 Cl4 O116'
_cell_volume   3157.60997599
_cell_formula_units_Z   2
loop_
 _symmetry_equiv_pos_site_id
 _symmetry_equiv_pos_as_xyz
  1  'x, y, z'
loop_
 _atom_site_type_symbol
 _atom_site_label
 _atom_site_symmetry_multiplicity
 _atom_site_fract_x
 _atom_site_fract_y
 _atom_site_fract_z
 _atom_site_occupancy
 _atom_site_charge
K  K1  1  0.30000000  0.00000000  0.30000000  1.0 0.8890717603
K  K2  1  0.70000000  0.00000000  0.70000000  1.0 0.8890717603
K  K3  1  0.18360000  0.37260000  0.81100000  1.0 0.9188972689
K  K4  1  0.43840000  0.62740000  0.81100000  1.0 0.9188972689
K  K5  1  0.81640000  0.62740000  0.18900000  1.0 0.9188972689
K  K6  1  0.56160000  0.37260000  0.18900000  1.0 0.9188972689
Cu  Cu1  1  0.08108000  0.87178000  0.20930000  1.0 0.8152220674
Cu  Cu2  1  0.33752000  0.12822000  0.20930000  1.0 0.8152220674
Cu  Cu3  1  0.91892000  0.12822000  0.79070000  1.0 0.8152220674
Cu  Cu4  1  0.66248000  0.87178000  0.79070000  1.0 0.8152220674
Cu  Cu5  1  0.27060000  0.30090000  0.57150000  1.0 0.9673038103
Cu  Cu6  1  0.27060000  0.69910000  0.96970000  1.0 0.9673038103
Cu  Cu7  1  0.72940000  0.30090000  0.03030000  1.0 0.9673038103
Cu  Cu8  1  0.72940000  0.69910000  0.42850000  1.0 0.9673038103
P  P1  1  0.24040000  0.74040000  0.50000000  1.0 0.9260833241
P  P2  1  0.75960000  0.25960000  0.50000000  1.0 0.9260833241
H  H1  1  0.96870000  0.95700000  0.28250000  1.0 0.2757665083
H  H2  1  0.32550000  0.04300000  0.01170000  1.0 0.2757665083
H  H3  1  0.03130000  0.31380000  0.98830000  1.0 0.2757665083
H  H4  1  0.67450000  0.68620000  0.71750000  1.0 0.2757665083
H  H5  1  0.03130000  0.04300000  0.71750000  1.0 0.2757665083
H  H6  1  0.67450000  0.95700000  0.98830000  1.0 0.2757665083
H  H7  1  0.96870000  0.68620000  0.01170000  1.0 0.2757665083
H  H8  1  0.32550000  0.31380000  0.28250000  1.0 0.2757665083
H  H9  1  0.99600000  0.90060000  0.31440000  1.0 0.2757665083
H  H10  1  0.41380000  0.09940000  0.09540000  1.0 0.2757665083
H  H11  1  0.00400000  0.31840000  0.90460000  1.0 0.2757665083
H  H12  1  0.58620000  0.68160000  0.68560000  1.0 0.2757665083
H  H13  1  0.00400000  0.09940000  0.68560000  1.0 0.2757665083
H  H14  1  0.58620000  0.90060000  0.90460000  1.0 0.2757665083
H  H15  1  0.99600000  0.68160000  0.09540000  1.0 0.2757665083
H  H16  1  0.41380000  0.31840000  0.31440000  1.0 0.2757665083
H  H17  1  0.07820000  0.06850000  0.50550000  1.0 0.1293268536
H  H18  1  0.43700000  0.93150000  0.00970000  1.0 0.1293268536
H  H19  1  0.92180000  0.42730000  0.99030000  1.0 0.1293268536
H  H20  1  0.56300000  0.57270000  0.49450000  1.0 0.1293268536
H  H21  1  0.92180000  0.93150000  0.49450000  1.0 0.1293268536
H  H22  1  0.56300000  0.06850000  0.99030000  1.0 0.1293268536
H  H23  1  0.07820000  0.57270000  0.00970000  1.0 0.1293268536
H  H24  1  0.43700000  0.42730000  0.50550000  1.0 0.1293268536
H  H25  1  0.03290000  0.13160000  0.47990000  1.0 0.1374106441
H  H26  1  0.34830000  0.86840000  0.90130000  1.0 0.1374106441
H  H27  1  0.96710000  0.44700000  0.09870000  1.0 0.1374106441
H  H28  1  0.65170000  0.55300000  0.52010000  1.0 0.1374106441
H  H29  1  0.96710000  0.86840000  0.52010000  1.0 0.1374106441
H  H30  1  0.65170000  0.13160000  0.09870000  1.0 0.1374106441
H  H31  1  0.03290000  0.55300000  0.90130000  1.0 0.1374106441
H  H32  1  0.34830000  0.44700000  0.47990000  1.0 0.1374106441
W  W1  1  0.26694000  0.85749000  0.40945000  1.0 2.3603289105
W  W2  1  0.55196000  0.14251000  0.40945000  1.0 2.3603289105
W  W3  1  0.73306000  0.14251000  0.59055000  1.0 2.3603289105
W  W4  1  0.44804000  0.85749000  0.59055000  1.0 2.3603289105
W  W5  1  0.03755000  0.61779000  0.41976000  1.0 2.3200357733
W  W6  1  0.80197000  0.38221000  0.41976000  1.0 2.3200357733
W  W7  1  0.96245000  0.38221000  0.58024000  1.0 2.3200357733
W  W8  1  0.19803000  0.61779000  0.58024000  1.0 2.3200357733
W  W9  1  0.07630000  0.74473000  0.33157000  1.0 2.2466657736
W  W10  1  0.58684000  0.25527000  0.33157000  1.0 2.2466657736
W  W11  1  0.92370000  0.25527000  0.66843000  1.0 2.2466657736
W  W12  1  0.41316000  0.74473000  0.66843000  1.0 2.2466657736
W  W13  1  0.19490000  0.54143000  0.17611000  1.0 2.3200357733
W  W14  1  0.63468000  0.45857000  0.65347000  1.0 2.3200357733
W  W15  1  0.80510000  0.98121000  0.34653000  1.0 2.3200357733
W  W16  1  0.36532000  0.01879000  0.82389000  1.0 2.3200357733
W  W17  1  0.80510000  0.45857000  0.82389000  1.0 2.3200357733
W  W18  1  0.36532000  0.54143000  0.34653000  1.0 2.3200357733
W  W19  1  0.19490000  0.01879000  0.65347000  1.0 2.3200357733
W  W20  1  0.63468000  0.98121000  0.17611000  1.0 2.3200357733
W  W21  1  0.15939000  0.89900000  0.73961000  1.0 2.3052652456
W  W22  1  0.84061000  0.10100000  0.26039000  1.0 2.3052652456
W  W23  1  0.84061000  0.58022000  0.73961000  1.0 2.3052652456
W  W24  1  0.15939000  0.41978000  0.26039000  1.0 2.3052652456
C  C1  1  0.06420000  0.07220000  0.45000000  1.0 -0.2241035424
C  C2  1  0.37780000  0.92780000  0.99200000  1.0 -0.2241035424
C  C3  1  0.93580000  0.38580000  0.00800000  1.0 -0.2251472942
C  C4  1  0.62220000  0.61420000  0.55000000  1.0 -0.2241035424
C  C5  1  0.93580000  0.92780000  0.55000000  1.0 -0.2241035424
C  C6  1  0.62220000  0.07220000  0.00800000  1.0 -0.2251472942
C  C7  1  0.06420000  0.61420000  0.99200000  1.0 -0.2241035424
C  C8  1  0.37780000  0.38580000  0.45000000  1.0 -0.2241035424
C  C9  1  0.14270000  0.11000000  0.45670000  1.0 0.6190121152
C  C10  1  0.34670000  0.89000000  0.03270000  1.0 0.6190121152
C  C11  1  0.85730000  0.31400000  0.96730000  1.0 0.6190121152
C  C12  1  0.65330000  0.68600000  0.54330000  1.0 0.6190121152
C  C13  1  0.85730000  0.89000000  0.54330000  1.0 0.6190121152
C  C14  1  0.65330000  0.11000000  0.96730000  1.0 0.6190121152
C  C15  1  0.14270000  0.68600000  0.03270000  1.0 0.6190121152
C  C16  1  0.34670000  0.31400000  0.45670000  1.0 0.6190121152
N  N1  1  0.01380000  0.94860000  0.31520000  1.0 -0.5193177633
N  N2  1  0.36660000  0.05140000  0.06520000  1.0 -0.5193177633
N  N3  1  0.98620000  0.30140000  0.93480000  1.0 -0.5193177633
N  N4  1  0.63340000  0.69860000  0.68480000  1.0 -0.5193177633
N  N5  1  0.98620000  0.05140000  0.68480000  1.0 -0.5193177633
N  N6  1  0.63340000  0.94860000  0.93480000  1.0 -0.5193177633
N  N7  1  0.01380000  0.69860000  0.06520000  1.0 -0.5193177633
N  N8  1  0.36660000  0.30140000  0.31520000  1.0 -0.5193177633
Cl  Cl1  1  0.32800000  0.50000000  0.82800000  1.0 -0.0398536318
Cl  Cl2  1  0.67200000  0.50000000  0.17200000  1.0 -0.0398536318
Cl  Cl3  1  0.30200000  0.50000000  0.80200000  1.0 -0.1031711123
Cl  Cl4  1  0.69800000  0.50000000  0.19800000  1.0 -0.1031711123
O  O1  1  0.35520000  0.22600000  0.58120000  1.0 -0.6078803859
O  O2  1  0.35520000  0.77400000  0.12920000  1.0 -0.6078803859
O  O3  1  0.64480000  0.22600000  0.87080000  1.0 -0.6078803859
O  O4  1  0.64480000  0.77400000  0.41880000  1.0 -0.6078803859
O  O5  1  0.14930000  0.82140000  0.32790000  1.0 -0.9119228624
O  O6  1  0.50650000  0.17860000  0.32790000  1.0 -0.9119228624
O  O7  1  0.85070000  0.17860000  0.67210000  1.0 -0.9119228624
O  O8  1  0.49350000  0.82140000  0.67210000  1.0 -0.9119228624
O  O9  1  0.37000000  0.87000000  0.50000000  1.0 -0.8916729512
O  O10  1  0.63000000  0.13000000  0.50000000  1.0 -0.8916729512
O  O11  1  0.93320000  0.56780000  0.36540000  1.0 -0.4998014591
O  O12  1  0.79760000  0.43220000  0.36540000  1.0 -0.4998014591
O  O13  1  0.06680000  0.43220000  0.63460000  1.0 -0.4998014591
O  O14  1  0.20240000  0.56780000  0.63460000  1.0 -0.4998014591
O  O15  1  0.07860000  0.57860000  0.50000000  1.0 -0.9119228624
O  O16  1  0.92140000  0.42140000  0.50000000  1.0 -0.9043322228
O  O17  1  0.30650000  0.92160000  0.38490000  1.0 -0.6411128662
O  O18  1  0.46330000  0.07840000  0.38490000  1.0 -0.6411128662
O  O19  1  0.69350000  0.07840000  0.61510000  1.0 -0.6411128662
O  O20  1  0.53670000  0.92160000  0.61510000  1.0 -0.6411128662
O  O21  1  0.03440000  0.67350000  0.36090000  1.0 -0.8687661114
O  O22  1  0.68740000  0.32650000  0.36090000  1.0 -0.8687661114
O  O23  1  0.96560000  0.32650000  0.63910000  1.0 -0.8687661114
O  O24  1  0.31260000  0.67350000  0.63910000  1.0 -0.8687661114
O  O25  1  0.17350000  0.44610000  0.02240000  1.0 -0.6784116052
O  O26  1  0.57630000  0.55390000  0.72740000  1.0 -0.6784116052
O  O27  1  0.82650000  0.84890000  0.27260000  1.0 -0.6784116052
O  O28  1  0.42370000  0.15110000  0.97760000  1.0 -0.6784116052
O  O29  1  0.82650000  0.55390000  0.97760000  1.0 -0.6784116052
O  O30  1  0.42370000  0.44610000  0.27260000  1.0 -0.6784116052
O  O31  1  0.17350000  0.15110000  0.72740000  1.0 -0.6784116052
O  O32  1  0.57630000  0.84890000  0.02240000  1.0 -0.6784116052
O  O33  1  0.14350000  0.43340000  0.15810000  1.0 -0.8758040986
O  O34  1  0.72470000  0.56660000  0.71010000  1.0 -0.8758040986
O  O35  1  0.85650000  0.01460000  0.28990000  1.0 -0.8758040986
O  O36  1  0.27530000  0.98540000  0.84190000  1.0 -0.8758040986
O  O37  1  0.85650000  0.56660000  0.84190000  1.0 -0.8758040986
O  O38  1  0.27530000  0.43340000  0.28990000  1.0 -0.8758040986
O  O39  1  0.14350000  0.98540000  0.71010000  1.0 -0.8758040986
O  O40  1  0.72470000  0.01460000  0.15810000  1.0 -0.8758040986
O  O41  1  0.12220000  0.97620000  0.85400000  1.0 -0.5722001217
O  O42  1  0.87780000  0.02380000  0.14600000  1.0 -0.5722001217
O  O43  1  0.87780000  0.73180000  0.85400000  1.0 -0.5722001217
O  O44  1  0.12220000  0.26820000  0.14600000  1.0 -0.5722001217
O  O45  1  0.98170000  0.72990000  0.25180000  1.0 -0.7129098646
O  O46  1  0.52190000  0.27010000  0.25180000  1.0 -0.7129098646
O  O47  1  0.01830000  0.27010000  0.74820000  1.0 -0.7129098646
O  O48  1  0.47810000  0.72990000  0.74820000  1.0 -0.7129098646
O  O49  1  0.06410000  0.77970000  0.58840000  1.0 -0.8558978461
O  O50  1  0.80870000  0.22030000  0.28440000  1.0 -0.8558978461
O  O51  1  0.93590000  0.52430000  0.71560000  1.0 -0.8558978461
O  O52  1  0.19130000  0.47570000  0.41160000  1.0 -0.8558978461
O  O53  1  0.93590000  0.22030000  0.41160000  1.0 -0.8558978461
O  O54  1  0.19130000  0.77970000  0.71560000  1.0 -0.8558978461
O  O55  1  0.06410000  0.47570000  0.28440000  1.0 -0.8558978461
O  O56  1  0.80870000  0.52430000  0.58840000  1.0 -0.8558978461
O  O57  1  0.10110000  0.90380000  0.50330000  1.0 -0.8315975986
O  O58  1  0.59950000  0.09620000  0.19730000  1.0 -0.8315975986
O  O59  1  0.89890000  0.40220000  0.80270000  1.0 -0.8315975986
O  O60  1  0.40050000  0.59780000  0.49670000  1.0 -0.8315975986
O  O61  1  0.89890000  0.09620000  0.49670000  1.0 -0.8315975986
O  O62  1  0.40050000  0.90380000  0.80270000  1.0 -0.8315975986
O  O63  1  0.10110000  0.59780000  0.19730000  1.0 -0.8315975986
O  O64  1  0.59950000  0.40220000  0.50330000  1.0 -0.8315975986
O  O65  1  0.25450000  0.68950000  0.25700000  1.0 -0.8687661114
O  O66  1  0.56750000  0.31050000  0.56500000  1.0 -0.8687661114
O  O67  1  0.74550000  0.00250000  0.43500000  1.0 -0.8687661114
O  O68  1  0.43250000  0.99750000  0.74300000  1.0 -0.8687661114
O  O69  1  0.74550000  0.31050000  0.74300000  1.0 -0.8687661114
O  O70  1  0.43250000  0.68950000  0.43500000  1.0 -0.8687661114
O  O71  1  0.25450000  0.99750000  0.56500000  1.0 -0.8687661114
O  O72  1  0.56750000  0.00250000  0.25700000  1.0 -0.8687661114
O  O73  1  0.15910000  0.03620000  0.35710000  1.0 -0.5193177633
O  O74  1  0.32090000  0.96380000  0.12290000  1.0 -0.5193177633
O  O75  1  0.84090000  0.19800000  0.87710000  1.0 -0.5193177633
O  O76  1  0.67910000  0.80200000  0.64290000  1.0 -0.5193177633
O  O77  1  0.84090000  0.96380000  0.64290000  1.0 -0.5193177633
O  O78  1  0.67910000  0.03620000  0.87710000  1.0 -0.5193177633
O  O79  1  0.15910000  0.80200000  0.12290000  1.0 -0.5193177633
O  O80  1  0.32090000  0.19800000  0.35710000  1.0 -0.5193177633
O  O81  1  0.18790000  0.21590000  0.56160000  1.0 -0.5263814874
O  O82  1  0.34570000  0.78410000  0.97200000  1.0 -0.5263814874
O  O83  1  0.81210000  0.37370000  0.02800000  1.0 -0.5263814874
O  O84  1  0.65430000  0.62630000  0.43840000  1.0 -0.5263814874
O  O85  1  0.81210000  0.78410000  0.43840000  1.0 -0.5263814874
O  O86  1  0.65430000  0.21590000  0.02800000  1.0 -0.5263814874
O  O87  1  0.18790000  0.62630000  0.97200000  1.0 -0.5263814874
O  O88  1  0.34570000  0.37370000  0.56160000  1.0 -0.5263814874
O  O89  1  0.18420000  0.34300000  0.52720000  1.0 -0.461392241
O  O90  1  0.18420000  0.65700000  0.84120000  1.0 -0.461392241
O  O91  1  0.81580000  0.34300000  0.15880000  1.0 -0.461392241
O  O92  1  0.81580000  0.65700000  0.47280000  1.0 -0.461392241
O  O93  1  0.30240000  0.52440000  0.22200000  1.0 -0.8916729512
O  O94  1  0.69760000  0.47560000  0.77800000  1.0 -0.8916729512
O  O95  1  0.69760000  0.91960000  0.22200000  1.0 -0.8916729512
O  O96  1  0.30240000  0.08040000  0.77800000  1.0 -0.8916729512
O  O97  1  0.20650000  0.81230000  0.47620000  1.0 -0.3145096622
O  O98  1  0.66390000  0.18770000  0.39420000  1.0 -0.3145096622
O  O99  1  0.79350000  0.26970000  0.60580000  1.0 -0.3145096622
O  O100  1  0.33610000  0.73030000  0.52380000  1.0 -0.3145096622
O  O101  1  0.79350000  0.18770000  0.52380000  1.0 -0.3145096622
O  O102  1  0.33610000  0.81230000  0.60580000  1.0 -0.3145096622
O  O103  1  0.20650000  0.73030000  0.39420000  1.0 -0.3145096622
O  O104  1  0.66390000  0.26970000  0.47620000  1.0 -0.3145096622
O  O105  1  0.24030000  0.87530000  0.63500000  1.0 -0.4665225766
O  O106  1  0.75970000  0.12470000  0.36500000  1.0 -0.4665225766
O  O107  1  0.75970000  0.39470000  0.63500000  1.0 -0.4665225766
O  O108  1  0.24030000  0.60530000  0.36500000  1.0 -0.4665225766
O  O109  1  0.18080000  0.72280000  0.54200000  1.0 -0.2779159568
O  O110  1  0.81920000  0.27720000  0.45800000  1.0 -0.2779159568
O  O111  1  0.81920000  0.36120000  0.54200000  1.0 -0.2779159568
O  O112  1  0.18080000  0.63880000  0.45800000  1.0 -0.2779159568
O  O113  1  0.02690000  0.91790000  0.10900000  1.0 -0.0479969976
O  O114  1  0.19110000  0.08210000  0.10900000  1.0 -0.0479969976
O  O115  1  0.97310000  0.08210000  0.89100000  1.0 -0.0307544008
O  O116  1  0.80890000  0.91790000  0.89100000  1.0 -0.0479969976
