# DDEC6 charges by PACMAN v1.1 (https://github.com/mtap-research/PACMAN-charge/)
data_TIZGOB_ASR_pacman
_symmetry_space_group_name_H-M   'P 1'
_cell_length_a   12.05100000
_cell_length_b   19.35440000
_cell_length_c   19.83140000
_cell_angle_alpha   90.00000000
_cell_angle_beta   90.00000000
_cell_angle_gamma   90.00000000
_symmetry_Int_Tables_number   1
_chemical_formula_structural   Co3H21C28N4O9
_chemical_formula_sum   'Co12 H84 C112 N16 O36'
_cell_volume   4625.47324518
_cell_formula_units_Z   4
loop_
 _symmetry_equiv_pos_site_id
 _symmetry_equiv_pos_as_xyz
  1  'x, y, z'
loop_
 _atom_site_type_symbol
 _atom_site_label
 _atom_site_symmetry_multiplicity
 _atom_site_fract_x
 _atom_site_fract_y
 _atom_site_fract_z
 _atom_site_occupancy
 _atom_site_charge
Co  Co1  1  0.84246000  0.20322000  0.33637000  1.0 0.9107311447
Co  Co2  1  0.34246000  0.29678000  0.66363000  1.0 0.9107311447
Co  Co3  1  0.15754000  0.79678000  0.83637000  1.0 0.9107311447
Co  Co4  1  0.65754000  0.70322000  0.16363000  1.0 0.9107311447
Co  Co5  1  0.15754000  0.79678000  0.66363000  1.0 0.9107311447
Co  Co6  1  0.65754000  0.70322000  0.33637000  1.0 0.9107311447
Co  Co7  1  0.84246000  0.20322000  0.16363000  1.0 0.9107311447
Co  Co8  1  0.34246000  0.29678000  0.83637000  1.0 0.9107311447
Co  Co9  1  0.58489000  0.16414000  0.25000000  1.0 0.7501373667
Co  Co10  1  0.08489000  0.33586000  0.75000000  1.0 0.7501373667
Co  Co11  1  0.41511000  0.83586000  0.75000000  1.0 0.7501373667
Co  Co12  1  0.91511000  0.66414000  0.25000000  1.0 0.7501373667
H  H1  1  0.34600000  0.18144000  0.55477000  1.0 0.0982404672
H  H2  1  0.88961000  0.42350000  0.34987000  1.0 0.1255924519
H  H3  1  0.91075000  0.54063000  0.34776000  1.0 0.0982404672
H  H4  1  0.43557000  0.14744000  0.45777000  1.0 0.1176810641
H  H5  1  0.63435000  0.31309000  0.47863000  1.0 0.1255924519
H  H6  1  0.53313000  0.34409000  0.57108000  1.0 0.093507715
H  H7  1  0.18966000  0.11647000  0.33867000  1.0 0.1088536386
H  H8  1  0.38103000  0.11014000  0.33579000  1.0 0.1088536386
H  H9  1  0.38370000  0.21765000  0.16562000  1.0 0.1088536386
H  H10  1  0.19339000  0.22376000  0.16555000  1.0 0.1088536386
H  H11  1  0.84600000  0.31856000  0.44523000  1.0 0.0982404672
H  H12  1  0.38961000  0.07650000  0.65013000  1.0 0.1255924519
H  H13  1  0.41075000  0.95937000  0.65224000  1.0 0.0982404672
H  H14  1  0.93557000  0.35256000  0.54223000  1.0 0.1176810641
H  H15  1  0.13435000  0.18691000  0.52137000  1.0 0.1255924519
H  H16  1  0.03313000  0.15591000  0.42892000  1.0 0.093507715
H  H17  1  0.68966000  0.38353000  0.66133000  1.0 0.1088536386
H  H18  1  0.88103000  0.38986000  0.66421000  1.0 0.1088536386
H  H19  1  0.88370000  0.28235000  0.83438000  1.0 0.1088536386
H  H20  1  0.69339000  0.27624000  0.83445000  1.0 0.1088536386
H  H21  1  0.65400000  0.81856000  0.05477000  1.0 0.0982404672
H  H22  1  0.11039000  0.57650000  0.84987000  1.0 0.1255924519
H  H23  1  0.08925000  0.45937000  0.84776000  1.0 0.0982404672
H  H24  1  0.56443000  0.85256000  0.95777000  1.0 0.1176810641
H  H25  1  0.36565000  0.68691000  0.97863000  1.0 0.1255924519
H  H26  1  0.46687000  0.65591000  0.07108000  1.0 0.093507715
H  H27  1  0.81034000  0.88353000  0.83867000  1.0 0.1088536386
H  H28  1  0.61897000  0.88986000  0.83579000  1.0 0.1088536386
H  H29  1  0.61630000  0.78235000  0.66562000  1.0 0.1088536386
H  H30  1  0.80661000  0.77624000  0.66555000  1.0 0.1088536386
H  H31  1  0.15400000  0.68144000  0.94523000  1.0 0.0982404672
H  H32  1  0.61039000  0.92350000  0.15013000  1.0 0.1255924519
H  H33  1  0.58925000  0.04063000  0.15224000  1.0 0.0982404672
H  H34  1  0.06443000  0.64744000  0.04223000  1.0 0.1176810641
H  H35  1  0.86565000  0.81309000  0.02137000  1.0 0.1255924519
H  H36  1  0.96687000  0.84409000  0.92892000  1.0 0.093507715
H  H37  1  0.31034000  0.61647000  0.16133000  1.0 0.1088536386
H  H38  1  0.11897000  0.61014000  0.16421000  1.0 0.1088536386
H  H39  1  0.11630000  0.71765000  0.33438000  1.0 0.1088536386
H  H40  1  0.30661000  0.72376000  0.33445000  1.0 0.1088536386
H  H41  1  0.65400000  0.81856000  0.44523000  1.0 0.0982404672
H  H42  1  0.11039000  0.57650000  0.65013000  1.0 0.1255924519
H  H43  1  0.08925000  0.45937000  0.65224000  1.0 0.0982404672
H  H44  1  0.56443000  0.85256000  0.54223000  1.0 0.1176810641
H  H45  1  0.36565000  0.68691000  0.52137000  1.0 0.1255924519
H  H46  1  0.46687000  0.65591000  0.42892000  1.0 0.093507715
H  H47  1  0.81034000  0.88353000  0.66133000  1.0 0.1088536386
H  H48  1  0.61897000  0.88986000  0.66421000  1.0 0.1088536386
H  H49  1  0.61630000  0.78235000  0.83438000  1.0 0.1088536386
H  H50  1  0.80661000  0.77624000  0.83445000  1.0 0.1088536386
H  H51  1  0.15400000  0.68144000  0.55477000  1.0 0.0982404672
H  H52  1  0.61039000  0.92350000  0.34987000  1.0 0.1255924519
H  H53  1  0.58925000  0.04063000  0.34776000  1.0 0.0982404672
H  H54  1  0.06443000  0.64744000  0.45777000  1.0 0.1176810641
H  H55  1  0.86565000  0.81309000  0.47863000  1.0 0.1255924519
H  H56  1  0.96687000  0.84409000  0.57108000  1.0 0.093507715
H  H57  1  0.31034000  0.61647000  0.33867000  1.0 0.1088536386
H  H58  1  0.11897000  0.61014000  0.33579000  1.0 0.1088536386
H  H59  1  0.11630000  0.71765000  0.16562000  1.0 0.1088536386
H  H60  1  0.30661000  0.72376000  0.16555000  1.0 0.1088536386
H  H61  1  0.34600000  0.18144000  0.94523000  1.0 0.0982404672
H  H62  1  0.88961000  0.42350000  0.15013000  1.0 0.1255924519
H  H63  1  0.91075000  0.54063000  0.15224000  1.0 0.0982404672
H  H64  1  0.43557000  0.14744000  0.04223000  1.0 0.1176810641
H  H65  1  0.63435000  0.31309000  0.02137000  1.0 0.1255924519
H  H66  1  0.53313000  0.34409000  0.92892000  1.0 0.093507715
H  H67  1  0.18966000  0.11647000  0.16133000  1.0 0.1088536386
H  H68  1  0.38103000  0.11014000  0.16421000  1.0 0.1088536386
H  H69  1  0.38370000  0.21765000  0.33438000  1.0 0.1088536386
H  H70  1  0.19339000  0.22376000  0.33445000  1.0 0.1088536386
H  H71  1  0.84600000  0.31856000  0.05477000  1.0 0.0982404672
H  H72  1  0.38961000  0.07650000  0.84987000  1.0 0.1255924519
H  H73  1  0.41075000  0.95937000  0.84776000  1.0 0.0982404672
H  H74  1  0.93557000  0.35256000  0.95777000  1.0 0.1176810641
H  H75  1  0.13435000  0.18691000  0.97863000  1.0 0.1255924519
H  H76  1  0.03313000  0.15591000  0.07108000  1.0 0.093507715
H  H77  1  0.68966000  0.38353000  0.83867000  1.0 0.1088536386
H  H78  1  0.88103000  0.38986000  0.83579000  1.0 0.1088536386
H  H79  1  0.88370000  0.28235000  0.66562000  1.0 0.1088536386
H  H80  1  0.69339000  0.27624000  0.66555000  1.0 0.1088536386
H  H81  1  0.80234000  0.13359000  0.25000000  1.0 0.3198600713
H  H82  1  0.30234000  0.36641000  0.75000000  1.0 0.3198600713
H  H83  1  0.19766000  0.86641000  0.75000000  1.0 0.3198600713
H  H84  1  0.69766000  0.63359000  0.25000000  1.0 0.3198600713
C  C1  1  0.40370000  0.20860000  0.53840000  1.0 0.0804854905
C  C2  1  0.89240000  0.44640000  0.30870000  1.0 -0.1719041537
C  C3  1  0.90520000  0.51700000  0.30710000  1.0 0.0608675386
C  C4  1  0.45780000  0.18720000  0.48040000  1.0 -0.1984105348
C  C5  1  0.54650000  0.22680000  0.45670000  1.0 0.0220911177
C  C6  1  0.57490000  0.28590000  0.49250000  1.0 -0.1804912459
C  C7  1  0.51440000  0.30370000  0.54840000  1.0 0.0608675386
C  C8  1  0.61150000  0.20690000  0.39470000  1.0 0.5502775688
C  C9  1  0.22840000  0.13610000  0.30300000  1.0 -0.1017544564
C  C10  1  0.34360000  0.13310000  0.30140000  1.0 -0.0526849642
C  C11  1  0.34480000  0.19660000  0.20050000  1.0 -0.0274685776
C  C12  1  0.22980000  0.20020000  0.19990000  1.0 -0.1017544564
C  C13  1  0.90370000  0.29140000  0.46160000  1.0 0.0804854905
C  C14  1  0.39240000  0.05360000  0.69130000  1.0 -0.1719041537
C  C15  1  0.40520000  0.98300000  0.69290000  1.0 0.0608675386
C  C16  1  0.95780000  0.31280000  0.51960000  1.0 -0.1984105348
C  C17  1  0.04650000  0.27320000  0.54330000  1.0 0.0220911177
C  C18  1  0.07490000  0.21410000  0.50750000  1.0 -0.1804912459
C  C19  1  0.01440000  0.19630000  0.45160000  1.0 0.0608675386
C  C20  1  0.11150000  0.29310000  0.60530000  1.0 0.5502775688
C  C21  1  0.72840000  0.36390000  0.69700000  1.0 -0.1017544564
C  C22  1  0.84360000  0.36690000  0.69860000  1.0 -0.0526849642
C  C23  1  0.84480000  0.30340000  0.79950000  1.0 -0.0274685776
C  C24  1  0.72980000  0.29980000  0.80010000  1.0 -0.1017544564
C  C25  1  0.59630000  0.79140000  0.03840000  1.0 0.0804854905
C  C26  1  0.10760000  0.55360000  0.80870000  1.0 -0.1719041537
C  C27  1  0.09480000  0.48300000  0.80710000  1.0 0.0608675386
C  C28  1  0.54220000  0.81280000  0.98040000  1.0 -0.1984105348
C  C29  1  0.45350000  0.77320000  0.95670000  1.0 0.0220911177
C  C30  1  0.42510000  0.71410000  0.99250000  1.0 -0.1804912459
C  C31  1  0.48560000  0.69630000  0.04840000  1.0 0.0608675386
C  C32  1  0.38850000  0.79310000  0.89470000  1.0 0.5502775688
C  C33  1  0.77160000  0.86390000  0.80300000  1.0 -0.1017544564
C  C34  1  0.65640000  0.86690000  0.80140000  1.0 -0.0526849642
C  C35  1  0.65520000  0.80340000  0.70050000  1.0 -0.0274685776
C  C36  1  0.77020000  0.79980000  0.69990000  1.0 -0.1017544564
C  C37  1  0.09630000  0.70860000  0.96160000  1.0 0.0804854905
C  C38  1  0.60760000  0.94640000  0.19130000  1.0 -0.1719041537
C  C39  1  0.59480000  0.01700000  0.19290000  1.0 0.0608675386
C  C40  1  0.04220000  0.68720000  0.01960000  1.0 -0.1984105348
C  C41  1  0.95350000  0.72680000  0.04330000  1.0 0.0220911177
C  C42  1  0.92510000  0.78590000  0.00750000  1.0 -0.1804912459
C  C43  1  0.98560000  0.80370000  0.95160000  1.0 0.0608675386
C  C44  1  0.88850000  0.70690000  0.10530000  1.0 0.5502775688
C  C45  1  0.27160000  0.63610000  0.19700000  1.0 -0.1017544564
C  C46  1  0.15640000  0.63310000  0.19860000  1.0 -0.0526849642
C  C47  1  0.15520000  0.69660000  0.29950000  1.0 -0.0274685776
C  C48  1  0.27020000  0.70020000  0.30010000  1.0 -0.1017544564
C  C49  1  0.59630000  0.79140000  0.46160000  1.0 0.0804854905
C  C50  1  0.10760000  0.55360000  0.69130000  1.0 -0.1719041537
C  C51  1  0.09480000  0.48300000  0.69290000  1.0 0.0608675386
C  C52  1  0.54220000  0.81280000  0.51960000  1.0 -0.1984105348
C  C53  1  0.45350000  0.77320000  0.54330000  1.0 0.0220911177
C  C54  1  0.42510000  0.71410000  0.50750000  1.0 -0.1804912459
C  C55  1  0.48560000  0.69630000  0.45160000  1.0 0.0608675386
C  C56  1  0.38850000  0.79310000  0.60530000  1.0 0.5502775688
C  C57  1  0.77160000  0.86390000  0.69700000  1.0 -0.1017544564
C  C58  1  0.65640000  0.86690000  0.69860000  1.0 -0.0526849642
C  C59  1  0.65520000  0.80340000  0.79950000  1.0 -0.0274685776
C  C60  1  0.77020000  0.79980000  0.80010000  1.0 -0.1017544564
C  C61  1  0.09630000  0.70860000  0.53840000  1.0 0.0804854905
C  C62  1  0.60760000  0.94640000  0.30870000  1.0 -0.1719041537
C  C63  1  0.59480000  0.01700000  0.30710000  1.0 0.0608675386
C  C64  1  0.04220000  0.68720000  0.48040000  1.0 -0.1984105348
C  C65  1  0.95350000  0.72680000  0.45670000  1.0 0.0220911177
C  C66  1  0.92510000  0.78590000  0.49250000  1.0 -0.1804912459
C  C67  1  0.98560000  0.80370000  0.54840000  1.0 0.0608675386
C  C68  1  0.88850000  0.70690000  0.39470000  1.0 0.5502775688
C  C69  1  0.27160000  0.63610000  0.30300000  1.0 -0.1017544564
C  C70  1  0.15640000  0.63310000  0.30140000  1.0 -0.0526849642
C  C71  1  0.15520000  0.69660000  0.20050000  1.0 -0.0274685776
C  C72  1  0.27020000  0.70020000  0.19990000  1.0 -0.1017544564
C  C73  1  0.40370000  0.20860000  0.96160000  1.0 0.0804854905
C  C74  1  0.89240000  0.44640000  0.19130000  1.0 -0.1719041537
C  C75  1  0.90520000  0.51700000  0.19290000  1.0 0.0608675386
C  C76  1  0.45780000  0.18720000  0.01960000  1.0 -0.1984105348
C  C77  1  0.54650000  0.22680000  0.04330000  1.0 0.0220911177
C  C78  1  0.57490000  0.28590000  0.00750000  1.0 -0.1804912459
C  C79  1  0.51440000  0.30370000  0.95160000  1.0 0.0608675386
C  C80  1  0.61150000  0.20690000  0.10530000  1.0 0.5502775688
C  C81  1  0.22840000  0.13610000  0.19700000  1.0 -0.1017544564
C  C82  1  0.34360000  0.13310000  0.19860000  1.0 -0.0526849642
C  C83  1  0.34480000  0.19660000  0.29950000  1.0 -0.0274685776
C  C84  1  0.22980000  0.20020000  0.30010000  1.0 -0.1017544564
C  C85  1  0.90370000  0.29140000  0.03840000  1.0 0.0804854905
C  C86  1  0.39240000  0.05360000  0.80870000  1.0 -0.1719041537
C  C87  1  0.40520000  0.98300000  0.80710000  1.0 0.0608675386
C  C88  1  0.95780000  0.31280000  0.98040000  1.0 -0.1984105348
C  C89  1  0.04650000  0.27320000  0.95670000  1.0 0.0220911177
C  C90  1  0.07490000  0.21410000  0.99250000  1.0 -0.1804912459
C  C91  1  0.01440000  0.19630000  0.04840000  1.0 0.0608675386
C  C92  1  0.11150000  0.29310000  0.89470000  1.0 0.5502775688
C  C93  1  0.72840000  0.36390000  0.80300000  1.0 -0.1017544564
C  C94  1  0.84360000  0.36690000  0.80140000  1.0 -0.0526849642
C  C95  1  0.84480000  0.30340000  0.70050000  1.0 -0.0274685776
C  C96  1  0.72980000  0.29980000  0.69990000  1.0 -0.1017544564
C  C97  1  0.86420000  0.33310000  0.25000000  1.0 0.5583747257
C  C98  1  0.17040000  0.16920000  0.25000000  1.0 0.00284245
C  C99  1  0.88400000  0.40960000  0.25000000  1.0 0.0220911177
C  C100  1  0.04360000  0.17460000  0.25000000  1.0 0.523796894
C  C101  1  0.36420000  0.16690000  0.75000000  1.0 0.5583747257
C  C102  1  0.67040000  0.33080000  0.75000000  1.0 0.00284245
C  C103  1  0.38400000  0.09040000  0.75000000  1.0 0.0220911177
C  C104  1  0.54360000  0.32540000  0.75000000  1.0 0.523796894
C  C105  1  0.13580000  0.66690000  0.75000000  1.0 0.5583747257
C  C106  1  0.82960000  0.83080000  0.75000000  1.0 0.00284245
C  C107  1  0.11600000  0.59040000  0.75000000  1.0 0.0220911177
C  C108  1  0.95640000  0.82540000  0.75000000  1.0 0.523796894
C  C109  1  0.63580000  0.83310000  0.25000000  1.0 0.5583747257
C  C110  1  0.32960000  0.66920000  0.25000000  1.0 0.00284245
C  C111  1  0.61600000  0.90960000  0.25000000  1.0 0.0220911177
C  C112  1  0.45640000  0.67460000  0.25000000  1.0 0.523796894
N  N1  1  0.43000000  0.26610000  0.57210000  1.0 -0.2401303459
N  N2  1  0.93000000  0.23390000  0.42790000  1.0 -0.2401303459
N  N3  1  0.57000000  0.73390000  0.07210000  1.0 -0.2401303459
N  N4  1  0.07000000  0.76610000  0.92790000  1.0 -0.2401303459
N  N5  1  0.57000000  0.73390000  0.42790000  1.0 -0.2401303459
N  N6  1  0.07000000  0.76610000  0.57210000  1.0 -0.2401303459
N  N7  1  0.43000000  0.26610000  0.92790000  1.0 -0.2401303459
N  N8  1  0.93000000  0.23390000  0.07210000  1.0 -0.2401303459
N  N9  1  0.90980000  0.55310000  0.25000000  1.0 -0.2481606003
N  N10  1  0.40390000  0.16340000  0.25000000  1.0 -0.0949771847
N  N11  1  0.40980000  0.94690000  0.75000000  1.0 -0.2481606003
N  N12  1  0.90390000  0.33660000  0.75000000  1.0 -0.0949771847
N  N13  1  0.09020000  0.44690000  0.75000000  1.0 -0.2481606003
N  N14  1  0.59610000  0.83660000  0.75000000  1.0 -0.0949771847
N  N15  1  0.59020000  0.05310000  0.25000000  1.0 -0.2481606003
N  N16  1  0.09610000  0.66340000  0.25000000  1.0 -0.0949771847
O  O1  1  0.56680000  0.16500000  0.35428000  1.0 -0.5901579033
O  O2  1  0.70400000  0.23420000  0.38830000  1.0 -0.5445705127
O  O3  1  0.85850000  0.30450000  0.30490000  1.0 -0.5255140286
O  O4  1  0.99890000  0.17480000  0.30440000  1.0 -0.5191491664
O  O5  1  0.06680000  0.33500000  0.64572000  1.0 -0.5901579033
O  O6  1  0.20400000  0.26580000  0.61170000  1.0 -0.5445705127
O  O7  1  0.35850000  0.19550000  0.69510000  1.0 -0.5191491664
O  O8  1  0.49890000  0.32520000  0.69560000  1.0 -0.5191491664
O  O9  1  0.43320000  0.83500000  0.85428000  1.0 -0.5901579033
O  O10  1  0.29600000  0.76580000  0.88830000  1.0 -0.5445705127
O  O11  1  0.14150000  0.69550000  0.80490000  1.0 -0.5191491664
O  O12  1  0.00110000  0.82520000  0.80440000  1.0 -0.5191491664
O  O13  1  0.93320000  0.66500000  0.14572000  1.0 -0.5901579033
O  O14  1  0.79600000  0.73420000  0.11170000  1.0 -0.5445705127
O  O15  1  0.64150000  0.80450000  0.19510000  1.0 -0.5255140286
O  O16  1  0.50110000  0.67480000  0.19560000  1.0 -0.5191491664
O  O17  1  0.43320000  0.83500000  0.64572000  1.0 -0.5901579033
O  O18  1  0.29600000  0.76580000  0.61170000  1.0 -0.5445705127
O  O19  1  0.14150000  0.69550000  0.69510000  1.0 -0.5191491664
O  O20  1  0.00110000  0.82520000  0.69560000  1.0 -0.5191491664
O  O21  1  0.93320000  0.66500000  0.35428000  1.0 -0.5901579033
O  O22  1  0.79600000  0.73420000  0.38830000  1.0 -0.5445705127
O  O23  1  0.64150000  0.80450000  0.30490000  1.0 -0.5255140286
O  O24  1  0.50110000  0.67480000  0.30440000  1.0 -0.5191491664
O  O25  1  0.56680000  0.16500000  0.14572000  1.0 -0.5901579033
O  O26  1  0.70400000  0.23420000  0.11170000  1.0 -0.5445705127
O  O27  1  0.85850000  0.30450000  0.19510000  1.0 -0.5255140286
O  O28  1  0.99890000  0.17480000  0.19560000  1.0 -0.5191491664
O  O29  1  0.06680000  0.33500000  0.85428000  1.0 -0.5901579033
O  O30  1  0.20400000  0.26580000  0.88830000  1.0 -0.5445705127
O  O31  1  0.35850000  0.19550000  0.80490000  1.0 -0.5191491664
O  O32  1  0.49890000  0.32520000  0.80440000  1.0 -0.5191491664
O  O33  1  0.76030000  0.16830000  0.25000000  1.0 -0.8915281516
O  O34  1  0.26030000  0.33170000  0.75000000  1.0 -0.8915281516
O  O35  1  0.23970000  0.83170000  0.75000000  1.0 -0.8915281516
O  O36  1  0.73970000  0.66830000  0.25000000  1.0 -0.8915281516
