# DDEC6 charges by PACMAN v1.1 (https://github.com/mtap-research/PACMAN-charge/)
data_TIZLEW_ASR_pacman
_symmetry_space_group_name_H-M   'P 1'
_cell_length_a   16.69820000
_cell_length_b   16.69820000
_cell_length_c   16.69820000
_cell_angle_alpha   70.06130000
_cell_angle_beta   70.06130000
_cell_angle_gamma   70.06130000
_symmetry_Int_Tables_number   1
_chemical_formula_structural   ZnH7C13O4
_chemical_formula_sum   'Zn6 H42 C78 O24'
_cell_volume   3979.25288996
_cell_formula_units_Z   6
loop_
 _symmetry_equiv_pos_site_id
 _symmetry_equiv_pos_as_xyz
  1  'x, y, z'
loop_
 _atom_site_type_symbol
 _atom_site_label
 _atom_site_symmetry_multiplicity
 _atom_site_fract_x
 _atom_site_fract_y
 _atom_site_fract_z
 _atom_site_occupancy
 _atom_site_charge
Zn  Zn1  1  0.50906000  0.50906000  0.08143000  1.0 0.9476767698
Zn  Zn2  1  0.50906000  0.08143000  0.50906000  1.0 0.9476767698
Zn  Zn3  1  0.08143000  0.50906000  0.50906000  1.0 0.9476767698
Zn  Zn4  1  0.49094000  0.91857000  0.49094000  1.0 0.9476767698
Zn  Zn5  1  0.49094000  0.49094000  0.91857000  1.0 0.9476767698
Zn  Zn6  1  0.91857000  0.49094000  0.49094000  1.0 0.9476767698
H  H1  1  0.21469000  0.51373000  0.00681000  1.0 0.1184870271
H  H2  1  0.93426000  0.58053000  0.10505000  1.0 0.1001045723
H  H3  1  0.15036000  0.43013000  0.97701000  1.0 0.1053370691
H  H4  1  0.51373000  0.00681000  0.21469000  1.0 0.1184870271
H  H5  1  0.58053000  0.10505000  0.93426000  1.0 0.1001045723
H  H6  1  0.43013000  0.97701000  0.15036000  1.0 0.1053370691
H  H7  1  0.00681000  0.21469000  0.51373000  1.0 0.1184870271
H  H8  1  0.10505000  0.93426000  0.58053000  1.0 0.1001045723
H  H9  1  0.97701000  0.15036000  0.43013000  1.0 0.1053370691
H  H10  1  0.78531000  0.99319000  0.48627000  1.0 0.1184870271
H  H11  1  0.06574000  0.89495000  0.41947000  1.0 0.1001045723
H  H12  1  0.84964000  0.02299000  0.56987000  1.0 0.1053370691
H  H13  1  0.48627000  0.78531000  0.99319000  1.0 0.1184870271
H  H14  1  0.41947000  0.06574000  0.89495000  1.0 0.1001045723
H  H15  1  0.56987000  0.84964000  0.02299000  1.0 0.1053370691
H  H16  1  0.99319000  0.48627000  0.78531000  1.0 0.1184870271
H  H17  1  0.89495000  0.41947000  0.06574000  1.0 0.1001045723
H  H18  1  0.02299000  0.56987000  0.84964000  1.0 0.1053370691
H  H19  1  0.78531000  0.48627000  0.99319000  1.0 0.1184870271
H  H20  1  0.06574000  0.41947000  0.89495000  1.0 0.1001045723
H  H21  1  0.84964000  0.56987000  0.02299000  1.0 0.1053370691
H  H22  1  0.48627000  0.99319000  0.78531000  1.0 0.1184870271
H  H23  1  0.41947000  0.89495000  0.06574000  1.0 0.1001045723
H  H24  1  0.56987000  0.02299000  0.84964000  1.0 0.1053370691
H  H25  1  0.99319000  0.78531000  0.48627000  1.0 0.1184870271
H  H26  1  0.89495000  0.06574000  0.41947000  1.0 0.1001045723
H  H27  1  0.02299000  0.84964000  0.56987000  1.0 0.1053370691
H  H28  1  0.21469000  0.00681000  0.51373000  1.0 0.1184870271
H  H29  1  0.93426000  0.10505000  0.58053000  1.0 0.1001045723
H  H30  1  0.15036000  0.97701000  0.43013000  1.0 0.1053370691
H  H31  1  0.51373000  0.21469000  0.00681000  1.0 0.1184870271
H  H32  1  0.58053000  0.93426000  0.10505000  1.0 0.1001045723
H  H33  1  0.43013000  0.15036000  0.97701000  1.0 0.1053370691
H  H34  1  0.00681000  0.51373000  0.21469000  1.0 0.1184870271
H  H35  1  0.10505000  0.58053000  0.93426000  1.0 0.1001045723
H  H36  1  0.97701000  0.43013000  0.15036000  1.0 0.1053370691
H  H37  1  0.23360000  0.52891000  0.23360000  1.0 0.1378283221
H  H38  1  0.52891000  0.23360000  0.23360000  1.0 0.1378283221
H  H39  1  0.23360000  0.23360000  0.52891000  1.0 0.1378283221
H  H40  1  0.76640000  0.76640000  0.47109000  1.0 0.1378283221
H  H41  1  0.47109000  0.76640000  0.76640000  1.0 0.1378283221
H  H42  1  0.76640000  0.47109000  0.76640000  1.0 0.1378283221
C  C1  1  0.33516000  0.51829000  0.07329000  1.0 0.5996512938
C  C2  1  0.23939000  0.52053000  0.11456000  1.0 -0.0242713168
C  C3  1  0.18904000  0.51549000  0.06534000  1.0 -0.1649983358
C  C4  1  0.96150000  0.54450000  0.06230000  1.0 -0.080952984
C  C5  1  0.08727000  0.45777000  0.98777000  1.0 -0.0981515478
C  C6  1  0.51829000  0.07329000  0.33516000  1.0 0.5996512938
C  C7  1  0.52053000  0.11456000  0.23939000  1.0 -0.0242713168
C  C8  1  0.51549000  0.06534000  0.18904000  1.0 -0.1649983358
C  C9  1  0.54450000  0.06230000  0.96150000  1.0 -0.080952984
C  C10  1  0.45777000  0.98777000  0.08727000  1.0 -0.0981515478
C  C11  1  0.07329000  0.33516000  0.51829000  1.0 0.5996512938
C  C12  1  0.11456000  0.23939000  0.52053000  1.0 -0.0242713168
C  C13  1  0.06534000  0.18904000  0.51549000  1.0 -0.1649983358
C  C14  1  0.06230000  0.96150000  0.54450000  1.0 -0.080952984
C  C15  1  0.98777000  0.08727000  0.45777000  1.0 -0.0981515478
C  C16  1  0.66484000  0.92671000  0.48171000  1.0 0.5996512938
C  C17  1  0.76061000  0.88544000  0.47947000  1.0 -0.0242713168
C  C18  1  0.81096000  0.93466000  0.48451000  1.0 -0.1649983358
C  C19  1  0.03850000  0.93770000  0.45550000  1.0 -0.080952984
C  C20  1  0.91273000  0.01223000  0.54223000  1.0 -0.0981515478
C  C21  1  0.48171000  0.66484000  0.92671000  1.0 0.5996512938
C  C22  1  0.47947000  0.76061000  0.88544000  1.0 -0.0242713168
C  C23  1  0.48451000  0.81096000  0.93466000  1.0 -0.1649983358
C  C24  1  0.45550000  0.03850000  0.93770000  1.0 -0.080952984
C  C25  1  0.54223000  0.91273000  0.01223000  1.0 -0.0981515478
C  C26  1  0.92671000  0.48171000  0.66484000  1.0 0.5996512938
C  C27  1  0.88544000  0.47947000  0.76061000  1.0 -0.0242713168
C  C28  1  0.93466000  0.48451000  0.81096000  1.0 -0.1649983358
C  C29  1  0.93770000  0.45550000  0.03850000  1.0 -0.080952984
C  C30  1  0.01223000  0.54223000  0.91273000  1.0 -0.0981515478
C  C31  1  0.66484000  0.48171000  0.92671000  1.0 0.5996512938
C  C32  1  0.76061000  0.47947000  0.88544000  1.0 -0.0242713168
C  C33  1  0.81096000  0.48451000  0.93466000  1.0 -0.1649983358
C  C34  1  0.03850000  0.45550000  0.93770000  1.0 -0.080952984
C  C35  1  0.91273000  0.54223000  0.01223000  1.0 -0.0981515478
C  C36  1  0.48171000  0.92671000  0.66484000  1.0 0.5996512938
C  C37  1  0.47947000  0.88544000  0.76061000  1.0 -0.0242713168
C  C38  1  0.48451000  0.93466000  0.81096000  1.0 -0.1649983358
C  C39  1  0.45550000  0.93770000  0.03850000  1.0 -0.080952984
C  C40  1  0.54223000  0.01223000  0.91273000  1.0 -0.0981515478
C  C41  1  0.92671000  0.66484000  0.48171000  1.0 0.5996512938
C  C42  1  0.88544000  0.76061000  0.47947000  1.0 -0.0242713168
C  C43  1  0.93466000  0.81096000  0.48451000  1.0 -0.1649983358
C  C44  1  0.93770000  0.03850000  0.45550000  1.0 -0.080952984
C  C45  1  0.01223000  0.91273000  0.54223000  1.0 -0.0981515478
C  C46  1  0.33516000  0.07329000  0.51829000  1.0 0.5996512938
C  C47  1  0.23939000  0.11456000  0.52053000  1.0 -0.0242713168
C  C48  1  0.18904000  0.06534000  0.51549000  1.0 -0.1649983358
C  C49  1  0.96150000  0.06230000  0.54450000  1.0 -0.080952984
C  C50  1  0.08727000  0.98777000  0.45777000  1.0 -0.0981515478
C  C51  1  0.51829000  0.33516000  0.07329000  1.0 0.5996512938
C  C52  1  0.52053000  0.23939000  0.11456000  1.0 -0.0242713168
C  C53  1  0.51549000  0.18904000  0.06534000  1.0 -0.1649983358
C  C54  1  0.54450000  0.96150000  0.06230000  1.0 -0.080952984
C  C55  1  0.45777000  0.08727000  0.98777000  1.0 -0.0981515478
C  C56  1  0.07329000  0.51829000  0.33516000  1.0 0.5996512938
C  C57  1  0.11456000  0.52053000  0.23939000  1.0 -0.0242713168
C  C58  1  0.06534000  0.51549000  0.18904000  1.0 -0.1649983358
C  C59  1  0.06230000  0.54450000  0.96150000  1.0 -0.080952984
C  C60  1  0.98777000  0.45777000  0.08727000  1.0 -0.0981515478
C  C61  1  0.10202000  0.51312000  0.10202000  1.0 0.0646246765
C  C62  1  0.20090000  0.52410000  0.20090000  1.0 -0.1152432617
C  C63  1  0.04931000  0.50661000  0.04931000  1.0 0.0366730765
C  C64  1  0.51312000  0.10202000  0.10202000  1.0 0.0646246765
C  C65  1  0.52410000  0.20090000  0.20090000  1.0 -0.1152432617
C  C66  1  0.50661000  0.04931000  0.04931000  1.0 0.0366730765
C  C67  1  0.10202000  0.10202000  0.51312000  1.0 0.0646246765
C  C68  1  0.20090000  0.20090000  0.52410000  1.0 -0.1152432617
C  C69  1  0.04931000  0.04931000  0.50661000  1.0 0.0366730765
C  C70  1  0.89798000  0.89798000  0.48688000  1.0 0.0654352326
C  C71  1  0.79910000  0.79910000  0.47590000  1.0 -0.1152432617
C  C72  1  0.95069000  0.95069000  0.49339000  1.0 0.0366730765
C  C73  1  0.48688000  0.89798000  0.89798000  1.0 0.0654352326
C  C74  1  0.47590000  0.79910000  0.79910000  1.0 -0.1152432617
C  C75  1  0.49339000  0.95069000  0.95069000  1.0 0.0366730765
C  C76  1  0.89798000  0.48688000  0.89798000  1.0 0.0654352326
C  C77  1  0.79910000  0.47590000  0.79910000  1.0 -0.1152432617
C  C78  1  0.95069000  0.49339000  0.95069000  1.0 0.0366730765
O  O1  1  0.37753000  0.52298000  0.12016000  1.0 -0.5388093473
O  O2  1  0.36557000  0.51205000  0.99572000  1.0 -0.5523788612
O  O3  1  0.52298000  0.12016000  0.37753000  1.0 -0.5388093473
O  O4  1  0.51205000  0.99572000  0.36557000  1.0 -0.5523788612
O  O5  1  0.12016000  0.37753000  0.52298000  1.0 -0.5388093473
O  O6  1  0.99572000  0.36557000  0.51205000  1.0 -0.5523788612
O  O7  1  0.62247000  0.87984000  0.47702000  1.0 -0.5388093473
O  O8  1  0.63443000  0.00428000  0.48795000  1.0 -0.5523788612
O  O9  1  0.47702000  0.62247000  0.87984000  1.0 -0.5388093473
O  O10  1  0.48795000  0.63443000  0.00428000  1.0 -0.5523788612
O  O11  1  0.87984000  0.47702000  0.62247000  1.0 -0.5388093473
O  O12  1  0.00428000  0.48795000  0.63443000  1.0 -0.5523788612
O  O13  1  0.62247000  0.47702000  0.87984000  1.0 -0.5388093473
O  O14  1  0.63443000  0.48795000  0.00428000  1.0 -0.5523788612
O  O15  1  0.47702000  0.87984000  0.62247000  1.0 -0.5388093473
O  O16  1  0.48795000  0.00428000  0.63443000  1.0 -0.5523788612
O  O17  1  0.87984000  0.62247000  0.47702000  1.0 -0.5388093473
O  O18  1  0.00428000  0.63443000  0.48795000  1.0 -0.5523788612
O  O19  1  0.37753000  0.12016000  0.52298000  1.0 -0.5388093473
O  O20  1  0.36557000  0.99572000  0.51205000  1.0 -0.5523788612
O  O21  1  0.52298000  0.37753000  0.12016000  1.0 -0.5388093473
O  O22  1  0.51205000  0.36557000  0.99572000  1.0 -0.5523788612
O  O23  1  0.12016000  0.52298000  0.37753000  1.0 -0.5388093473
O  O24  1  0.99572000  0.51205000  0.36557000  1.0 -0.5523788612
