# DDEC6 charges by PACMAN v1.1 (https://github.com/mtap-research/PACMAN-charge/)
data_TIZVED01_ion_pacman
_symmetry_space_group_name_H-M   'P 1'
_cell_length_a   14.46830000
_cell_length_b   14.46830000
_cell_length_c   13.36700000
_cell_angle_alpha   84.93010000
_cell_angle_beta   95.06990000
_cell_angle_gamma   38.74720000
_symmetry_Int_Tables_number   1
_chemical_formula_structural   CuBH16C20(NF)4
_chemical_formula_sum   'Cu2 B2 H32 C40 N8 F8'
_cell_volume   1688.02629522
_cell_formula_units_Z   2
loop_
 _symmetry_equiv_pos_site_id
 _symmetry_equiv_pos_as_xyz
  1  'x, y, z'
loop_
 _atom_site_type_symbol
 _atom_site_label
 _atom_site_symmetry_multiplicity
 _atom_site_fract_x
 _atom_site_fract_y
 _atom_site_fract_z
 _atom_site_occupancy
 _atom_site_charge
Cu  Cu1  1  0.95751000  0.81571000  0.01850000  1.0 0.7981432164
Cu  Cu2  1  0.18429000  0.04249000  0.51850000  1.0 0.7981432164
B  B1  1  0.26190000  0.39190000  0.43900000  1.0 0.9499207819
B  B2  1  0.60810000  0.73810000  0.93900000  1.0 0.9499207819
H  H1  1  0.42810000  0.42130000  0.32610000  1.0 0.1397620182
H  H2  1  0.57870000  0.57190000  0.82610000  1.0 0.1397620182
H  H3  1  0.70530000  0.43070000  0.17800000  1.0 0.1205014161
H  H4  1  0.56930000  0.29470000  0.67800000  1.0 0.1205014161
H  H5  1  0.59480000  0.25280000  0.48800000  1.0 0.1205014161
H  H6  1  0.74720000  0.40520000  0.98800000  1.0 0.1205014161
H  H7  1  0.73590000  0.17750000  0.45630000  1.0 0.1205014161
H  H8  1  0.82250000  0.26410000  0.95630000  1.0 0.1205014161
H  H9  1  0.71500000  0.25040000  0.53240000  1.0 0.1397620182
H  H10  1  0.74960000  0.28500000  0.03240000  1.0 0.1397620182
H  H11  1  0.50710000  0.57230000  0.02270000  1.0 0.1205014161
H  H12  1  0.42770000  0.49290000  0.52270000  1.0 0.1205014161
H  H13  1  0.43810000  0.69970000  0.07660000  1.0 0.1397620182
H  H14  1  0.30030000  0.56190000  0.57660000  1.0 0.1397620182
H  H15  1  0.34350000  0.68830000  0.03780000  1.0 0.1292216297
H  H16  1  0.31170000  0.65650000  0.53780000  1.0 0.1292216297
H  H17  1  0.67000000  0.77320000  0.15270000  1.0 0.1292216297
H  H18  1  0.22680000  0.33000000  0.65270000  1.0 0.1292216297
H  H19  1  0.45640000  0.09780000  0.36610000  1.0 0.1292216297
H  H20  1  0.90220000  0.54360000  0.86610000  1.0 0.1292216297
H  H21  1  0.57360000  0.69700000  0.24990000  1.0 0.1397620182
H  H22  1  0.30300000  0.42640000  0.74990000  1.0 0.1397620182
H  H23  1  0.41430000  0.83830000  0.26930000  1.0 0.1292216297
H  H24  1  0.16170000  0.58570000  0.76930000  1.0 0.1292216297
H  H25  1  0.43730000  0.83750000  0.15810000  1.0 0.1397620182
H  H26  1  0.16250000  0.56270000  0.65810000  1.0 0.1397620182
H  H27  1  0.60820000  0.13180000  0.22610000  1.0 0.1292216297
H  H28  1  0.86820000  0.39180000  0.72610000  1.0 0.1292216297
H  H29  1  0.59340000  0.13040000  0.33960000  1.0 0.1292216297
H  H30  1  0.86960000  0.40660000  0.83960000  1.0 0.1292216297
H  H31  1  0.74920000  0.99040000  0.31570000  1.0 0.1292216297
H  H32  1  0.00960000  0.25080000  0.81570000  1.0 0.1292216297
C  C1  1  0.27400000  0.61600000  0.14600000  1.0 0.374054023
C  C2  1  0.38400000  0.72600000  0.64600000  1.0 0.374054023
C  C3  1  0.43000000  0.51800000  0.21200000  1.0 0.0004856875
C  C4  1  0.48200000  0.57000000  0.71200000  1.0 0.0004856875
C  C5  1  0.48330000  0.42330000  0.30200000  1.0 -0.1675591385
C  C6  1  0.57670000  0.51670000  0.80200000  1.0 -0.1675591385
C  C7  1  0.62690000  0.33090000  0.36900000  1.0 0.1397620182
C  C8  1  0.66910000  0.37310000  0.86900000  1.0 0.1397620182
C  C9  1  0.70970000  0.33770000  0.33200000  1.0 -0.0642359174
C  C10  1  0.66230000  0.29030000  0.83200000  1.0 -0.0642359174
C  C11  1  0.65060000  0.43260000  0.23000000  1.0 -0.1600348084
C  C12  1  0.56740000  0.34940000  0.73000000  1.0 -0.1600348084
C  C13  1  0.50680000  0.52680000  0.17280000  1.0 0.1205014161
C  C14  1  0.47320000  0.49320000  0.67280000  1.0 0.1205014161
C  C15  1  0.85020000  0.25020000  0.39000000  1.0 0.2605258608
C  C16  1  0.74980000  0.14980000  0.89000000  1.0 0.2605258608
C  C17  1  0.68960000  0.22960000  0.47100000  1.0 -0.3646628177
C  C18  1  0.77040000  0.31040000  0.97100000  1.0 -0.3646628177
C  C19  1  0.44590000  0.62790000  0.06600000  1.0 -0.4495002991
C  C20  1  0.37210000  0.55410000  0.56600000  1.0 -0.4495002991
C  C21  1  0.76310000  0.86510000  0.16000000  1.0 0.3492500419
C  C22  1  0.13490000  0.23690000  0.66000000  1.0 0.3492500419
C  C23  1  0.65500000  0.90500000  0.21150000  1.0 -0.0072110057
C  C24  1  0.09500000  0.34500000  0.71150000  1.0 -0.0072110057
C  C25  1  0.62370000  0.83570000  0.19800000  1.0 -0.1239473587
C  C26  1  0.16430000  0.37630000  0.69800000  1.0 -0.1239473587
C  C27  1  0.52450000  0.86650000  0.24720000  1.0 0.1205014161
C  C28  1  0.13350000  0.47550000  0.74720000  1.0 0.1205014161
C  C29  1  0.45630000  0.97430000  0.30900000  1.0 -0.003446462
C  C30  1  0.02570000  0.54370000  0.80900000  1.0 -0.003446462
C  C31  1  0.49790000  0.03190000  0.32700000  1.0 -0.1600348084
C  C32  1  0.96810000  0.50210000  0.82700000  1.0 -0.1600348084
C  C33  1  0.59960000  0.99360000  0.27600000  1.0 0.1397620182
C  C34  1  0.00640000  0.40040000  0.77600000  1.0 0.1397620182
C  C35  1  0.35890000  0.00290000  0.37100000  1.0 0.3492500419
C  C36  1  0.99710000  0.64110000  0.87100000  1.0 0.3492500419
C  C37  1  0.47630000  0.81230000  0.23100000  1.0 -0.4278716138
C  C38  1  0.18770000  0.52370000  0.73100000  1.0 -0.4278716138
C  C39  1  0.63630000  0.07230000  0.29700000  1.0 -0.42225667
C  C40  1  0.92770000  0.36370000  0.79700000  1.0 -0.42225667
N  N1  1  0.16330000  0.68530000  0.10340000  1.0 -0.3785992181
N  N2  1  0.31470000  0.83670000  0.60340000  1.0 -0.3785992181
N  N3  1  0.97610000  0.16810000  0.44340000  1.0 -0.4397881767
N  N4  1  0.83190000  0.02390000  0.94340000  1.0 -0.4397881767
N  N5  1  0.84110000  0.84310000  0.11300000  1.0 -0.3885670519
N  N6  1  0.15690000  0.15890000  0.61300000  1.0 -0.3885670519
N  N7  1  0.28700000  0.02700000  0.41640000  1.0 -0.3785992181
N  N8  1  0.97300000  0.71300000  0.91640000  1.0 -0.3749894714
F  F1  1  0.38990000  0.30790000  0.50400000  1.0 -0.42225667
F  F2  1  0.23830000  0.31630000  0.45140000  1.0 -0.4630975342
F  F3  1  0.29600000  0.38600000  0.34760000  1.0 -0.4278716138
F  F4  1  0.15850000  0.52250000  0.46160000  1.0 -0.4397881767
F  F5  1  0.69210000  0.61010000  0.00400000  1.0 -0.42225667
F  F6  1  0.68370000  0.76170000  0.95140000  1.0 -0.4630975342
F  F7  1  0.61400000  0.70400000  0.84760000  1.0 -0.4278716138
F  F8  1  0.47750000  0.84150000  0.96160000  1.0 -0.4397881767
