# DDEC6 charges by PACMAN v1.1 (https://github.com/mtap-research/PACMAN-charge/)
data_TOCNUX_FSR_pacman
_symmetry_space_group_name_H-M   'P 1'
_cell_length_a   12.98000000
_cell_length_b   13.54200000
_cell_length_c   15.45200000
_cell_angle_alpha   83.79300000
_cell_angle_beta   67.49100000
_cell_angle_gamma   76.31400000
_symmetry_Int_Tables_number   1
_chemical_formula_structural   Cr2Cu3Mo12H40C36(N3O14)4
_chemical_formula_sum   'Cr2 Cu3 Mo12 H40 C36 N12 O56'
_cell_volume   2437.45684309
_cell_formula_units_Z   1
loop_
 _symmetry_equiv_pos_site_id
 _symmetry_equiv_pos_as_xyz
  1  'x, y, z'
loop_
 _atom_site_type_symbol
 _atom_site_label
 _atom_site_symmetry_multiplicity
 _atom_site_fract_x
 _atom_site_fract_y
 _atom_site_fract_z
 _atom_site_occupancy
 _atom_site_charge
Cr  Cr1  1  0.00000000  0.00000000  0.00000000  1.0 1.6161716799
Cr  Cr2  1  0.00000000  0.50000000  0.00000000  1.0 1.6355133872
Cu  Cu1  1  0.16832000  0.23645000  0.68847000  1.0 1.01650425
Cu  Cu2  1  0.83168000  0.76355000  0.31153000  1.0 1.01650425
Cu  Cu3  1  0.50000000  0.50000000  0.00000000  1.0 1.4200286488
Mo  Mo1  1  0.15357000  0.49240000  0.76966000  1.0 2.138119183
Mo  Mo2  1  0.23072000  0.08911000  0.87100000  1.0 2.087050138
Mo  Mo3  1  0.10756000  0.97604000  0.76846000  1.0 2.138119183
Mo  Mo4  1  0.92830000  0.38376000  0.86193000  1.0 2.087050138
Mo  Mo5  1  0.23007000  0.60530000  0.91009000  1.0 2.0793412547
Mo  Mo6  1  0.87990000  0.87803000  0.90009000  1.0 2.0330103258
Mo  Mo7  1  0.84643000  0.50760000  0.23034000  1.0 2.138119183
Mo  Mo8  1  0.76928000  0.91089000  0.12900000  1.0 2.087050138
Mo  Mo9  1  0.89244000  0.02396000  0.23154000  1.0 2.138119183
Mo  Mo10  1  0.07170000  0.61624000  0.13807000  1.0 2.087050138
Mo  Mo11  1  0.76993000  0.39470000  0.08991000  1.0 2.087050138
Mo  Mo12  1  0.12010000  0.12197000  0.09991000  1.0 2.0330103258
H  H1  1  0.56520000  0.43440000  0.35690000  1.0 0.1573947533
H  H2  1  0.46530000  0.38440000  0.42410000  1.0 0.121421744
H  H3  1  0.21920000  0.06200000  0.52630000  1.0 0.1672426234
H  H4  1  0.04060000  0.43250000  0.34830000  1.0 0.1819658349
H  H5  1  0.09230000  0.13050000  0.43170000  1.0 0.121421744
H  H6  1  0.06130000  0.08360000  0.35890000  1.0 0.1573947533
H  H7  1  0.50180000  0.97160000  0.30110000  1.0 0.1573947533
H  H8  1  0.26080000  0.41740000  0.53460000  1.0 0.1573947533
H  H9  1  0.28070000  0.52750000  0.40490000  1.0 0.1481780331
H  H10  1  0.93390000  0.08690000  0.55400000  1.0 0.128432803
H  H11  1  0.89950000  0.04270000  0.48190000  1.0 0.128432803
H  H12  1  0.16810000  0.53700000  0.31750000  1.0 0.1481780331
H  H13  1  0.31740000  0.96360000  0.39420000  1.0 0.1481780331
H  H14  1  0.89670000  0.20770000  0.39100000  1.0 0.1481780331
H  H15  1  0.00570000  0.25450000  0.35270000  1.0 0.128432803
H  H16  1  0.61550000  0.45050000  0.48480000  1.0 0.128432803
H  H17  1  0.51030000  0.40600000  0.55090000  1.0 0.121421744
H  H18  1  0.61520000  0.25990000  0.34220000  1.0 0.128432803
H  H19  1  0.69820000  0.29780000  0.37620000  1.0 0.1481780331
H  H20  1  0.60460000  0.05990000  0.33960000  1.0 0.1819658349
H  H21  1  0.43480000  0.56560000  0.64310000  1.0 0.1573947533
H  H22  1  0.53470000  0.61560000  0.57590000  1.0 0.121421744
H  H23  1  0.78080000  0.93800000  0.47370000  1.0 0.1672426234
H  H24  1  0.95940000  0.56750000  0.65170000  1.0 0.1819658349
H  H25  1  0.90770000  0.86950000  0.56830000  1.0 0.121421744
H  H26  1  0.93870000  0.91640000  0.64110000  1.0 0.1573947533
H  H27  1  0.49820000  0.02840000  0.69890000  1.0 0.1573947533
H  H28  1  0.73920000  0.58260000  0.46540000  1.0 0.1573947533
H  H29  1  0.71930000  0.47250000  0.59510000  1.0 0.1481780331
H  H30  1  0.06610000  0.91310000  0.44600000  1.0 0.128432803
H  H31  1  0.10050000  0.95730000  0.51810000  1.0 0.128432803
H  H32  1  0.83190000  0.46300000  0.68250000  1.0 0.1481780331
H  H33  1  0.68260000  0.03640000  0.60580000  1.0 0.1481780331
H  H34  1  0.10330000  0.79230000  0.60900000  1.0 0.1481780331
H  H35  1  0.99430000  0.74550000  0.64730000  1.0 0.128432803
H  H36  1  0.38450000  0.54950000  0.51520000  1.0 0.128432803
H  H37  1  0.48970000  0.59400000  0.44910000  1.0 0.121421744
H  H38  1  0.38480000  0.74010000  0.65780000  1.0 0.128432803
H  H39  1  0.30180000  0.70220000  0.62380000  1.0 0.1481780331
H  H40  1  0.39540000  0.94010000  0.66040000  1.0 0.1819658349
C  C1  1  0.54200000  0.39200000  0.41280000  1.0 -0.1786533773
C  C2  1  0.29450000  0.06400000  0.48920000  1.0 -0.1387805844
C  C3  1  0.08200000  0.43130000  0.38600000  1.0 -0.1240423997
C  C4  1  0.02900000  0.11940000  0.41760000  1.0 -0.1852096845
C  C5  1  0.46700000  0.01000000  0.35530000  1.0 -0.0516566639
C  C6  1  0.21660000  0.42130000  0.49860000  1.0 -0.1498459061
C  C7  1  0.35290000  0.12600000  0.51060000  1.0 0.1370654064
C  C8  1  0.22800000  0.48630000  0.42150000  1.0 -0.060208634
C  C9  1  0.13630000  0.36260000  0.51910000  1.0 0.128432803
C  C10  1  0.06970000  0.36850000  0.46500000  1.0 0.0525663081
C  C11  1  0.96400000  0.05210000  0.49500000  1.0 -0.1299692174
C  C12  1  0.46750000  0.12770000  0.45400000  1.0 0.0589060332
C  C13  1  0.16000000  0.49100000  0.36770000  1.0 -0.0359402751
C  C14  1  0.35340000  0.00600000  0.41080000  1.0 -0.060208634
C  C15  1  0.96000000  0.21850000  0.40600000  1.0 -0.0194663075
C  C16  1  0.53900000  0.44570000  0.49400000  1.0 -0.1387805844
C  C17  1  0.62040000  0.28930000  0.39460000  1.0 -0.0194663075
C  C18  1  0.52760000  0.06360000  0.37510000  1.0 -0.1090783854
C  C19  1  0.45800000  0.60800000  0.58720000  1.0 -0.1786533773
C  C20  1  0.70550000  0.93600000  0.51080000  1.0 -0.1387805844
C  C21  1  0.91800000  0.56870000  0.61400000  1.0 -0.1240423997
C  C22  1  0.97100000  0.88060000  0.58240000  1.0 -0.1852096845
C  C23  1  0.53300000  0.99000000  0.64470000  1.0 -0.0516566639
C  C24  1  0.78340000  0.57870000  0.50140000  1.0 -0.1498459061
C  C25  1  0.64710000  0.87400000  0.48940000  1.0 0.1370654064
C  C26  1  0.77200000  0.51370000  0.57850000  1.0 -0.060208634
C  C27  1  0.86370000  0.63740000  0.48090000  1.0 0.128432803
C  C28  1  0.93030000  0.63150000  0.53500000  1.0 0.0525663081
C  C29  1  0.03600000  0.94790000  0.50500000  1.0 -0.1299692174
C  C30  1  0.53250000  0.87230000  0.54600000  1.0 0.0589060332
C  C31  1  0.84000000  0.50900000  0.63230000  1.0 -0.0359402751
C  C32  1  0.64660000  0.99400000  0.58920000  1.0 -0.060208634
C  C33  1  0.04000000  0.78150000  0.59400000  1.0 -0.0194663075
C  C34  1  0.46100000  0.55430000  0.50600000  1.0 -0.1387805844
C  C35  1  0.37960000  0.71070000  0.60540000  1.0 -0.0194663075
C  C36  1  0.47240000  0.93640000  0.62490000  1.0 -0.1090783854
N  N1  1  0.49250000  0.19550000  0.49760000  1.0 0.2131984751
N  N2  1  0.40710000  0.23020000  0.57600000  1.0 -0.0275327419
N  N3  1  0.32170000  0.19080000  0.58260000  1.0 -0.1724020371
N  N4  1  0.10060000  0.29380000  0.59410000  1.0 -0.2114671101
N  N5  1  0.01730000  0.25970000  0.58500000  1.0 -0.0275327419
N  N6  1  0.00010000  0.30210000  0.51120000  1.0 0.2361795823
N  N7  1  0.50750000  0.80450000  0.50240000  1.0 0.2131984751
N  N8  1  0.59290000  0.76980000  0.42400000  1.0 -0.0275327419
N  N9  1  0.67830000  0.80920000  0.41740000  1.0 -0.1724020371
N  N10  1  0.89940000  0.70620000  0.40590000  1.0 -0.2114671101
N  N11  1  0.98270000  0.74030000  0.41500000  1.0 -0.0275327419
N  N12  1  0.99990000  0.69790000  0.48880000  1.0 0.2345339428
O  O1  1  0.95760000  0.91070000  0.10940000  1.0 -0.8490906139
O  O2  1  0.05180000  0.88950000  0.90830000  1.0 -0.8278085073
O  O3  1  0.84530000  0.00290000  0.00220000  1.0 -0.9030560036
O  O4  1  0.94660000  0.97440000  0.80680000  1.0 -0.7807528754
O  O5  1  0.74800000  0.91290000  0.90160000  1.0 -0.4719080706
O  O6  1  0.94000000  0.76440000  0.84220000  1.0 -0.4763986697
O  O7  1  0.84890000  0.81750000  0.02490000  1.0 -0.7254352351
O  O8  1  0.16700000  0.87410000  0.69700000  1.0 -0.5999245723
O  O9  1  0.23400000  0.97560000  0.80620000  1.0 -0.7705518832
O  O10  1  0.23640000  0.18020000  0.78170000  1.0 -0.661495932
O  O11  1  0.35830000  0.05640000  0.87260000  1.0 -0.4506736874
O  O12  1  0.01620000  0.28070000  0.79090000  1.0 -0.6482199808
O  O13  1  0.22200000  0.38290000  0.70570000  1.0 -0.7077359636
O  O14  1  0.34790000  0.56830000  0.93210000  1.0 -0.5802117964
O  O15  1  0.06160000  0.59400000  0.89640000  1.0 -0.8490906139
O  O16  1  0.07670000  0.39220000  0.90540000  1.0 -0.8659335752
O  O17  1  0.59630000  0.21650000  0.47610000  1.0 -0.1387805844
O  O18  1  0.11510000  0.08030000  0.69450000  1.0 -0.6894922187
O  O19  1  0.13810000  0.50000000  0.02510000  1.0 -0.8770809253
O  O20  1  0.26280000  0.49710000  0.82410000  1.0 -0.7602329333
O  O21  1  0.24750000  0.70930000  0.83870000  1.0 -0.459270823
O  O22  1  0.81030000  0.41280000  0.84460000  1.0 -0.4176120986
O  O23  1  0.87990000  0.31260000  0.97900000  1.0 -0.6894922187
O  O24  1  0.17160000  0.58890000  0.68910000  1.0 -0.5941774626
O  O25  1  0.99690000  0.48890000  0.78980000  1.0 -0.7705518832
O  O26  1  0.91280000  0.28270000  0.48960000  1.0 -0.1786533773
O  O27  1  0.56700000  0.39200000  0.91200000  1.0 -0.6060284157
O  O28  1  0.41100000  0.41600000  0.10200000  1.0 -0.4506736874
O  O29  1  0.04240000  0.08930000  0.89060000  1.0 -0.8598471661
O  O30  1  0.94820000  0.11050000  0.09170000  1.0 -0.8278085073
O  O31  1  0.15470000  0.99710000  0.99780000  1.0 -0.9086197396
O  O32  1  0.05340000  0.02560000  0.19320000  1.0 -0.7807528754
O  O33  1  0.25200000  0.08710000  0.09840000  1.0 -0.4719080706
O  O34  1  0.06000000  0.23560000  0.15780000  1.0 -0.4763986697
O  O35  1  0.15110000  0.18250000  0.97510000  1.0 -0.7254352351
O  O36  1  0.83300000  0.12590000  0.30300000  1.0 -0.5999245723
O  O37  1  0.76600000  0.02440000  0.19380000  1.0 -0.7705518832
O  O38  1  0.76360000  0.81980000  0.21830000  1.0 -0.661495932
O  O39  1  0.64170000  0.94360000  0.12740000  1.0 -0.459270823
O  O40  1  0.98380000  0.71930000  0.20910000  1.0 -0.6482199808
O  O41  1  0.77800000  0.61710000  0.29430000  1.0 -0.7077359636
O  O42  1  0.65210000  0.43170000  0.06790000  1.0 -0.5802117964
O  O43  1  0.93840000  0.40600000  0.10360000  1.0 -0.8385222335
O  O44  1  0.92330000  0.60780000  0.09460000  1.0 -0.8598471661
O  O45  1  0.40370000  0.78350000  0.52390000  1.0 -0.1387805844
O  O46  1  0.88490000  0.91970000  0.30550000  1.0 -0.6894922187
O  O47  1  0.86190000  0.50000000  0.97490000  1.0 -0.8770809253
O  O48  1  0.73720000  0.50290000  0.17590000  1.0 -0.7602329333
O  O49  1  0.75250000  0.29070000  0.16130000  1.0 -0.459270823
O  O50  1  0.18970000  0.58720000  0.15540000  1.0 -0.4176120986
O  O51  1  0.12010000  0.68740000  0.02100000  1.0 -0.6894922187
O  O52  1  0.82840000  0.41110000  0.31090000  1.0 -0.5941774626
O  O53  1  0.00310000  0.51110000  0.21020000  1.0 -0.7705518832
O  O54  1  0.08720000  0.71730000  0.51040000  1.0 -0.1724020371
O  O55  1  0.43300000  0.60800000  0.08800000  1.0 -0.6278732796
O  O56  1  0.58900000  0.58400000  0.89800000  1.0 -0.4506736874
