# DDEC6 charges by PACMAN v1.1 (https://github.com/mtap-research/PACMAN-charge/)
data_TODJUU_ASR_pacman
_symmetry_space_group_name_H-M   'P 1'
_cell_length_a   24.38990000
_cell_length_b   24.38990000
_cell_length_c   17.56670000
_cell_angle_alpha   90.00000000
_cell_angle_beta   90.00000000
_cell_angle_gamma   120.00000000
_symmetry_Int_Tables_number   1
_chemical_formula_structural   Mn11H63C78N12O31
_chemical_formula_sum   'Mn22 H126 C156 N24 O62'
_cell_volume   9049.83905485
_cell_formula_units_Z   2
loop_
 _symmetry_equiv_pos_site_id
 _symmetry_equiv_pos_as_xyz
  1  'x, y, z'
loop_
 _atom_site_type_symbol
 _atom_site_label
 _atom_site_symmetry_multiplicity
 _atom_site_fract_x
 _atom_site_fract_y
 _atom_site_fract_z
 _atom_site_occupancy
 _atom_site_charge
Mn  Mn1  1  0.23641000  0.78804000  0.67141000  1.0 0.9364052511
Mn  Mn2  1  0.55163000  0.76359000  0.67141000  1.0 0.9364052511
Mn  Mn3  1  0.21196000  0.44837000  0.67141000  1.0 0.9364052511
Mn  Mn4  1  0.76359000  0.21196000  0.17141000  1.0 0.9364052511
Mn  Mn5  1  0.44837000  0.23641000  0.17141000  1.0 0.9364052511
Mn  Mn6  1  0.78804000  0.55163000  0.17141000  1.0 0.9364052511
Mn  Mn7  1  0.76359000  0.21196000  0.32859000  1.0 0.9364052511
Mn  Mn8  1  0.44837000  0.23641000  0.32859000  1.0 0.9364052511
Mn  Mn9  1  0.78804000  0.55163000  0.32859000  1.0 0.9364052511
Mn  Mn10  1  0.23641000  0.78804000  0.82859000  1.0 0.9364052511
Mn  Mn11  1  0.55163000  0.76359000  0.82859000  1.0 0.9364052511
Mn  Mn12  1  0.21196000  0.44837000  0.82859000  1.0 0.9364052511
Mn  Mn13  1  0.27661000  0.69652000  0.75000000  1.0 1.0190603829
Mn  Mn14  1  0.41991000  0.72339000  0.75000000  1.0 1.0190603829
Mn  Mn15  1  0.30348000  0.58009000  0.75000000  1.0 1.0190603829
Mn  Mn16  1  0.72339000  0.30348000  0.25000000  1.0 1.0190603829
Mn  Mn17  1  0.58009000  0.27661000  0.25000000  1.0 1.0190603829
Mn  Mn18  1  0.69652000  0.41991000  0.25000000  1.0 1.0190603829
Mn  Mn19  1  0.33333333  0.66666667  0.57622000  1.0 1.0333705641
Mn  Mn20  1  0.66666667  0.33333333  0.07622000  1.0 1.0333705641
Mn  Mn21  1  0.66666667  0.33333333  0.42378000  1.0 1.0333705641
Mn  Mn22  1  0.33333333  0.66666667  0.92378000  1.0 1.0333705641
H  H1  1  0.44310000  0.95390000  0.41920000  1.0 0.1305888969
H  H2  1  0.33050000  0.10930000  0.37880000  1.0 0.1121000371
H  H3  1  0.30090000  0.95470000  0.53560000  1.0 0.1367547012
H  H4  1  0.30250000  0.01350000  0.43440000  1.0 0.1218247199
H  H5  1  0.48720000  0.06510000  0.44220000  1.0 0.1305888969
H  H6  1  0.51040000  0.16130000  0.39330000  1.0 0.1218247199
H  H7  1  0.40920000  0.85230000  0.46100000  1.0 0.1218247199
H  H8  1  0.06890000  0.51920000  0.71700000  1.0 0.071066472
H  H9  1  0.11650000  0.59310000  0.73100000  1.0 0.071066472
H  H10  1  0.08630000  0.54620000  0.80200000  1.0 0.071066472
H  H11  1  0.51080000  0.55690000  0.41920000  1.0 0.1305888969
H  H12  1  0.77880000  0.66950000  0.37880000  1.0 0.1121000371
H  H13  1  0.65380000  0.69910000  0.53560000  1.0 0.1367547012
H  H14  1  0.71100000  0.69750000  0.43440000  1.0 0.1218247199
H  H15  1  0.57790000  0.51280000  0.44220000  1.0 0.1305888969
H  H16  1  0.65090000  0.48960000  0.39330000  1.0 0.1218247199
H  H17  1  0.44310000  0.59080000  0.46100000  1.0 0.1218247199
H  H18  1  0.45030000  0.93110000  0.71700000  1.0 0.071066472
H  H19  1  0.47660000  0.88350000  0.73100000  1.0 0.071066472
H  H20  1  0.45990000  0.91370000  0.80200000  1.0 0.071066472
H  H21  1  0.04610000  0.48920000  0.41920000  1.0 0.1305888969
H  H22  1  0.89070000  0.22120000  0.37880000  1.0 0.1121000371
H  H23  1  0.04530000  0.34620000  0.53560000  1.0 0.1367547012
H  H24  1  0.98650000  0.28900000  0.43440000  1.0 0.1218247199
H  H25  1  0.93490000  0.42210000  0.44220000  1.0 0.1305888969
H  H26  1  0.83870000  0.34910000  0.39330000  1.0 0.1218247199
H  H27  1  0.14770000  0.55690000  0.46100000  1.0 0.1218247199
H  H28  1  0.48080000  0.54970000  0.71700000  1.0 0.071066472
H  H29  1  0.40690000  0.52340000  0.73100000  1.0 0.071066472
H  H30  1  0.45380000  0.54010000  0.80200000  1.0 0.071066472
H  H31  1  0.55690000  0.04610000  0.91920000  1.0 0.1305888969
H  H32  1  0.66950000  0.89070000  0.87880000  1.0 0.1121000371
H  H33  1  0.69910000  0.04530000  0.03560000  1.0 0.1367547012
H  H34  1  0.69750000  0.98650000  0.93440000  1.0 0.1218247199
H  H35  1  0.51280000  0.93490000  0.94220000  1.0 0.1305888969
H  H36  1  0.48960000  0.83870000  0.89330000  1.0 0.1218247199
H  H37  1  0.59080000  0.14770000  0.96100000  1.0 0.1218247199
H  H38  1  0.93110000  0.48080000  0.21700000  1.0 0.071066472
H  H39  1  0.88350000  0.40690000  0.23100000  1.0 0.071066472
H  H40  1  0.91370000  0.45380000  0.30200000  1.0 0.071066472
H  H41  1  0.48920000  0.44310000  0.91920000  1.0 0.1305888969
H  H42  1  0.22120000  0.33050000  0.87880000  1.0 0.1121000371
H  H43  1  0.34620000  0.30090000  0.03560000  1.0 0.1367547012
H  H44  1  0.28900000  0.30250000  0.93440000  1.0 0.1218247199
H  H45  1  0.42210000  0.48720000  0.94220000  1.0 0.1305888969
H  H46  1  0.34910000  0.51040000  0.89330000  1.0 0.1218247199
H  H47  1  0.55690000  0.40920000  0.96100000  1.0 0.1218247199
H  H48  1  0.54970000  0.06890000  0.21700000  1.0 0.071066472
H  H49  1  0.52340000  0.11650000  0.23100000  1.0 0.071066472
H  H50  1  0.54010000  0.08630000  0.30200000  1.0 0.071066472
H  H51  1  0.95390000  0.51080000  0.91920000  1.0 0.1305888969
H  H52  1  0.10930000  0.77880000  0.87880000  1.0 0.1121000371
H  H53  1  0.95470000  0.65380000  0.03560000  1.0 0.1367547012
H  H54  1  0.01350000  0.71100000  0.93440000  1.0 0.1218247199
H  H55  1  0.06510000  0.57790000  0.94220000  1.0 0.1305888969
H  H56  1  0.16130000  0.65090000  0.89330000  1.0 0.1218247199
H  H57  1  0.85230000  0.44310000  0.96100000  1.0 0.1218247199
H  H58  1  0.51920000  0.45030000  0.21700000  1.0 0.071066472
H  H59  1  0.59310000  0.47660000  0.23100000  1.0 0.071066472
H  H60  1  0.54620000  0.45990000  0.30200000  1.0 0.071066472
H  H61  1  0.55690000  0.04610000  0.58080000  1.0 0.1305888969
H  H62  1  0.66950000  0.89070000  0.62120000  1.0 0.1121000371
H  H63  1  0.69910000  0.04530000  0.46440000  1.0 0.1367547012
H  H64  1  0.69750000  0.98650000  0.56560000  1.0 0.1218247199
H  H65  1  0.51280000  0.93490000  0.55780000  1.0 0.1305888969
H  H66  1  0.48960000  0.83870000  0.60670000  1.0 0.1218247199
H  H67  1  0.59080000  0.14770000  0.53900000  1.0 0.1218247199
H  H68  1  0.93110000  0.48080000  0.28300000  1.0 0.071066472
H  H69  1  0.88350000  0.40690000  0.26900000  1.0 0.071066472
H  H70  1  0.91370000  0.45380000  0.19800000  1.0 0.071066472
H  H71  1  0.48920000  0.44310000  0.58080000  1.0 0.1305888969
H  H72  1  0.22120000  0.33050000  0.62120000  1.0 0.1121000371
H  H73  1  0.34620000  0.30090000  0.46440000  1.0 0.1367547012
H  H74  1  0.28900000  0.30250000  0.56560000  1.0 0.1218247199
H  H75  1  0.42210000  0.48720000  0.55780000  1.0 0.1305888969
H  H76  1  0.34910000  0.51040000  0.60670000  1.0 0.1218247199
H  H77  1  0.55690000  0.40920000  0.53900000  1.0 0.1218247199
H  H78  1  0.54970000  0.06890000  0.28300000  1.0 0.071066472
H  H79  1  0.52340000  0.11650000  0.26900000  1.0 0.071066472
H  H80  1  0.54010000  0.08630000  0.19800000  1.0 0.071066472
H  H81  1  0.95390000  0.51080000  0.58080000  1.0 0.1305888969
H  H82  1  0.10930000  0.77880000  0.62120000  1.0 0.1121000371
H  H83  1  0.95470000  0.65380000  0.46440000  1.0 0.1367547012
H  H84  1  0.01350000  0.71100000  0.56560000  1.0 0.1218247199
H  H85  1  0.06510000  0.57790000  0.55780000  1.0 0.1305888969
H  H86  1  0.16130000  0.65090000  0.60670000  1.0 0.1218247199
H  H87  1  0.85230000  0.44310000  0.53900000  1.0 0.1218247199
H  H88  1  0.51920000  0.45030000  0.28300000  1.0 0.071066472
H  H89  1  0.59310000  0.47660000  0.26900000  1.0 0.071066472
H  H90  1  0.54620000  0.45990000  0.19800000  1.0 0.071066472
H  H91  1  0.44310000  0.95390000  0.08080000  1.0 0.1305888969
H  H92  1  0.33050000  0.10930000  0.12120000  1.0 0.1121000371
H  H93  1  0.30090000  0.95470000  0.96440000  1.0 0.1367547012
H  H94  1  0.30250000  0.01350000  0.06560000  1.0 0.1218247199
H  H95  1  0.48720000  0.06510000  0.05780000  1.0 0.1305888969
H  H96  1  0.51040000  0.16130000  0.10670000  1.0 0.1218247199
H  H97  1  0.40920000  0.85230000  0.03900000  1.0 0.1218247199
H  H98  1  0.06890000  0.51920000  0.78300000  1.0 0.071066472
H  H99  1  0.11650000  0.59310000  0.76900000  1.0 0.071066472
H  H100  1  0.08630000  0.54620000  0.69800000  1.0 0.071066472
H  H101  1  0.51080000  0.55690000  0.08080000  1.0 0.1305888969
H  H102  1  0.77880000  0.66950000  0.12120000  1.0 0.1121000371
H  H103  1  0.65380000  0.69910000  0.96440000  1.0 0.1367547012
H  H104  1  0.71100000  0.69750000  0.06560000  1.0 0.1218247199
H  H105  1  0.57790000  0.51280000  0.05780000  1.0 0.1305888969
H  H106  1  0.65090000  0.48960000  0.10670000  1.0 0.1218247199
H  H107  1  0.44310000  0.59080000  0.03900000  1.0 0.1218247199
H  H108  1  0.45030000  0.93110000  0.78300000  1.0 0.071066472
H  H109  1  0.47660000  0.88350000  0.76900000  1.0 0.071066472
H  H110  1  0.45990000  0.91370000  0.69800000  1.0 0.071066472
H  H111  1  0.04610000  0.48920000  0.08080000  1.0 0.1305888969
H  H112  1  0.89070000  0.22120000  0.12120000  1.0 0.1121000371
H  H113  1  0.04530000  0.34620000  0.96440000  1.0 0.1367547012
H  H114  1  0.98650000  0.28900000  0.06560000  1.0 0.1218247199
H  H115  1  0.93490000  0.42210000  0.05780000  1.0 0.1305888969
H  H116  1  0.83870000  0.34910000  0.10670000  1.0 0.1218247199
H  H117  1  0.14770000  0.55690000  0.03900000  1.0 0.1218247199
H  H118  1  0.48080000  0.54970000  0.78300000  1.0 0.071066472
H  H119  1  0.40690000  0.52340000  0.76900000  1.0 0.071066472
H  H120  1  0.45380000  0.54010000  0.69800000  1.0 0.071066472
H  H121  1  0.21900000  0.86800000  0.75000000  1.0 0.4075471259
H  H122  1  0.64900000  0.78100000  0.75000000  1.0 0.4075471259
H  H123  1  0.13200000  0.35100000  0.75000000  1.0 0.4075471259
H  H124  1  0.78100000  0.13200000  0.25000000  1.0 0.4075471259
H  H125  1  0.35100000  0.21900000  0.25000000  1.0 0.4075471259
H  H126  1  0.86800000  0.64900000  0.25000000  1.0 0.4075471259
C  C1  1  0.32040000  0.77850000  0.55370000  1.0 0.429100389
C  C2  1  0.30440000  0.87420000  0.54970000  1.0 0.2948328353
C  C3  1  0.33620000  0.84210000  0.52770000  1.0 -0.1409419902
C  C4  1  0.39110000  0.02680000  0.44060000  1.0 0.1121000371
C  C5  1  0.37350000  0.96320000  0.47180000  1.0 0.0930940977
C  C6  1  0.40700000  0.93320000  0.45120000  1.0 -0.1773259891
C  C7  1  0.36290000  0.10030000  0.39230000  1.0 0.0930940977
C  C8  1  0.32320000  0.93370000  0.52100000  1.0 -0.2533408754
C  C9  1  0.34580000  0.04260000  0.42390000  1.0 -0.1890559422
C  C10  1  0.45400000  0.07310000  0.42940000  1.0 -0.1954310589
C  C11  1  0.46720000  0.12970000  0.40010000  1.0 0.0606705028
C  C12  1  0.38740000  0.87340000  0.47740000  1.0 -0.0783409392
C  C13  1  0.45810000  0.67960000  0.55370000  1.0 0.429100389
C  C14  1  0.56980000  0.69560000  0.54970000  1.0 0.2952516771
C  C15  1  0.50590000  0.66380000  0.52770000  1.0 -0.1409419902
C  C16  1  0.63570000  0.60890000  0.44060000  1.0 0.1121000371
C  C17  1  0.58970000  0.62650000  0.47180000  1.0 0.0930940977
C  C18  1  0.52620000  0.59300000  0.45120000  1.0 -0.1773259891
C  C19  1  0.73740000  0.63710000  0.39230000  1.0 0.0930940977
C  C20  1  0.61050000  0.67680000  0.52100000  1.0 -0.2533408754
C  C21  1  0.69680000  0.65420000  0.42390000  1.0 -0.1890559422
C  C22  1  0.61910000  0.54600000  0.42940000  1.0 -0.1954310589
C  C23  1  0.66250000  0.53280000  0.40010000  1.0 0.0606705028
C  C24  1  0.48600000  0.61260000  0.47740000  1.0 -0.0783409392
C  C25  1  0.22150000  0.54190000  0.55370000  1.0 0.429100389
C  C26  1  0.12580000  0.43020000  0.54970000  1.0 0.2948328353
C  C27  1  0.15790000  0.49410000  0.52770000  1.0 -0.1409419902
C  C28  1  0.97320000  0.36430000  0.44060000  1.0 0.1121000371
C  C29  1  0.03680000  0.41030000  0.47180000  1.0 0.0930940977
C  C30  1  0.06680000  0.47380000  0.45120000  1.0 -0.1773259891
C  C31  1  0.89970000  0.26260000  0.39230000  1.0 0.0930940977
C  C32  1  0.06630000  0.38950000  0.52100000  1.0 -0.2533408754
C  C33  1  0.95740000  0.30320000  0.42390000  1.0 -0.1890559422
C  C34  1  0.92690000  0.38090000  0.42940000  1.0 -0.1954310589
C  C35  1  0.87030000  0.33750000  0.40010000  1.0 0.0606705028
C  C36  1  0.12660000  0.51400000  0.47740000  1.0 -0.0783409392
C  C37  1  0.67960000  0.22150000  0.05370000  1.0 0.429100389
C  C38  1  0.69560000  0.12580000  0.04970000  1.0 0.2948328353
C  C39  1  0.66380000  0.15790000  0.02770000  1.0 -0.1409419902
C  C40  1  0.60890000  0.97320000  0.94060000  1.0 0.1121000371
C  C41  1  0.62650000  0.03680000  0.97180000  1.0 0.0930940977
C  C42  1  0.59300000  0.06680000  0.95120000  1.0 -0.1773259891
C  C43  1  0.63710000  0.89970000  0.89230000  1.0 0.0930940977
C  C44  1  0.67680000  0.06630000  0.02100000  1.0 -0.2533408754
C  C45  1  0.65420000  0.95740000  0.92390000  1.0 -0.1890559422
C  C46  1  0.54600000  0.92690000  0.92940000  1.0 -0.1954310589
C  C47  1  0.53280000  0.87030000  0.90010000  1.0 0.0606705028
C  C48  1  0.61260000  0.12660000  0.97740000  1.0 -0.0783409392
C  C49  1  0.54190000  0.32040000  0.05370000  1.0 0.429100389
C  C50  1  0.43020000  0.30440000  0.04970000  1.0 0.2948328353
C  C51  1  0.49410000  0.33620000  0.02770000  1.0 -0.1409419902
C  C52  1  0.36430000  0.39110000  0.94060000  1.0 0.1121000371
C  C53  1  0.41030000  0.37350000  0.97180000  1.0 0.0930940977
C  C54  1  0.47380000  0.40700000  0.95120000  1.0 -0.1773259891
C  C55  1  0.26260000  0.36290000  0.89230000  1.0 0.0930940977
C  C56  1  0.38950000  0.32320000  0.02100000  1.0 -0.2533408754
C  C57  1  0.30320000  0.34580000  0.92390000  1.0 -0.1890559422
C  C58  1  0.38090000  0.45400000  0.92940000  1.0 -0.1954310589
C  C59  1  0.33750000  0.46720000  0.90010000  1.0 0.0606705028
C  C60  1  0.51400000  0.38740000  0.97740000  1.0 -0.0783409392
C  C61  1  0.77850000  0.45810000  0.05370000  1.0 0.429100389
C  C62  1  0.87420000  0.56980000  0.04970000  1.0 0.2952516771
C  C63  1  0.84210000  0.50590000  0.02770000  1.0 -0.1409419902
C  C64  1  0.02680000  0.63570000  0.94060000  1.0 0.1121000371
C  C65  1  0.96320000  0.58970000  0.97180000  1.0 0.0930940977
C  C66  1  0.93320000  0.52620000  0.95120000  1.0 -0.1773259891
C  C67  1  0.10030000  0.73740000  0.89230000  1.0 0.0930940977
C  C68  1  0.93370000  0.61050000  0.02100000  1.0 -0.2533408754
C  C69  1  0.04260000  0.69680000  0.92390000  1.0 -0.1890559422
C  C70  1  0.07310000  0.61910000  0.92940000  1.0 -0.1954310589
C  C71  1  0.12970000  0.66250000  0.90010000  1.0 0.0606705028
C  C72  1  0.87340000  0.48600000  0.97740000  1.0 -0.0783409392
C  C73  1  0.67960000  0.22150000  0.44630000  1.0 0.429100389
C  C74  1  0.69560000  0.12580000  0.45030000  1.0 0.2948328353
C  C75  1  0.66380000  0.15790000  0.47230000  1.0 -0.1409419902
C  C76  1  0.60890000  0.97320000  0.55940000  1.0 0.1121000371
C  C77  1  0.62650000  0.03680000  0.52820000  1.0 0.0930940977
C  C78  1  0.59300000  0.06680000  0.54880000  1.0 -0.1773259891
C  C79  1  0.63710000  0.89970000  0.60770000  1.0 0.0930940977
C  C80  1  0.67680000  0.06630000  0.47900000  1.0 -0.2533408754
C  C81  1  0.65420000  0.95740000  0.57610000  1.0 -0.1890559422
C  C82  1  0.54600000  0.92690000  0.57060000  1.0 -0.1954310589
C  C83  1  0.53280000  0.87030000  0.59990000  1.0 0.0606705028
C  C84  1  0.61260000  0.12660000  0.52260000  1.0 -0.0783409392
C  C85  1  0.54190000  0.32040000  0.44630000  1.0 0.429100389
C  C86  1  0.43020000  0.30440000  0.45030000  1.0 0.2948328353
C  C87  1  0.49410000  0.33620000  0.47230000  1.0 -0.1409419902
C  C88  1  0.36430000  0.39110000  0.55940000  1.0 0.1121000371
C  C89  1  0.41030000  0.37350000  0.52820000  1.0 0.0930940977
C  C90  1  0.47380000  0.40700000  0.54880000  1.0 -0.1773259891
C  C91  1  0.26260000  0.36290000  0.60770000  1.0 0.0930940977
C  C92  1  0.38950000  0.32320000  0.47900000  1.0 -0.2533408754
C  C93  1  0.30320000  0.34580000  0.57610000  1.0 -0.1890559422
C  C94  1  0.38090000  0.45400000  0.57060000  1.0 -0.1954310589
C  C95  1  0.33750000  0.46720000  0.59990000  1.0 0.0606705028
C  C96  1  0.51400000  0.38740000  0.52260000  1.0 -0.0783409392
C  C97  1  0.77850000  0.45810000  0.44630000  1.0 0.429100389
C  C98  1  0.87420000  0.56980000  0.45030000  1.0 0.2952516771
C  C99  1  0.84210000  0.50590000  0.47230000  1.0 -0.1409419902
C  C100  1  0.02680000  0.63570000  0.55940000  1.0 0.1121000371
C  C101  1  0.96320000  0.58970000  0.52820000  1.0 0.0930940977
C  C102  1  0.93320000  0.52620000  0.54880000  1.0 -0.1773259891
C  C103  1  0.10030000  0.73740000  0.60770000  1.0 0.0930940977
C  C104  1  0.93370000  0.61050000  0.47900000  1.0 -0.2533408754
C  C105  1  0.04260000  0.69680000  0.57610000  1.0 -0.1890559422
C  C106  1  0.07310000  0.61910000  0.57060000  1.0 -0.1890559422
C  C107  1  0.12970000  0.66250000  0.59990000  1.0 0.0606705028
C  C108  1  0.87340000  0.48600000  0.52260000  1.0 -0.0783409392
C  C109  1  0.32040000  0.77850000  0.94630000  1.0 0.429100389
C  C110  1  0.30440000  0.87420000  0.95030000  1.0 0.2952516771
C  C111  1  0.33620000  0.84210000  0.97230000  1.0 -0.1409419902
C  C112  1  0.39110000  0.02680000  0.05940000  1.0 0.1121000371
C  C113  1  0.37350000  0.96320000  0.02820000  1.0 0.0930940977
C  C114  1  0.40700000  0.93320000  0.04880000  1.0 -0.1773259891
C  C115  1  0.36290000  0.10030000  0.10770000  1.0 0.0930940977
C  C116  1  0.32320000  0.93370000  0.97900000  1.0 -0.2533408754
C  C117  1  0.34580000  0.04260000  0.07610000  1.0 -0.1890559422
C  C118  1  0.45400000  0.07310000  0.07060000  1.0 -0.1954310589
C  C119  1  0.46720000  0.12970000  0.09990000  1.0 0.0606705028
C  C120  1  0.38740000  0.87340000  0.02260000  1.0 -0.0783409392
C  C121  1  0.45810000  0.67960000  0.94630000  1.0 0.429100389
C  C122  1  0.56980000  0.69560000  0.95030000  1.0 0.2952516771
C  C123  1  0.50590000  0.66380000  0.97230000  1.0 -0.1409419902
C  C124  1  0.63570000  0.60890000  0.05940000  1.0 0.1121000371
C  C125  1  0.58970000  0.62650000  0.02820000  1.0 0.0930940977
C  C126  1  0.52620000  0.59300000  0.04880000  1.0 -0.1773259891
C  C127  1  0.73740000  0.63710000  0.10770000  1.0 0.0930940977
C  C128  1  0.61050000  0.67680000  0.97900000  1.0 -0.2533408754
C  C129  1  0.69680000  0.65420000  0.07610000  1.0 -0.1890559422
C  C130  1  0.61910000  0.54600000  0.07060000  1.0 -0.1954310589
C  C131  1  0.66250000  0.53280000  0.09990000  1.0 0.0606705028
C  C132  1  0.48600000  0.61260000  0.02260000  1.0 -0.0783409392
C  C133  1  0.22150000  0.54190000  0.94630000  1.0 0.429100389
C  C134  1  0.12580000  0.43020000  0.95030000  1.0 0.2948328353
C  C135  1  0.15790000  0.49410000  0.97230000  1.0 -0.1409419902
C  C136  1  0.97320000  0.36430000  0.05940000  1.0 0.1121000371
C  C137  1  0.03680000  0.41030000  0.02820000  1.0 0.0930940977
C  C138  1  0.06680000  0.47380000  0.04880000  1.0 -0.1773259891
C  C139  1  0.89970000  0.26260000  0.10770000  1.0 0.0930940977
C  C140  1  0.06630000  0.38950000  0.97900000  1.0 -0.2533408754
C  C141  1  0.95740000  0.30320000  0.07610000  1.0 -0.1890559422
C  C142  1  0.92690000  0.38090000  0.07060000  1.0 -0.1954310589
C  C143  1  0.87030000  0.33750000  0.09990000  1.0 0.0606705028
C  C144  1  0.12660000  0.51400000  0.02260000  1.0 -0.0783409392
C  C145  1  0.15780000  0.53860000  0.75000000  1.0 0.6031794644
C  C146  1  0.10250000  0.55030000  0.75000000  1.0 -0.3387531542
C  C147  1  0.38080000  0.84220000  0.75000000  1.0 0.6031794644
C  C148  1  0.44780000  0.89750000  0.75000000  1.0 -0.3387531542
C  C149  1  0.46140000  0.61920000  0.75000000  1.0 0.6031794644
C  C150  1  0.44970000  0.55220000  0.75000000  1.0 -0.3387531542
C  C151  1  0.84220000  0.46140000  0.25000000  1.0 0.6031794644
C  C152  1  0.89750000  0.44970000  0.25000000  1.0 -0.3387531542
C  C153  1  0.61920000  0.15780000  0.25000000  1.0 0.6031794644
C  C154  1  0.55220000  0.10250000  0.25000000  1.0 -0.3387531542
C  C155  1  0.53860000  0.38080000  0.25000000  1.0 0.6031794644
C  C156  1  0.55030000  0.44780000  0.25000000  1.0 -0.3387531542
N  N1  1  0.28294000  0.75624000  0.61330000  1.0 -0.272194058
N  N2  1  0.42185000  0.14372000  0.37980000  1.0 -0.2119422906
N  N3  1  0.47330000  0.71706000  0.61330000  1.0 -0.272194058
N  N4  1  0.72187000  0.57815000  0.37980000  1.0 -0.2119422906
N  N5  1  0.24376000  0.52670000  0.61330000  1.0 -0.272194058
N  N6  1  0.85628000  0.27813000  0.37980000  1.0 -0.2119422906
N  N7  1  0.71706000  0.24376000  0.11330000  1.0 -0.272194058
N  N8  1  0.57815000  0.85628000  0.87980000  1.0 -0.2119422906
N  N9  1  0.52670000  0.28294000  0.11330000  1.0 -0.272194058
N  N10  1  0.27813000  0.42185000  0.87980000  1.0 -0.2119422906
N  N11  1  0.75624000  0.47330000  0.11330000  1.0 -0.272194058
N  N12  1  0.14372000  0.72187000  0.87980000  1.0 -0.2119422906
N  N13  1  0.71706000  0.24376000  0.38670000  1.0 -0.272194058
N  N14  1  0.57815000  0.85628000  0.62020000  1.0 -0.2119422906
N  N15  1  0.52670000  0.28294000  0.38670000  1.0 -0.272194058
N  N16  1  0.27813000  0.42185000  0.62020000  1.0 -0.2119422906
N  N17  1  0.75624000  0.47330000  0.38670000  1.0 -0.272194058
N  N18  1  0.14372000  0.72187000  0.62020000  1.0 -0.2119422906
N  N19  1  0.28294000  0.75624000  0.88670000  1.0 -0.272194058
N  N20  1  0.42185000  0.14372000  0.12020000  1.0 -0.2119422906
N  N21  1  0.47330000  0.71706000  0.88670000  1.0 -0.272194058
N  N22  1  0.72187000  0.57815000  0.12020000  1.0 -0.2119422906
N  N23  1  0.24376000  0.52670000  0.88670000  1.0 -0.272194058
N  N24  1  0.85628000  0.27813000  0.12020000  1.0 -0.2119422906
O  O1  1  0.25535000  0.85005000  0.59878000  1.0 -0.4896766398
O  O2  1  0.27555000  0.69755000  0.63936000  1.0 -0.4136111268
O  O3  1  0.34445000  0.74927000  0.52034000  1.0 -0.4732345942
O  O4  1  0.59470000  0.74465000  0.59878000  1.0 -0.4896766398
O  O5  1  0.42200000  0.72445000  0.63936000  1.0 -0.4136111268
O  O6  1  0.40482000  0.65555000  0.52034000  1.0 -0.4732345942
O  O7  1  0.14995000  0.40530000  0.59878000  1.0 -0.4896766398
O  O8  1  0.30245000  0.57800000  0.63936000  1.0 -0.4136111268
O  O9  1  0.25073000  0.59518000  0.52034000  1.0 -0.4732345942
O  O10  1  0.74465000  0.14995000  0.09878000  1.0 -0.4896766398
O  O11  1  0.72445000  0.30245000  0.13936000  1.0 -0.4136111268
O  O12  1  0.65555000  0.25073000  0.02034000  1.0 -0.4732345942
O  O13  1  0.40530000  0.25535000  0.09878000  1.0 -0.4896766398
O  O14  1  0.57800000  0.27555000  0.13936000  1.0 -0.4136111268
O  O15  1  0.59518000  0.34445000  0.02034000  1.0 -0.4732345942
O  O16  1  0.85005000  0.59470000  0.09878000  1.0 -0.4896766398
O  O17  1  0.69755000  0.42200000  0.13936000  1.0 -0.4136111268
O  O18  1  0.74927000  0.40482000  0.02034000  1.0 -0.4732345942
O  O19  1  0.74465000  0.14995000  0.40122000  1.0 -0.4896766398
O  O20  1  0.72445000  0.30245000  0.36064000  1.0 -0.4136111268
O  O21  1  0.65555000  0.25073000  0.47966000  1.0 -0.4732345942
O  O22  1  0.40530000  0.25535000  0.40122000  1.0 -0.4896766398
O  O23  1  0.57800000  0.27555000  0.36064000  1.0 -0.4136111268
O  O24  1  0.59518000  0.34445000  0.47966000  1.0 -0.4732345942
O  O25  1  0.85005000  0.59470000  0.40122000  1.0 -0.4896766398
O  O26  1  0.69755000  0.42200000  0.36064000  1.0 -0.4136111268
O  O27  1  0.74927000  0.40482000  0.47966000  1.0 -0.4732345942
O  O28  1  0.25535000  0.85005000  0.90122000  1.0 -0.4896766398
O  O29  1  0.27555000  0.69755000  0.86064000  1.0 -0.4136111268
O  O30  1  0.34445000  0.74927000  0.97966000  1.0 -0.4732345942
O  O31  1  0.59470000  0.74465000  0.90122000  1.0 -0.4896766398
O  O32  1  0.42200000  0.72445000  0.86064000  1.0 -0.4136111268
O  O33  1  0.40482000  0.65555000  0.97966000  1.0 -0.4732345942
O  O34  1  0.14995000  0.40530000  0.90122000  1.0 -0.4896766398
O  O35  1  0.30245000  0.57800000  0.86064000  1.0 -0.4136111268
O  O36  1  0.25073000  0.59518000  0.97966000  1.0 -0.4732345942
O  O37  1  0.22289000  0.73035000  0.75000000  1.0 -0.7330051763
O  O38  1  0.21363000  0.58588000  0.75000000  1.0 -0.5255970263
O  O39  1  0.14648000  0.48253000  0.75000000  1.0 -0.5474899911
O  O40  1  0.20724000  0.82334000  0.75000000  1.0 -0.7463772201
O  O41  1  0.50746000  0.77711000  0.75000000  1.0 -0.7330051763
O  O42  1  0.37225000  0.78637000  0.75000000  1.0 -0.5255970263
O  O43  1  0.33605000  0.85352000  0.75000000  1.0 -0.5474899911
O  O44  1  0.61610000  0.79276000  0.75000000  1.0 -0.7463772201
O  O45  1  0.26965000  0.49254000  0.75000000  1.0 -0.7330051763
O  O46  1  0.41412000  0.62775000  0.75000000  1.0 -0.5255970263
O  O47  1  0.51747000  0.66395000  0.75000000  1.0 -0.5474899911
O  O48  1  0.17666000  0.38390000  0.75000000  1.0 -0.7463772201
O  O49  1  0.77711000  0.26965000  0.25000000  1.0 -0.7330051763
O  O50  1  0.78637000  0.41412000  0.25000000  1.0 -0.5255970263
O  O51  1  0.85352000  0.51747000  0.25000000  1.0 -0.5474899911
O  O52  1  0.79276000  0.17666000  0.25000000  1.0 -0.7463772201
O  O53  1  0.49254000  0.22289000  0.25000000  1.0 -0.7330051763
O  O54  1  0.62775000  0.21363000  0.25000000  1.0 -0.5245702171
O  O55  1  0.66395000  0.14648000  0.25000000  1.0 -0.5474899911
O  O56  1  0.38390000  0.20724000  0.25000000  1.0 -0.7463772201
O  O57  1  0.73035000  0.50746000  0.25000000  1.0 -0.7330051763
O  O58  1  0.58588000  0.37225000  0.25000000  1.0 -0.5255970263
O  O59  1  0.48253000  0.33605000  0.25000000  1.0 -0.5474899911
O  O60  1  0.82334000  0.61610000  0.25000000  1.0 -0.7463772201
O  O61  1  0.33333333  0.66666667  0.75000000  1.0 -0.7646292948
O  O62  1  0.66666667  0.33333333  0.25000000  1.0 -0.7646292948
