# DDEC6 charges by PACMAN v1.1 (https://github.com/mtap-research/PACMAN-charge/)
data_TODLEG_FSR_pacman
_symmetry_space_group_name_H-M   'P 1'
_cell_length_a   17.00750000
_cell_length_b   17.00750000
_cell_length_c   17.00750000
_cell_angle_alpha   156.34100000
_cell_angle_beta   118.51200000
_cell_angle_gamma   66.84090000
_symmetry_Int_Tables_number   1
_chemical_formula_structural   Cu4H9(C4O5)4
_chemical_formula_sum   'Cu8 H18 C32 O40'
_cell_volume   1721.21009265
_cell_formula_units_Z   2
loop_
 _symmetry_equiv_pos_site_id
 _symmetry_equiv_pos_as_xyz
  1  'x, y, z'
loop_
 _atom_site_type_symbol
 _atom_site_label
 _atom_site_symmetry_multiplicity
 _atom_site_fract_x
 _atom_site_fract_y
 _atom_site_fract_z
 _atom_site_occupancy
 _atom_site_charge
Cu  Cu1  1  0.37193000  0.42161000  0.43056000  1.0 1.0137943733
Cu  Cu2  1  0.48609000  0.29031000  0.52574000  1.0 1.1040787407
Cu  Cu3  1  0.00895000  0.57839000  0.95032000  1.0 1.0151226827
Cu  Cu4  1  0.23543000  0.70969000  0.19578000  1.0 1.1040787407
Cu  Cu5  1  0.99105000  0.94137000  0.56944000  1.0 1.0137943733
Cu  Cu6  1  0.76457000  0.96035000  0.47426000  1.0 1.1040787407
Cu  Cu7  1  0.62807000  0.05863000  0.04968000  1.0 1.0137943733
Cu  Cu8  1  0.51391000  0.03965000  0.80422000  1.0 1.1040787407
H  H1  1  0.56140000  0.69090000  0.83790000  1.0 0.1214986433
H  H2  1  0.62360000  0.33440000  0.48700000  1.0 0.1508256937
H  H3  1  0.68380000  0.54500000  0.70360000  1.0 0.1508256937
H  H4  1  0.12400000  0.15630000  0.14430000  1.0 0.1281618819
H  H5  1  0.14700000  0.30910000  0.87050000  1.0 0.1214986433
H  H6  1  0.15260000  0.66560000  0.28920000  1.0 0.1508256937
H  H7  1  0.15860000  0.45500000  0.13880000  1.0 0.1508256937
H  H8  1  0.98800000  0.84370000  0.96770000  1.0 0.1281618819
H  H9  1  0.85300000  0.72350000  0.16210000  1.0 0.1214986433
H  H10  1  0.84740000  0.13660000  0.51300000  1.0 0.1508256937
H  H11  1  0.84140000  0.98020000  0.29640000  1.0 0.1508256937
H  H12  1  0.01200000  0.97970000  0.85570000  1.0 0.1281618819
H  H13  1  0.43860000  0.27650000  0.12950000  1.0 0.1214986433
H  H14  1  0.37640000  0.86340000  0.71080000  1.0 0.1508256937
H  H15  1  0.31620000  0.01980000  0.86120000  1.0 0.1508256937
H  H16  1  0.87600000  0.02030000  0.03230000  1.0 0.1281618819
H  H17  1  0.25790000  0.00000000  0.25790000  1.0 0.1356031307
H  H18  1  0.74210000  0.00000000  0.74210000  1.0 0.1356031307
C  C1  1  0.53074000  0.62204000  0.64370000  1.0 0.5275064417
C  C2  1  0.55041000  0.56641000  0.68720000  1.0 0.0725520907
C  C3  1  0.63576000  0.46536000  0.63820000  1.0 -0.4029123477
C  C4  1  0.66915000  0.43865000  0.71210000  1.0 0.655792863
C  C5  1  0.28911000  0.20151000  0.32360000  1.0 0.5833531477
C  C6  1  0.20346000  0.09506000  0.21820000  1.0 -0.0244700603
C  C7  1  0.12336000  0.09336000  0.13620000  1.0 -0.1316013129
C  C8  1  0.02166000  0.37796000  0.90870000  1.0 0.5275064417
C  C9  1  0.12079000  0.43359000  0.98400000  1.0 0.0725520907
C  C10  1  0.17284000  0.53464000  0.17040000  1.0 -0.4029123477
C  C11  1  0.27345000  0.56135000  0.23050000  1.0 0.655792863
C  C12  1  0.12209000  0.79849000  0.08760000  1.0 0.5833531477
C  C13  1  0.12314000  0.90494000  0.10840000  1.0 -0.0264973744
C  C14  1  0.04284000  0.90664000  0.03000000  1.0 -0.1316013129
C  C15  1  0.97834000  0.88704000  0.35630000  1.0 0.5275064417
C  C16  1  0.87921000  0.86321000  0.31280000  1.0 0.0725520907
C  C17  1  0.82716000  0.99756000  0.36180000  1.0 -0.4029123477
C  C18  1  0.72655000  0.95705000  0.28790000  1.0 0.655792863
C  C19  1  0.87791000  0.96551000  0.67640000  1.0 0.5833531477
C  C20  1  0.87686000  0.98526000  0.78180000  1.0 -0.0244700603
C  C21  1  0.95716000  0.98716000  0.86380000  1.0 -0.1316013129
C  C22  1  0.46926000  0.11296000  0.09130000  1.0 0.5275064417
C  C23  1  0.44959000  0.13679000  0.01600000  1.0 0.0725520907
C  C24  1  0.36424000  0.00244000  0.82960000  1.0 -0.4029123477
C  C25  1  0.33085000  0.04295000  0.76950000  1.0 0.655792863
C  C26  1  0.71089000  0.03449000  0.91240000  1.0 0.5833531477
C  C27  1  0.79654000  0.01474000  0.89160000  1.0 -0.0244700603
C  C28  1  0.87664000  0.01284000  0.97000000  1.0 -0.1316013129
C  C29  1  0.20330000  0.00000000  0.20330000  1.0 -0.0986021004
C  C30  1  0.04250000  0.00000000  0.04250000  1.0 0.0725520907
C  C31  1  0.79670000  0.00000000  0.79670000  1.0 -0.0986021004
C  C32  1  0.95750000  0.00000000  0.95750000  1.0 0.0725520907
O  O1  1  0.27474000  0.44124000  0.32590000  1.0 -0.1316013129
O  O2  1  0.49592000  0.14072000  0.49460000  1.0 -0.270701646
O  O3  1  0.45147000  0.57537000  0.53790000  1.0 -0.4819531879
O  O4  1  0.59185000  0.70985000  0.71140000  1.0 -0.5291677854
O  O5  1  0.47362000  0.44942000  0.57500000  1.0 -0.6408596925
O  O6  1  0.61172000  0.38492000  0.68940000  1.0 -0.601468905
O  O7  1  0.75180000  0.46180000  0.78780000  1.0 -0.4140857599
O  O8  1  0.28417000  0.27757000  0.32400000  1.0 -0.5155470065
O  O9  1  0.35883000  0.20573000  0.40230000  1.0 -0.5667773328
O  O10  1  0.49776000  0.00236000  0.19300000  1.0 0.1508256937
O  O11  1  0.88466000  0.55876000  0.83350000  1.0 -0.135695099
O  O12  1  0.35388000  0.85928000  0.35520000  1.0 -0.270701646
O  O13  1  0.96253000  0.42463000  0.87610000  1.0 -0.4819531879
O  O14  1  0.00155000  0.29015000  0.88200000  1.0 -0.5291677854
O  O15  1  0.12558000  0.55058000  0.02420000  1.0 -0.6408596925
O  O16  1  0.30448000  0.61508000  0.22680000  1.0 -0.601468905
O  O17  1  0.32600000  0.53820000  0.29000000  1.0 -0.4153334192
O  O18  1  0.04643000  0.72243000  0.00660000  1.0 -0.5155470065
O  O19  1  0.19657000  0.79427000  0.15310000  1.0 -0.5667773328
O  O20  1  0.19064000  0.99764000  0.49540000  1.0 0.1508256937
O  O21  1  0.11534000  0.94884000  0.67410000  1.0 -0.135695099
O  O22  1  0.64612000  0.00132000  0.50540000  1.0 -0.270701646
O  O23  1  0.03747000  0.91357000  0.46210000  1.0 -0.4819531879
O  O24  1  0.99845000  0.88045000  0.28860000  1.0 -0.5291677854
O  O25  1  0.87442000  0.89862000  0.42500000  1.0 -0.6408596925
O  O26  1  0.69552000  0.92232000  0.31060000  1.0 -0.601468905
O  O27  1  0.67400000  0.96400000  0.21220000  1.0 -0.4153334192
O  O28  1  0.95357000  0.96017000  0.67600000  1.0 -0.5155470065
O  O29  1  0.80343000  0.95653000  0.59770000  1.0 -0.5667773328
O  O30  1  0.80936000  0.30476000  0.80700000  1.0 0.1508256937
O  O31  1  0.72526000  0.05116000  0.16650000  1.0 -0.1316013129
O  O32  1  0.50408000  0.99868000  0.64480000  1.0 -0.270701646
O  O33  1  0.54853000  0.08643000  0.12390000  1.0 -0.4819531879
O  O34  1  0.40815000  0.11955000  0.11800000  1.0 -0.5291677854
O  O35  1  0.52638000  0.10138000  0.97580000  1.0 -0.6408596925
O  O36  1  0.38828000  0.07768000  0.77320000  1.0 -0.601468905
O  O37  1  0.24820000  0.03600000  0.71000000  1.0 -0.4140857599
O  O38  1  0.71583000  0.03983000  0.99340000  1.0 -0.5155470065
O  O39  1  0.64117000  0.04347000  0.84690000  1.0 -0.5667773328
O  O40  1  0.50224000  0.69524000  0.50460000  1.0 0.1508256937
