# DDEC6 charges by PACMAN v1.1 (https://github.com/mtap-research/PACMAN-charge/)
data_TOHZAS_ASR_pacman
_symmetry_space_group_name_H-M   'P 1'
_cell_length_a   9.55000000
_cell_length_b   13.30000000
_cell_length_c   13.37700000
_cell_angle_alpha   61.82000000
_cell_angle_beta   69.88000000
_cell_angle_gamma   76.10000000
_symmetry_Int_Tables_number   1
_chemical_formula_structural   CdH8C8(NO3)2
_chemical_formula_sum   'Cd3 H24 C24 N6 O18'
_cell_volume   1400.06388985
_cell_formula_units_Z   3
loop_
 _symmetry_equiv_pos_site_id
 _symmetry_equiv_pos_as_xyz
  1  'x, y, z'
loop_
 _atom_site_type_symbol
 _atom_site_label
 _atom_site_symmetry_multiplicity
 _atom_site_fract_x
 _atom_site_fract_y
 _atom_site_fract_z
 _atom_site_occupancy
 _atom_site_charge
Cd  Cd1  1  0.00000000  0.00000000  0.00000000  1.0 1.1112872526
Cd  Cd2  1  0.62690000  0.10733000  0.90487000  1.0 0.9680970773
Cd  Cd3  1  0.37310000  0.89267000  0.09513000  1.0 0.9680970773
H  H1  1  0.62130000  0.38670000  0.04890000  1.0 0.1030875099
H  H2  1  0.37870000  0.61330000  0.95110000  1.0 0.1030875099
H  H3  1  0.56500000  0.28110000  0.16790000  1.0 0.1030875099
H  H4  1  0.43500000  0.71890000  0.83210000  1.0 0.1030875099
H  H5  1  0.80510000  0.18380000  0.13920000  1.0 0.1472021151
H  H6  1  0.19490000  0.81620000  0.86080000  1.0 0.1472021151
H  H7  1  0.85780000  0.28880000  0.01840000  1.0 0.1472021151
H  H8  1  0.14220000  0.71120000  0.98160000  1.0 0.1472021151
H  H9  1  0.56350000  0.26850000  0.51380000  1.0 0.1081677038
H  H10  1  0.43650000  0.73150000  0.48620000  1.0 0.1081677038
H  H11  1  0.60830000  0.37520000  0.51220000  1.0 0.1081677038
H  H12  1  0.39170000  0.62480000  0.48780000  1.0 0.1081677038
H  H13  1  0.80460000  0.18140000  0.51320000  1.0 0.1359838709
H  H14  1  0.19540000  0.81860000  0.48680000  1.0 0.1359838709
H  H15  1  0.85020000  0.28820000  0.51070000  1.0 0.1359838709
H  H16  1  0.14980000  0.71180000  0.48930000  1.0 0.1359838709
H  H17  1  0.90030000  0.64830000  0.03410000  1.0 0.0922741682
H  H18  1  0.09970000  0.35170000  0.96590000  1.0 0.0922741682
H  H19  1  0.89170000  0.64770000  0.15390000  1.0 0.1030875099
H  H20  1  0.10830000  0.35230000  0.84610000  1.0 0.1030875099
H  H21  1  0.63550000  0.70840000  0.17850000  1.0 0.1472021151
H  H22  1  0.36450000  0.29160000  0.82150000  1.0 0.1472021151
H  H23  1  0.64840000  0.71310000  0.05650000  1.0 0.1472021151
H  H24  1  0.35160000  0.28690000  0.94350000  1.0 0.1472021151
C  C1  1  0.76140000  0.47270000  0.11160000  1.0 0.5360996887
C  C2  1  0.23860000  0.52730000  0.88840000  1.0 0.5360996887
C  C3  1  0.66750000  0.31210000  0.29900000  1.0 0.5360996887
C  C4  1  0.33250000  0.68790000  0.70100000  1.0 0.5360996887
C  C5  1  0.74590000  0.47370000  0.29780000  1.0 0.5360996887
C  C6  1  0.25410000  0.52630000  0.70220000  1.0 0.5360996887
C  C7  1  0.65150000  0.32330000  0.11560000  1.0 -0.0299233178
C  C8  1  0.34850000  0.67670000  0.88440000  1.0 -0.0299233178
C  C9  1  0.77250000  0.24600000  0.07290000  1.0 -0.3428550794
C  C10  1  0.22750000  0.75400000  0.92710000  1.0 -0.3428550794
C  C11  1  0.71910000  0.19710000  0.01240000  1.0 0.6300109193
C  C12  1  0.28090000  0.80290000  0.98760000  1.0 0.6300109193
C  C13  1  0.64530000  0.31470000  0.48600000  1.0 -0.0457891267
C  C14  1  0.35470000  0.68530000  0.51400000  1.0 -0.0457891267
C  C15  1  0.76820000  0.24190000  0.53930000  1.0 -0.3250985875
C  C16  1  0.23180000  0.75810000  0.46070000  1.0 -0.3250985875
C  C17  1  0.72410000  0.18970000  0.66940000  1.0 0.6086408362
C  C18  1  0.27590000  0.81030000  0.33060000  1.0 0.6086408362
C  C19  1  0.83540000  0.63760000  0.11170000  1.0 -0.0299233178
C  C20  1  0.16460000  0.36240000  0.88830000  1.0 -0.0299233178
C  C21  1  0.70190000  0.72340000  0.10050000  1.0 -0.3640076354
C  C22  1  0.29810000  0.27660000  0.89950000  1.0 -0.3661650255
C  C23  1  0.73820000  0.84750000  0.03980000  1.0 0.6676982805
C  C24  1  0.26180000  0.15250000  0.96020000  1.0 0.6676982805
N  N1  1  0.78470000  0.52050000  0.17650000  1.0 -0.239041625
N  N2  1  0.21530000  0.47950000  0.82350000  1.0 -0.239041625
N  N3  1  0.69990000  0.36910000  0.17880000  1.0 -0.2539143398
N  N4  1  0.30010000  0.63090000  0.82120000  1.0 -0.2539143398
N  N5  1  0.69210000  0.36660000  0.35600000  1.0 -0.2670801714
N  N6  1  0.30790000  0.63340000  0.64400000  1.0 -0.2616945341
O  O1  1  0.79080000  0.51780000  0.00720000  1.0 -0.4507092789
O  O2  1  0.20920000  0.48220000  0.99280000  1.0 -0.4442817405
O  O3  1  0.61640000  0.22060000  0.35500000  1.0 -0.4507092789
O  O4  1  0.38360000  0.77940000  0.64500000  1.0 -0.4507092789
O  O5  1  0.75890000  0.52090000  0.35130000  1.0 -0.4507092789
O  O6  1  0.24110000  0.47910000  0.64870000  1.0 -0.4507092789
O  O7  1  0.59160000  0.22540000  0.99810000  1.0 -0.5024837986
O  O8  1  0.40840000  0.77460000  0.00190000  1.0 -0.5024837986
O  O9  1  0.59340000  0.21040000  0.72330000  1.0 -0.5298546836
O  O10  1  0.40660000  0.78960000  0.27670000  1.0 -0.5298546836
O  O11  1  0.81510000  0.12930000  0.72680000  1.0 -0.5433134272
O  O12  1  0.18490000  0.87070000  0.27320000  1.0 -0.5433134272
O  O13  1  0.62400000  0.92110000  0.01960000  1.0 -0.6000700429
O  O14  1  0.37600000  0.07890000  0.98040000  1.0 -0.6000700429
O  O15  1  0.86240000  0.86870000  0.01530000  1.0 -0.5298546836
O  O16  1  0.13760000  0.13130000  0.98470000  1.0 -0.5298546836
O  O17  1  0.80420000  0.12900000  0.97470000  1.0 -0.5665283337
O  O18  1  0.19580000  0.87100000  0.02530000  1.0 -0.5665283337
