# DDEC6 charges by PACMAN v1.1 (https://github.com/mtap-research/PACMAN-charge/)
data_TOKKOV_FSR_pacman
_symmetry_space_group_name_H-M   'P 1'
_cell_length_a   10.29040000
_cell_length_b   13.20610000
_cell_length_c   26.75900000
_cell_angle_alpha   90.00000000
_cell_angle_beta   111.69100000
_cell_angle_gamma   90.00000000
_symmetry_Int_Tables_number   1
_chemical_formula_structural   SiAg2H15C24S2N3(OF)6
_chemical_formula_sum   'Si4 Ag8 H60 C96 S8 N12 O24 F24'
_cell_volume   3378.94827771
_cell_formula_units_Z   4
loop_
 _symmetry_equiv_pos_site_id
 _symmetry_equiv_pos_as_xyz
  1  'x, y, z'
loop_
 _atom_site_type_symbol
 _atom_site_label
 _atom_site_symmetry_multiplicity
 _atom_site_fract_x
 _atom_site_fract_y
 _atom_site_fract_z
 _atom_site_occupancy
 _atom_site_charge
Si  Si1  1  0.61297000  0.67276000  0.28721000  1.0 0.7336220461
Si  Si2  1  0.61297000  0.82724000  0.78721000  1.0 0.7336220461
Si  Si3  1  0.38703000  0.17276000  0.21279000  1.0 0.7336220461
Si  Si4  1  0.38703000  0.32724000  0.71279000  1.0 0.7336220461
Ag  Ag1  1  0.13387000  0.10735000  0.44517000  1.0 0.526860654
Ag  Ag2  1  0.13387000  0.39265000  0.94517000  1.0 0.526860654
Ag  Ag3  1  0.11130000  0.10580000  0.44770000  1.0 0.526860654
Ag  Ag4  1  0.11130000  0.39420000  0.94770000  1.0 0.526860654
Ag  Ag5  1  0.86613000  0.60735000  0.05483000  1.0 0.526860654
Ag  Ag6  1  0.86613000  0.89265000  0.55483000  1.0 0.5235214996
Ag  Ag7  1  0.88870000  0.60580000  0.05230000  1.0 0.526860654
Ag  Ag8  1  0.88870000  0.89420000  0.55230000  1.0 0.526860654
H  H1  1  0.87580000  0.56940000  0.31050000  1.0 0.0907981942
H  H2  1  0.87580000  0.93060000  0.81050000  1.0 0.0907981942
H  H3  1  0.97700000  0.41650000  0.34810000  1.0 0.0840586889
H  H4  1  0.97700000  0.08350000  0.84810000  1.0 0.0840586889
H  H5  1  0.63910000  0.35270000  0.38590000  1.0 0.0979419251
H  H6  1  0.63910000  0.14730000  0.88590000  1.0 0.0979419251
H  H7  1  0.53840000  0.50620000  0.34820000  1.0 0.0907981942
H  H8  1  0.53840000  0.99380000  0.84820000  1.0 0.0907981942
H  H9  1  0.59320000  0.69030000  0.39600000  1.0 0.0907981942
H  H10  1  0.59320000  0.80970000  0.89600000  1.0 0.0907981942
H  H11  1  0.47650000  0.79770000  0.43470000  1.0 0.0907981942
H  H12  1  0.47650000  0.70230000  0.93470000  1.0 0.0907981942
H  H13  1  0.28200000  0.93250000  0.28920000  1.0 0.0979419251
H  H14  1  0.28200000  0.56750000  0.78920000  1.0 0.0979419251
H  H15  1  0.40120000  0.82520000  0.25210000  1.0 0.0979419251
H  H16  1  0.40120000  0.67480000  0.75210000  1.0 0.0979419251
H  H17  1  0.34990000  0.55790000  0.24180000  1.0 0.0979419251
H  H18  1  0.34990000  0.94210000  0.74180000  1.0 0.0979419251
H  H19  1  0.21890000  0.48800000  0.15910000  1.0 0.0979419251
H  H20  1  0.21890000  0.01200000  0.65910000  1.0 0.0979419251
H  H21  1  0.47210000  0.62190000  0.09330000  1.0 0.0907981942
H  H22  1  0.47210000  0.87810000  0.59330000  1.0 0.0907981942
H  H23  1  0.60380000  0.69060000  0.17690000  1.0 0.0979419251
H  H24  1  0.60380000  0.80940000  0.67690000  1.0 0.0979419251
H  H25  1  0.81660000  0.77500000  0.31720000  1.0 0.1494103688
H  H26  1  0.81660000  0.72500000  0.81720000  1.0 0.1494103688
H  H27  1  0.79610000  0.72670000  0.25990000  1.0 0.1425563543
H  H28  1  0.79610000  0.77330000  0.75990000  1.0 0.1425563543
H  H29  1  0.70410000  0.82210000  0.26350000  1.0 0.1425563543
H  H30  1  0.70410000  0.67790000  0.76350000  1.0 0.1425563543
H  H31  1  0.12420000  0.06940000  0.18950000  1.0 0.0907981942
H  H32  1  0.12420000  0.43060000  0.68950000  1.0 0.0907981942
H  H33  1  0.02300000  0.91650000  0.15190000  1.0 0.0840586889
H  H34  1  0.02300000  0.58350000  0.65190000  1.0 0.0840586889
H  H35  1  0.36090000  0.85270000  0.11410000  1.0 0.0979419251
H  H36  1  0.36090000  0.64730000  0.61410000  1.0 0.0979419251
H  H37  1  0.46160000  0.00620000  0.15180000  1.0 0.0907981942
H  H38  1  0.46160000  0.49380000  0.65180000  1.0 0.0907981942
H  H39  1  0.40680000  0.19030000  0.10400000  1.0 0.0907981942
H  H40  1  0.40680000  0.30970000  0.60400000  1.0 0.0907981942
H  H41  1  0.52350000  0.29770000  0.06530000  1.0 0.0907981942
H  H42  1  0.52350000  0.20230000  0.56530000  1.0 0.0907981942
H  H43  1  0.71800000  0.43250000  0.21080000  1.0 0.0979419251
H  H44  1  0.71800000  0.06750000  0.71080000  1.0 0.0979419251
H  H45  1  0.59880000  0.32520000  0.24790000  1.0 0.0979419251
H  H46  1  0.59880000  0.17480000  0.74790000  1.0 0.0979419251
H  H47  1  0.65010000  0.05790000  0.25820000  1.0 0.0979419251
H  H48  1  0.65010000  0.44210000  0.75820000  1.0 0.0979419251
H  H49  1  0.78110000  0.98800000  0.34090000  1.0 0.0979419251
H  H50  1  0.78110000  0.51200000  0.84090000  1.0 0.0979419251
H  H51  1  0.52790000  0.12190000  0.40670000  1.0 0.0907981942
H  H52  1  0.52790000  0.37810000  0.90670000  1.0 0.0907981942
H  H53  1  0.39620000  0.19060000  0.32310000  1.0 0.0979419251
H  H54  1  0.39620000  0.30940000  0.82310000  1.0 0.0979419251
H  H55  1  0.18340000  0.27500000  0.18280000  1.0 0.1494103688
H  H56  1  0.18340000  0.22500000  0.68280000  1.0 0.1494103688
H  H57  1  0.20390000  0.22670000  0.24010000  1.0 0.1425563543
H  H58  1  0.20390000  0.27330000  0.74010000  1.0 0.1425563543
H  H59  1  0.29590000  0.32210000  0.23650000  1.0 0.1425563543
H  H60  1  0.29590000  0.17790000  0.73650000  1.0 0.1425563543
C  C1  1  0.31750000  0.38680000  0.46790000  1.0 0.2377045619
C  C2  1  0.31750000  0.11320000  0.96790000  1.0 0.2377045619
C  C3  1  0.69562000  0.55420000  0.32452000  1.0 -0.2016522643
C  C4  1  0.69562000  0.94580000  0.82452000  1.0 -0.2016522643
C  C5  1  0.82678000  0.52550000  0.32558000  1.0 -0.0914685104
C  C6  1  0.82678000  0.97450000  0.82558000  1.0 -0.0914685104
C  C7  1  0.88762000  0.43480000  0.34802000  1.0 -0.1400715301
C  C8  1  0.88762000  0.06520000  0.84802000  1.0 -0.1400715301
C  C9  1  0.81767000  0.37070000  0.37037000  1.0 0.0215710239
C  C10  1  0.81767000  0.12930000  0.87037000  1.0 0.0215710239
C  C11  1  0.68700000  0.39690000  0.37050000  1.0 -0.1400715301
C  C12  1  0.68700000  0.10310000  0.87050000  1.0 -0.1400715301
C  C13  1  0.62737000  0.48800000  0.34787000  1.0 -0.1071051197
C  C14  1  0.62737000  0.01200000  0.84787000  1.0 -0.1071051197
C  C15  1  0.88544000  0.27690000  0.39354000  1.0 0.2866953443
C  C16  1  0.88544000  0.22310000  0.89354000  1.0 0.2866953443
C  C17  1  0.50960000  0.74620000  0.32000000  1.0 -0.1912511793
C  C18  1  0.50960000  0.75380000  0.82000000  1.0 -0.1912511793
C  C19  1  0.53021000  0.73960000  0.37431000  1.0 -0.1071051197
C  C20  1  0.53021000  0.76040000  0.87431000  1.0 -0.1071051197
C  C21  1  0.46114000  0.80310000  0.39754000  1.0 -0.1400715301
C  C22  1  0.46114000  0.69690000  0.89754000  1.0 -0.1400715301
C  C23  1  0.36904000  0.87480000  0.36554000  1.0 0.0215710239
C  C24  1  0.36904000  0.62520000  0.86554000  1.0 0.0215710239
C  C25  1  0.34547000  0.88350000  0.31097000  1.0 -0.1311436272
C  C26  1  0.34547000  0.61650000  0.81097000  1.0 -0.1311436272
C  C27  1  0.41636000  0.81940000  0.28926000  1.0 -0.1071051197
C  C28  1  0.41636000  0.68060000  0.78926000  1.0 -0.1071051197
C  C29  1  0.29518000  0.94130000  0.38848000  1.0 0.2866953443
C  C30  1  0.29518000  0.55870000  0.88848000  1.0 0.2866953443
C  C31  1  0.49403000  0.62990000  0.21873000  1.0 -0.2016522643
C  C32  1  0.49403000  0.87010000  0.71873000  1.0 -0.2016522643
C  C33  1  0.37628000  0.57020000  0.21188000  1.0 -0.1071051197
C  C34  1  0.37628000  0.92980000  0.71188000  1.0 -0.1071051197
C  C35  1  0.29798000  0.52890000  0.16288000  1.0 -0.1311436272
C  C36  1  0.29798000  0.97110000  0.66288000  1.0 -0.1311436272
C  C37  1  0.33493000  0.54730000  0.11913000  1.0 0.0215710239
C  C38  1  0.33493000  0.95270000  0.61913000  1.0 0.0215710239
C  C39  1  0.44821000  0.60820000  0.12371000  1.0 -0.1311436272
C  C40  1  0.44821000  0.89180000  0.62371000  1.0 -0.1311436272
C  C41  1  0.52604000  0.64860000  0.17354000  1.0 -0.0914685104
C  C42  1  0.52604000  0.85140000  0.67354000  1.0 -0.0914685104
C  C43  1  0.25649000  0.50340000  0.06779000  1.0 0.2805556772
C  C44  1  0.25649000  0.99660000  0.56779000  1.0 0.2743040043
C  C45  1  0.74842000  0.75940000  0.28122000  1.0 -0.7754753065
C  C46  1  0.74842000  0.74060000  0.78122000  1.0 -0.7742337418
C  C47  1  0.34540000  0.40330000  0.45360000  1.0 0.2061891946
C  C48  1  0.34540000  0.09670000  0.95360000  1.0 0.2061891946
C  C49  1  0.68250000  0.88680000  0.03210000  1.0 0.2377045619
C  C50  1  0.68250000  0.61320000  0.53210000  1.0 0.2377045619
C  C51  1  0.30438000  0.05420000  0.17548000  1.0 -0.2016522643
C  C52  1  0.30438000  0.44580000  0.67548000  1.0 -0.2016522643
C  C53  1  0.17322000  0.02550000  0.17442000  1.0 -0.0914685104
C  C54  1  0.17322000  0.47450000  0.67442000  1.0 -0.0914685104
C  C55  1  0.11238000  0.93480000  0.15198000  1.0 -0.1400715301
C  C56  1  0.11238000  0.56520000  0.65198000  1.0 -0.1400715301
C  C57  1  0.18233000  0.87070000  0.12963000  1.0 0.0215710239
C  C58  1  0.18233000  0.62930000  0.62963000  1.0 0.0215710239
C  C59  1  0.31300000  0.89690000  0.12950000  1.0 -0.1400715301
C  C60  1  0.31300000  0.60310000  0.62950000  1.0 -0.1400715301
C  C61  1  0.37263000  0.98800000  0.15213000  1.0 -0.1071051197
C  C62  1  0.37263000  0.51200000  0.65213000  1.0 -0.1071051197
C  C63  1  0.11456000  0.77690000  0.10646000  1.0 0.2866953443
C  C64  1  0.11456000  0.72310000  0.60646000  1.0 0.2866953443
C  C65  1  0.49040000  0.24620000  0.18000000  1.0 -0.1912511793
C  C66  1  0.49040000  0.25380000  0.68000000  1.0 -0.1912511793
C  C67  1  0.46979000  0.23960000  0.12569000  1.0 -0.1071051197
C  C68  1  0.46979000  0.26040000  0.62569000  1.0 -0.1071051197
C  C69  1  0.53886000  0.30310000  0.10246000  1.0 -0.1400715301
C  C70  1  0.53886000  0.19690000  0.60246000  1.0 -0.1400715301
C  C71  1  0.63096000  0.37480000  0.13446000  1.0 0.0215710239
C  C72  1  0.63096000  0.12520000  0.63446000  1.0 0.0215710239
C  C73  1  0.65453000  0.38350000  0.18903000  1.0 -0.1311436272
C  C74  1  0.65453000  0.11650000  0.68903000  1.0 -0.1311436272
C  C75  1  0.58364000  0.31940000  0.21074000  1.0 -0.1071051197
C  C76  1  0.58364000  0.18060000  0.71074000  1.0 -0.1071051197
C  C77  1  0.70482000  0.44130000  0.11152000  1.0 0.2866953443
C  C78  1  0.70482000  0.05870000  0.61152000  1.0 0.2866953443
C  C79  1  0.50597000  0.12990000  0.28127000  1.0 -0.2016522643
C  C80  1  0.50597000  0.37010000  0.78127000  1.0 -0.2016522643
C  C81  1  0.62372000  0.07020000  0.28812000  1.0 -0.1071051197
C  C82  1  0.62372000  0.42980000  0.78812000  1.0 -0.1071051197
C  C83  1  0.70202000  0.02890000  0.33712000  1.0 -0.1311436272
C  C84  1  0.70202000  0.47110000  0.83712000  1.0 -0.1311436272
C  C85  1  0.66507000  0.04730000  0.38087000  1.0 0.0215710239
C  C86  1  0.66507000  0.45270000  0.88087000  1.0 0.0215710239
C  C87  1  0.55179000  0.10820000  0.37629000  1.0 -0.1400715301
C  C88  1  0.55179000  0.39180000  0.87629000  1.0 -0.1311436272
C  C89  1  0.47396000  0.14860000  0.32646000  1.0 -0.0914685104
C  C90  1  0.47396000  0.35140000  0.82646000  1.0 -0.0914685104
C  C91  1  0.74351000  0.00340000  0.43221000  1.0 0.2805556772
C  C92  1  0.74351000  0.49660000  0.93221000  1.0 0.2743040043
C  C93  1  0.25158000  0.25940000  0.21878000  1.0 -0.7754753065
C  C94  1  0.25158000  0.24060000  0.71878000  1.0 -0.7754753065
C  C95  1  0.65460000  0.90330000  0.04640000  1.0 0.2061891946
C  C96  1  0.65460000  0.59670000  0.54640000  1.0 0.2061891946
S  S1  1  0.33813000  0.28970000  0.42513000  1.0 0.3095142263
S  S2  1  0.33813000  0.21030000  0.92513000  1.0 0.3095142263
S  S3  1  0.34890000  0.26990000  0.44280000  1.0 0.2805556772
S  S4  1  0.34890000  0.23010000  0.94280000  1.0 0.2805556772
S  S5  1  0.66187000  0.78970000  0.07487000  1.0 0.3095142263
S  S6  1  0.66187000  0.71030000  0.57487000  1.0 0.3095142263
S  S7  1  0.65110000  0.76990000  0.05720000  1.0 0.2805556772
S  S8  1  0.65110000  0.73010000  0.55720000  1.0 0.2805556772
N  N1  1  0.94429000  0.20380000  0.41009000  1.0 -0.4932040703
N  N2  1  0.94429000  0.29620000  0.91009000  1.0 -0.4932040703
N  N3  1  0.23288000  0.99370000  0.40528000  1.0 -0.5014236164
N  N4  1  0.23288000  0.50630000  0.90528000  1.0 -0.5014236164
N  N5  1  0.19759000  0.46760000  0.02699000  1.0 -0.4799796549
N  N6  1  0.19759000  0.03240000  0.52699000  1.0 -0.4799796549
N  N7  1  0.05571000  0.70380000  0.08991000  1.0 -0.4932040703
N  N8  1  0.05571000  0.79620000  0.58991000  1.0 -0.5014236164
N  N9  1  0.76712000  0.49370000  0.09472000  1.0 -0.5014236164
N  N10  1  0.76712000  0.00630000  0.59472000  1.0 -0.5014236164
N  N11  1  0.80241000  0.96760000  0.47301000  1.0 -0.4799796549
N  N12  1  0.80241000  0.53240000  0.97301000  1.0 -0.4799796549
O  O1  1  0.36530000  0.20240000  0.45900000  1.0 -0.0715874919
O  O2  1  0.36530000  0.29760000  0.95900000  1.0 -0.0715874919
O  O3  1  0.20900000  0.28870000  0.38060000  1.0 -0.1311436272
O  O4  1  0.20900000  0.21130000  0.88060000  1.0 -0.1311436272
O  O5  1  0.44960000  0.32630000  0.41140000  1.0 -0.1732173023
O  O6  1  0.44960000  0.17370000  0.91140000  1.0 -0.1732173023
O  O7  1  0.28660000  0.23260000  0.47890000  1.0 -0.2084661332
O  O8  1  0.28660000  0.26740000  0.97890000  1.0 -0.2084661332
O  O9  1  0.27340000  0.25750000  0.38690000  1.0 -0.0849436541
O  O10  1  0.27340000  0.24250000  0.88690000  1.0 -0.0849436541
O  O11  1  0.49450000  0.25120000  0.46050000  1.0 -0.1912511793
O  O12  1  0.49450000  0.24880000  0.96050000  1.0 -0.1912511793
O  O13  1  0.63470000  0.70240000  0.04100000  1.0 -0.0715874919
O  O14  1  0.63470000  0.79760000  0.54100000  1.0 -0.0715874919
O  O15  1  0.79100000  0.78870000  0.11940000  1.0 -0.1243873444
O  O16  1  0.79100000  0.71130000  0.61940000  1.0 -0.1243873444
O  O17  1  0.55040000  0.82630000  0.08860000  1.0 -0.1755438131
O  O18  1  0.55040000  0.67370000  0.58860000  1.0 -0.1755438131
O  O19  1  0.71340000  0.73260000  0.02110000  1.0 -0.2084661332
O  O20  1  0.71340000  0.76740000  0.52110000  1.0 -0.2084661332
O  O21  1  0.72660000  0.75750000  0.11310000  1.0 -0.0914685104
O  O22  1  0.72660000  0.74250000  0.61310000  1.0 -0.0849436541
O  O23  1  0.50550000  0.75120000  0.03950000  1.0 -0.1912511793
O  O24  1  0.50550000  0.74880000  0.53950000  1.0 -0.1912511793
F  F1  1  0.20790000  0.36560000  0.48050000  1.0 -0.0914685104
F  F2  1  0.20790000  0.13440000  0.98050000  1.0 -0.0914685104
F  F3  1  0.42720000  0.39490000  0.51280000  1.0 0.0133921559
F  F4  1  0.42720000  0.10510000  0.01280000  1.0 0.0133921559
F  F5  1  0.30200000  0.47730000  0.44360000  1.0 0.0502542648
F  F6  1  0.30200000  0.02270000  0.94360000  1.0 0.0502542648
F  F7  1  0.21220000  0.43110000  0.43660000  1.0 -0.0447160807
F  F8  1  0.21220000  0.06890000  0.93660000  1.0 -0.0474325438
F  F9  1  0.40360000  0.42760000  0.50460000  1.0 -0.0164235905
F  F10  1  0.40360000  0.07240000  0.00460000  1.0 -0.0164235905
F  F11  1  0.42060000  0.45010000  0.42870000  1.0 -0.0715874919
F  F12  1  0.42060000  0.04990000  0.92870000  1.0 -0.0715874919
F  F13  1  0.79210000  0.86560000  0.01950000  1.0 -0.0914685104
F  F14  1  0.79210000  0.63440000  0.51950000  1.0 -0.0914685104
F  F15  1  0.57280000  0.89490000  0.98720000  1.0 0.0133921559
F  F16  1  0.57280000  0.60510000  0.48720000  1.0 0.0133921559
F  F17  1  0.69800000  0.97730000  0.05640000  1.0 0.0502542648
F  F18  1  0.69800000  0.52270000  0.55640000  1.0 0.0502542648
F  F19  1  0.78780000  0.93110000  0.06340000  1.0 -0.0474325438
F  F20  1  0.78780000  0.56890000  0.56340000  1.0 -0.0474325438
F  F21  1  0.59640000  0.92760000  0.99540000  1.0 -0.0164235905
F  F22  1  0.59640000  0.57240000  0.49540000  1.0 -0.0164235905
F  F23  1  0.57940000  0.95010000  0.07130000  1.0 -0.0715874919
F  F24  1  0.57940000  0.54990000  0.57130000  1.0 -0.0715874919
