# DDEC6 charges by PACMAN v1.1 (https://github.com/mtap-research/PACMAN-charge/)
data_TOKLIQ_ASR_pacman
_symmetry_space_group_name_H-M   'P 1'
_cell_length_a   17.87160000
_cell_length_b   17.87160000
_cell_length_c   13.86880000
_cell_angle_alpha   70.32750000
_cell_angle_beta   109.67200000
_cell_angle_gamma   65.03920000
_symmetry_Int_Tables_number   1
_chemical_formula_structural   SiAg4H16C38N4(O4F9)2
_chemical_formula_sum   'Si2 Ag8 H32 C76 N8 O16 F36'
_cell_volume   3131.01546851
_cell_formula_units_Z   2
loop_
 _symmetry_equiv_pos_site_id
 _symmetry_equiv_pos_as_xyz
  1  'x, y, z'
loop_
 _atom_site_type_symbol
 _atom_site_label
 _atom_site_symmetry_multiplicity
 _atom_site_fract_x
 _atom_site_fract_y
 _atom_site_fract_z
 _atom_site_occupancy
 _atom_site_charge
Si  Si1  1  0.62453000  0.62453000  0.25000000  1.0 0.6723528518
Si  Si2  1  0.37547000  0.37547000  0.75000000  1.0 0.6723528518
Ag  Ag1  1  0.82096000  0.82096000  0.75000000  1.0 0.5022073997
Ag  Ag2  1  0.17904000  0.17904000  0.25000000  1.0 0.5022073997
Ag  Ag3  1  0.57783000  0.97639000  0.61363000  1.0 0.4730847342
Ag  Ag4  1  0.97639000  0.57783000  0.88637000  1.0 0.4730847342
Ag  Ag5  1  0.42217000  0.02361000  0.38637000  1.0 0.4730847342
Ag  Ag6  1  0.02361000  0.42217000  0.11363000  1.0 0.4730847342
Ag  Ag7  1  0.93717000  0.93717000  0.75000000  1.0 0.5528428269
Ag  Ag8  1  0.06284000  0.06284000  0.25000000  1.0 0.5567998601
H  H1  1  0.74710000  0.50670000  0.18760000  1.0 0.1098545869
H  H2  1  0.50670000  0.74710000  0.31240000  1.0 0.1098545869
H  H3  1  0.25290000  0.49330000  0.81240000  1.0 0.1098545869
H  H4  1  0.49330000  0.25290000  0.68760000  1.0 0.1098545869
H  H5  1  0.81410000  0.53270000  0.07290000  1.0 0.1098545869
H  H6  1  0.53270000  0.81410000  0.42710000  1.0 0.1098545869
H  H7  1  0.18590000  0.46730000  0.92710000  1.0 0.1098545869
H  H8  1  0.46730000  0.18590000  0.57290000  1.0 0.1098545869
H  H9  1  0.68890000  0.81310000  0.98690000  1.0 0.1179148903
H  H10  1  0.81310000  0.68890000  0.51310000  1.0 0.1179148903
H  H11  1  0.31110000  0.18690000  0.01310000  1.0 0.1179148903
H  H12  1  0.18690000  0.31110000  0.48690000  1.0 0.1179148903
H  H13  1  0.61910000  0.78990000  0.09760000  1.0 0.0998988865
H  H14  1  0.78990000  0.61910000  0.40240000  1.0 0.0998988865
H  H15  1  0.38090000  0.21010000  0.90240000  1.0 0.0998988865
H  H16  1  0.21010000  0.38090000  0.59760000  1.0 0.0998988865
H  H17  1  0.59890000  0.48250000  0.21870000  1.0 0.1098545869
H  H18  1  0.48250000  0.59890000  0.28130000  1.0 0.1098545869
H  H19  1  0.40110000  0.51750000  0.78130000  1.0 0.1098545869
H  H20  1  0.51750000  0.40110000  0.71870000  1.0 0.1098545869
H  H21  1  0.67970000  0.31190000  0.33590000  1.0 0.1098545869
H  H22  1  0.31190000  0.67970000  0.16410000  1.0 0.1098545869
H  H23  1  0.32030000  0.68810000  0.66410000  1.0 0.1098545869
H  H24  1  0.68810000  0.32030000  0.83590000  1.0 0.1098545869
H  H25  1  0.87600000  0.28520000  0.62440000  1.0 0.1098545869
H  H26  1  0.28520000  0.87600000  0.87560000  1.0 0.1098545869
H  H27  1  0.12400000  0.71480000  0.37560000  1.0 0.1098545869
H  H28  1  0.71480000  0.12400000  0.12440000  1.0 0.1098545869
H  H29  1  0.79430000  0.45690000  0.50690000  1.0 0.0915836598
H  H30  1  0.45690000  0.79430000  0.99310000  1.0 0.0915836598
H  H31  1  0.20570000  0.54310000  0.49310000  1.0 0.0915836598
H  H32  1  0.54310000  0.20570000  0.00690000  1.0 0.0998988865
C  C1  1  0.48190000  0.23590000  0.26400000  1.0 0.3459355695
C  C2  1  0.23590000  0.48190000  0.23600000  1.0 0.3459355695
C  C3  1  0.51810000  0.76410000  0.73600000  1.0 0.3459355695
C  C4  1  0.76410000  0.51810000  0.76400000  1.0 0.3459355695
C  C5  1  0.67692000  0.64552000  0.15610000  1.0 -0.1846214818
C  C6  1  0.64552000  0.67692000  0.34390000  1.0 -0.1846214818
C  C7  1  0.32308000  0.35448000  0.84390000  1.0 -0.1846214818
C  C8  1  0.35448000  0.32308000  0.65610000  1.0 -0.1846214818
C  C9  1  0.73503000  0.56923000  0.14700000  1.0 -0.0996347126
C  C10  1  0.56923000  0.73503000  0.35300000  1.0 -0.0996347126
C  C11  1  0.26497000  0.43077000  0.85300000  1.0 -0.0996347126
C  C12  1  0.43077000  0.26497000  0.64700000  1.0 -0.0996347126
C  C13  1  0.77491000  0.58451000  0.07930000  1.0 -0.1224446843
C  C14  1  0.58451000  0.77491000  0.42070000  1.0 -0.1224446843
C  C15  1  0.22509000  0.41549000  0.92070000  1.0 -0.1224446843
C  C16  1  0.41549000  0.22509000  0.57930000  1.0 -0.1224446843
C  C17  1  0.75797000  0.67397000  0.02170000  1.0 0.03098881
C  C18  1  0.67397000  0.75797000  0.47830000  1.0 0.03098881
C  C19  1  0.24203000  0.32603000  0.97830000  1.0 0.03098881
C  C20  1  0.32603000  0.24203000  0.52170000  1.0 0.03098881
C  C21  1  0.70025000  0.75105000  0.02790000  1.0 -0.1119483262
C  C22  1  0.75105000  0.70025000  0.47210000  1.0 -0.1119483262
C  C23  1  0.29975000  0.24895000  0.97210000  1.0 -0.1119483262
C  C24  1  0.24895000  0.29975000  0.52790000  1.0 -0.1119483262
C  C25  1  0.65960000  0.73680000  0.09400000  1.0 -0.0996347126
C  C26  1  0.73680000  0.65960000  0.40600000  1.0 -0.0996347126
C  C27  1  0.34040000  0.26320000  0.90600000  1.0 -0.0996347126
C  C28  1  0.26320000  0.34040000  0.59400000  1.0 -0.0996347126
C  C29  1  0.80227000  0.68867000  0.95490000  1.0 0.2732802009
C  C30  1  0.68867000  0.80227000  0.54510000  1.0 0.2732802009
C  C31  1  0.19773000  0.31133000  0.04510000  1.0 0.2732802009
C  C32  1  0.31133000  0.19773000  0.45490000  1.0 0.2732802009
C  C33  1  0.68880000  0.48740000  0.35060000  1.0 -0.173774867
C  C34  1  0.48740000  0.68880000  0.14940000  1.0 -0.173774867
C  C35  1  0.31120000  0.51260000  0.64940000  1.0 -0.173774867
C  C36  1  0.51260000  0.31120000  0.85060000  1.0 -0.173774867
C  C37  1  0.65527000  0.44247000  0.30140000  1.0 -0.0996347126
C  C38  1  0.44247000  0.65527000  0.19860000  1.0 -0.0898910413
C  C39  1  0.34473000  0.55753000  0.69860000  1.0 -0.0898910413
C  C40  1  0.55753000  0.34473000  0.80140000  1.0 -0.0996347126
C  C41  1  0.70257000  0.34157000  0.37050000  1.0 -0.1119483262
C  C42  1  0.34157000  0.70257000  0.12950000  1.0 -0.1119483262
C  C43  1  0.29743000  0.65843000  0.62950000  1.0 -0.1119483262
C  C44  1  0.65843000  0.29743000  0.87050000  1.0 -0.1119483262
C  C45  1  0.78438000  0.28358000  0.49200000  1.0 0.03098881
C  C46  1  0.28358000  0.78438000  0.00800000  1.0 0.03098881
C  C47  1  0.21562000  0.71642000  0.50800000  1.0 0.03098881
C  C48  1  0.71642000  0.21562000  0.99200000  1.0 0.03098881
C  C49  1  0.81915000  0.32575000  0.54200000  1.0 -0.1119483262
C  C50  1  0.32575000  0.81915000  0.95800000  1.0 -0.1119483262
C  C51  1  0.18085000  0.67425000  0.45800000  1.0 -0.1119483262
C  C52  1  0.67425000  0.18085000  0.04200000  1.0 -0.1119483262
C  C53  1  0.77094000  0.42774000  0.47180000  1.0 -0.0996347126
C  C54  1  0.42774000  0.77094000  0.02820000  1.0 -0.0996347126
C  C55  1  0.22906000  0.57226000  0.52820000  1.0 -0.0996347126
C  C56  1  0.57226000  0.22906000  0.97180000  1.0 -0.0996347126
C  C57  1  0.83252000  0.17812000  0.56380000  1.0 0.3014722181
C  C58  1  0.17812000  0.83252000  0.93620000  1.0 0.3014722181
C  C59  1  0.16748000  0.82188000  0.43620000  1.0 0.3014722181
C  C60  1  0.82188000  0.16748000  0.06380000  1.0 0.3014722181
C  C61  1  0.73334000  0.00094000  0.76880000  1.0 0.4327200515
C  C62  1  0.00094000  0.73334000  0.73120000  1.0 0.4327200515
C  C63  1  0.26666000  0.99906000  0.23120000  1.0 0.4327200515
C  C64  1  0.99906000  0.26666000  0.26880000  1.0 0.4327200515
C  C65  1  0.72480000  0.08740000  0.77890000  1.0 0.5334696484
C  C66  1  0.08740000  0.72480000  0.72110000  1.0 0.5334696484
C  C67  1  0.27520000  0.91260000  0.22110000  1.0 0.5334696484
C  C68  1  0.91260000  0.27520000  0.27890000  1.0 0.5334696484
C  C69  1  0.49956000  0.14416000  0.35670000  1.0 0.2732802009
C  C70  1  0.14416000  0.49956000  0.14330000  1.0 0.2732802009
C  C71  1  0.50044000  0.85584000  0.64330000  1.0 0.2732802009
C  C72  1  0.85584000  0.50044000  0.85670000  1.0 0.2732802009
C  C73  1  0.51370000  0.21770000  0.28600000  1.0 0.3663009418
C  C74  1  0.21770000  0.51370000  0.21400000  1.0 0.3663009418
C  C75  1  0.48630000  0.78230000  0.71400000  1.0 0.3663009418
C  C76  1  0.78230000  0.48630000  0.78600000  1.0 0.3663009418
N  N1  1  0.86892000  0.09612000  0.61750000  1.0 -0.3727226468
N  N2  1  0.09612000  0.86892000  0.88250000  1.0 -0.3727226468
N  N3  1  0.13108000  0.90388000  0.38250000  1.0 -0.3727226468
N  N4  1  0.90388000  0.13108000  0.11750000  1.0 -0.3727226468
N  N5  1  0.83963000  0.70023000  0.90460000  1.0 -0.4054095136
N  N6  1  0.70023000  0.83963000  0.59540000  1.0 -0.4054095136
N  N7  1  0.16037000  0.29977000  0.09540000  1.0 -0.4054095136
N  N8  1  0.29977000  0.16037000  0.40460000  1.0 -0.4054095136
O  O1  1  0.80207000  0.95247000  0.75920000  1.0 -0.498104422
O  O2  1  0.95247000  0.80207000  0.74080000  1.0 -0.498104422
O  O3  1  0.19793000  0.04753000  0.24080000  1.0 -0.498104422
O  O4  1  0.04753000  0.19793000  0.25920000  1.0 -0.498104422
O  O5  1  0.66916000  0.99156000  0.76770000  1.0 -0.450577757
O  O6  1  0.99156000  0.66916000  0.73230000  1.0 -0.450577757
O  O7  1  0.33084000  0.00844000  0.23230000  1.0 -0.450577757
O  O8  1  0.00844000  0.33084000  0.26770000  1.0 -0.450577757
O  O9  1  0.54457000  0.11057000  0.46750000  1.0 -0.4208296674
O  O10  1  0.11057000  0.54457000  0.03250000  1.0 -0.4208296674
O  O11  1  0.45543000  0.88943000  0.53250000  1.0 -0.4208296674
O  O12  1  0.88943000  0.45543000  0.96750000  1.0 -0.4208296674
O  O13  1  0.45481000  0.12261000  0.29770000  1.0 -0.4208296674
O  O14  1  0.12261000  0.45481000  0.20230000  1.0 -0.4208296674
O  O15  1  0.54519000  0.87739000  0.70230000  1.0 -0.4208296674
O  O16  1  0.87739000  0.54519000  0.79770000  1.0 -0.4208296674
F  F1  1  0.69652000  0.09912000  0.85140000  1.0 -0.2024657565
F  F2  1  0.09912000  0.69652000  0.64860000  1.0 -0.2024657565
F  F3  1  0.30348000  0.90088000  0.14860000  1.0 -0.2024657565
F  F4  1  0.90088000  0.30348000  0.35140000  1.0 -0.2024657565
F  F5  1  0.65719000  0.17139000  0.67060000  1.0 -0.2261642596
F  F6  1  0.17139000  0.65719000  0.82940000  1.0 -0.2261642596
F  F7  1  0.34281000  0.82861000  0.32940000  1.0 -0.2261642596
F  F8  1  0.82861000  0.34281000  0.17060000  1.0 -0.2261642596
F  F9  1  0.81010000  0.07570000  0.82150000  1.0 -0.2261642596
F  F10  1  0.07570000  0.81010000  0.67850000  1.0 -0.2261642596
F  F11  1  0.18990000  0.92430000  0.17850000  1.0 -0.2261642596
F  F12  1  0.92430000  0.18990000  0.32150000  1.0 -0.2261642596
F  F13  1  0.48920000  0.24020000  0.18000000  1.0 -0.0898910413
F  F14  1  0.24020000  0.48920000  0.32000000  1.0 -0.0898910413
F  F15  1  0.51080000  0.75980000  0.82000000  1.0 -0.0898910413
F  F16  1  0.75980000  0.51080000  0.68000000  1.0 -0.0898910413
F  F17  1  0.54200000  0.25400000  0.33100000  1.0 -0.159619399
F  F18  1  0.25400000  0.54200000  0.16900000  1.0 -0.159619399
F  F19  1  0.45800000  0.74600000  0.66900000  1.0 -0.159619399
F  F20  1  0.74600000  0.45800000  0.83100000  1.0 -0.159619399
F  F21  1  0.39080000  0.32100000  0.21600000  1.0 -0.0178970023
F  F22  1  0.32100000  0.39080000  0.28400000  1.0 -0.0178970023
F  F23  1  0.60920000  0.67900000  0.78400000  1.0 -0.0178970023
F  F24  1  0.67900000  0.60920000  0.71600000  1.0 -0.0178970023
F  F25  1  0.56400000  0.23800000  0.33800000  1.0 -0.159619399
F  F26  1  0.23800000  0.56400000  0.16200000  1.0 -0.159619399
F  F27  1  0.43600000  0.76200000  0.66200000  1.0 -0.159619399
F  F28  1  0.76200000  0.43600000  0.83800000  1.0 -0.159619399
F  F29  1  0.41880000  0.30560000  0.18800000  1.0 0.0915836598
F  F30  1  0.30560000  0.41880000  0.31200000  1.0 0.0915836598
F  F31  1  0.58120000  0.69440000  0.81200000  1.0 0.0915836598
F  F32  1  0.69440000  0.58120000  0.68800000  1.0 0.0915836598
F  F33  1  0.54400000  0.19440000  0.21400000  1.0 -0.0178970023
F  F34  1  0.19440000  0.54400000  0.28600000  1.0 -0.0178970023
F  F35  1  0.45600000  0.80560000  0.78600000  1.0 -0.0178970023
F  F36  1  0.80560000  0.45600000  0.71400000  1.0 -0.0178970023
