# DDEC6 charges by PACMAN v1.1 (https://github.com/mtap-research/PACMAN-charge/)
data_TOKLEM_FSR_pacman
_symmetry_space_group_name_H-M   'P 1'
_cell_length_a   12.12170000
_cell_length_b   15.45050000
_cell_length_c   15.53110000
_cell_angle_alpha   61.00800000
_cell_angle_beta   83.21700000
_cell_angle_gamma   82.86700000
_symmetry_Int_Tables_number   1
_chemical_formula_structural   SiAg3H15C30N3O8F15
_chemical_formula_sum   'Si2 Ag6 H30 C60 N6 O16 F30'
_cell_volume   2518.93828830
_cell_formula_units_Z   2
loop_
 _symmetry_equiv_pos_site_id
 _symmetry_equiv_pos_as_xyz
  1  'x, y, z'
loop_
 _atom_site_type_symbol
 _atom_site_label
 _atom_site_symmetry_multiplicity
 _atom_site_fract_x
 _atom_site_fract_y
 _atom_site_fract_z
 _atom_site_occupancy
 _atom_site_charge
Si  Si1  1  0.33665000  0.18613000  0.15495000  1.0 0.7289010626
Si  Si2  1  0.66335000  0.81387000  0.84505000  1.0 0.7289010626
Ag  Ag1  1  0.11593000  0.53478000  0.49727000  1.0 0.4584242744
Ag  Ag2  1  0.88407000  0.46522000  0.50273000  1.0 0.4584242744
Ag  Ag3  1  0.36585000  0.47346000  0.47886000  1.0 0.4041074706
Ag  Ag4  1  0.63415000  0.52654000  0.52114000  1.0 0.4041074706
Ag  Ag5  1  0.46761000  0.37848000  0.67193000  1.0 0.4386762721
Ag  Ag6  1  0.53239000  0.62152000  0.32807000  1.0 0.4386762721
H  H1  1  0.13070000  0.31220000  0.15120000  1.0 0.0898479793
H  H2  1  0.86930000  0.68780000  0.84880000  1.0 0.0898479793
H  H3  1  0.04850000  0.38840000  0.24330000  1.0 0.0898479793
H  H4  1  0.95150000  0.61160000  0.75670000  1.0 0.0898479793
H  H5  1  0.31950000  0.29350000  0.40560000  1.0 0.0796418046
H  H6  1  0.68050000  0.70650000  0.59440000  1.0 0.0796418046
H  H7  1  0.39790000  0.21480000  0.31490000  1.0 0.1065303428
H  H8  1  0.60210000  0.78520000  0.68510000  1.0 0.1065303428
H  H9  1  0.17640000  0.15900000  0.04150000  1.0 0.0898479793
H  H10  1  0.82360000  0.84100000  0.95850000  1.0 0.0898479793
H  H11  1  0.11970000  0.24560000  0.88020000  1.0 0.0898479793
H  H12  1  0.88030000  0.75440000  0.11980000  1.0 0.0898479793
H  H13  1  0.33240000  0.45470000  0.81600000  1.0 0.0994353737
H  H14  1  0.66760000  0.54530000  0.18400000  1.0 0.0994353737
H  H15  1  0.38840000  0.36730000  0.97650000  1.0 0.0994353737
H  H16  1  0.61160000  0.63270000  0.02350000  1.0 0.0994353737
H  H17  1  0.13070000  0.09620000  0.26710000  1.0 0.0898479793
H  H18  1  0.86930000  0.90380000  0.73290000  1.0 0.0898479793
H  H19  1  0.06630000  0.93840000  0.34660000  1.0 0.0898479793
H  H20  1  0.93370000  0.06160000  0.65340000  1.0 0.0898479793
H  H21  1  0.35590000  0.83050000  0.26170000  1.0 0.0994353737
H  H22  1  0.64410000  0.16950000  0.73830000  1.0 0.0994353737
H  H23  1  0.42020000  0.98820000  0.18340000  1.0 0.0994353737
H  H24  1  0.57980000  0.01180000  0.81660000  1.0 0.0994353737
H  H25  1  0.51460000  0.14910000  0.21940000  1.0 0.1373024495
H  H26  1  0.48540000  0.85090000  0.78060000  1.0 0.1373024495
H  H27  1  0.51810000  0.24340000  0.11170000  1.0 0.1373024495
H  H28  1  0.48190000  0.75660000  0.88830000  1.0 0.1373024495
H  H29  1  0.52270000  0.13410000  0.12390000  1.0 0.1373024495
H  H30  1  0.47730000  0.86590000  0.87610000  1.0 0.1373024495
C  C1  1  0.27293000  0.25461000  0.22372000  1.0 -0.182297449
C  C2  1  0.72707000  0.74539000  0.77628000  1.0 -0.1698451186
C  C3  1  0.16890000  0.30752000  0.20347000  1.0 -0.1093848529
C  C4  1  0.83110000  0.69248000  0.79653000  1.0 -0.1093848529
C  C5  1  0.11990000  0.35348000  0.25771000  1.0 -0.1306624119
C  C6  1  0.88010000  0.64652000  0.74229000  1.0 -0.1306624119
C  C7  1  0.17601000  0.34802000  0.33300000  1.0 0.0306788136
C  C8  1  0.82399000  0.65198000  0.66700000  1.0 0.0306788136
C  C9  1  0.28057000  0.29672000  0.35436000  1.0 -0.1306624119
C  C10  1  0.71943000  0.70328000  0.64564000  1.0 -0.1306624119
C  C11  1  0.32699000  0.25047000  0.29984000  1.0 -0.0983094233
C  C12  1  0.67301000  0.74953000  0.70016000  1.0 -0.0983094233
C  C13  1  0.12629000  0.39518000  0.39015000  1.0 0.2302539242
C  C14  1  0.87371000  0.60482000  0.60985000  1.0 0.2302539242
C  C15  1  0.28798000  0.25416000  0.02619000  1.0 -0.1698451186
C  C16  1  0.71202000  0.74584000  0.97381000  1.0 -0.1698451186
C  C17  1  0.20830000  0.21913000  0.99584000  1.0 -0.1174197471
C  C18  1  0.79170000  0.78087000  0.00416000  1.0 -0.1174197471
C  C19  1  0.17440000  0.27030000  0.89988000  1.0 -0.1386090866
C  C20  1  0.82560000  0.72970000  0.10012000  1.0 -0.1386090866
C  C21  1  0.22140000  0.35780000  0.83345000  1.0 0.0306788136
C  C22  1  0.77860000  0.64220000  0.16655000  1.0 0.0306788136
C  C23  1  0.30070000  0.39440000  0.86176000  1.0 -0.1306624119
C  C24  1  0.69930000  0.60560000  0.13824000  1.0 -0.1306624119
C  C25  1  0.33350000  0.34236000  0.95732000  1.0 -0.0892603541
C  C26  1  0.66650000  0.65764000  0.04268000  1.0 -0.0892603541
C  C27  1  0.18730000  0.41140000  0.73330000  1.0 0.2302539242
C  C28  1  0.81270000  0.58860000  0.26670000  1.0 0.2302539242
C  C29  1  0.28301000  0.05925000  0.21825000  1.0 -0.182297449
C  C30  1  0.71699000  0.94075000  0.78175000  1.0 -0.1875301855
C  C31  1  0.17720000  0.04225000  0.26653000  1.0 -0.1093848529
C  C32  1  0.82280000  0.95775000  0.73347000  1.0 -0.1093848529
C  C33  1  0.13840000  0.94868000  0.31354000  1.0 -0.1386090866
C  C34  1  0.86160000  0.05132000  0.68646000  1.0 -0.1386090866
C  C35  1  0.20570000  0.87004000  0.31201000  1.0 0.024893601
C  C36  1  0.79430000  0.12996000  0.68799000  1.0 0.024893601
C  C37  1  0.31050000  0.88456000  0.26326000  1.0 -0.1306624119
C  C38  1  0.68950000  0.11544000  0.73674000  1.0 -0.1306624119
C  C39  1  0.34830000  0.97826000  0.21696000  1.0 -0.0892603541
C  C40  1  0.65170000  0.02174000  0.78304000  1.0 -0.0892603541
C  C41  1  0.16680000  0.77145000  0.36356000  1.0 0.2495804556
C  C42  1  0.83320000  0.22855000  0.63644000  1.0 0.2495804556
C  C43  1  0.49130000  0.17714000  0.15215000  1.0 -0.7727388697
C  C44  1  0.50870000  0.82286000  0.84785000  1.0 -0.7727388697
C  C45  1  0.31220000  0.62193000  0.25220000  1.0 0.3291277779
C  C46  1  0.68780000  0.37807000  0.74780000  1.0 0.3291277779
C  C47  1  0.22450000  0.66040000  0.17470000  1.0 0.3291277779
C  C48  1  0.77550000  0.33960000  0.82530000  1.0 0.3291277779
C  C49  1  0.31230000  0.26130000  0.63500000  1.0 0.2444721205
C  C50  1  0.68770000  0.73870000  0.36500000  1.0 0.2495804556
C  C51  1  0.23480000  0.17870000  0.66900000  1.0 0.2495804556
C  C52  1  0.76520000  0.82130000  0.33100000  1.0 0.2495804556
C  C53  1  0.39930000  0.60946000  0.56430000  1.0 0.3846827192
C  C54  1  0.60070000  0.39054000  0.43570000  1.0 0.3851797921
C  C55  1  0.38270000  0.71130000  0.55920000  1.0 0.5264382405
C  C56  1  0.61730000  0.28870000  0.44080000  1.0 0.5264382405
C  C57  1  0.34400000  0.23830000  0.63480000  1.0 0.2495804556
C  C58  1  0.65600000  0.76170000  0.36520000  1.0 0.2495804556
C  C59  1  0.29500000  0.14280000  0.65490000  1.0 0.2730586273
C  C60  1  0.70500000  0.85720000  0.34510000  1.0 0.2730586273
N  N1  1  0.08620000  0.43226000  0.43552000  1.0 -0.4137673038
N  N2  1  0.91380000  0.56774000  0.56448000  1.0 -0.4137673038
N  N3  1  0.16120000  0.45362000  0.65442000  1.0 -0.3914053696
N  N4  1  0.83880000  0.54638000  0.34558000  1.0 -0.3914053696
N  N5  1  0.13710000  0.69378000  0.40471000  1.0 -0.3914053696
N  N6  1  0.86290000  0.30622000  0.59529000  1.0 -0.3914053696
O  O1  1  0.29677000  0.53979000  0.32462000  1.0 -0.4408108177
O  O2  1  0.70323000  0.46021000  0.67538000  1.0 -0.4408108177
O  O3  1  0.38528000  0.67890000  0.23266000  1.0 -0.4408108177
O  O4  1  0.61472000  0.32110000  0.76734000  1.0 -0.4408108177
O  O5  1  0.31420000  0.32240000  0.54580000  1.0 -0.1612894393
O  O6  1  0.68580000  0.67760000  0.45420000  1.0 -0.1612894393
O  O7  1  0.35830000  0.25920000  0.70280000  1.0 -0.1698451186
O  O8  1  0.64170000  0.74080000  0.29720000  1.0 -0.1612894393
O  O9  1  0.39021000  0.61128000  0.48519000  1.0 -0.4662822443
O  O10  1  0.60979000  0.38872000  0.51481000  1.0 -0.4662822443
O  O11  1  0.42040000  0.53986000  0.64447000  1.0 -0.4325590091
O  O12  1  0.57960000  0.46014000  0.35553000  1.0 -0.4325590091
O  O13  1  0.34500000  0.30200000  0.54700000  1.0 -0.1698451186
O  O14  1  0.65500000  0.69800000  0.45300000  1.0 -0.1698451186
O  O15  1  0.38800000  0.23800000  0.70200000  1.0 -0.1698451186
O  O16  1  0.61200000  0.76200000  0.29800000  1.0 -0.1698451186
F  F1  1  0.14410000  0.71360000  0.19060000  1.0 -0.0037667672
F  F2  1  0.85590000  0.28640000  0.80940000  1.0 -0.0037667672
F  F3  1  0.26830000  0.71740000  0.08250000  1.0 -0.024393981
F  F4  1  0.73170000  0.28260000  0.91750000  1.0 -0.0281490783
F  F5  1  0.18650000  0.58868000  0.16660000  1.0 -0.0108388406
F  F6  1  0.81350000  0.41132000  0.83340000  1.0 -0.0108388406
F  F7  1  0.28210000  0.08950000  0.72660000  1.0 0.0796418046
F  F8  1  0.71790000  0.91050000  0.27340000  1.0 0.0796418046
F  F9  1  0.14710000  0.19160000  0.72120000  1.0 -0.1174197471
F  F10  1  0.85290000  0.80840000  0.27880000  1.0 -0.1174197471
F  F11  1  0.19850000  0.17130000  0.59600000  1.0 0.0027316264
F  F12  1  0.80150000  0.82870000  0.40400000  1.0 0.0027316264
F  F13  1  0.27930000  0.74290000  0.56010000  1.0 -0.182297449
F  F14  1  0.72070000  0.25710000  0.43990000  1.0 -0.182297449
F  F15  1  0.42730000  0.71667000  0.62920000  1.0 -0.215177353
F  F16  1  0.57270000  0.28333000  0.37080000  1.0 -0.215177353
F  F17  1  0.42540000  0.78129000  0.47260000  1.0 -0.2102789389
F  F18  1  0.57460000  0.21871000  0.52740000  1.0 -0.2102789389
F  F19  1  0.24110000  0.63600000  0.11570000  1.0 0.0710704667
F  F20  1  0.75890000  0.36400000  0.88430000  1.0 0.0710704667
F  F21  1  0.12060000  0.62340000  0.22400000  1.0 -0.0281490783
F  F22  1  0.87940000  0.37660000  0.77600000  1.0 -0.0281490783
F  F23  1  0.19860000  0.75000000  0.14020000  1.0 0.0306788136
F  F24  1  0.80140000  0.25000000  0.85980000  1.0 0.0306788136
F  F25  1  0.33300000  0.06900000  0.73600000  1.0 -0.0281490783
F  F26  1  0.66700000  0.93100000  0.26400000  1.0 -0.0281490783
F  F27  1  0.18440000  0.16000000  0.65700000  1.0 0.1373024495
F  F28  1  0.81560000  0.84000000  0.34300000  1.0 0.1373024495
F  F29  1  0.32100000  0.12030000  0.58350000  1.0 -0.0892603541
F  F30  1  0.67900000  0.87970000  0.41650000  1.0 -0.0892603541
