# DDEC6 charges by PACMAN v1.1 (https://github.com/mtap-research/PACMAN-charge/)
data_TOLGOR_FSR_pacman
_symmetry_space_group_name_H-M   'P 1'
_cell_length_a   16.89300000
_cell_length_b   16.15500000
_cell_length_c   20.51400000
_cell_angle_alpha   90.00000000
_cell_angle_beta   110.62800000
_cell_angle_gamma   90.00000000
_symmetry_Int_Tables_number   1
_chemical_formula_structural   Cd2H39C40N7O11
_chemical_formula_sum   'Cd8 H156 C160 N28 O44'
_cell_volume   5239.47453401
_cell_formula_units_Z   4
loop_
 _symmetry_equiv_pos_site_id
 _symmetry_equiv_pos_as_xyz
  1  'x, y, z'
loop_
 _atom_site_type_symbol
 _atom_site_label
 _atom_site_symmetry_multiplicity
 _atom_site_fract_x
 _atom_site_fract_y
 _atom_site_fract_z
 _atom_site_occupancy
 _atom_site_charge
Cd  Cd1  1  0.25336000  0.91792000  0.25552000  1.0 0.9955432167
Cd  Cd2  1  0.74664000  0.41792000  0.24448000  1.0 0.9936555078
Cd  Cd3  1  0.17751000  0.98509000  0.06599000  1.0 0.9288602819
Cd  Cd4  1  0.82249000  0.48509000  0.43401000  1.0 0.9288602819
Cd  Cd5  1  0.74664000  0.08208000  0.74448000  1.0 0.9955432167
Cd  Cd6  1  0.25336000  0.58208000  0.75552000  1.0 0.9936555078
Cd  Cd7  1  0.82249000  0.01491000  0.93401000  1.0 0.9288602819
Cd  Cd8  1  0.17751000  0.51491000  0.56599000  1.0 0.9288602819
H  H1  1  0.14590000  0.84730000  0.13380000  1.0 0.3809623917
H  H2  1  0.85410000  0.34730000  0.36620000  1.0 0.3809623917
H  H3  1  0.23790000  0.83660000  0.13310000  1.0 0.3809623917
H  H4  1  0.76210000  0.33660000  0.36690000  1.0 0.3809623917
H  H5  1  0.16940000  0.95400000  0.36470000  1.0 0.1117505194
H  H6  1  0.83060000  0.45400000  0.13530000  1.0 0.1117505194
H  H7  1  0.17720000  0.03590000  0.45710000  1.0 0.1407633867
H  H8  1  0.82280000  0.53590000  0.04290000  1.0 0.1407633867
H  H9  1  0.40570000  0.10000000  0.47320000  1.0 0.1407633867
H  H10  1  0.59430000  0.60000000  0.02680000  1.0 0.1407633867
H  H11  1  0.39430000  0.02470000  0.37940000  1.0 0.1117505194
H  H12  1  0.60570000  0.52470000  0.12060000  1.0 0.1117505194
H  H13  1  0.10410000  0.17460000  0.49660000  1.0 0.1592378312
H  H14  1  0.89590000  0.67460000  0.00340000  1.0 0.1592378312
H  H15  1  0.14690000  0.19700000  0.44240000  1.0 0.1499798728
H  H16  1  0.85310000  0.69700000  0.05760000  1.0 0.1499798728
H  H17  1  0.13680000  0.26480000  0.49350000  1.0 0.1499798728
H  H18  1  0.86320000  0.76480000  0.00650000  1.0 0.1499798728
H  H19  1  0.47690000  0.10770000  0.67410000  1.0 0.1592378312
H  H20  1  0.52310000  0.60770000  0.82590000  1.0 0.1592378312
H  H21  1  0.47760000  0.11100000  0.59790000  1.0 0.1305699569
H  H22  1  0.52240000  0.61100000  0.90210000  1.0 0.1305699569
H  H23  1  0.43770000  0.03480000  0.62240000  1.0 0.1407633867
H  H24  1  0.56230000  0.53480000  0.87760000  1.0 0.1407633867
H  H25  1  0.16470000  0.29150000  0.60020000  1.0 0.1305699569
H  H26  1  0.83530000  0.79150000  0.89980000  1.0 0.1305699569
H  H27  1  0.24750000  0.31050000  0.66400000  1.0 0.1305699569
H  H28  1  0.75250000  0.81050000  0.83600000  1.0 0.1305699569
H  H29  1  0.32010000  0.27140000  0.79520000  1.0 0.1592378312
H  H30  1  0.67990000  0.77140000  0.70480000  1.0 0.1592378312
H  H31  1  0.27690000  0.25290000  0.84990000  1.0 0.1407633867
H  H32  1  0.72310000  0.75290000  0.65010000  1.0 0.1407633867
H  H33  1  0.24420000  0.32600000  0.79690000  1.0 0.1499798728
H  H34  1  0.75580000  0.82600000  0.70310000  1.0 0.1499798728
H  H35  1  0.98670000  0.08120000  0.70070000  1.0 0.1407633867
H  H36  1  0.01330000  0.58120000  0.79930000  1.0 0.1407633867
H  H37  1  0.05360000  0.00950000  0.71890000  1.0 0.1499798728
H  H38  1  0.94640000  0.50950000  0.78110000  1.0 0.1499798728
H  H39  1  0.01110000  0.03900000  0.64150000  1.0 0.1499798728
H  H40  1  0.98890000  0.53900000  0.85850000  1.0 0.1499798728
H  H41  1  0.28480000  0.14200000  0.89340000  1.0 0.118520567
H  H42  1  0.71520000  0.64200000  0.60660000  1.0 0.118520567
H  H43  1  0.28650000  0.08090000  0.99480000  1.0 0.1117505194
H  H44  1  0.71350000  0.58090000  0.50520000  1.0 0.1117505194
H  H45  1  0.04340000  0.06680000  0.91910000  1.0 0.1117505194
H  H46  1  0.95660000  0.56680000  0.58090000  1.0 0.1117505194
H  H47  1  0.03510000  0.09680000  0.80710000  1.0 0.118520567
H  H48  1  0.96490000  0.59680000  0.69290000  1.0 0.118520567
H  H49  1  0.98620000  0.67860000  0.16670000  1.0 0.118520567
H  H50  1  0.01380000  0.17860000  0.33333333  1.0 0.118520567
H  H51  1  0.90190000  0.59520000  0.20500000  1.0 0.118520567
H  H52  1  0.09810000  0.09520000  0.29500000  1.0 0.1117505194
H  H53  1  0.02280000  0.67000000  0.39880000  1.0 0.1305699569
H  H54  1  0.97720000  0.17000000  0.10120000  1.0 0.1305699569
H  H55  1  0.09130000  0.76790000  0.36000000  1.0 0.1117505194
H  H56  1  0.90870000  0.26790000  0.14000000  1.0 0.1117505194
H  H57  1  0.46900000  0.08010000  0.30500000  1.0 0.118520567
H  H58  1  0.53100000  0.58010000  0.19500000  1.0 0.118520567
H  H59  1  0.58420000  0.16790000  0.33900000  1.0 0.1117505194
H  H60  1  0.41580000  0.66790000  0.16100000  1.0 0.1117505194
H  H61  1  0.52700000  0.22980000  0.13700000  1.0 0.118520567
H  H62  1  0.47300000  0.72980000  0.36300000  1.0 0.118520567
H  H63  1  0.41640000  0.13740000  0.10560000  1.0 0.118520567
H  H64  1  0.58360000  0.63740000  0.39440000  1.0 0.118520567
H  H65  1  0.25130000  0.80130000  0.03910000  1.0 0.1305699569
H  H66  1  0.74870000  0.30130000  0.46090000  1.0 0.1305699569
H  H67  1  0.29350000  0.88580000  0.91680000  1.0 0.1407633867
H  H68  1  0.70650000  0.38580000  0.58320000  1.0 0.1407633867
H  H69  1  0.25760000  0.80990000  0.86760000  1.0 0.1407633867
H  H70  1  0.74240000  0.30990000  0.63240000  1.0 0.1407633867
H  H71  1  0.35450000  0.81500000  0.91140000  1.0 0.1407633867
H  H72  1  0.64550000  0.31500000  0.58860000  1.0 0.1407633867
H  H73  1  0.34700000  0.68910000  0.95800000  1.0 0.1407633867
H  H74  1  0.65300000  0.18910000  0.54200000  1.0 0.1407633867
H  H75  1  0.24910000  0.68250000  0.91880000  1.0 0.1407633867
H  H76  1  0.75090000  0.18250000  0.58120000  1.0 0.1407633867
H  H77  1  0.28650000  0.67770000  0.00030000  1.0 0.1305699569
H  H78  1  0.71350000  0.17770000  0.49970000  1.0 0.1305699569
H  H79  1  0.85410000  0.15270000  0.86620000  1.0 0.3809623917
H  H80  1  0.14590000  0.65270000  0.63380000  1.0 0.3809623917
H  H81  1  0.76210000  0.16340000  0.86690000  1.0 0.3809623917
H  H82  1  0.23790000  0.66340000  0.63310000  1.0 0.3809623917
H  H83  1  0.83060000  0.04600000  0.63530000  1.0 0.1117505194
H  H84  1  0.16940000  0.54600000  0.86470000  1.0 0.1117505194
H  H85  1  0.82280000  0.96410000  0.54290000  1.0 0.1407633867
H  H86  1  0.17720000  0.46410000  0.95710000  1.0 0.1407633867
H  H87  1  0.59430000  0.90000000  0.52680000  1.0 0.1407633867
H  H88  1  0.40570000  0.40000000  0.97320000  1.0 0.1407633867
H  H89  1  0.60570000  0.97530000  0.62060000  1.0 0.1117505194
H  H90  1  0.39430000  0.47530000  0.87940000  1.0 0.1117505194
H  H91  1  0.89590000  0.82540000  0.50340000  1.0 0.1592378312
H  H92  1  0.10410000  0.32540000  0.99660000  1.0 0.1592378312
H  H93  1  0.85310000  0.80300000  0.55760000  1.0 0.1499798728
H  H94  1  0.14690000  0.30300000  0.94240000  1.0 0.1499798728
H  H95  1  0.86320000  0.73520000  0.50650000  1.0 0.1499798728
H  H96  1  0.13680000  0.23520000  0.99350000  1.0 0.1499798728
H  H97  1  0.52310000  0.89230000  0.32590000  1.0 0.1592378312
H  H98  1  0.47690000  0.39230000  0.17410000  1.0 0.1592378312
H  H99  1  0.52240000  0.88900000  0.40210000  1.0 0.1305699569
H  H100  1  0.47760000  0.38900000  0.09790000  1.0 0.1305699569
H  H101  1  0.56230000  0.96520000  0.37760000  1.0 0.1407633867
H  H102  1  0.43770000  0.46520000  0.12240000  1.0 0.1407633867
H  H103  1  0.83530000  0.70850000  0.39980000  1.0 0.1305699569
H  H104  1  0.16470000  0.20850000  0.10020000  1.0 0.1305699569
H  H105  1  0.75250000  0.68950000  0.33600000  1.0 0.1305699569
H  H106  1  0.24750000  0.18950000  0.16400000  1.0 0.1305699569
H  H107  1  0.67990000  0.72860000  0.20480000  1.0 0.1592378312
H  H108  1  0.32010000  0.22860000  0.29520000  1.0 0.1592378312
H  H109  1  0.72310000  0.74710000  0.15010000  1.0 0.1407633867
H  H110  1  0.27690000  0.24710000  0.34990000  1.0 0.1407633867
H  H111  1  0.75580000  0.67400000  0.20310000  1.0 0.1499798728
H  H112  1  0.24420000  0.17400000  0.29690000  1.0 0.1499798728
H  H113  1  0.01330000  0.91880000  0.29930000  1.0 0.1407633867
H  H114  1  0.98670000  0.41880000  0.20070000  1.0 0.1407633867
H  H115  1  0.94640000  0.99050000  0.28110000  1.0 0.1499798728
H  H116  1  0.05360000  0.49050000  0.21890000  1.0 0.1499798728
H  H117  1  0.98890000  0.96100000  0.35850000  1.0 0.1499798728
H  H118  1  0.01110000  0.46100000  0.14150000  1.0 0.1499798728
H  H119  1  0.71520000  0.85800000  0.10660000  1.0 0.118520567
H  H120  1  0.28480000  0.35800000  0.39340000  1.0 0.118520567
H  H121  1  0.71350000  0.91910000  0.00520000  1.0 0.1117505194
H  H122  1  0.28650000  0.41910000  0.49480000  1.0 0.1117505194
H  H123  1  0.95660000  0.93320000  0.08090000  1.0 0.1117505194
H  H124  1  0.04340000  0.43320000  0.41910000  1.0 0.1117505194
H  H125  1  0.96490000  0.90320000  0.19290000  1.0 0.118520567
H  H126  1  0.03510000  0.40320000  0.30710000  1.0 0.118520567
H  H127  1  0.01380000  0.32140000  0.83330000  1.0 0.118520567
H  H128  1  0.98620000  0.82140000  0.66666667  1.0 0.118520567
H  H129  1  0.09810000  0.40480000  0.79500000  1.0 0.1117505194
H  H130  1  0.90190000  0.90480000  0.70500000  1.0 0.118520567
H  H131  1  0.97720000  0.33000000  0.60120000  1.0 0.1305699569
H  H132  1  0.02280000  0.83000000  0.89880000  1.0 0.1305699569
H  H133  1  0.90870000  0.23210000  0.64000000  1.0 0.1117505194
H  H134  1  0.09130000  0.73210000  0.86000000  1.0 0.118520567
H  H135  1  0.53100000  0.91990000  0.69500000  1.0 0.118520567
H  H136  1  0.46900000  0.41990000  0.80500000  1.0 0.118520567
H  H137  1  0.41580000  0.83210000  0.66100000  1.0 0.1117505194
H  H138  1  0.58420000  0.33210000  0.83900000  1.0 0.1117505194
H  H139  1  0.47300000  0.77020000  0.86300000  1.0 0.118520567
H  H140  1  0.52700000  0.27020000  0.63700000  1.0 0.118520567
H  H141  1  0.58360000  0.86260000  0.89440000  1.0 0.118520567
H  H142  1  0.41640000  0.36260000  0.60560000  1.0 0.118520567
H  H143  1  0.74870000  0.19870000  0.96090000  1.0 0.1305699569
H  H144  1  0.25130000  0.69870000  0.53910000  1.0 0.1305699569
H  H145  1  0.70650000  0.11420000  0.08320000  1.0 0.1407633867
H  H146  1  0.29350000  0.61420000  0.41680000  1.0 0.1407633867
H  H147  1  0.74240000  0.19010000  0.13240000  1.0 0.1407633867
H  H148  1  0.25760000  0.69010000  0.36760000  1.0 0.1407633867
H  H149  1  0.64550000  0.18500000  0.08860000  1.0 0.1407633867
H  H150  1  0.35450000  0.68500000  0.41140000  1.0 0.1407633867
H  H151  1  0.65300000  0.31090000  0.04200000  1.0 0.1407633867
H  H152  1  0.34700000  0.81090000  0.45800000  1.0 0.1407633867
H  H153  1  0.75090000  0.31750000  0.08120000  1.0 0.1407633867
H  H154  1  0.24910000  0.81750000  0.41880000  1.0 0.1407633867
H  H155  1  0.71350000  0.32230000  0.99970000  1.0 0.1305699569
H  H156  1  0.28650000  0.82230000  0.50030000  1.0 0.1305699569
C  C1  1  0.21850000  0.98440000  0.38600000  1.0 0.1117505194
C  C2  1  0.78150000  0.48440000  0.11400000  1.0 0.1117505194
C  C3  1  0.22320000  0.03470000  0.44210000  1.0 -0.2203963349
C  C4  1  0.77680000  0.53470000  0.05790000  1.0 -0.2203963349
C  C5  1  0.29070000  0.08170000  0.47570000  1.0 0.1407633867
C  C6  1  0.70930000  0.58170000  0.02430000  1.0 0.1407633867
C  C7  1  0.35520000  0.07230000  0.45070000  1.0 -0.1929743836
C  C8  1  0.64480000  0.57230000  0.04930000  1.0 -0.1929743836
C  C9  1  0.34940000  0.02550000  0.39570000  1.0 0.0137301836
C  C10  1  0.65060000  0.52550000  0.10430000  1.0 0.0137301836
C  C11  1  0.29490000  0.13260000  0.53380000  1.0 -0.1781811124
C  C12  1  0.70510000  0.63260000  0.96620000  1.0 -0.1781811124
C  C13  1  0.23180000  0.18400000  0.54050000  1.0 0.1592378312
C  C14  1  0.76820000  0.68400000  0.95950000  1.0 0.1592378312
C  C15  1  0.14730000  0.20700000  0.48860000  1.0 -0.4891540656
C  C16  1  0.85270000  0.70700000  0.01140000  1.0 -0.4891540656
C  C17  1  0.35720000  0.13870000  0.60140000  1.0 0.2386983906
C  C18  1  0.64280000  0.63870000  0.89860000  1.0 0.2386983906
C  C19  1  0.44610000  0.09360000  0.62640000  1.0 -0.4788625846
C  C20  1  0.55390000  0.59360000  0.87360000  1.0 -0.4788625846
C  C21  1  0.21200000  0.26660000  0.63700000  1.0 -0.0696419949
C  C22  1  0.78800000  0.76660000  0.86300000  1.0 -0.0696419949
C  C23  1  0.20630000  0.21300000  0.75200000  1.0 0.1728487735
C  C24  1  0.79370000  0.71300000  0.74800000  1.0 0.1728487735
C  C25  1  0.26750000  0.27110000  0.80320000  1.0 -0.4891540656
C  C26  1  0.73250000  0.77110000  0.69680000  1.0 -0.4891540656
C  C27  1  0.15800000  0.15070000  0.77070000  1.0 -0.1284906591
C  C28  1  0.84200000  0.65070000  0.72930000  1.0 -0.1284906591
C  C29  1  0.10440000  0.12160000  0.70050000  1.0 0.2619820436
C  C30  1  0.89560000  0.62160000  0.79950000  1.0 0.2619820436
C  C31  1  0.03200000  0.05700000  0.68930000  1.0 -0.4788625846
C  C32  1  0.96800000  0.55700000  0.81070000  1.0 -0.4891540656
C  C33  1  0.16050000  0.12340000  0.83510000  1.0 0.1305699569
C  C34  1  0.83950000  0.62340000  0.66490000  1.0 0.1305699569
C  C35  1  0.23480000  0.12030000  0.89560000  1.0 -0.1960258509
C  C36  1  0.76520000  0.62030000  0.60440000  1.0 -0.1960258509
C  C37  1  0.23550000  0.08630000  0.95800000  1.0 0.0567058077
C  C38  1  0.76450000  0.58630000  0.54200000  1.0 0.0567058077
C  C39  1  0.09400000  0.07420000  0.91140000  1.0 0.0836901715
C  C40  1  0.90600000  0.57420000  0.58860000  1.0 0.0836901715
C  C41  1  0.08660000  0.09800000  0.84390000  1.0 -0.1781811124
C  C42  1  0.91340000  0.59800000  0.65610000  1.0 -0.1781811124
C  C43  1  0.10130000  0.79240000  0.23130000  1.0 0.5534426322
C  C44  1  0.89870000  0.29240000  0.26870000  1.0 0.5534426322
C  C45  1  0.05010000  0.73320000  0.25880000  1.0 -0.024485537
C  C46  1  0.94990000  0.23320000  0.24120000  1.0 -0.024485537
C  C47  1  0.99190000  0.67960000  0.21350000  1.0 -0.1222490041
C  C48  1  0.00810000  0.17960000  0.28650000  1.0 -0.1222490041
C  C49  1  0.94260000  0.62810000  0.23680000  1.0 -0.1222490041
C  C50  1  0.05740000  0.12810000  0.26320000  1.0 -0.1222490041
C  C51  1  0.95250000  0.62430000  0.30680000  1.0 -0.0326974612
C  C52  1  0.04750000  0.12430000  0.19320000  1.0 -0.0326974612
C  C53  1  0.01200000  0.67400000  0.35130000  1.0 -0.1022926146
C  C54  1  0.98800000  0.17400000  0.14870000  1.0 -0.1022926146
C  C55  1  0.05620000  0.73040000  0.32850000  1.0 -0.1121939101
C  C56  1  0.94380000  0.23040000  0.17150000  1.0 -0.1121939101
C  C57  1  0.90010000  0.56370000  0.33040000  1.0 0.5627867927
C  C58  1  0.09990000  0.06370000  0.16960000  1.0 0.5627867927
C  C59  1  0.34990000  0.04410000  0.18470000  1.0 0.5760366073
C  C60  1  0.65010000  0.54410000  0.31530000  1.0 0.5760366073
C  C61  1  0.42940000  0.10030000  0.20450000  1.0 -0.0134112515
C  C62  1  0.57060000  0.60030000  0.29550000  1.0 -0.0134112515
C  C63  1  0.48090000  0.11030000  0.27100000  1.0 -0.1121939101
C  C64  1  0.51910000  0.61030000  0.22900000  1.0 -0.1121939101
C  C65  1  0.55020000  0.16210000  0.29250000  1.0 -0.1121939101
C  C66  1  0.44980000  0.66210000  0.20750000  1.0 -0.1121939101
C  C67  1  0.56610000  0.20770000  0.23600000  1.0 -0.0134112515
C  C68  1  0.43390000  0.70770000  0.26400000  1.0 -0.0134112515
C  C69  1  0.63990000  0.26990000  0.26140000  1.0 0.5734598389
C  C70  1  0.36010000  0.76990000  0.23860000  1.0 0.5734598389
C  C71  1  0.51660000  0.19880000  0.17130000  1.0 -0.0877587373
C  C72  1  0.48340000  0.69880000  0.32870000  1.0 -0.0877587373
C  C73  1  0.44900000  0.14480000  0.15240000  1.0 -0.1121939101
C  C74  1  0.55100000  0.64480000  0.34760000  1.0 -0.1121939101
C  C75  1  0.26000000  0.83200000  0.00400000  1.0 0.2223915061
C  C76  1  0.74000000  0.33200000  0.49600000  1.0 0.2223915061
C  C77  1  0.29900000  0.82700000  0.91110000  1.0 -0.2798805708
C  C78  1  0.70100000  0.32700000  0.58890000  1.0 -0.2798805708
C  C79  1  0.29300000  0.70300000  0.96000000  1.0 -0.3025630886
C  C80  1  0.70700000  0.20300000  0.54000000  1.0 -0.3025630886
C  C81  1  0.78150000  0.01560000  0.61400000  1.0 0.1117505194
C  C82  1  0.21850000  0.51560000  0.88600000  1.0 0.1117505194
C  C83  1  0.77680000  0.96530000  0.55790000  1.0 -0.2203963349
C  C84  1  0.22320000  0.46530000  0.94210000  1.0 -0.2203963349
C  C85  1  0.70930000  0.91830000  0.52430000  1.0 0.1407633867
C  C86  1  0.29070000  0.41830000  0.97570000  1.0 0.1407633867
C  C87  1  0.64480000  0.92770000  0.54930000  1.0 -0.1929743836
C  C88  1  0.35520000  0.42770000  0.95070000  1.0 -0.1929743836
C  C89  1  0.65060000  0.97450000  0.60430000  1.0 0.0137301836
C  C90  1  0.34940000  0.47450000  0.89570000  1.0 0.0137301836
C  C91  1  0.70510000  0.86740000  0.46620000  1.0 -0.1781811124
C  C92  1  0.29490000  0.36740000  0.03380000  1.0 -0.1781811124
C  C93  1  0.76820000  0.81600000  0.45950000  1.0 0.1592378312
C  C94  1  0.23180000  0.31600000  0.04050000  1.0 0.1592378312
C  C95  1  0.85270000  0.79300000  0.51140000  1.0 -0.4891540656
C  C96  1  0.14730000  0.29300000  0.98860000  1.0 -0.4891540656
C  C97  1  0.64280000  0.86130000  0.39860000  1.0 0.2386983906
C  C98  1  0.35720000  0.36130000  0.10140000  1.0 0.2386983906
C  C99  1  0.55390000  0.90640000  0.37360000  1.0 -0.4788625846
C  C100  1  0.44610000  0.40640000  0.12640000  1.0 -0.4788625846
C  C101  1  0.78800000  0.73340000  0.36300000  1.0 -0.0696419949
C  C102  1  0.21200000  0.23340000  0.13700000  1.0 -0.0696419949
C  C103  1  0.79370000  0.78700000  0.24800000  1.0 0.1728487735
C  C104  1  0.20630000  0.28700000  0.25200000  1.0 0.1728487735
C  C105  1  0.73250000  0.72890000  0.19680000  1.0 -0.4891540656
C  C106  1  0.26750000  0.22890000  0.30320000  1.0 -0.4891540656
C  C107  1  0.84200000  0.84930000  0.22930000  1.0 -0.1284906591
C  C108  1  0.15800000  0.34930000  0.27070000  1.0 -0.1284906591
C  C109  1  0.89560000  0.87840000  0.29950000  1.0 0.2619820436
C  C110  1  0.10440000  0.37840000  0.20050000  1.0 0.2619820436
C  C111  1  0.96800000  0.94300000  0.31070000  1.0 -0.4891540656
C  C112  1  0.03200000  0.44300000  0.18930000  1.0 -0.4891540656
C  C113  1  0.83950000  0.87660000  0.16490000  1.0 0.1305699569
C  C114  1  0.16050000  0.37660000  0.33510000  1.0 0.1305699569
C  C115  1  0.76520000  0.87970000  0.10440000  1.0 -0.1960258509
C  C116  1  0.23480000  0.37970000  0.39560000  1.0 -0.1960258509
C  C117  1  0.76450000  0.91370000  0.04200000  1.0 0.0567058077
C  C118  1  0.23550000  0.41370000  0.45800000  1.0 0.0567058077
C  C119  1  0.90600000  0.92580000  0.08860000  1.0 0.0836901715
C  C120  1  0.09400000  0.42580000  0.41140000  1.0 0.0836901715
C  C121  1  0.91340000  0.90200000  0.15610000  1.0 -0.1781811124
C  C122  1  0.08660000  0.40200000  0.34390000  1.0 -0.1781811124
C  C123  1  0.89870000  0.20760000  0.76870000  1.0 0.5534426322
C  C124  1  0.10130000  0.70760000  0.73130000  1.0 0.5534426322
C  C125  1  0.94990000  0.26680000  0.74120000  1.0 -0.024485537
C  C126  1  0.05010000  0.76680000  0.75880000  1.0 -0.024485537
C  C127  1  0.00810000  0.32040000  0.78650000  1.0 -0.1222490041
C  C128  1  0.99190000  0.82040000  0.71350000  1.0 -0.1222490041
C  C129  1  0.05740000  0.37190000  0.76320000  1.0 -0.1222490041
C  C130  1  0.94260000  0.87190000  0.73680000  1.0 -0.1222490041
C  C131  1  0.04750000  0.37570000  0.69320000  1.0 -0.0326974612
C  C132  1  0.95250000  0.87570000  0.80680000  1.0 -0.0326974612
C  C133  1  0.98800000  0.32600000  0.64870000  1.0 -0.1022926146
C  C134  1  0.01200000  0.82600000  0.85130000  1.0 -0.1022926146
C  C135  1  0.94380000  0.26960000  0.67150000  1.0 -0.1121939101
C  C136  1  0.05620000  0.76960000  0.82850000  1.0 -0.1121939101
C  C137  1  0.09990000  0.43630000  0.66960000  1.0 0.5627867927
C  C138  1  0.90010000  0.93630000  0.83040000  1.0 0.5627867927
C  C139  1  0.65010000  0.95590000  0.81530000  1.0 0.5760366073
C  C140  1  0.34990000  0.45590000  0.68470000  1.0 0.5760366073
C  C141  1  0.57060000  0.89970000  0.79550000  1.0 -0.0134112515
C  C142  1  0.42940000  0.39970000  0.70450000  1.0 -0.0134112515
C  C143  1  0.51910000  0.88970000  0.72900000  1.0 -0.1121939101
C  C144  1  0.48090000  0.38970000  0.77100000  1.0 -0.1121939101
C  C145  1  0.44980000  0.83790000  0.70750000  1.0 -0.1121939101
C  C146  1  0.55020000  0.33790000  0.79250000  1.0 -0.1121939101
C  C147  1  0.43390000  0.79230000  0.76400000  1.0 -0.0134112515
C  C148  1  0.56610000  0.29230000  0.73600000  1.0 -0.0134112515
C  C149  1  0.36010000  0.73010000  0.73860000  1.0 0.5734598389
C  C150  1  0.63990000  0.23010000  0.76140000  1.0 0.5734598389
C  C151  1  0.48340000  0.80120000  0.82870000  1.0 -0.0877587373
C  C152  1  0.51660000  0.30120000  0.67130000  1.0 -0.0877587373
C  C153  1  0.55100000  0.85520000  0.84760000  1.0 -0.1121939101
C  C154  1  0.44900000  0.35520000  0.65240000  1.0 -0.1121939101
C  C155  1  0.74000000  0.16800000  0.99600000  1.0 0.2223915061
C  C156  1  0.26000000  0.66800000  0.50400000  1.0 0.2223915061
C  C157  1  0.70100000  0.17300000  0.08890000  1.0 -0.2798805708
C  C158  1  0.29900000  0.67300000  0.41110000  1.0 -0.2798805708
C  C159  1  0.70700000  0.29700000  0.04000000  1.0 -0.3025630886
C  C160  1  0.29300000  0.79700000  0.46000000  1.0 -0.3025630886
N  N1  1  0.27890000  0.97820000  0.36240000  1.0 -0.2446037034
N  N2  1  0.72110000  0.47820000  0.13760000  1.0 -0.2446037034
N  N3  1  0.25970000  0.21300000  0.60730000  1.0 0.0722454538
N  N4  1  0.74030000  0.71300000  0.89270000  1.0 0.0722454538
N  N5  1  0.33890000  0.18600000  0.64610000  1.0 -0.3195335368
N  N6  1  0.66110000  0.68600000  0.85390000  1.0 -0.3195335368
N  N7  1  0.11840000  0.16140000  0.65060000  1.0 -0.3025630886
N  N8  1  0.88160000  0.66140000  0.84940000  1.0 -0.3025630886
N  N9  1  0.18020000  0.21540000  0.68190000  1.0 0.0977585589
N  N10  1  0.81980000  0.71540000  0.81810000  1.0 0.0977585589
N  N11  1  0.16330000  0.06110000  0.96540000  1.0 -0.2594225655
N  N12  1  0.83670000  0.56110000  0.53460000  1.0 -0.2594225655
N  N13  1  0.28560000  0.78690000  0.96360000  1.0 0.0342313809
N  N14  1  0.71440000  0.28690000  0.53640000  1.0 0.0342313809
N  N15  1  0.72110000  0.02180000  0.63760000  1.0 -0.2446037034
N  N16  1  0.27890000  0.52180000  0.86240000  1.0 -0.2446037034
N  N17  1  0.74030000  0.78700000  0.39270000  1.0 0.0722454538
N  N18  1  0.25970000  0.28700000  0.10730000  1.0 0.0722454538
N  N19  1  0.66110000  0.81400000  0.35390000  1.0 -0.3195335368
N  N20  1  0.33890000  0.31400000  0.14610000  1.0 -0.3195335368
N  N21  1  0.88160000  0.83860000  0.34940000  1.0 -0.3025630886
N  N22  1  0.11840000  0.33860000  0.15060000  1.0 -0.3025630886
N  N23  1  0.81980000  0.78460000  0.31810000  1.0 0.0977585589
N  N24  1  0.18020000  0.28460000  0.18190000  1.0 0.0977585589
N  N25  1  0.83670000  0.93890000  0.03460000  1.0 -0.2594225655
N  N26  1  0.16330000  0.43890000  0.46540000  1.0 -0.2594225655
N  N27  1  0.71440000  0.21310000  0.03640000  1.0 0.0342313809
N  N28  1  0.28560000  0.71310000  0.46360000  1.0 0.0342313809
O  O1  1  0.08670000  0.79120000  0.16770000  1.0 -0.5245684633
O  O2  1  0.91330000  0.29120000  0.33230000  1.0 -0.5245684633
O  O3  1  0.15440000  0.83630000  0.27540000  1.0 -0.577565361
O  O4  1  0.84560000  0.33630000  0.22460000  1.0 -0.577565361
O  O5  1  0.84520000  0.52360000  0.28410000  1.0 -0.577565361
O  O6  1  0.15480000  0.02360000  0.21590000  1.0 -0.577565361
O  O7  1  0.90780000  0.56320000  0.39310000  1.0 -0.4973674068
O  O8  1  0.09220000  0.06320000  0.10690000  1.0 -0.4973674068
O  O9  1  0.29950000  0.04910000  0.12280000  1.0 -0.5749596605
O  O10  1  0.70050000  0.54910000  0.37720000  1.0 -0.577565361
O  O11  1  0.34760000  0.99780000  0.23070000  1.0 -0.5313903192
O  O12  1  0.65240000  0.49780000  0.26930000  1.0 -0.5313903192
O  O13  1  0.67690000  0.27640000  0.32970000  1.0 -0.6024021903
O  O14  1  0.32310000  0.77640000  0.17030000  1.0 -0.6024021903
O  O15  1  0.65270000  0.31190000  0.21680000  1.0 -0.5380227218
O  O16  1  0.34730000  0.81190000  0.28320000  1.0 -0.5380227218
O  O17  1  0.05240000  0.90950000  0.01030000  1.0 -0.3320327152
O  O18  1  0.94760000  0.40950000  0.48970000  1.0 -0.3320327152
O  O19  1  0.19910000  0.87560000  0.14190000  1.0 -0.776422436
O  O20  1  0.80090000  0.37560000  0.35810000  1.0 -0.776422436
O  O21  1  0.24530000  0.89830000  0.00590000  1.0 -0.3469400579
O  O22  1  0.75470000  0.39830000  0.49410000  1.0 -0.3469400579
O  O23  1  0.91330000  0.20880000  0.83230000  1.0 -0.5245684633
O  O24  1  0.08670000  0.70880000  0.66770000  1.0 -0.5245684633
O  O25  1  0.84560000  0.16370000  0.72460000  1.0 -0.577565361
O  O26  1  0.15440000  0.66370000  0.77540000  1.0 -0.577565361
O  O27  1  0.15480000  0.47640000  0.71590000  1.0 -0.577565361
O  O28  1  0.84520000  0.97640000  0.78410000  1.0 -0.577565361
O  O29  1  0.09220000  0.43680000  0.60690000  1.0 -0.4973674068
O  O30  1  0.90780000  0.93680000  0.89310000  1.0 -0.4973674068
O  O31  1  0.70050000  0.95090000  0.87720000  1.0 -0.5749596605
O  O32  1  0.29950000  0.45090000  0.62280000  1.0 -0.577565361
O  O33  1  0.65240000  0.00220000  0.76930000  1.0 -0.5313903192
O  O34  1  0.34760000  0.50220000  0.73070000  1.0 -0.5313903192
O  O35  1  0.32310000  0.72360000  0.67030000  1.0 -0.6024021903
O  O36  1  0.67690000  0.22360000  0.82970000  1.0 -0.6024021903
O  O37  1  0.34730000  0.68810000  0.78320000  1.0 -0.5380227218
O  O38  1  0.65270000  0.18810000  0.71680000  1.0 -0.5380227218
O  O39  1  0.94760000  0.09050000  0.98970000  1.0 -0.3320327152
O  O40  1  0.05240000  0.59050000  0.51030000  1.0 -0.3350540946
O  O41  1  0.80090000  0.12440000  0.85810000  1.0 -0.776422436
O  O42  1  0.19910000  0.62440000  0.64190000  1.0 -0.776422436
O  O43  1  0.75470000  0.10170000  0.99410000  1.0 -0.3469400579
O  O44  1  0.24530000  0.60170000  0.50590000  1.0 -0.3469400579
