# DDEC6 charges by PACMAN v1.1 (https://github.com/mtap-research/PACMAN-charge/)
data_TONLOY_ASR_pacman
_symmetry_space_group_name_H-M   'P 1'
_cell_length_a   16.17150000
_cell_length_b   16.17150000
_cell_length_c   16.17150000
_cell_angle_alpha   114.02300000
_cell_angle_beta   114.02300000
_cell_angle_gamma   114.02300000
_symmetry_Int_Tables_number   1
_chemical_formula_structural   CdH18C14N4O7
_chemical_formula_sum   'Cd6 H108 C84 N24 O42'
_cell_volume   2565.02720257
_cell_formula_units_Z   6
loop_
 _symmetry_equiv_pos_site_id
 _symmetry_equiv_pos_as_xyz
  1  'x, y, z'
loop_
 _atom_site_type_symbol
 _atom_site_label
 _atom_site_symmetry_multiplicity
 _atom_site_fract_x
 _atom_site_fract_y
 _atom_site_fract_z
 _atom_site_occupancy
 _atom_site_charge
Cd  Cd1  1  0.99300000  0.25000000  0.50700000  1.0 0.8377989691
Cd  Cd2  1  0.25000000  0.50700000  0.99300000  1.0 0.8377989691
Cd  Cd3  1  0.50700000  0.99300000  0.25000000  1.0 0.8377989691
Cd  Cd4  1  0.00700000  0.75000000  0.49300000  1.0 0.8377989691
Cd  Cd5  1  0.75000000  0.49300000  0.00700000  1.0 0.8377989691
Cd  Cd6  1  0.49300000  0.00700000  0.75000000  1.0 0.8377989691
H  H1  1  0.94920000  0.29130000  0.67470000  1.0 0.3098349235
H  H2  1  0.29130000  0.67470000  0.94920000  1.0 0.3098349235
H  H3  1  0.67470000  0.94920000  0.29130000  1.0 0.3098349235
H  H4  1  0.55080000  0.82530000  0.20870000  1.0 0.3098349235
H  H5  1  0.82530000  0.20870000  0.55080000  1.0 0.3098349235
H  H6  1  0.20870000  0.55080000  0.82530000  1.0 0.3098349235
H  H7  1  0.05080000  0.70870000  0.32530000  1.0 0.3098349235
H  H8  1  0.70870000  0.32530000  0.05080000  1.0 0.3098349235
H  H9  1  0.32530000  0.05080000  0.70870000  1.0 0.3098349235
H  H10  1  0.44920000  0.17470000  0.79130000  1.0 0.3098349235
H  H11  1  0.17470000  0.79130000  0.44920000  1.0 0.3098349235
H  H12  1  0.79130000  0.44920000  0.17470000  1.0 0.3098349235
H  H13  1  0.97840000  0.50910000  0.36860000  1.0 0.0984863214
H  H14  1  0.50910000  0.36860000  0.97840000  1.0 0.0984863214
H  H15  1  0.36860000  0.97840000  0.50910000  1.0 0.0984863214
H  H16  1  0.52160000  0.13140000  0.99090000  1.0 0.0984863214
H  H17  1  0.13140000  0.99090000  0.52160000  1.0 0.0984863214
H  H18  1  0.99090000  0.52160000  0.13140000  1.0 0.0984863214
H  H19  1  0.02160000  0.49090000  0.63140000  1.0 0.0984863214
H  H20  1  0.49090000  0.63140000  0.02160000  1.0 0.0984863214
H  H21  1  0.63140000  0.02160000  0.49090000  1.0 0.0984863214
H  H22  1  0.47840000  0.86860000  0.00910000  1.0 0.0984863214
H  H23  1  0.86860000  0.00910000  0.47840000  1.0 0.0984863214
H  H24  1  0.00910000  0.47840000  0.86860000  1.0 0.0984863214
H  H25  1  0.12910000  0.49270000  0.44490000  1.0 0.1190245771
H  H26  1  0.49270000  0.44490000  0.12910000  1.0 0.1190245771
H  H27  1  0.44490000  0.12910000  0.49270000  1.0 0.1190245771
H  H28  1  0.37090000  0.05510000  0.00730000  1.0 0.1190245771
H  H29  1  0.05510000  0.00730000  0.37090000  1.0 0.1190245771
H  H30  1  0.00730000  0.37090000  0.05510000  1.0 0.1190245771
H  H31  1  0.87090000  0.50730000  0.55510000  1.0 0.1190245771
H  H32  1  0.50730000  0.55510000  0.87090000  1.0 0.1190245771
H  H33  1  0.55510000  0.87090000  0.50730000  1.0 0.1190245771
H  H34  1  0.62910000  0.94490000  0.99270000  1.0 0.1190245771
H  H35  1  0.94490000  0.99270000  0.62910000  1.0 0.1190245771
H  H36  1  0.99270000  0.62910000  0.94490000  1.0 0.1190245771
H  H37  1  0.32000000  0.66870000  0.80220000  1.0 0.0984863214
H  H38  1  0.66870000  0.80220000  0.32000000  1.0 0.0984863214
H  H39  1  0.80220000  0.32000000  0.66870000  1.0 0.0984863214
H  H40  1  0.18000000  0.69780000  0.83130000  1.0 0.0984863214
H  H41  1  0.69780000  0.83130000  0.18000000  1.0 0.0984863214
H  H42  1  0.83130000  0.18000000  0.69780000  1.0 0.0984863214
H  H43  1  0.68000000  0.33130000  0.19780000  1.0 0.0984863214
H  H44  1  0.33130000  0.19780000  0.68000000  1.0 0.0984863214
H  H45  1  0.19780000  0.68000000  0.33130000  1.0 0.0984863214
H  H46  1  0.82000000  0.30220000  0.16870000  1.0 0.0984863214
H  H47  1  0.30220000  0.16870000  0.82000000  1.0 0.0984863214
H  H48  1  0.16870000  0.82000000  0.30220000  1.0 0.0984863214
H  H49  1  0.41430000  0.66020000  0.80520000  1.0 0.0909378944
H  H50  1  0.66020000  0.80520000  0.41430000  1.0 0.0909378944
H  H51  1  0.80520000  0.41430000  0.66020000  1.0 0.0909378944
H  H52  1  0.08570000  0.69480000  0.83980000  1.0 0.0909378944
H  H53  1  0.69480000  0.83980000  0.08570000  1.0 0.0909378944
H  H54  1  0.83980000  0.08570000  0.69480000  1.0 0.0909378944
H  H55  1  0.58570000  0.33980000  0.19480000  1.0 0.0909378944
H  H56  1  0.33980000  0.19480000  0.58570000  1.0 0.0909378944
H  H57  1  0.19480000  0.58570000  0.33980000  1.0 0.0909378944
H  H58  1  0.91430000  0.30520000  0.16020000  1.0 0.0909378944
H  H59  1  0.30520000  0.16020000  0.91430000  1.0 0.0909378944
H  H60  1  0.16020000  0.91430000  0.30520000  1.0 0.0909378944
H  H61  1  0.37220000  0.66540000  0.66030000  1.0 0.0838905584
H  H62  1  0.66540000  0.66030000  0.37220000  1.0 0.0838905584
H  H63  1  0.66030000  0.37220000  0.66540000  1.0 0.0838905584
H  H64  1  0.12780000  0.83970000  0.83460000  1.0 0.0838905584
H  H65  1  0.83970000  0.83460000  0.12780000  1.0 0.0838905584
H  H66  1  0.83460000  0.12780000  0.83970000  1.0 0.0838905584
H  H67  1  0.62780000  0.33460000  0.33970000  1.0 0.0838905584
H  H68  1  0.33460000  0.33970000  0.62780000  1.0 0.0838905584
H  H69  1  0.33970000  0.62780000  0.33460000  1.0 0.0838905584
H  H70  1  0.87220000  0.16030000  0.16540000  1.0 0.0838905584
H  H71  1  0.16030000  0.16540000  0.87220000  1.0 0.0838905584
H  H72  1  0.16540000  0.87220000  0.16030000  1.0 0.0838905584
H  H73  1  0.41340000  0.78070000  0.77200000  1.0 0.0984863214
H  H74  1  0.78070000  0.77200000  0.41340000  1.0 0.0984863214
H  H75  1  0.77200000  0.41340000  0.78070000  1.0 0.0984863214
H  H76  1  0.08660000  0.72800000  0.71930000  1.0 0.0984863214
H  H77  1  0.72800000  0.71930000  0.08660000  1.0 0.0984863214
H  H78  1  0.71930000  0.08660000  0.72800000  1.0 0.0984863214
H  H79  1  0.58660000  0.21930000  0.22800000  1.0 0.0984863214
H  H80  1  0.21930000  0.22800000  0.58660000  1.0 0.0984863214
H  H81  1  0.22800000  0.58660000  0.21930000  1.0 0.0984863214
H  H82  1  0.91340000  0.27200000  0.28070000  1.0 0.0984863214
H  H83  1  0.27200000  0.28070000  0.91340000  1.0 0.0984863214
H  H84  1  0.28070000  0.91340000  0.27200000  1.0 0.0984863214
H  H85  1  0.59370000  0.38960000  0.26950000  1.0 0.0909378944
H  H86  1  0.38960000  0.26950000  0.59370000  1.0 0.0909378944
H  H87  1  0.26950000  0.59370000  0.38960000  1.0 0.0909378944
H  H88  1  0.90630000  0.23050000  0.11040000  1.0 0.0909378944
H  H89  1  0.23050000  0.11040000  0.90630000  1.0 0.0909378944
H  H90  1  0.11040000  0.90630000  0.23050000  1.0 0.0909378944
H  H91  1  0.40630000  0.61040000  0.73050000  1.0 0.0909378944
H  H92  1  0.61040000  0.73050000  0.40630000  1.0 0.0909378944
H  H93  1  0.73050000  0.40630000  0.61040000  1.0 0.0909378944
H  H94  1  0.09370000  0.76950000  0.88960000  1.0 0.0909378944
H  H95  1  0.76950000  0.88960000  0.09370000  1.0 0.0909378944
H  H96  1  0.88960000  0.09370000  0.76950000  1.0 0.0909378944
H  H97  1  0.68840000  0.45930000  0.40960000  1.0 0.1190245771
H  H98  1  0.45930000  0.40960000  0.68840000  1.0 0.1190245771
H  H99  1  0.40960000  0.68840000  0.45930000  1.0 0.1190245771
H  H100  1  0.81160000  0.09040000  0.04070000  1.0 0.1190245771
H  H101  1  0.09040000  0.04070000  0.81160000  1.0 0.1190245771
H  H102  1  0.04070000  0.81160000  0.09040000  1.0 0.1190245771
H  H103  1  0.31160000  0.54070000  0.59040000  1.0 0.1190245771
H  H104  1  0.54070000  0.59040000  0.31160000  1.0 0.1190245771
H  H105  1  0.59040000  0.31160000  0.54070000  1.0 0.1190245771
H  H106  1  0.18840000  0.90960000  0.95930000  1.0 0.1190245771
H  H107  1  0.90960000  0.95930000  0.18840000  1.0 0.1190245771
H  H108  1  0.95930000  0.18840000  0.90960000  1.0 0.1190245771
C  C1  1  0.20770000  0.73150000  0.64620000  1.0 0.1568224243
C  C2  1  0.73150000  0.64620000  0.20770000  1.0 0.1568224243
C  C3  1  0.64620000  0.20770000  0.73150000  1.0 0.1568224243
C  C4  1  0.29230000  0.85380000  0.76850000  1.0 0.1568224243
C  C5  1  0.85380000  0.76850000  0.29230000  1.0 0.1568224243
C  C6  1  0.76850000  0.29230000  0.85380000  1.0 0.1568224243
C  C7  1  0.79230000  0.26850000  0.35380000  1.0 0.1568224243
C  C8  1  0.26850000  0.35380000  0.79230000  1.0 0.1568224243
C  C9  1  0.35380000  0.79230000  0.26850000  1.0 0.1568224243
C  C10  1  0.70770000  0.14620000  0.23150000  1.0 0.1568224243
C  C11  1  0.14620000  0.23150000  0.70770000  1.0 0.1568224243
C  C12  1  0.23150000  0.70770000  0.14620000  1.0 0.1568224243
C  C13  1  0.05410000  0.56750000  0.45050000  1.0 -0.1304136491
C  C14  1  0.56750000  0.45050000  0.05410000  1.0 -0.1304136491
C  C15  1  0.45050000  0.05410000  0.56750000  1.0 -0.1304136491
C  C16  1  0.44590000  0.04950000  0.93250000  1.0 -0.1304136491
C  C17  1  0.04950000  0.93250000  0.44590000  1.0 -0.1304136491
C  C18  1  0.93250000  0.44590000  0.04950000  1.0 -0.1304136491
C  C19  1  0.94590000  0.43250000  0.54950000  1.0 -0.1304136491
C  C20  1  0.43250000  0.54950000  0.94590000  1.0 -0.1304136491
C  C21  1  0.54950000  0.94590000  0.43250000  1.0 -0.1304136491
C  C22  1  0.55410000  0.95050000  0.06750000  1.0 -0.1304136491
C  C23  1  0.95050000  0.06750000  0.55410000  1.0 -0.1304136491
C  C24  1  0.06750000  0.55410000  0.95050000  1.0 -0.1304136491
C  C25  1  0.13710000  0.55790000  0.49200000  1.0 -0.1482044485
C  C26  1  0.55790000  0.49200000  0.13710000  1.0 -0.1482044485
C  C27  1  0.49200000  0.13710000  0.55790000  1.0 -0.1482044485
C  C28  1  0.36290000  0.00800000  0.94210000  1.0 -0.1482044485
C  C29  1  0.00800000  0.94210000  0.36290000  1.0 -0.1482044485
C  C30  1  0.94210000  0.36290000  0.00800000  1.0 -0.1482044485
C  C31  1  0.86290000  0.44210000  0.50800000  1.0 -0.1482044485
C  C32  1  0.44210000  0.50800000  0.86290000  1.0 -0.1482044485
C  C33  1  0.50800000  0.86290000  0.44210000  1.0 -0.1482044485
C  C34  1  0.63710000  0.99200000  0.05790000  1.0 -0.1482044485
C  C35  1  0.99200000  0.05790000  0.63710000  1.0 -0.1482044485
C  C36  1  0.05790000  0.63710000  0.99200000  1.0 -0.1482044485
C  C37  1  0.33580000  0.63630000  0.75160000  1.0 -0.1925362735
C  C38  1  0.63630000  0.75160000  0.33580000  1.0 -0.1925362735
C  C39  1  0.75160000  0.33580000  0.63630000  1.0 -0.1925362735
C  C40  1  0.16420000  0.74840000  0.86370000  1.0 -0.1925362735
C  C41  1  0.74840000  0.86370000  0.16420000  1.0 -0.1925362735
C  C42  1  0.86370000  0.16420000  0.74840000  1.0 -0.1925362735
C  C43  1  0.66420000  0.36370000  0.24840000  1.0 -0.1925362735
C  C44  1  0.36370000  0.24840000  0.66420000  1.0 -0.1925362735
C  C45  1  0.24840000  0.66420000  0.36370000  1.0 -0.1925362735
C  C46  1  0.83580000  0.25160000  0.13630000  1.0 -0.1925362735
C  C47  1  0.25160000  0.13630000  0.83580000  1.0 -0.1925362735
C  C48  1  0.13630000  0.83580000  0.25160000  1.0 -0.1925362735
C  C49  1  0.22620000  0.48640000  0.64570000  1.0 0.4815587636
C  C50  1  0.48640000  0.64570000  0.22620000  1.0 0.4815587636
C  C51  1  0.64570000  0.22620000  0.48640000  1.0 0.4815587636
C  C52  1  0.27380000  0.85430000  0.01360000  1.0 0.4815587636
C  C53  1  0.85430000  0.01360000  0.27380000  1.0 0.4815587636
C  C54  1  0.01360000  0.27380000  0.85430000  1.0 0.4815587636
C  C55  1  0.77380000  0.51360000  0.35430000  1.0 0.4815587636
C  C56  1  0.51360000  0.35430000  0.77380000  1.0 0.4815587636
C  C57  1  0.35430000  0.77380000  0.51360000  1.0 0.4815587636
C  C58  1  0.72620000  0.14570000  0.98640000  1.0 0.4815587636
C  C59  1  0.14570000  0.98640000  0.72620000  1.0 0.4815587636
C  C60  1  0.98640000  0.72620000  0.14570000  1.0 0.4815587636
C  C61  1  0.34700000  0.69100000  0.70280000  1.0 -0.0211795572
C  C62  1  0.69100000  0.70280000  0.34700000  1.0 -0.0211795572
C  C63  1  0.70280000  0.34700000  0.69100000  1.0 -0.0211795572
C  C64  1  0.15300000  0.79720000  0.80900000  1.0 -0.0211795572
C  C65  1  0.79720000  0.80900000  0.15300000  1.0 -0.0211795572
C  C66  1  0.80900000  0.15300000  0.79720000  1.0 -0.0211795572
C  C67  1  0.65300000  0.30900000  0.29720000  1.0 -0.0211795572
C  C68  1  0.30900000  0.29720000  0.65300000  1.0 -0.0211795572
C  C69  1  0.29720000  0.65300000  0.30900000  1.0 -0.0211795572
C  C70  1  0.84700000  0.20280000  0.19100000  1.0 -0.0211795572
C  C71  1  0.20280000  0.19100000  0.84700000  1.0 -0.0211795572
C  C72  1  0.19100000  0.84700000  0.20280000  1.0 -0.0211795572
C  C73  1  0.67130000  0.41810000  0.33350000  1.0 -0.1426017459
C  C74  1  0.41810000  0.33350000  0.67130000  1.0 -0.1426017459
C  C75  1  0.33350000  0.67130000  0.41810000  1.0 -0.1426017459
C  C76  1  0.82870000  0.16650000  0.08190000  1.0 -0.1426017459
C  C77  1  0.16650000  0.08190000  0.82870000  1.0 -0.1426017459
C  C78  1  0.08190000  0.82870000  0.16650000  1.0 -0.1426017459
C  C79  1  0.32870000  0.58190000  0.66650000  1.0 -0.1426017459
C  C80  1  0.58190000  0.66650000  0.32870000  1.0 -0.1426017459
C  C81  1  0.66650000  0.32870000  0.58190000  1.0 -0.1426017459
C  C82  1  0.17130000  0.83350000  0.91810000  1.0 -0.1426017459
C  C83  1  0.83350000  0.91810000  0.17130000  1.0 -0.1426017459
C  C84  1  0.91810000  0.17130000  0.83350000  1.0 -0.1426017459
N  N1  1  0.09720000  0.67560000  0.54590000  1.0 -0.4066720345
N  N2  1  0.67560000  0.54590000  0.09720000  1.0 -0.4066720345
N  N3  1  0.54590000  0.09720000  0.67560000  1.0 -0.4066720345
N  N4  1  0.40280000  0.95410000  0.82440000  1.0 -0.4066720345
N  N5  1  0.95410000  0.82440000  0.40280000  1.0 -0.4066720345
N  N6  1  0.82440000  0.40280000  0.95410000  1.0 -0.4066720345
N  N7  1  0.90280000  0.32440000  0.45410000  1.0 -0.4066720345
N  N8  1  0.32440000  0.45410000  0.90280000  1.0 -0.4066720345
N  N9  1  0.45410000  0.90280000  0.32440000  1.0 -0.4066720345
N  N10  1  0.59720000  0.04590000  0.17560000  1.0 -0.4066720345
N  N11  1  0.04590000  0.17560000  0.59720000  1.0 -0.4066720345
N  N12  1  0.17560000  0.59720000  0.04590000  1.0 -0.4066720345
N  N13  1  0.23550000  0.66170000  0.61650000  1.0 -0.159416893
N  N14  1  0.66170000  0.61650000  0.23550000  1.0 -0.159416893
N  N15  1  0.61650000  0.23550000  0.66170000  1.0 -0.159416893
N  N16  1  0.26450000  0.88350000  0.83830000  1.0 -0.159416893
N  N17  1  0.88350000  0.83830000  0.26450000  1.0 -0.159416893
N  N18  1  0.83830000  0.26450000  0.88350000  1.0 -0.159416893
N  N19  1  0.76450000  0.33830000  0.38350000  1.0 -0.159416893
N  N20  1  0.33830000  0.38350000  0.76450000  1.0 -0.159416893
N  N21  1  0.38350000  0.76450000  0.33830000  1.0 -0.159416893
N  N22  1  0.73550000  0.11650000  0.16170000  1.0 -0.159416893
N  N23  1  0.11650000  0.16170000  0.73550000  1.0 -0.159416893
N  N24  1  0.16170000  0.73550000  0.11650000  1.0 -0.159416893
O  O1  1  0.17770000  0.39610000  0.54480000  1.0 -0.4282925043
O  O2  1  0.39610000  0.54480000  0.17770000  1.0 -0.4282925043
O  O3  1  0.54480000  0.17770000  0.39610000  1.0 -0.4282925043
O  O4  1  0.32230000  0.95520000  0.10390000  1.0 -0.4282925043
O  O5  1  0.95520000  0.10390000  0.32230000  1.0 -0.4282925043
O  O6  1  0.10390000  0.32230000  0.95520000  1.0 -0.4282925043
O  O7  1  0.82230000  0.60390000  0.45520000  1.0 -0.4282925043
O  O8  1  0.60390000  0.45520000  0.82230000  1.0 -0.4282925043
O  O9  1  0.45520000  0.82230000  0.60390000  1.0 -0.4282925043
O  O10  1  0.67770000  0.04480000  0.89610000  1.0 -0.4282925043
O  O11  1  0.04480000  0.89610000  0.67770000  1.0 -0.4282925043
O  O12  1  0.89610000  0.67770000  0.04480000  1.0 -0.4282925043
O  O13  1  0.17910000  0.46740000  0.68570000  1.0 -0.4992974339
O  O14  1  0.46740000  0.68570000  0.17910000  1.0 -0.4992974339
O  O15  1  0.68570000  0.17910000  0.46740000  1.0 -0.4992974339
O  O16  1  0.32090000  0.81430000  0.03260000  1.0 -0.4992974339
O  O17  1  0.81430000  0.03260000  0.32090000  1.0 -0.4992974339
O  O18  1  0.03260000  0.32090000  0.81430000  1.0 -0.4992974339
O  O19  1  0.82090000  0.53260000  0.31430000  1.0 -0.4992974339
O  O20  1  0.53260000  0.31430000  0.82090000  1.0 -0.4992974339
O  O21  1  0.31430000  0.82090000  0.53260000  1.0 -0.4992974339
O  O22  1  0.67910000  0.18570000  0.96740000  1.0 -0.4992974339
O  O23  1  0.18570000  0.96740000  0.67910000  1.0 -0.4992974339
O  O24  1  0.96740000  0.67910000  0.18570000  1.0 -0.4992974339
O  O25  1  0.90865000  0.25000000  0.59135000  1.0 -0.033191929
O  O26  1  0.25000000  0.59135000  0.90865000  1.0 -0.033191929
O  O27  1  0.59135000  0.90865000  0.25000000  1.0 -0.033191929
O  O28  1  0.09135000  0.75000000  0.40865000  1.0 -0.033191929
O  O29  1  0.75000000  0.40865000  0.09135000  1.0 -0.033191929
O  O30  1  0.40865000  0.09135000  0.75000000  1.0 -0.033191929
O  O31  1  0.06180000  0.70860000  0.37940000  1.0 -0.0211795572
O  O32  1  0.70860000  0.37940000  0.06180000  1.0 -0.0211795572
O  O33  1  0.37940000  0.06180000  0.70860000  1.0 -0.0211795572
O  O34  1  0.43820000  0.12060000  0.79140000  1.0 -0.0211795572
O  O35  1  0.12060000  0.79140000  0.43820000  1.0 -0.0211795572
O  O36  1  0.79140000  0.43820000  0.12060000  1.0 -0.0211795572
O  O37  1  0.93820000  0.29140000  0.62060000  1.0 -0.0211795572
O  O38  1  0.29140000  0.62060000  0.93820000  1.0 -0.0211795572
O  O39  1  0.62060000  0.93820000  0.29140000  1.0 -0.0211795572
O  O40  1  0.56180000  0.87940000  0.20860000  1.0 -0.0211795572
O  O41  1  0.87940000  0.20860000  0.56180000  1.0 -0.0211795572
O  O42  1  0.20860000  0.56180000  0.87940000  1.0 -0.0211795572
