# DDEC6 charges by PACMAN v1.1 (https://github.com/mtap-research/PACMAN-charge/)
data_TONTOH_ASR_pacman
_symmetry_space_group_name_H-M   'P 1'
_cell_length_a   22.09580000
_cell_length_b   22.09580000
_cell_length_c   22.09580000
_cell_angle_alpha   33.95040000
_cell_angle_beta   33.95040000
_cell_angle_gamma   33.95040000
_symmetry_Int_Tables_number   1
_chemical_formula_structural   CoH6(C3N)6
_chemical_formula_sum   'Co4 H24 C72 N24'
_cell_volume   2998.89910104
_cell_formula_units_Z   4
loop_
 _symmetry_equiv_pos_site_id
 _symmetry_equiv_pos_as_xyz
  1  'x, y, z'
loop_
 _atom_site_type_symbol
 _atom_site_label
 _atom_site_symmetry_multiplicity
 _atom_site_fract_x
 _atom_site_fract_y
 _atom_site_fract_z
 _atom_site_occupancy
 _atom_site_charge
Co  Co1  1  0.33678000  0.33678000  0.33678000  1.0 0.9530979597
Co  Co2  1  0.16322000  0.16322000  0.16322000  1.0 0.9530979597
Co  Co3  1  0.66322000  0.66322000  0.66322000  1.0 0.9554347796
Co  Co4  1  0.83678000  0.83678000  0.83678000  1.0 0.9530979597
H  H1  1  0.29535000  0.19549000  0.70530000  1.0 0.1363413833
H  H2  1  0.19549000  0.70530000  0.29535000  1.0 0.1363413833
H  H3  1  0.70530000  0.29535000  0.19549000  1.0 0.1363413833
H  H4  1  0.30451000  0.20465000  0.79470000  1.0 0.1363413833
H  H5  1  0.79470000  0.30451000  0.20465000  1.0 0.1363413833
H  H6  1  0.20465000  0.79470000  0.30451000  1.0 0.1363413833
H  H7  1  0.70465000  0.80451000  0.29470000  1.0 0.1363413833
H  H8  1  0.80451000  0.29470000  0.70465000  1.0 0.1363413833
H  H9  1  0.29470000  0.70465000  0.80451000  1.0 0.1363413833
H  H10  1  0.69549000  0.79535000  0.20530000  1.0 0.1363413833
H  H11  1  0.20530000  0.69549000  0.79535000  1.0 0.1363413833
H  H12  1  0.79535000  0.20530000  0.69549000  1.0 0.1363413833
H  H13  1  0.61035000  0.88179000  0.70430000  1.0 0.1180494046
H  H14  1  0.88179000  0.70430000  0.61035000  1.0 0.1180494046
H  H15  1  0.70430000  0.61035000  0.88179000  1.0 0.1180494046
H  H16  1  0.61821000  0.88965000  0.79570000  1.0 0.1180494046
H  H17  1  0.79570000  0.61821000  0.88965000  1.0 0.1180494046
H  H18  1  0.88965000  0.79570000  0.61821000  1.0 0.1180494046
H  H19  1  0.38965000  0.11821000  0.29570000  1.0 0.1180494046
H  H20  1  0.11821000  0.29570000  0.38965000  1.0 0.1180494046
H  H21  1  0.29570000  0.38965000  0.11821000  1.0 0.1180494046
H  H22  1  0.38179000  0.11035000  0.20430000  1.0 0.1180494046
H  H23  1  0.20430000  0.38179000  0.11035000  1.0 0.1180494046
H  H24  1  0.11035000  0.20430000  0.38179000  1.0 0.1180494046
C  C1  1  0.39555000  0.13357000  0.55956000  1.0 0.3149989647
C  C2  1  0.13357000  0.55956000  0.39555000  1.0 0.3165968394
C  C3  1  0.55956000  0.39555000  0.13357000  1.0 0.3149989647
C  C4  1  0.36643000  0.10445000  0.94044000  1.0 0.3149989647
C  C5  1  0.94044000  0.36643000  0.10445000  1.0 0.3149989647
C  C6  1  0.10445000  0.94044000  0.36643000  1.0 0.3149989647
C  C7  1  0.60445000  0.86643000  0.44044000  1.0 0.3165968394
C  C8  1  0.86643000  0.44044000  0.60445000  1.0 0.3165968394
C  C9  1  0.44044000  0.60445000  0.86643000  1.0 0.3165968394
C  C10  1  0.63357000  0.89555000  0.05956000  1.0 0.3165968394
C  C11  1  0.05956000  0.63357000  0.89555000  1.0 0.3149989647
C  C12  1  0.89555000  0.05956000  0.63357000  1.0 0.3165968394
C  C13  1  0.50646000  0.91720000  0.65428000  1.0 0.3165968394
C  C14  1  0.91720000  0.65428000  0.50646000  1.0 0.3165968394
C  C15  1  0.65428000  0.50646000  0.91720000  1.0 0.3165968394
C  C16  1  0.58280000  0.99354000  0.84572000  1.0 0.3165968394
C  C17  1  0.84572000  0.58280000  0.99354000  1.0 0.3165968394
C  C18  1  0.99354000  0.84572000  0.58280000  1.0 0.3165968394
C  C19  1  0.49354000  0.08280000  0.34572000  1.0 0.3165968394
C  C20  1  0.08280000  0.34572000  0.49354000  1.0 0.3165968394
C  C21  1  0.34572000  0.49354000  0.08280000  1.0 0.3165968394
C  C22  1  0.41720000  0.00646000  0.15428000  1.0 0.3165968394
C  C23  1  0.15428000  0.41720000  0.00646000  1.0 0.3165968394
C  C24  1  0.00646000  0.15428000  0.41720000  1.0 0.3165968394
C  C25  1  0.44621000  0.02956000  0.63991000  1.0 -0.2002124312
C  C26  1  0.02956000  0.63991000  0.44621000  1.0 -0.2002124312
C  C27  1  0.63991000  0.44621000  0.02956000  1.0 -0.2002124312
C  C28  1  0.47044000  0.05379000  0.86009000  1.0 -0.2002124312
C  C29  1  0.86009000  0.47044000  0.05379000  1.0 -0.2002124312
C  C30  1  0.05379000  0.86009000  0.47044000  1.0 -0.2002124312
C  C31  1  0.55379000  0.97044000  0.36009000  1.0 -0.2002124312
C  C32  1  0.97044000  0.36009000  0.55379000  1.0 -0.2002124312
C  C33  1  0.36009000  0.55379000  0.97044000  1.0 -0.2002124312
C  C34  1  0.52956000  0.94621000  0.13991000  1.0 -0.2002124312
C  C35  1  0.13991000  0.52956000  0.94621000  1.0 -0.2002124312
C  C36  1  0.94621000  0.13991000  0.52956000  1.0 -0.2002124312
C  C37  1  0.45160000  0.03743000  0.69511000  1.0 0.1133614906
C  C38  1  0.03743000  0.69511000  0.45160000  1.0 0.1133614906
C  C39  1  0.69511000  0.45160000  0.03743000  1.0 0.1133614906
C  C40  1  0.46257000  0.04840000  0.80489000  1.0 0.1133614906
C  C41  1  0.80489000  0.46257000  0.04840000  1.0 0.1133614906
C  C42  1  0.04840000  0.80489000  0.46257000  1.0 0.1133614906
C  C43  1  0.54840000  0.96257000  0.30489000  1.0 0.1133614906
C  C44  1  0.96257000  0.30489000  0.54840000  1.0 0.1133614906
C  C45  1  0.30489000  0.54840000  0.96257000  1.0 0.1133614906
C  C46  1  0.53743000  0.95160000  0.19511000  1.0 0.1133614906
C  C47  1  0.19511000  0.53743000  0.95160000  1.0 0.1133614906
C  C48  1  0.95160000  0.19511000  0.53743000  1.0 0.1133614906
C  C49  1  0.36134000  0.13319000  0.72324000  1.0 -0.1369440603
C  C50  1  0.13319000  0.72324000  0.36134000  1.0 -0.1369440603
C  C51  1  0.72324000  0.36134000  0.13319000  1.0 -0.1369440603
C  C52  1  0.36681000  0.13866000  0.77676000  1.0 -0.1369440603
C  C53  1  0.77676000  0.36681000  0.13866000  1.0 -0.1369440603
C  C54  1  0.13866000  0.77676000  0.36681000  1.0 -0.1369440603
C  C55  1  0.63866000  0.86681000  0.27676000  1.0 -0.1369440603
C  C56  1  0.86681000  0.27676000  0.63866000  1.0 -0.1369440603
C  C57  1  0.27676000  0.63866000  0.86681000  1.0 -0.1369440603
C  C58  1  0.63319000  0.86134000  0.22324000  1.0 -0.1369440603
C  C59  1  0.22324000  0.63319000  0.86134000  1.0 -0.1369440603
C  C60  1  0.86134000  0.22324000  0.63319000  1.0 -0.1369440603
C  C61  1  0.54760000  0.94741000  0.72300000  1.0 -0.1491286056
C  C62  1  0.94741000  0.72300000  0.54760000  1.0 -0.1491286056
C  C63  1  0.72300000  0.54760000  0.94741000  1.0 -0.1491286056
C  C64  1  0.55259000  0.95240000  0.77700000  1.0 -0.1491286056
C  C65  1  0.77700000  0.55259000  0.95240000  1.0 -0.1491286056
C  C66  1  0.95240000  0.77700000  0.55259000  1.0 -0.1491286056
C  C67  1  0.45240000  0.05259000  0.27700000  1.0 -0.1491286056
C  C68  1  0.05259000  0.27700000  0.45240000  1.0 -0.1491286056
C  C69  1  0.27700000  0.45240000  0.05259000  1.0 -0.1491286056
C  C70  1  0.44741000  0.04760000  0.22300000  1.0 -0.1491286056
C  C71  1  0.22300000  0.44741000  0.04760000  1.0 -0.1491286056
C  C72  1  0.04760000  0.22300000  0.44741000  1.0 -0.1491286056
N  N1  1  0.35617000  0.21946000  0.49073000  1.0 -0.4143276112
N  N2  1  0.21946000  0.49073000  0.35617000  1.0 -0.416285983
N  N3  1  0.49073000  0.35617000  0.21946000  1.0 -0.4143276112
N  N4  1  0.28054000  0.14383000  0.00927000  1.0 -0.4143276112
N  N5  1  0.00927000  0.28054000  0.14383000  1.0 -0.4143276112
N  N6  1  0.14383000  0.00927000  0.28054000  1.0 -0.4143276112
N  N7  1  0.64383000  0.78054000  0.50927000  1.0 -0.416285983
N  N8  1  0.78054000  0.50927000  0.64383000  1.0 -0.416285983
N  N9  1  0.50927000  0.64383000  0.78054000  1.0 -0.416285983
N  N10  1  0.71946000  0.85617000  0.99073000  1.0 -0.416285983
N  N11  1  0.99073000  0.71946000  0.85617000  1.0 -0.416285983
N  N12  1  0.85617000  0.99073000  0.71946000  1.0 -0.416285983
N  N13  1  0.55701000  0.82311000  0.66767000  1.0 -0.416285983
N  N14  1  0.82311000  0.66767000  0.55701000  1.0 -0.416285983
N  N15  1  0.66767000  0.55701000  0.82311000  1.0 -0.416285983
N  N16  1  0.67689000  0.94299000  0.83233000  1.0 -0.416285983
N  N17  1  0.83233000  0.67689000  0.94299000  1.0 -0.416285983
N  N18  1  0.94299000  0.83233000  0.67689000  1.0 -0.416285983
N  N19  1  0.44299000  0.17689000  0.33233000  1.0 -0.416285983
N  N20  1  0.17689000  0.33233000  0.44299000  1.0 -0.416285983
N  N21  1  0.33233000  0.44299000  0.17689000  1.0 -0.416285983
N  N22  1  0.32311000  0.05701000  0.16767000  1.0 -0.416285983
N  N23  1  0.16767000  0.32311000  0.05701000  1.0 -0.416285983
N  N24  1  0.05701000  0.16767000  0.32311000  1.0 -0.416285983
