# DDEC6 charges by PACMAN v1.1 (https://github.com/mtap-research/PACMAN-charge/)
data_TONTUN_ASR_pacman
_symmetry_space_group_name_H-M   'P 1'
_cell_length_a   21.94060000
_cell_length_b   21.94060000
_cell_length_c   21.94060000
_cell_angle_alpha   34.11500000
_cell_angle_beta   34.11500000
_cell_angle_gamma   34.11500000
_symmetry_Int_Tables_number   1
_chemical_formula_structural   NiH6(C3N)6
_chemical_formula_sum   'Ni4 H24 C72 N24'
_cell_volume   2962.04817965
_cell_formula_units_Z   4
loop_
 _symmetry_equiv_pos_site_id
 _symmetry_equiv_pos_as_xyz
  1  'x, y, z'
loop_
 _atom_site_type_symbol
 _atom_site_label
 _atom_site_symmetry_multiplicity
 _atom_site_fract_x
 _atom_site_fract_y
 _atom_site_fract_z
 _atom_site_occupancy
 _atom_site_charge
Ni  Ni1  1  0.33667000  0.33667000  0.33667000  1.0 0.9223846061
Ni  Ni2  1  0.16333000  0.16333000  0.16333000  1.0 0.9223846061
Ni  Ni3  1  0.66333000  0.66333000  0.66333000  1.0 0.9223846061
Ni  Ni4  1  0.83667000  0.83667000  0.83667000  1.0 0.9223846061
H  H1  1  0.70485000  0.29609000  0.19520000  1.0 0.135121821
H  H2  1  0.29609000  0.19520000  0.70485000  1.0 0.135121821
H  H3  1  0.19520000  0.70485000  0.29609000  1.0 0.135121821
H  H4  1  0.20391000  0.79515000  0.30480000  1.0 0.135121821
H  H5  1  0.30480000  0.20391000  0.79515000  1.0 0.135121821
H  H6  1  0.79515000  0.30480000  0.20391000  1.0 0.135121821
H  H7  1  0.29515000  0.70391000  0.80480000  1.0 0.135121821
H  H8  1  0.70391000  0.80480000  0.29515000  1.0 0.135121821
H  H9  1  0.80480000  0.29515000  0.70391000  1.0 0.135121821
H  H10  1  0.79609000  0.20485000  0.69520000  1.0 0.135121821
H  H11  1  0.69520000  0.79609000  0.20485000  1.0 0.135121821
H  H12  1  0.20485000  0.69520000  0.79609000  1.0 0.135121821
H  H13  1  0.70815000  0.61019000  0.87900000  1.0 0.1170826206
H  H14  1  0.61019000  0.87900000  0.70815000  1.0 0.1170826206
H  H15  1  0.87900000  0.70815000  0.61019000  1.0 0.1170826206
H  H16  1  0.88981000  0.79185000  0.62100000  1.0 0.1170826206
H  H17  1  0.62100000  0.88981000  0.79185000  1.0 0.1170826206
H  H18  1  0.79185000  0.62100000  0.88981000  1.0 0.1170826206
H  H19  1  0.29185000  0.38981000  0.12100000  1.0 0.1170826206
H  H20  1  0.38981000  0.12100000  0.29185000  1.0 0.1170826206
H  H21  1  0.12100000  0.29185000  0.38981000  1.0 0.1170826206
H  H22  1  0.11019000  0.20815000  0.37900000  1.0 0.1170826206
H  H23  1  0.37900000  0.11019000  0.20815000  1.0 0.1170826206
H  H24  1  0.20815000  0.37900000  0.11019000  1.0 0.1170826206
C  C1  1  0.55870000  0.39503000  0.13366000  1.0 0.3075424532
C  C2  1  0.39503000  0.13366000  0.55870000  1.0 0.3075424532
C  C3  1  0.13366000  0.55870000  0.39503000  1.0 0.3075424532
C  C4  1  0.10497000  0.94130000  0.36634000  1.0 0.3075424532
C  C5  1  0.36634000  0.10497000  0.94130000  1.0 0.3075424532
C  C6  1  0.94130000  0.36634000  0.10497000  1.0 0.3075424532
C  C7  1  0.44130000  0.60497000  0.86634000  1.0 0.3075424532
C  C8  1  0.60497000  0.86634000  0.44130000  1.0 0.3075424532
C  C9  1  0.86634000  0.44130000  0.60497000  1.0 0.3075424532
C  C10  1  0.89503000  0.05870000  0.63366000  1.0 0.3075424532
C  C11  1  0.63366000  0.89503000  0.05870000  1.0 0.3075424532
C  C12  1  0.05870000  0.63366000  0.89503000  1.0 0.3075424532
C  C13  1  0.65480000  0.50587000  0.91613000  1.0 0.3075424532
C  C14  1  0.50587000  0.91613000  0.65480000  1.0 0.3075424532
C  C15  1  0.91613000  0.65480000  0.50587000  1.0 0.3075424532
C  C16  1  0.99413000  0.84520000  0.58387000  1.0 0.3075424532
C  C17  1  0.58387000  0.99413000  0.84520000  1.0 0.3075424532
C  C18  1  0.84520000  0.58387000  0.99413000  1.0 0.3075424532
C  C19  1  0.34520000  0.49413000  0.08387000  1.0 0.3075424532
C  C20  1  0.49413000  0.08387000  0.34520000  1.0 0.3075424532
C  C21  1  0.08387000  0.34520000  0.49413000  1.0 0.3075424532
C  C22  1  0.00587000  0.15480000  0.41613000  1.0 0.3075424532
C  C23  1  0.41613000  0.00587000  0.15480000  1.0 0.3075424532
C  C24  1  0.15480000  0.41613000  0.00587000  1.0 0.3075424532
C  C25  1  0.63987000  0.44558000  0.02921000  1.0 -0.1886673185
C  C26  1  0.44558000  0.02921000  0.63987000  1.0 -0.1886673185
C  C27  1  0.02921000  0.63987000  0.44558000  1.0 -0.1886673185
C  C28  1  0.05442000  0.86013000  0.47079000  1.0 -0.1886673185
C  C29  1  0.47079000  0.05442000  0.86013000  1.0 -0.1886673185
C  C30  1  0.86013000  0.47079000  0.05442000  1.0 -0.1886673185
C  C31  1  0.36013000  0.55442000  0.97079000  1.0 -0.1886673185
C  C32  1  0.55442000  0.97079000  0.36013000  1.0 -0.1886673185
C  C33  1  0.97079000  0.36013000  0.55442000  1.0 -0.1886673185
C  C34  1  0.94558000  0.13987000  0.52921000  1.0 -0.1886673185
C  C35  1  0.52921000  0.94558000  0.13987000  1.0 -0.1886673185
C  C36  1  0.13987000  0.52921000  0.94558000  1.0 -0.1886673185
C  C37  1  0.69509000  0.45092000  0.03741000  1.0 0.1085515767
C  C38  1  0.45092000  0.03741000  0.69509000  1.0 0.1085515767
C  C39  1  0.03741000  0.69509000  0.45092000  1.0 0.1085515767
C  C40  1  0.04908000  0.80491000  0.46259000  1.0 0.1085515767
C  C41  1  0.46259000  0.04908000  0.80491000  1.0 0.1085515767
C  C42  1  0.80491000  0.46259000  0.04908000  1.0 0.1085515767
C  C43  1  0.30491000  0.54908000  0.96259000  1.0 0.1085515767
C  C44  1  0.54908000  0.96259000  0.30491000  1.0 0.1085515767
C  C45  1  0.96259000  0.30491000  0.54908000  1.0 0.1085515767
C  C46  1  0.95092000  0.19509000  0.53741000  1.0 0.1085515767
C  C47  1  0.53741000  0.95092000  0.19509000  1.0 0.1085515767
C  C48  1  0.19509000  0.53741000  0.95092000  1.0 0.1085515767
C  C49  1  0.72293000  0.36089000  0.13371000  1.0 -0.1341488697
C  C50  1  0.36089000  0.13371000  0.72293000  1.0 -0.1341488697
C  C51  1  0.13371000  0.72293000  0.36089000  1.0 -0.1341488697
C  C52  1  0.13911000  0.77707000  0.36629000  1.0 -0.1341488697
C  C53  1  0.36629000  0.13911000  0.77707000  1.0 -0.1341488697
C  C54  1  0.77707000  0.36629000  0.13911000  1.0 -0.1341488697
C  C55  1  0.27707000  0.63911000  0.86629000  1.0 -0.1341488697
C  C56  1  0.63911000  0.86629000  0.27707000  1.0 -0.1341488697
C  C57  1  0.86629000  0.27707000  0.63911000  1.0 -0.1341488697
C  C58  1  0.86089000  0.22293000  0.63371000  1.0 -0.1341488697
C  C59  1  0.63371000  0.86089000  0.22293000  1.0 -0.1341488697
C  C60  1  0.22293000  0.63371000  0.86089000  1.0 -0.1341488697
C  C61  1  0.72294000  0.54723000  0.94739000  1.0 -0.1494362864
C  C62  1  0.54723000  0.94739000  0.72294000  1.0 -0.1494362864
C  C63  1  0.94739000  0.72294000  0.54723000  1.0 -0.1494362864
C  C64  1  0.95277000  0.77706000  0.55261000  1.0 -0.1494362864
C  C65  1  0.55261000  0.95277000  0.77706000  1.0 -0.1494362864
C  C66  1  0.77706000  0.55261000  0.95277000  1.0 -0.1494362864
C  C67  1  0.27706000  0.45277000  0.05261000  1.0 -0.1494362864
C  C68  1  0.45277000  0.05261000  0.27706000  1.0 -0.1494362864
C  C69  1  0.05261000  0.27706000  0.45277000  1.0 -0.1494362864
C  C70  1  0.04723000  0.22294000  0.44739000  1.0 -0.1494362864
C  C71  1  0.44739000  0.04723000  0.22294000  1.0 -0.1494362864
C  C72  1  0.22294000  0.44739000  0.04723000  1.0 -0.1494362864
N  N1  1  0.48923000  0.35573000  0.22014000  1.0 -0.4061168569
N  N2  1  0.35573000  0.22014000  0.48923000  1.0 -0.4061168569
N  N3  1  0.22014000  0.48923000  0.35573000  1.0 -0.4061168569
N  N4  1  0.14427000  0.01077000  0.27986000  1.0 -0.4061168569
N  N5  1  0.27986000  0.14427000  0.01077000  1.0 -0.4061168569
N  N6  1  0.01077000  0.27986000  0.14427000  1.0 -0.4061168569
N  N7  1  0.51077000  0.64427000  0.77986000  1.0 -0.4061168569
N  N8  1  0.64427000  0.77986000  0.51077000  1.0 -0.4061168569
N  N9  1  0.77986000  0.51077000  0.64427000  1.0 -0.4061168569
N  N10  1  0.85573000  0.98923000  0.72014000  1.0 -0.4061168569
N  N11  1  0.72014000  0.85573000  0.98923000  1.0 -0.4061168569
N  N12  1  0.98923000  0.72014000  0.85573000  1.0 -0.4061168569
N  N13  1  0.66962000  0.55650000  0.82086000  1.0 -0.4043412644
N  N14  1  0.55650000  0.82086000  0.66962000  1.0 -0.4043412644
N  N15  1  0.82086000  0.66962000  0.55650000  1.0 -0.4061168569
N  N16  1  0.94350000  0.83038000  0.67914000  1.0 -0.4043412644
N  N17  1  0.67914000  0.94350000  0.83038000  1.0 -0.4061168569
N  N18  1  0.83038000  0.67914000  0.94350000  1.0 -0.4061168569
N  N19  1  0.33038000  0.44350000  0.17914000  1.0 -0.4043412644
N  N20  1  0.44350000  0.17914000  0.33038000  1.0 -0.4043412644
N  N21  1  0.17914000  0.33038000  0.44350000  1.0 -0.4043412644
N  N22  1  0.05650000  0.16962000  0.32086000  1.0 -0.4061168569
N  N23  1  0.32086000  0.05650000  0.16962000  1.0 -0.4043412644
N  N24  1  0.16962000  0.32086000  0.05650000  1.0 -0.4043412644
