# DDEC6 charges by PACMAN v1.1 (https://github.com/mtap-research/PACMAN-charge/)
data_TONTIB_FSR_pacman
_symmetry_space_group_name_H-M   'P 1'
_cell_length_a   22.18320000
_cell_length_b   22.18320000
_cell_length_c   22.18320000
_cell_angle_alpha   34.11940000
_cell_angle_beta   34.11940000
_cell_angle_gamma   34.11940000
_symmetry_Int_Tables_number   1
_chemical_formula_structural   FeH6(C3N)6
_chemical_formula_sum   'Fe4 H24 C72 N24'
_cell_volume   3062.11043316
_cell_formula_units_Z   4
loop_
 _symmetry_equiv_pos_site_id
 _symmetry_equiv_pos_as_xyz
  1  'x, y, z'
loop_
 _atom_site_type_symbol
 _atom_site_label
 _atom_site_symmetry_multiplicity
 _atom_site_fract_x
 _atom_site_fract_y
 _atom_site_fract_z
 _atom_site_occupancy
 _atom_site_charge
Fe  Fe1  1  0.33685000  0.33685000  0.33685000  1.0 0.9425809597
Fe  Fe2  1  0.16315000  0.16315000  0.16315000  1.0 0.9425809597
Fe  Fe3  1  0.66315000  0.66315000  0.66315000  1.0 0.9425809597
Fe  Fe4  1  0.83685000  0.83685000  0.83685000  1.0 0.9425809597
H  H1  1  0.80575000  0.70279000  0.29490000  1.0 0.1327746899
H  H2  1  0.70279000  0.29490000  0.80575000  1.0 0.1327746899
H  H3  1  0.29490000  0.80575000  0.70279000  1.0 0.1327746899
H  H4  1  0.79721000  0.69425000  0.20510000  1.0 0.1327746899
H  H5  1  0.20510000  0.79721000  0.69425000  1.0 0.1327746899
H  H6  1  0.69425000  0.20510000  0.79721000  1.0 0.1327746899
H  H7  1  0.19425000  0.29721000  0.70510000  1.0 0.1327746899
H  H8  1  0.29721000  0.70510000  0.19425000  1.0 0.1327746899
H  H9  1  0.70510000  0.19425000  0.29721000  1.0 0.1327746899
H  H10  1  0.20279000  0.30575000  0.79490000  1.0 0.1327746899
H  H11  1  0.79490000  0.20279000  0.30575000  1.0 0.1327746899
H  H12  1  0.30575000  0.79490000  0.20279000  1.0 0.1327746899
H  H13  1  0.11695000  0.39139000  0.29540000  1.0 0.1118913213
H  H14  1  0.39139000  0.29540000  0.11695000  1.0 0.1118913213
H  H15  1  0.29540000  0.11695000  0.39139000  1.0 0.1118913213
H  H16  1  0.10861000  0.38305000  0.20460000  1.0 0.1118913213
H  H17  1  0.20460000  0.10861000  0.38305000  1.0 0.1118913213
H  H18  1  0.38305000  0.20460000  0.10861000  1.0 0.1118913213
H  H19  1  0.88305000  0.60861000  0.70460000  1.0 0.1118913213
H  H20  1  0.60861000  0.70460000  0.88305000  1.0 0.1118913213
H  H21  1  0.70460000  0.88305000  0.60861000  1.0 0.1118913213
H  H22  1  0.89139000  0.61695000  0.79540000  1.0 0.1118913213
H  H23  1  0.79540000  0.89139000  0.61695000  1.0 0.1118913213
H  H24  1  0.61695000  0.79540000  0.89139000  1.0 0.1118913213
C  C1  1  0.97022000  0.55352000  0.36004000  1.0 -0.2025986286
C  C2  1  0.55352000  0.36004000  0.97022000  1.0 -0.2025986286
C  C3  1  0.36004000  0.97022000  0.55352000  1.0 -0.2025986286
C  C4  1  0.94648000  0.52978000  0.13996000  1.0 -0.2025986286
C  C5  1  0.13996000  0.94648000  0.52978000  1.0 -0.2025986286
C  C6  1  0.52978000  0.13996000  0.94648000  1.0 -0.2025986286
C  C7  1  0.02978000  0.44648000  0.63996000  1.0 -0.2025986286
C  C8  1  0.44648000  0.63996000  0.02978000  1.0 -0.2025986286
C  C9  1  0.63996000  0.02978000  0.44648000  1.0 -0.2025986286
C  C10  1  0.05352000  0.47022000  0.86004000  1.0 -0.2025986286
C  C11  1  0.86004000  0.05352000  0.47022000  1.0 -0.2025986286
C  C12  1  0.47022000  0.86004000  0.05352000  1.0 -0.2025986286
C  C13  1  0.86758000  0.63753000  0.27688000  1.0 -0.133595511
C  C14  1  0.63753000  0.27688000  0.86758000  1.0 -0.133595511
C  C15  1  0.27688000  0.86758000  0.63753000  1.0 -0.133595511
C  C16  1  0.86247000  0.63242000  0.22312000  1.0 -0.133595511
C  C17  1  0.22312000  0.86247000  0.63242000  1.0 -0.133595511
C  C18  1  0.63242000  0.22312000  0.86247000  1.0 -0.133595511
C  C19  1  0.13242000  0.36247000  0.72312000  1.0 -0.133595511
C  C20  1  0.36247000  0.72312000  0.13242000  1.0 -0.133595511
C  C21  1  0.72312000  0.13242000  0.36247000  1.0 -0.133595511
C  C22  1  0.13753000  0.36758000  0.77688000  1.0 -0.133595511
C  C23  1  0.77688000  0.13753000  0.36758000  1.0 -0.133595511
C  C24  1  0.36758000  0.77688000  0.13753000  1.0 -0.133595511
C  C25  1  0.96220000  0.54824000  0.30503000  1.0 0.1118913213
C  C26  1  0.54824000  0.30503000  0.96220000  1.0 0.1118913213
C  C27  1  0.30503000  0.96220000  0.54824000  1.0 0.1118913213
C  C28  1  0.95176000  0.53780000  0.19497000  1.0 0.1118913213
C  C29  1  0.19497000  0.95176000  0.53780000  1.0 0.1118913213
C  C30  1  0.53780000  0.19497000  0.95176000  1.0 0.1118913213
C  C31  1  0.03780000  0.45176000  0.69497000  1.0 0.1118913213
C  C32  1  0.45176000  0.69497000  0.03780000  1.0 0.1118913213
C  C33  1  0.69497000  0.03780000  0.45176000  1.0 0.1118913213
C  C34  1  0.04824000  0.46220000  0.80503000  1.0 0.1118913213
C  C35  1  0.80503000  0.04824000  0.46220000  1.0 0.1118913213
C  C36  1  0.46220000  0.80503000  0.04824000  1.0 0.1118913213
C  C37  1  0.08108000  0.49404000  0.34661000  1.0 0.3159183691
C  C38  1  0.49404000  0.34661000  0.08108000  1.0 0.3159183691
C  C39  1  0.34661000  0.08108000  0.49404000  1.0 0.3159183691
C  C40  1  0.00596000  0.41892000  0.15339000  1.0 0.3159183691
C  C41  1  0.15339000  0.00596000  0.41892000  1.0 0.3159183691
C  C42  1  0.41892000  0.15339000  0.00596000  1.0 0.3159183691
C  C43  1  0.91892000  0.50596000  0.65339000  1.0 0.3159183691
C  C44  1  0.50596000  0.65339000  0.91892000  1.0 0.3159183691
C  C45  1  0.65339000  0.91892000  0.50596000  1.0 0.3159183691
C  C46  1  0.99404000  0.58108000  0.84661000  1.0 0.3159183691
C  C47  1  0.84661000  0.99404000  0.58108000  1.0 0.3159183691
C  C48  1  0.58108000  0.84661000  0.99404000  1.0 0.3159183691
C  C49  1  0.05171000  0.45328000  0.27709000  1.0 -0.1488143922
C  C50  1  0.45328000  0.27709000  0.05171000  1.0 -0.1488143922
C  C51  1  0.27709000  0.05171000  0.45328000  1.0 -0.1488143922
C  C52  1  0.04672000  0.44829000  0.22291000  1.0 -0.1488143922
C  C53  1  0.22291000  0.04672000  0.44829000  1.0 -0.1488143922
C  C54  1  0.44829000  0.22291000  0.04672000  1.0 -0.1488143922
C  C55  1  0.94829000  0.54672000  0.72291000  1.0 -0.1488143922
C  C56  1  0.54672000  0.72291000  0.94829000  1.0 -0.1488143922
C  C57  1  0.72291000  0.94829000  0.54672000  1.0 -0.1488143922
C  C58  1  0.95328000  0.55171000  0.77709000  1.0 -0.1488143922
C  C59  1  0.77709000  0.95328000  0.55171000  1.0 -0.1488143922
C  C60  1  0.55171000  0.77709000  0.95328000  1.0 -0.1488143922
C  C61  1  0.86679000  0.60517000  0.43879000  1.0 0.3159183691
C  C62  1  0.60517000  0.43879000  0.86679000  1.0 0.3159183691
C  C63  1  0.43879000  0.86679000  0.60517000  1.0 0.3146658158
C  C64  1  0.89483000  0.63321000  0.06121000  1.0 0.3159183691
C  C65  1  0.06121000  0.89483000  0.63321000  1.0 0.3159183691
C  C66  1  0.63321000  0.06121000  0.89483000  1.0 0.3159183691
C  C67  1  0.13321000  0.39483000  0.56121000  1.0 0.3146658158
C  C68  1  0.39483000  0.56121000  0.13321000  1.0 0.3146658158
C  C69  1  0.56121000  0.13321000  0.39483000  1.0 0.3159183691
C  C70  1  0.10517000  0.36679000  0.93879000  1.0 0.3159183691
C  C71  1  0.93879000  0.10517000  0.36679000  1.0 0.3159183691
C  C72  1  0.36679000  0.93879000  0.10517000  1.0 0.3159183691
N  N1  1  0.17437000  0.44377000  0.33401000  1.0 -0.4086330269
N  N2  1  0.44377000  0.33401000  0.17437000  1.0 -0.4086330269
N  N3  1  0.33401000  0.17437000  0.44377000  1.0 -0.4086330269
N  N4  1  0.05623000  0.32563000  0.16599000  1.0 -0.4086330269
N  N5  1  0.16599000  0.05623000  0.32563000  1.0 -0.4086330269
N  N6  1  0.32563000  0.16599000  0.05623000  1.0 -0.4086330269
N  N7  1  0.82563000  0.55623000  0.66599000  1.0 -0.4086330269
N  N8  1  0.55623000  0.66599000  0.82563000  1.0 -0.4086330269
N  N9  1  0.66599000  0.82563000  0.55623000  1.0 -0.4086330269
N  N10  1  0.94377000  0.67437000  0.83401000  1.0 -0.4086330269
N  N11  1  0.83401000  0.94377000  0.67437000  1.0 -0.4086330269
N  N12  1  0.67437000  0.83401000  0.94377000  1.0 -0.4086330269
N  N13  1  0.78185000  0.64496000  0.50653000  1.0 -0.4086330269
N  N14  1  0.64496000  0.50653000  0.78185000  1.0 -0.4086330269
N  N15  1  0.50653000  0.78185000  0.64496000  1.0 -0.4086330269
N  N16  1  0.85504000  0.71815000  0.99347000  1.0 -0.4086330269
N  N17  1  0.99347000  0.85504000  0.71815000  1.0 -0.4086330269
N  N18  1  0.71815000  0.99347000  0.85504000  1.0 -0.4086330269
N  N19  1  0.21815000  0.35504000  0.49347000  1.0 -0.4086330269
N  N20  1  0.35504000  0.49347000  0.21815000  1.0 -0.4086330269
N  N21  1  0.49347000  0.21815000  0.35504000  1.0 -0.4086330269
N  N22  1  0.14496000  0.28185000  0.00653000  1.0 -0.4086330269
N  N23  1  0.00653000  0.14496000  0.28185000  1.0 -0.4086330269
N  N24  1  0.28185000  0.00653000  0.14496000  1.0 -0.4086330269
