# DDEC6 charges by PACMAN v1.1 (https://github.com/mtap-research/PACMAN-charge/)
data_TONVAV_FSR_pacman
_symmetry_space_group_name_H-M   'P 1'
_cell_length_a   22.18650000
_cell_length_b   22.18650000
_cell_length_c   22.18650000
_cell_angle_alpha   33.99840000
_cell_angle_beta   33.99840000
_cell_angle_gamma   33.99840000
_symmetry_Int_Tables_number   1
_chemical_formula_structural   ZnH6(C3N)6
_chemical_formula_sum   'Zn4 H24 C72 N24'
_cell_volume   3043.78220274
_cell_formula_units_Z   4
loop_
 _symmetry_equiv_pos_site_id
 _symmetry_equiv_pos_as_xyz
  1  'x, y, z'
loop_
 _atom_site_type_symbol
 _atom_site_label
 _atom_site_symmetry_multiplicity
 _atom_site_fract_x
 _atom_site_fract_y
 _atom_site_fract_z
 _atom_site_occupancy
 _atom_site_charge
Zn  Zn1  1  0.33693000  0.33693000  0.33693000  1.0 0.9121237818
Zn  Zn2  1  0.16307000  0.16307000  0.16307000  1.0 0.9121237818
Zn  Zn3  1  0.66307000  0.66307000  0.66307000  1.0 0.9121237818
Zn  Zn4  1  0.83693000  0.83693000  0.83693000  1.0 0.9121237818
H  H1  1  0.11685000  0.29529000  0.39130000  1.0 0.1156879461
H  H2  1  0.29529000  0.39130000  0.11685000  1.0 0.1156879461
H  H3  1  0.39130000  0.11685000  0.29529000  1.0 0.1109488573
H  H4  1  0.20471000  0.38315000  0.10870000  1.0 0.1156879461
H  H5  1  0.10870000  0.20471000  0.38315000  1.0 0.1156879461
H  H6  1  0.38315000  0.10870000  0.20471000  1.0 0.1156879461
H  H7  1  0.88315000  0.70471000  0.60870000  1.0 0.1156879461
H  H8  1  0.70471000  0.60870000  0.88315000  1.0 0.1156879461
H  H9  1  0.60870000  0.88315000  0.70471000  1.0 0.1156879461
H  H10  1  0.79529000  0.61685000  0.89130000  1.0 0.1156879461
H  H11  1  0.89130000  0.79529000  0.61685000  1.0 0.1156879461
H  H12  1  0.61685000  0.89130000  0.79529000  1.0 0.1156879461
H  H13  1  0.80485000  0.29449000  0.70440000  1.0 0.1370120692
H  H14  1  0.29449000  0.70440000  0.80485000  1.0 0.1370120692
H  H15  1  0.70440000  0.80485000  0.29449000  1.0 0.1370120692
H  H16  1  0.20551000  0.69515000  0.79560000  1.0 0.1370120692
H  H17  1  0.79560000  0.20551000  0.69515000  1.0 0.1370120692
H  H18  1  0.69515000  0.79560000  0.20551000  1.0 0.1370120692
H  H19  1  0.19515000  0.70551000  0.29560000  1.0 0.1370120692
H  H20  1  0.70551000  0.29560000  0.19515000  1.0 0.1370120692
H  H21  1  0.29560000  0.19515000  0.70551000  1.0 0.1370120692
H  H22  1  0.79449000  0.30485000  0.20440000  1.0 0.1370120692
H  H23  1  0.20440000  0.79449000  0.30485000  1.0 0.1370120692
H  H24  1  0.30485000  0.20440000  0.79449000  1.0 0.1370120692
C  C1  1  0.08129000  0.34604000  0.49432000  1.0 0.3075566923
C  C2  1  0.34604000  0.49432000  0.08129000  1.0 0.3075566923
C  C3  1  0.49432000  0.08129000  0.34604000  1.0 0.3075566923
C  C4  1  0.15396000  0.41871000  0.00568000  1.0 0.3075566923
C  C5  1  0.00568000  0.15396000  0.41871000  1.0 0.3075566923
C  C6  1  0.41871000  0.00568000  0.15396000  1.0 0.3075566923
C  C7  1  0.91871000  0.65396000  0.50568000  1.0 0.3075566923
C  C8  1  0.65396000  0.50568000  0.91871000  1.0 0.3075566923
C  C9  1  0.50568000  0.91871000  0.65396000  1.0 0.3075566923
C  C10  1  0.84604000  0.58129000  0.99432000  1.0 0.3075566923
C  C11  1  0.99432000  0.84604000  0.58129000  1.0 0.3075566923
C  C12  1  0.58129000  0.99432000  0.84604000  1.0 0.3075566923
C  C13  1  0.96192000  0.30474000  0.54902000  1.0 0.1109488573
C  C14  1  0.30474000  0.54902000  0.96192000  1.0 0.1109488573
C  C15  1  0.54902000  0.96192000  0.30474000  1.0 0.1109488573
C  C16  1  0.19526000  0.53808000  0.95098000  1.0 0.1109488573
C  C17  1  0.95098000  0.19526000  0.53808000  1.0 0.1109488573
C  C18  1  0.53808000  0.95098000  0.19526000  1.0 0.1109488573
C  C19  1  0.03808000  0.69526000  0.45098000  1.0 0.1109488573
C  C20  1  0.69526000  0.45098000  0.03808000  1.0 0.1109488573
C  C21  1  0.45098000  0.03808000  0.69526000  1.0 0.1109488573
C  C22  1  0.80474000  0.46192000  0.04902000  1.0 0.1109488573
C  C23  1  0.04902000  0.80474000  0.46192000  1.0 0.1109488573
C  C24  1  0.46192000  0.04902000  0.80474000  1.0 0.1109488573
C  C25  1  0.96962000  0.36002000  0.55421000  1.0 -0.197959381
C  C26  1  0.36002000  0.55421000  0.96962000  1.0 -0.197959381
C  C27  1  0.55421000  0.96962000  0.36002000  1.0 -0.197959381
C  C28  1  0.13998000  0.53038000  0.94579000  1.0 -0.197959381
C  C29  1  0.94579000  0.13998000  0.53038000  1.0 -0.197959381
C  C30  1  0.53038000  0.94579000  0.13998000  1.0 -0.1941961375
C  C31  1  0.03038000  0.63998000  0.44579000  1.0 -0.197959381
C  C32  1  0.63998000  0.44579000  0.03038000  1.0 -0.1941961375
C  C33  1  0.44579000  0.03038000  0.63998000  1.0 -0.197959381
C  C34  1  0.86002000  0.46962000  0.05421000  1.0 -0.197959381
C  C35  1  0.05421000  0.86002000  0.46962000  1.0 -0.197959381
C  C36  1  0.46962000  0.05421000  0.86002000  1.0 -0.197959381
C  C37  1  0.05149000  0.27696000  0.45360000  1.0 -0.1481887291
C  C38  1  0.27696000  0.45360000  0.05149000  1.0 -0.1481887291
C  C39  1  0.45360000  0.05149000  0.27696000  1.0 -0.1481887291
C  C40  1  0.22304000  0.44851000  0.04640000  1.0 -0.1481887291
C  C41  1  0.04640000  0.22304000  0.44851000  1.0 -0.1481887291
C  C42  1  0.44851000  0.04640000  0.22304000  1.0 -0.1481887291
C  C43  1  0.94851000  0.72304000  0.54640000  1.0 -0.1481887291
C  C44  1  0.72304000  0.54640000  0.94851000  1.0 -0.1481887291
C  C45  1  0.54640000  0.94851000  0.72304000  1.0 -0.1481887291
C  C46  1  0.77696000  0.55149000  0.95360000  1.0 -0.1481887291
C  C47  1  0.95360000  0.77696000  0.55149000  1.0 -0.1481887291
C  C48  1  0.55149000  0.95360000  0.77696000  1.0 -0.1481887291
C  C49  1  0.86670000  0.27671000  0.63871000  1.0 -0.1327302098
C  C50  1  0.27671000  0.63871000  0.86670000  1.0 -0.1327302098
C  C51  1  0.63871000  0.86670000  0.27671000  1.0 -0.1327302098
C  C52  1  0.22329000  0.63330000  0.86129000  1.0 -0.1327302098
C  C53  1  0.86129000  0.22329000  0.63330000  1.0 -0.1327302098
C  C54  1  0.63330000  0.86129000  0.22329000  1.0 -0.1327302098
C  C55  1  0.13330000  0.72329000  0.36129000  1.0 -0.1327302098
C  C56  1  0.72329000  0.36129000  0.13330000  1.0 -0.1327302098
C  C57  1  0.36129000  0.13330000  0.72329000  1.0 -0.1327302098
C  C58  1  0.77671000  0.36670000  0.13871000  1.0 -0.1327302098
C  C59  1  0.13871000  0.77671000  0.36670000  1.0 -0.1327302098
C  C60  1  0.36670000  0.13871000  0.77671000  1.0 -0.1327302098
C  C61  1  0.86623000  0.43906000  0.60564000  1.0 0.3075566923
C  C62  1  0.43906000  0.60564000  0.86623000  1.0 0.3075566923
C  C63  1  0.60564000  0.86623000  0.43906000  1.0 0.3075566923
C  C64  1  0.06094000  0.63377000  0.89436000  1.0 0.3075566923
C  C65  1  0.89436000  0.06094000  0.63377000  1.0 0.3075566923
C  C66  1  0.63377000  0.89436000  0.06094000  1.0 0.3075566923
C  C67  1  0.13377000  0.56094000  0.39436000  1.0 0.3075566923
C  C68  1  0.56094000  0.39436000  0.13377000  1.0 0.3075566923
C  C69  1  0.39436000  0.13377000  0.56094000  1.0 0.3075566923
C  C70  1  0.93906000  0.36623000  0.10564000  1.0 0.3075566923
C  C71  1  0.10564000  0.93906000  0.36623000  1.0 0.3075566923
C  C72  1  0.36623000  0.10564000  0.93906000  1.0 0.3075566923
N  N1  1  0.17514000  0.33274000  0.44406000  1.0 -0.4019490838
N  N2  1  0.33274000  0.44406000  0.17514000  1.0 -0.4019490838
N  N3  1  0.44406000  0.17514000  0.33274000  1.0 -0.4019490838
N  N4  1  0.16726000  0.32486000  0.05594000  1.0 -0.4019490838
N  N5  1  0.05594000  0.16726000  0.32486000  1.0 -0.4019490838
N  N6  1  0.32486000  0.05594000  0.16726000  1.0 -0.4019490838
N  N7  1  0.82486000  0.66726000  0.55594000  1.0 -0.4019490838
N  N8  1  0.66726000  0.55594000  0.82486000  1.0 -0.4019490838
N  N9  1  0.55594000  0.82486000  0.66726000  1.0 -0.4050608453
N  N10  1  0.83274000  0.67514000  0.94406000  1.0 -0.4019490838
N  N11  1  0.94406000  0.83274000  0.67514000  1.0 -0.4019490838
N  N12  1  0.67514000  0.94406000  0.83274000  1.0 -0.4019490838
N  N13  1  0.78047000  0.50653000  0.64610000  1.0 -0.4019490838
N  N14  1  0.50653000  0.64610000  0.78047000  1.0 -0.4019490838
N  N15  1  0.64610000  0.78047000  0.50653000  1.0 -0.4019490838
N  N16  1  0.99347000  0.71953000  0.85390000  1.0 -0.4019490838
N  N17  1  0.85390000  0.99347000  0.71953000  1.0 -0.4019490838
N  N18  1  0.71953000  0.85390000  0.99347000  1.0 -0.4019490838
N  N19  1  0.21953000  0.49347000  0.35390000  1.0 -0.4019490838
N  N20  1  0.49347000  0.35390000  0.21953000  1.0 -0.4019490838
N  N21  1  0.35390000  0.21953000  0.49347000  1.0 -0.4019490838
N  N22  1  0.00653000  0.28047000  0.14610000  1.0 -0.4019490838
N  N23  1  0.14610000  0.00653000  0.28047000  1.0 -0.4019490838
N  N24  1  0.28047000  0.14610000  0.00653000  1.0 -0.4019490838
