# DDEC6 charges by PACMAN v1.1 (https://github.com/mtap-research/PACMAN-charge/)
data_TONWUO01_FSR_pacman
_symmetry_space_group_name_H-M   'P 1'
_cell_length_a   15.77580000
_cell_length_b   15.77580000
_cell_length_c   15.77580000
_cell_angle_alpha   104.73600000
_cell_angle_beta   104.73600000
_cell_angle_gamma   119.42400000
_symmetry_Int_Tables_number   1
_chemical_formula_structural   ZnC24(NO2)4
_chemical_formula_sum   'Zn4 C96 N16 O32'
_cell_volume   2952.97204385
_cell_formula_units_Z   4
loop_
 _symmetry_equiv_pos_site_id
 _symmetry_equiv_pos_as_xyz
  1  'x, y, z'
loop_
 _atom_site_type_symbol
 _atom_site_label
 _atom_site_symmetry_multiplicity
 _atom_site_fract_x
 _atom_site_fract_y
 _atom_site_fract_z
 _atom_site_occupancy
 _atom_site_charge
Zn  Zn1  1  0.75000000  0.75000000  0.00000000  1.0 0.9045900981
Zn  Zn2  1  0.00000000  0.50000000  0.50000000  1.0 0.9055519382
Zn  Zn3  1  0.50000000  0.00000000  0.50000000  1.0 0.9055519382
Zn  Zn4  1  0.25000000  0.25000000  0.00000000  1.0 0.9045900981
C  C1  1  0.96220000  0.89520000  0.12360000  1.0 0.6053926031
C  C2  1  0.97840000  0.35480000  0.56700000  1.0 0.604939727
C  C3  1  0.78780000  0.41140000  0.43300000  1.0 0.6053926031
C  C4  1  0.66140000  0.72840000  0.12360000  1.0 0.604939727
C  C5  1  0.77160000  0.83860000  0.87640000  1.0 0.6053926031
C  C6  1  0.14520000  0.52160000  0.43300000  1.0 0.6053926031
C  C7  1  0.08860000  0.71220000  0.56700000  1.0 0.6053926031
C  C8  1  0.60480000  0.53780000  0.87640000  1.0 0.6053926031
C  C9  1  0.08130000  0.95090000  0.18840000  1.0 -0.2636083917
C  C10  1  0.98750000  0.29910000  0.63040000  1.0 -0.2636083917
C  C11  1  0.66870000  0.35710000  0.36960000  1.0 -0.2680692395
C  C12  1  0.60710000  0.73750000  0.18840000  1.0 -0.2636083917
C  C13  1  0.76250000  0.89290000  0.81160000  1.0 -0.2636083917
C  C14  1  0.20090000  0.51250000  0.36960000  1.0 -0.2636083917
C  C15  1  0.14290000  0.83130000  0.63040000  1.0 -0.2636083917
C  C16  1  0.54910000  0.41870000  0.81160000  1.0 -0.2636083917
C  C17  1  0.14850000  0.07020000  0.21050000  1.0 0.2467676325
C  C18  1  0.89030000  0.17980000  0.57830000  1.0 0.2467676325
C  C19  1  0.60150000  0.31200000  0.42170000  1.0 0.2467676325
C  C20  1  0.56200000  0.64030000  0.21050000  1.0 0.2467676325
C  C21  1  0.85970000  0.93800000  0.78950000  1.0 0.2467676325
C  C22  1  0.32020000  0.60970000  0.42170000  1.0 0.2467676325
C  C23  1  0.18800000  0.89850000  0.57830000  1.0 0.2467676325
C  C24  1  0.42980000  0.35150000  0.78950000  1.0 0.2467676325
C  C25  1  0.31420000  0.08450000  0.20990000  1.0 0.0873315436
C  C26  1  0.87540000  0.16550000  0.72970000  1.0 0.0873315436
C  C27  1  0.43580000  0.14570000  0.27030000  1.0 0.0873315436
C  C28  1  0.39570000  0.62540000  0.20990000  1.0 0.0873315436
C  C29  1  0.87460000  0.10430000  0.79010000  1.0 0.0873315436
C  C30  1  0.33450000  0.62460000  0.27030000  1.0 0.0873315436
C  C31  1  0.35430000  0.06420000  0.72970000  1.0 0.0873315436
C  C32  1  0.41550000  0.18580000  0.79010000  1.0 0.0873315436
C  C33  1  0.32170000  0.24450000  0.28220000  1.0 0.0494050827
C  C34  1  0.78770000  0.00550000  0.57720000  1.0 0.0494050827
C  C35  1  0.42830000  0.21050000  0.42280000  1.0 0.0494050827
C  C36  1  0.46050000  0.53770000  0.28220000  1.0 0.0494050827
C  C37  1  0.96230000  0.03950000  0.71780000  1.0 0.0494050827
C  C38  1  0.49450000  0.71230000  0.42280000  1.0 0.0494050827
C  C39  1  0.28950000  0.07170000  0.57720000  1.0 0.0494050827
C  C40  1  0.25550000  0.17830000  0.71780000  1.0 0.0494050827
C  C41  1  0.30390000  0.13070000  0.36400000  1.0 0.0201846299
C  C42  1  0.98330000  0.11930000  0.67320000  1.0 0.0201846299
C  C43  1  0.44610000  0.31010000  0.32680000  1.0 0.0201846299
C  C44  1  0.56010000  0.73330000  0.36400000  1.0 0.0201846299
C  C45  1  0.76670000  0.93990000  0.63600000  1.0 0.0201846299
C  C46  1  0.38070000  0.51670000  0.32680000  1.0 0.0201846299
C  C47  1  0.18990000  0.05390000  0.67320000  1.0 0.0201846299
C  C48  1  0.36930000  0.19610000  0.63600000  1.0 0.0201846299
C  C49  1  0.47840000  0.91140000  0.62360000  1.0 0.604939727
C  C50  1  0.10480000  0.22840000  0.06700000  1.0 0.6053926031
C  C51  1  0.16140000  0.03780000  0.93300000  1.0 0.6053926031
C  C52  1  0.64520000  0.21220000  0.62360000  1.0 0.604939727
C  C53  1  0.58860000  0.02160000  0.37640000  1.0 0.6053926031
C  C54  1  0.28780000  0.85480000  0.37640000  1.0 0.604939727
C  C55  1  0.27160000  0.39520000  0.93300000  1.0 0.6053926031
C  C56  1  0.46220000  0.33860000  0.06700000  1.0 0.6053926031
C  C57  1  0.48750000  0.85710000  0.68840000  1.0 -0.2636083917
C  C58  1  0.04910000  0.23750000  0.13040000  1.0 -0.2636083917
C  C59  1  0.10710000  0.91870000  0.86960000  1.0 -0.2636083917
C  C60  1  0.70090000  0.33130000  0.68840000  1.0 -0.2636083917
C  C61  1  0.64290000  0.01250000  0.31160000  1.0 -0.2680692395
C  C62  1  0.16870000  0.79910000  0.31160000  1.0 -0.2636083917
C  C63  1  0.26250000  0.45090000  0.86960000  1.0 -0.2636083917
C  C64  1  0.58130000  0.39290000  0.13040000  1.0 -0.2636083917
C  C65  1  0.39030000  0.81200000  0.71050000  1.0 0.2467676325
C  C66  1  0.92980000  0.14030000  0.07830000  1.0 0.2467676325
C  C67  1  0.06200000  0.85150000  0.92170000  1.0 0.2467676325
C  C68  1  0.82020000  0.39850000  0.71050000  1.0 0.2467676325
C  C69  1  0.68800000  0.10970000  0.28950000  1.0 0.2467676325
C  C70  1  0.10150000  0.67980000  0.28950000  1.0 0.2467676325
C  C71  1  0.35970000  0.57020000  0.92170000  1.0 0.2467676325
C  C72  1  0.64850000  0.43800000  0.07830000  1.0 0.2467676325
C  C73  1  0.37540000  0.64570000  0.70990000  1.0 0.0873315436
C  C74  1  0.91550000  0.12540000  0.22970000  1.0 0.0873315436
C  C75  1  0.89570000  0.68580000  0.77030000  1.0 0.0873315436
C  C76  1  0.83450000  0.56420000  0.70990000  1.0 0.0873315436
C  C77  1  0.85430000  0.12460000  0.29010000  1.0 0.0873315436
C  C78  1  0.93580000  0.66550000  0.29010000  1.0 0.0873315436
C  C79  1  0.37460000  0.58450000  0.77030000  1.0 0.0873315436
C  C80  1  0.81420000  0.60430000  0.22970000  1.0 0.0873315436
C  C81  1  0.28770000  0.71050000  0.78220000  1.0 0.0494050827
C  C82  1  0.75550000  0.03770000  0.07720000  1.0 0.0494050827
C  C83  1  0.96050000  0.67830000  0.92280000  1.0 0.0494050827
C  C84  1  0.99450000  0.57170000  0.78220000  1.0 0.0494050827
C  C85  1  0.78950000  0.21230000  0.21780000  1.0 0.0494050827
C  C86  1  0.92830000  0.50550000  0.21780000  1.0 0.0494050827
C  C87  1  0.46230000  0.74450000  0.92280000  1.0 0.0494050827
C  C88  1  0.82170000  0.53950000  0.07720000  1.0 0.0494050827
C  C89  1  0.48330000  0.81010000  0.86400000  1.0 0.0201846299
C  C90  1  0.86930000  0.23330000  0.17320000  1.0 0.0201846299
C  C91  1  0.06010000  0.69610000  0.82680000  1.0 0.0201846299
C  C92  1  0.88070000  0.55390000  0.86400000  1.0 0.0201846299
C  C93  1  0.68990000  0.01670000  0.13600000  1.0 0.0201846299
C  C94  1  0.94610000  0.61930000  0.13600000  1.0 0.0201846299
C  C95  1  0.26670000  0.63070000  0.82680000  1.0 0.0201846299
C  C96  1  0.80390000  0.43990000  0.17320000  1.0 0.0201846299
N  N1  1  0.27130000  0.13110000  0.26720000  1.0 0.0201846299
N  N2  1  0.88610000  0.11890000  0.64020000  1.0 0.0201846299
N  N3  1  0.47870000  0.24590000  0.35980000  1.0 0.0201846299
N  N4  1  0.49590000  0.63610000  0.26720000  1.0 0.0201846299
N  N5  1  0.86390000  0.00410000  0.73280000  1.0 0.0201846299
N  N6  1  0.38110000  0.61390000  0.35980000  1.0 0.0201846299
N  N7  1  0.25410000  0.02130000  0.64020000  1.0 0.0201846299
N  N8  1  0.36890000  0.22870000  0.73280000  1.0 0.0201846299
N  N9  1  0.38610000  0.74590000  0.76720000  1.0 0.0201846299
N  N10  1  0.86890000  0.13610000  0.14020000  1.0 0.0201846299
N  N11  1  0.99590000  0.72870000  0.85980000  1.0 0.0201846299
N  N12  1  0.88110000  0.52130000  0.76720000  1.0 0.0201846299
N  N13  1  0.75410000  0.11390000  0.23280000  1.0 0.0201846299
N  N14  1  0.97870000  0.61890000  0.23280000  1.0 0.0201846299
N  N15  1  0.36390000  0.63110000  0.85980000  1.0 0.0201846299
N  N16  1  0.77130000  0.50410000  0.14020000  1.0 0.0201846299
O  O1  1  0.89980000  0.79350000  0.08610000  1.0 -0.4960096039
O  O2  1  0.04260000  0.45650000  0.60630000  1.0 -0.4960096039
O  O3  1  0.85020000  0.43630000  0.39370000  1.0 -0.4944238981
O  O4  1  0.68630000  0.79260000  0.08610000  1.0 -0.4960096039
O  O5  1  0.70740000  0.81370000  0.91390000  1.0 -0.4960096039
O  O6  1  0.04350000  0.45740000  0.39370000  1.0 -0.4944238981
O  O7  1  0.06370000  0.64980000  0.60630000  1.0 -0.4944238981
O  O8  1  0.70650000  0.60020000  0.91390000  1.0 -0.4960096039
O  O9  1  0.93180000  0.95100000  0.10920000  1.0 -0.4960096039
O  O10  1  0.90820000  0.29900000  0.48080000  1.0 -0.4960096039
O  O11  1  0.81820000  0.42740000  0.51920000  1.0 -0.4960096039
O  O12  1  0.67740000  0.65820000  0.10920000  1.0 -0.4960096039
O  O13  1  0.84180000  0.82260000  0.89080000  1.0 -0.4960096039
O  O14  1  0.20100000  0.59180000  0.51920000  1.0 -0.4960096039
O  O15  1  0.07260000  0.68180000  0.48080000  1.0 -0.4960096039
O  O16  1  0.54900000  0.56820000  0.89080000  1.0 -0.4960096039
O  O17  1  0.54260000  0.93630000  0.58610000  1.0 -0.4960096039
O  O18  1  0.20650000  0.29260000  0.10630000  1.0 -0.4944238981
O  O19  1  0.18630000  0.10020000  0.89370000  1.0 -0.4944238981
O  O20  1  0.54350000  0.14980000  0.58610000  1.0 -0.4944238981
O  O21  1  0.56370000  0.95740000  0.41390000  1.0 -0.4960096039
O  O22  1  0.35020000  0.95650000  0.41390000  1.0 -0.4960096039
O  O23  1  0.20740000  0.29350000  0.89370000  1.0 -0.4944238981
O  O24  1  0.39980000  0.31370000  0.10630000  1.0 -0.4944238981
O  O25  1  0.40820000  0.92740000  0.60920000  1.0 -0.4960096039
O  O26  1  0.04900000  0.15820000  0.98080000  1.0 -0.4960096039
O  O27  1  0.17740000  0.06820000  0.01920000  1.0 -0.4960096039
O  O28  1  0.70100000  0.18180000  0.60920000  1.0 -0.4960096039
O  O29  1  0.57260000  0.09180000  0.39080000  1.0 -0.4960096039
O  O30  1  0.31820000  0.79900000  0.39080000  1.0 -0.4960096039
O  O31  1  0.34180000  0.45100000  0.01920000  1.0 -0.4960096039
O  O32  1  0.43180000  0.32260000  0.98080000  1.0 -0.4960096039
