# DDEC6 charges by PACMAN v1.1 (https://github.com/mtap-research/PACMAN-charge/)
data_TOPJEQ_ASR_pacman
_symmetry_space_group_name_H-M   'P 1'
_cell_length_a   13.79320000
_cell_length_b   13.79320000
_cell_length_c   45.32100000
_cell_angle_alpha   90.00000000
_cell_angle_beta   90.00000000
_cell_angle_gamma   90.00000000
_symmetry_Int_Tables_number   1
_chemical_formula_structural   CoH3C8NO4
_chemical_formula_sum   'Co16 H48 C128 N16 O64'
_cell_volume   8622.42749036
_cell_formula_units_Z   16
loop_
 _symmetry_equiv_pos_site_id
 _symmetry_equiv_pos_as_xyz
  1  'x, y, z'
loop_
 _atom_site_type_symbol
 _atom_site_label
 _atom_site_symmetry_multiplicity
 _atom_site_fract_x
 _atom_site_fract_y
 _atom_site_fract_z
 _atom_site_occupancy
 _atom_site_charge
Co  Co1  1  0.12560000  0.57943000  0.42665000  1.0 1.0519569564
Co  Co2  1  0.99241000  0.48526000  0.36875000  1.0 0.9966536659
Co  Co3  1  0.87440000  0.42057000  0.92665000  1.0 1.0519569564
Co  Co4  1  0.00759000  0.51474000  0.86875000  1.0 0.9966536659
Co  Co5  1  0.92057000  0.62560000  0.67665000  1.0 1.0519569564
Co  Co6  1  0.01474000  0.49241000  0.61875000  1.0 0.9966536659
Co  Co7  1  0.07943000  0.37440000  0.17665000  1.0 1.0519569564
Co  Co8  1  0.98526000  0.50759000  0.11875000  1.0 0.9966536659
Co  Co9  1  0.37440000  0.07943000  0.82335000  1.0 1.0519569564
Co  Co10  1  0.50759000  0.98526000  0.88125000  1.0 0.9966536659
Co  Co11  1  0.62560000  0.92057000  0.32335000  1.0 1.0519569564
Co  Co12  1  0.49241000  0.01474000  0.38125000  1.0 0.9966536659
Co  Co13  1  0.57943000  0.12560000  0.57335000  1.0 1.0519569564
Co  Co14  1  0.48526000  0.99241000  0.63125000  1.0 0.9966536659
Co  Co15  1  0.42057000  0.87440000  0.07335000  1.0 1.0519569564
Co  Co16  1  0.51474000  0.00759000  0.13125000  1.0 0.9966536659
H  H1  1  0.28079000  0.75983000  0.36933000  1.0 0.1386103013
H  H2  1  0.35639000  0.83285000  0.28637000  1.0 0.1214056258
H  H3  1  0.12894000  0.65641000  0.30053000  1.0 0.1386103013
H  H4  1  0.74324000  0.25442000  0.37104000  1.0 0.1386103013
H  H5  1  0.63038000  0.13433000  0.29591000  1.0 0.1214056258
H  H6  1  0.83297000  0.35027000  0.29154000  1.0 0.1271421566
H  H7  1  0.71921000  0.24017000  0.86933000  1.0 0.1386103013
H  H8  1  0.64361000  0.16715000  0.78637000  1.0 0.1214056258
H  H9  1  0.87106000  0.34359000  0.80053000  1.0 0.1386103013
H  H10  1  0.25676000  0.74558000  0.87104000  1.0 0.1386103013
H  H11  1  0.36962000  0.86567000  0.79591000  1.0 0.1214056258
H  H12  1  0.16703000  0.64973000  0.79154000  1.0 0.1271421566
H  H13  1  0.74017000  0.78079000  0.61933000  1.0 0.1386103013
H  H14  1  0.66715000  0.85639000  0.53637000  1.0 0.1214056258
H  H15  1  0.84359000  0.62894000  0.55053000  1.0 0.1386103013
H  H16  1  0.24558000  0.24324000  0.62104000  1.0 0.1386103013
H  H17  1  0.36567000  0.13038000  0.54591000  1.0 0.1214056258
H  H18  1  0.14973000  0.33297000  0.54154000  1.0 0.1271421566
H  H19  1  0.25983000  0.21921000  0.11933000  1.0 0.1386103013
H  H20  1  0.33285000  0.14361000  0.03637000  1.0 0.1214056258
H  H21  1  0.15641000  0.37106000  0.05053000  1.0 0.1386103013
H  H22  1  0.75442000  0.75676000  0.12104000  1.0 0.1386103013
H  H23  1  0.63433000  0.86962000  0.04591000  1.0 0.1214056258
H  H24  1  0.85027000  0.66703000  0.04154000  1.0 0.1271421566
H  H25  1  0.21921000  0.25983000  0.88067000  1.0 0.1386103013
H  H26  1  0.14361000  0.33285000  0.96363000  1.0 0.1214056258
H  H27  1  0.37106000  0.15641000  0.94947000  1.0 0.1386103013
H  H28  1  0.75676000  0.75442000  0.87896000  1.0 0.1386103013
H  H29  1  0.86962000  0.63433000  0.95409000  1.0 0.1214056258
H  H30  1  0.66703000  0.85027000  0.95846000  1.0 0.1271421566
H  H31  1  0.78079000  0.74017000  0.38067000  1.0 0.1386103013
H  H32  1  0.85639000  0.66715000  0.46363000  1.0 0.1214056258
H  H33  1  0.62894000  0.84359000  0.44947000  1.0 0.1386103013
H  H34  1  0.24324000  0.24558000  0.37896000  1.0 0.1386103013
H  H35  1  0.13038000  0.36567000  0.45409000  1.0 0.1214056258
H  H36  1  0.33297000  0.14973000  0.45846000  1.0 0.1271421566
H  H37  1  0.75983000  0.28079000  0.63067000  1.0 0.1386103013
H  H38  1  0.83285000  0.35639000  0.71363000  1.0 0.1214056258
H  H39  1  0.65641000  0.12894000  0.69947000  1.0 0.1386103013
H  H40  1  0.25442000  0.74324000  0.62896000  1.0 0.1386103013
H  H41  1  0.13433000  0.63038000  0.70409000  1.0 0.1214056258
H  H42  1  0.35027000  0.83297000  0.70846000  1.0 0.1271421566
H  H43  1  0.24017000  0.71921000  0.13067000  1.0 0.1386103013
H  H44  1  0.16715000  0.64361000  0.21363000  1.0 0.1214056258
H  H45  1  0.34359000  0.87106000  0.19947000  1.0 0.1386103013
H  H46  1  0.74558000  0.25676000  0.12896000  1.0 0.1386103013
H  H47  1  0.86567000  0.36962000  0.20409000  1.0 0.1214056258
H  H48  1  0.64973000  0.16703000  0.20846000  1.0 0.1271421566
C  C1  1  0.14140000  0.63130000  0.35882000  1.0 0.5939553875
C  C2  1  0.20240000  0.69530000  0.33877000  1.0 -0.0075261311
C  C3  1  0.27250000  0.75320000  0.34862000  1.0 -0.0881818098
C  C4  1  0.33280000  0.80330000  0.33036000  1.0 -0.0169400999
C  C5  1  0.41360000  0.86460000  0.34083000  1.0 0.6057999139
C  C6  1  0.31640000  0.79800000  0.29975000  1.0 -0.1459799436
C  C7  1  0.23980000  0.74020000  0.28937000  1.0 0.1519314154
C  C8  1  0.18260000  0.69230000  0.30781000  1.0 -0.1459799436
C  C9  1  0.87170000  0.37530000  0.34764000  1.0 0.5428600285
C  C10  1  0.79850000  0.30690000  0.33236000  1.0 0.0106844968
C  C11  1  0.74080000  0.24890000  0.35015000  1.0 -0.0841203284
C  C12  1  0.67830000  0.18150000  0.33647000  1.0 -0.0010780253
C  C13  1  0.61380000  0.11890000  0.35451000  1.0 0.5705044466
C  C14  1  0.67330000  0.17870000  0.30521000  1.0 -0.1757119176
C  C15  1  0.72900000  0.23840000  0.28830000  1.0 0.1519314154
C  C16  1  0.79430000  0.30690000  0.30280000  1.0 -0.1387772885
C  C17  1  0.85860000  0.36870000  0.85882000  1.0 0.5939553875
C  C18  1  0.79760000  0.30470000  0.83877000  1.0 -0.0075261311
C  C19  1  0.72750000  0.24680000  0.84862000  1.0 -0.0881818098
C  C20  1  0.66720000  0.19670000  0.83036000  1.0 -0.0169400999
C  C21  1  0.58640000  0.13540000  0.84083000  1.0 0.6057999139
C  C22  1  0.68360000  0.20200000  0.79975000  1.0 -0.1459799436
C  C23  1  0.76020000  0.25980000  0.78937000  1.0 0.1519314154
C  C24  1  0.81740000  0.30770000  0.80781000  1.0 -0.1459799436
C  C25  1  0.12830000  0.62470000  0.84764000  1.0 0.5428600285
C  C26  1  0.20150000  0.69310000  0.83236000  1.0 0.0106844968
C  C27  1  0.25920000  0.75110000  0.85015000  1.0 -0.0881818098
C  C28  1  0.32170000  0.81850000  0.83647000  1.0 -0.0010780253
C  C29  1  0.38620000  0.88110000  0.85451000  1.0 0.5705044466
C  C30  1  0.32670000  0.82130000  0.80521000  1.0 -0.1757119176
C  C31  1  0.27100000  0.76160000  0.78830000  1.0 0.1519314154
C  C32  1  0.20570000  0.69310000  0.80280000  1.0 -0.1387772885
C  C33  1  0.86870000  0.64140000  0.60882000  1.0 0.5939553875
C  C34  1  0.80470000  0.70240000  0.58877000  1.0 -0.0075261311
C  C35  1  0.74680000  0.77250000  0.59862000  1.0 -0.0881818098
C  C36  1  0.69670000  0.83280000  0.58036000  1.0 -0.0169400999
C  C37  1  0.63540000  0.91360000  0.59083000  1.0 0.6048574793
C  C38  1  0.70200000  0.81640000  0.54975000  1.0 -0.1459799436
C  C39  1  0.75980000  0.73980000  0.53937000  1.0 0.1519314154
C  C40  1  0.80770000  0.68260000  0.55781000  1.0 -0.1459799436
C  C41  1  0.12470000  0.37170000  0.59764000  1.0 0.5428600285
C  C42  1  0.19310000  0.29850000  0.58236000  1.0 0.0106844968
C  C43  1  0.25110000  0.24080000  0.60015000  1.0 -0.0881818098
C  C44  1  0.31850000  0.17830000  0.58647000  1.0 -0.0010780253
C  C45  1  0.38110000  0.11380000  0.60451000  1.0 0.5705044466
C  C46  1  0.32130000  0.17330000  0.55521000  1.0 -0.1757119176
C  C47  1  0.26160000  0.22900000  0.53830000  1.0 0.1519314154
C  C48  1  0.19310000  0.29430000  0.55280000  1.0 -0.1387772885
C  C49  1  0.13130000  0.35860000  0.10882000  1.0 0.5939553875
C  C50  1  0.19530000  0.29760000  0.08877000  1.0 -0.0075261311
C  C51  1  0.25320000  0.22750000  0.09862000  1.0 -0.0881818098
C  C52  1  0.30330000  0.16720000  0.08036000  1.0 -0.0169400999
C  C53  1  0.36460000  0.08640000  0.09083000  1.0 0.6057999139
C  C54  1  0.29800000  0.18360000  0.04975000  1.0 -0.1459799436
C  C55  1  0.24020000  0.26020000  0.03937000  1.0 0.1519314154
C  C56  1  0.19230000  0.31740000  0.05781000  1.0 -0.1459799436
C  C57  1  0.87530000  0.62830000  0.09764000  1.0 0.5428600285
C  C58  1  0.80690000  0.70150000  0.08236000  1.0 0.0106844968
C  C59  1  0.74890000  0.75920000  0.10015000  1.0 -0.0881818098
C  C60  1  0.68150000  0.82170000  0.08647000  1.0 -0.0010780253
C  C61  1  0.61890000  0.88620000  0.10451000  1.0 0.5705044466
C  C62  1  0.67870000  0.82670000  0.05521000  1.0 -0.1757119176
C  C63  1  0.73840000  0.77100000  0.03830000  1.0 0.1519314154
C  C64  1  0.80690000  0.70570000  0.05280000  1.0 -0.1387772885
C  C65  1  0.35860000  0.13130000  0.89118000  1.0 0.5939553875
C  C66  1  0.29760000  0.19530000  0.91123000  1.0 -0.0075261311
C  C67  1  0.22750000  0.25320000  0.90138000  1.0 -0.0881818098
C  C68  1  0.16720000  0.30330000  0.91964000  1.0 -0.0169400999
C  C69  1  0.08640000  0.36460000  0.90917000  1.0 0.6057999139
C  C70  1  0.18360000  0.29800000  0.95025000  1.0 -0.1459799436
C  C71  1  0.26020000  0.24020000  0.96063000  1.0 0.1519314154
C  C72  1  0.31740000  0.19230000  0.94219000  1.0 -0.1459799436
C  C73  1  0.62830000  0.87530000  0.90236000  1.0 0.5428600285
C  C74  1  0.70150000  0.80690000  0.91764000  1.0 0.0106844968
C  C75  1  0.75920000  0.74890000  0.89985000  1.0 -0.0881818098
C  C76  1  0.82170000  0.68150000  0.91353000  1.0 4.28666e-05
C  C77  1  0.88620000  0.61890000  0.89549000  1.0 0.5705044466
C  C78  1  0.82670000  0.67870000  0.94479000  1.0 -0.1757119176
C  C79  1  0.77100000  0.73840000  0.96170000  1.0 0.1519314154
C  C80  1  0.70570000  0.80690000  0.94720000  1.0 -0.1387772885
C  C81  1  0.64140000  0.86870000  0.39118000  1.0 0.5939553875
C  C82  1  0.70240000  0.80470000  0.41123000  1.0 -0.0075261311
C  C83  1  0.77250000  0.74680000  0.40138000  1.0 -0.0881818098
C  C84  1  0.83280000  0.69670000  0.41964000  1.0 -0.0169400999
C  C85  1  0.91360000  0.63540000  0.40917000  1.0 0.6057999139
C  C86  1  0.81640000  0.70200000  0.45025000  1.0 -0.1459799436
C  C87  1  0.73980000  0.75980000  0.46063000  1.0 0.1519314154
C  C88  1  0.68260000  0.80770000  0.44219000  1.0 -0.1459799436
C  C89  1  0.37170000  0.12470000  0.40236000  1.0 0.5428600285
C  C90  1  0.29850000  0.19310000  0.41764000  1.0 0.0106844968
C  C91  1  0.24080000  0.25110000  0.39985000  1.0 -0.0881818098
C  C92  1  0.17830000  0.31850000  0.41353000  1.0 -0.0010780253
C  C93  1  0.11380000  0.38110000  0.39549000  1.0 0.5705044466
C  C94  1  0.17330000  0.32130000  0.44479000  1.0 -0.1757119176
C  C95  1  0.22900000  0.26160000  0.46170000  1.0 0.1519314154
C  C96  1  0.29430000  0.19310000  0.44720000  1.0 -0.1387772885
C  C97  1  0.63130000  0.14140000  0.64118000  1.0 0.5939553875
C  C98  1  0.69530000  0.20240000  0.66123000  1.0 -0.0075261311
C  C99  1  0.75320000  0.27250000  0.65138000  1.0 -0.0881818098
C  C100  1  0.80330000  0.33280000  0.66964000  1.0 -0.0169400999
C  C101  1  0.86460000  0.41360000  0.65917000  1.0 0.6057999139
C  C102  1  0.79800000  0.31640000  0.70025000  1.0 -0.1459799436
C  C103  1  0.74020000  0.23980000  0.71063000  1.0 0.1519314154
C  C104  1  0.69230000  0.18260000  0.69219000  1.0 -0.1459799436
C  C105  1  0.37530000  0.87170000  0.65236000  1.0 0.5428600285
C  C106  1  0.30690000  0.79850000  0.66764000  1.0 0.0106844968
C  C107  1  0.24890000  0.74080000  0.64985000  1.0 -0.0881818098
C  C108  1  0.18150000  0.67830000  0.66353000  1.0 -0.0010780253
C  C109  1  0.11890000  0.61380000  0.64549000  1.0 0.5705044466
C  C110  1  0.17870000  0.67330000  0.69479000  1.0 -0.1757119176
C  C111  1  0.23840000  0.72900000  0.71170000  1.0 0.1519314154
C  C112  1  0.30690000  0.79430000  0.69720000  1.0 -0.1387772885
C  C113  1  0.36870000  0.85860000  0.14118000  1.0 0.5939553875
C  C114  1  0.30470000  0.79760000  0.16123000  1.0 -0.0075261311
C  C115  1  0.24680000  0.72750000  0.15138000  1.0 -0.0881818098
C  C116  1  0.19670000  0.66720000  0.16964000  1.0 -0.0169400999
C  C117  1  0.13540000  0.58640000  0.15917000  1.0 0.6057999139
C  C118  1  0.20200000  0.68360000  0.20025000  1.0 -0.1459799436
C  C119  1  0.25980000  0.76020000  0.21063000  1.0 0.1519314154
C  C120  1  0.30770000  0.81740000  0.19219000  1.0 -0.1459799436
C  C121  1  0.62470000  0.12830000  0.15236000  1.0 0.5428600285
C  C122  1  0.69310000  0.20150000  0.16764000  1.0 0.0106844968
C  C123  1  0.75110000  0.25920000  0.14985000  1.0 -0.0881818098
C  C124  1  0.81850000  0.32170000  0.16353000  1.0 -0.0010780253
C  C125  1  0.88110000  0.38620000  0.14549000  1.0 0.5705044466
C  C126  1  0.82130000  0.32670000  0.19479000  1.0 -0.1757119176
C  C127  1  0.76160000  0.27100000  0.21170000  1.0 0.1519314154
C  C128  1  0.69310000  0.20570000  0.19720000  1.0 -0.1387772885
N  N1  1  0.21940000  0.72820000  0.25837000  1.0 -0.1321200127
N  N2  1  0.72060000  0.22930000  0.25780000  1.0 -0.1244037806
N  N3  1  0.78060000  0.27180000  0.75837000  1.0 -0.1321200127
N  N4  1  0.27940000  0.77070000  0.75780000  1.0 -0.1244037806
N  N5  1  0.77180000  0.71940000  0.50837000  1.0 -0.1321200127
N  N6  1  0.27070000  0.22060000  0.50780000  1.0 -0.1321200127
N  N7  1  0.22820000  0.28060000  0.00837000  1.0 -0.1321200127
N  N8  1  0.72930000  0.77940000  0.00780000  1.0 -0.1244037806
N  N9  1  0.28060000  0.22820000  0.99163000  1.0 -0.1321200127
N  N10  1  0.77940000  0.72930000  0.99220000  1.0 -0.1244037806
N  N11  1  0.71940000  0.77180000  0.49163000  1.0 -0.1387772885
N  N12  1  0.22060000  0.27070000  0.49220000  1.0 -0.1244037806
N  N13  1  0.72820000  0.21940000  0.74163000  1.0 -0.1321200127
N  N14  1  0.22930000  0.72060000  0.74220000  1.0 -0.1244037806
N  N15  1  0.27180000  0.78060000  0.24163000  1.0 -0.1387772885
N  N16  1  0.77070000  0.27940000  0.24220000  1.0 -0.1244037806
O  O1  1  0.16610000  0.63450000  0.38533000  1.0 -0.5829400969
O  O2  1  0.07970000  0.57950000  0.34762000  1.0 -0.509975967
O  O3  1  0.40270000  0.91220000  0.36475000  1.0 -0.5406779152
O  O4  1  0.48960000  0.86480000  0.32486000  1.0 -0.6002065194
O  O5  1  0.91910000  0.43330000  0.33207000  1.0 -0.5174129185
O  O6  1  0.87950000  0.37180000  0.37503000  1.0 -0.509975967
O  O7  1  0.60280000  0.13560000  0.38155000  1.0 -0.4918210533
O  O8  1  0.56930000  0.04770000  0.34219000  1.0 -0.642879295
O  O9  1  0.83390000  0.36550000  0.88533000  1.0 -0.5829400969
O  O10  1  0.92030000  0.42050000  0.84762000  1.0 -0.509975967
O  O11  1  0.59730000  0.08780000  0.86475000  1.0 -0.5406779152
O  O12  1  0.51040000  0.13520000  0.82486000  1.0 -0.6002065194
O  O13  1  0.08090000  0.56670000  0.83207000  1.0 -0.5174129185
O  O14  1  0.12050000  0.62820000  0.87503000  1.0 -0.509975967
O  O15  1  0.39720000  0.86440000  0.88155000  1.0 -0.4918210533
O  O16  1  0.43070000  0.95230000  0.84219000  1.0 -0.642879295
O  O17  1  0.86550000  0.66610000  0.63533000  1.0 -0.5829400969
O  O18  1  0.92050000  0.57970000  0.59762000  1.0 -0.509975967
O  O19  1  0.58780000  0.90270000  0.61475000  1.0 -0.5406779152
O  O20  1  0.63520000  0.98960000  0.57486000  1.0 -0.6002065194
O  O21  1  0.06670000  0.41910000  0.58207000  1.0 -0.5174129185
O  O22  1  0.12820000  0.37950000  0.62503000  1.0 -0.509975967
O  O23  1  0.36440000  0.10280000  0.63155000  1.0 -0.4918210533
O  O24  1  0.45230000  0.06930000  0.59219000  1.0 -0.642879295
O  O25  1  0.13450000  0.33390000  0.13533000  1.0 -0.5829400969
O  O26  1  0.07950000  0.42030000  0.09762000  1.0 -0.509975967
O  O27  1  0.41220000  0.09730000  0.11475000  1.0 -0.5406779152
O  O28  1  0.36480000  0.01040000  0.07486000  1.0 -0.6002065194
O  O29  1  0.93330000  0.58090000  0.08207000  1.0 -0.5174129185
O  O30  1  0.87180000  0.62050000  0.12503000  1.0 -0.509975967
O  O31  1  0.63560000  0.89720000  0.13155000  1.0 -0.4918210533
O  O32  1  0.54770000  0.93070000  0.09219000  1.0 -0.642879295
O  O33  1  0.33390000  0.13450000  0.86467000  1.0 -0.5829400969
O  O34  1  0.42030000  0.07950000  0.90238000  1.0 -0.509975967
O  O35  1  0.09730000  0.41220000  0.88525000  1.0 -0.5406779152
O  O36  1  0.01040000  0.36480000  0.92514000  1.0 -0.6002065194
O  O37  1  0.58090000  0.93330000  0.91793000  1.0 -0.5174129185
O  O38  1  0.62050000  0.87180000  0.87497000  1.0 -0.509975967
O  O39  1  0.89720000  0.63560000  0.86845000  1.0 -0.4918210533
O  O40  1  0.93070000  0.54770000  0.90781000  1.0 -0.642879295
O  O41  1  0.66610000  0.86550000  0.36467000  1.0 -0.5829400969
O  O42  1  0.57970000  0.92050000  0.40238000  1.0 -0.509975967
O  O43  1  0.90270000  0.58780000  0.38525000  1.0 -0.5406779152
O  O44  1  0.98960000  0.63520000  0.42514000  1.0 -0.6002065194
O  O45  1  0.41910000  0.06670000  0.41793000  1.0 -0.5174129185
O  O46  1  0.37950000  0.12820000  0.37497000  1.0 -0.509975967
O  O47  1  0.10280000  0.36440000  0.36845000  1.0 -0.4918210533
O  O48  1  0.06930000  0.45230000  0.40781000  1.0 -0.642879295
O  O49  1  0.63450000  0.16610000  0.61467000  1.0 -0.5829400969
O  O50  1  0.57950000  0.07970000  0.65238000  1.0 -0.5035174739
O  O51  1  0.91220000  0.40270000  0.63525000  1.0 -0.5406779152
O  O52  1  0.86480000  0.48960000  0.67514000  1.0 -0.6002065194
O  O53  1  0.43330000  0.91910000  0.66793000  1.0 -0.5174129185
O  O54  1  0.37180000  0.87950000  0.62497000  1.0 -0.509975967
O  O55  1  0.13560000  0.60280000  0.61845000  1.0 -0.4918210533
O  O56  1  0.04770000  0.56930000  0.65781000  1.0 -0.642879295
O  O57  1  0.36550000  0.83390000  0.11467000  1.0 -0.5829400969
O  O58  1  0.42050000  0.92030000  0.15238000  1.0 -0.509975967
O  O59  1  0.08780000  0.59730000  0.13525000  1.0 -0.5406779152
O  O60  1  0.13520000  0.51040000  0.17514000  1.0 -0.6002065194
O  O61  1  0.56670000  0.08090000  0.16793000  1.0 -0.5174129185
O  O62  1  0.62820000  0.12050000  0.12497000  1.0 -0.509975967
O  O63  1  0.86440000  0.39720000  0.11845000  1.0 -0.4918210533
O  O64  1  0.95230000  0.43070000  0.15781000  1.0 -0.642879295
