# DDEC6 charges by PACMAN v1.1 (https://github.com/mtap-research/PACMAN-charge/)
data_TOPKIT_ASR_pacman
_symmetry_space_group_name_H-M   'P 1'
_cell_length_a   18.55900000
_cell_length_b   18.55900000
_cell_length_c   10.98000000
_cell_angle_alpha   90.00000000
_cell_angle_beta   90.00000000
_cell_angle_gamma   120.00000000
_symmetry_Int_Tables_number   1
_chemical_formula_structural   CuH3C10(SO2)2
_chemical_formula_sum   'Cu6 H18 C60 S12 O24'
_cell_volume   3275.23235305
_cell_formula_units_Z   6
loop_
 _symmetry_equiv_pos_site_id
 _symmetry_equiv_pos_as_xyz
  1  'x, y, z'
loop_
 _atom_site_type_symbol
 _atom_site_label
 _atom_site_symmetry_multiplicity
 _atom_site_fract_x
 _atom_site_fract_y
 _atom_site_fract_z
 _atom_site_occupancy
 _atom_site_charge
Cu  Cu1  1  0.47617000  0.52383000  0.59810000  1.0 0.8712770467
Cu  Cu2  1  0.47617000  0.95234000  0.59810000  1.0 0.8712770467
Cu  Cu3  1  0.04766000  0.52383000  0.59810000  1.0 0.8712770467
Cu  Cu4  1  0.95234000  0.47617000  0.40190000  1.0 0.8712770467
Cu  Cu5  1  0.52383000  0.04766000  0.40190000  1.0 0.8712770467
Cu  Cu6  1  0.52383000  0.47617000  0.40190000  1.0 0.8712770467
H  H1  1  0.29170000  0.36680000  0.19930000  1.0 0.1352295317
H  H2  1  0.63320000  0.92490000  0.19930000  1.0 0.1352295317
H  H3  1  0.07510000  0.70830000  0.19930000  1.0 0.1352295317
H  H4  1  0.92490000  0.63320000  0.80070000  1.0 0.1352295317
H  H5  1  0.70830000  0.07510000  0.80070000  1.0 0.1352295317
H  H6  1  0.36680000  0.29170000  0.80070000  1.0 0.1352295317
H  H7  1  0.70830000  0.63320000  0.80070000  1.0 0.1352295317
H  H8  1  0.36680000  0.07510000  0.80070000  1.0 0.1352295317
H  H9  1  0.92490000  0.29170000  0.80070000  1.0 0.1352295317
H  H10  1  0.07510000  0.36680000  0.19930000  1.0 0.1352295317
H  H11  1  0.29170000  0.92490000  0.19930000  1.0 0.1352295317
H  H12  1  0.63320000  0.70830000  0.19930000  1.0 0.1352295317
H  H13  1  0.23550000  0.47100000  0.48000000  1.0 0.1514770165
H  H14  1  0.52900000  0.76450000  0.48000000  1.0 0.1514770165
H  H15  1  0.23550000  0.76450000  0.48000000  1.0 0.1514770165
H  H16  1  0.76450000  0.52900000  0.52000000  1.0 0.1514770165
H  H17  1  0.76450000  0.23550000  0.52000000  1.0 0.1514770165
H  H18  1  0.47100000  0.23550000  0.52000000  1.0 0.1514770165
C  C1  1  0.35920000  0.45040000  0.40590000  1.0 0.5937626188
C  C2  1  0.54960000  0.90880000  0.40590000  1.0 0.5937626188
C  C3  1  0.09120000  0.64080000  0.40590000  1.0 0.5937626188
C  C4  1  0.90880000  0.54960000  0.59410000  1.0 0.5937626188
C  C5  1  0.64080000  0.09120000  0.59410000  1.0 0.5937626188
C  C6  1  0.45040000  0.35920000  0.59410000  1.0 0.5937626188
C  C7  1  0.64080000  0.54960000  0.59410000  1.0 0.5937626188
C  C8  1  0.45040000  0.09120000  0.59410000  1.0 0.5937626188
C  C9  1  0.90880000  0.35920000  0.59410000  1.0 0.5937626188
C  C10  1  0.09120000  0.45040000  0.40590000  1.0 0.5937626188
C  C11  1  0.35920000  0.90880000  0.40590000  1.0 0.5937626188
C  C12  1  0.54960000  0.64080000  0.40590000  1.0 0.5937626188
C  C13  1  0.27640000  0.42320000  0.34760000  1.0 -0.0018164953
C  C14  1  0.57680000  0.85320000  0.34760000  1.0 -0.0018164953
C  C15  1  0.14680000  0.72360000  0.34760000  1.0 -0.0018164953
C  C16  1  0.85320000  0.57680000  0.65240000  1.0 -0.0018164953
C  C17  1  0.72360000  0.14680000  0.65240000  1.0 -0.0018164953
C  C18  1  0.42320000  0.27640000  0.65240000  1.0 -0.0018164953
C  C19  1  0.72360000  0.57680000  0.65240000  1.0 -0.0018164953
C  C20  1  0.42320000  0.14680000  0.65240000  1.0 -0.0018164953
C  C21  1  0.85320000  0.27640000  0.65240000  1.0 -0.0018164953
C  C22  1  0.14680000  0.42320000  0.34760000  1.0 -0.0018164953
C  C23  1  0.27640000  0.85320000  0.34760000  1.0 -0.0018164953
C  C24  1  0.57680000  0.72360000  0.34760000  1.0 -0.0018164953
C  C25  1  0.25470000  0.38140000  0.23700000  1.0 -0.1324358322
C  C26  1  0.61860000  0.87330000  0.23700000  1.0 -0.1324358322
C  C27  1  0.12670000  0.74530000  0.23700000  1.0 -0.1324358322
C  C28  1  0.87330000  0.61860000  0.76300000  1.0 -0.1324358322
C  C29  1  0.74530000  0.12670000  0.76300000  1.0 -0.1324358322
C  C30  1  0.38140000  0.25470000  0.76300000  1.0 -0.1324358322
C  C31  1  0.74530000  0.61860000  0.76300000  1.0 -0.1324358322
C  C32  1  0.38140000  0.12670000  0.76300000  1.0 -0.1324358322
C  C33  1  0.87330000  0.25470000  0.76300000  1.0 -0.1324358322
C  C34  1  0.12670000  0.38140000  0.23700000  1.0 -0.1324358322
C  C35  1  0.25470000  0.87330000  0.23700000  1.0 -0.1324358322
C  C36  1  0.61860000  0.74530000  0.23700000  1.0 -0.1324358322
C  C37  1  0.18045000  0.36090000  0.18080000  1.0 0.0814453637
C  C38  1  0.63910000  0.81955000  0.18080000  1.0 0.0814453637
C  C39  1  0.18045000  0.81955000  0.18080000  1.0 0.0814453637
C  C40  1  0.81955000  0.63910000  0.81920000  1.0 0.0814453637
C  C41  1  0.81955000  0.18045000  0.81920000  1.0 0.0814453637
C  C42  1  0.36090000  0.18045000  0.81920000  1.0 0.0814453637
C  C43  1  0.22170000  0.44340000  0.40350000  1.0 -0.082784228
C  C44  1  0.55660000  0.77830000  0.40350000  1.0 -0.082784228
C  C45  1  0.22170000  0.77830000  0.40350000  1.0 -0.082784228
C  C46  1  0.77830000  0.55660000  0.59650000  1.0 -0.082784228
C  C47  1  0.77830000  0.22170000  0.59650000  1.0 -0.082784228
C  C48  1  0.44340000  0.22170000  0.59650000  1.0 -0.082784228
C  C49  1  0.08215000  0.16430000  0.16710000  1.0 -0.3062077338
C  C50  1  0.83570000  0.91785000  0.16710000  1.0 -0.3043204571
C  C51  1  0.08215000  0.91785000  0.16710000  1.0 -0.3062077338
C  C52  1  0.91785000  0.83570000  0.83290000  1.0 -0.3043204571
C  C53  1  0.91785000  0.08215000  0.83290000  1.0 -0.3043204571
C  C54  1  0.16430000  0.08215000  0.83290000  1.0 -0.3043204571
C  C55  1  0.15880000  0.31760000  0.05490000  1.0 -0.0925059492
C  C56  1  0.68240000  0.84120000  0.05490000  1.0 -0.0925059492
C  C57  1  0.15880000  0.84120000  0.05490000  1.0 -0.0925059492
C  C58  1  0.84120000  0.68240000  0.94510000  1.0 -0.0925059492
C  C59  1  0.84120000  0.15880000  0.94510000  1.0 -0.0925059492
C  C60  1  0.31760000  0.15880000  0.94510000  1.0 -0.0925059492
S  S1  1  0.05860000  0.22770000  0.04890000  1.0 0.1175691697
S  S2  1  0.77230000  0.83090000  0.04890000  1.0 0.1175691697
S  S3  1  0.16910000  0.94140000  0.04890000  1.0 0.1175691697
S  S4  1  0.83090000  0.77230000  0.95110000  1.0 0.1175691697
S  S5  1  0.94140000  0.16910000  0.95110000  1.0 0.1175691697
S  S6  1  0.22770000  0.05860000  0.95110000  1.0 0.1175691697
S  S7  1  0.94140000  0.77230000  0.95110000  1.0 0.1175691697
S  S8  1  0.22770000  0.16910000  0.95110000  1.0 0.1175691697
S  S9  1  0.83090000  0.05860000  0.95110000  1.0 0.1175691697
S  S10  1  0.16910000  0.22770000  0.04890000  1.0 0.1175691697
S  S11  1  0.05860000  0.83090000  0.04890000  1.0 0.1175691697
S  S12  1  0.77230000  0.94140000  0.04890000  1.0 0.1175691697
O  O1  1  0.37154000  0.48137000  0.50980000  1.0 -0.5056924149
O  O2  1  0.51863000  0.89017000  0.50980000  1.0 -0.5056924149
O  O3  1  0.10983000  0.62846000  0.50980000  1.0 -0.5056924149
O  O4  1  0.89017000  0.51863000  0.49020000  1.0 -0.5056924149
O  O5  1  0.62846000  0.10983000  0.49020000  1.0 -0.5056924149
O  O6  1  0.48137000  0.37154000  0.49020000  1.0 -0.5056924149
O  O7  1  0.62846000  0.51863000  0.49020000  1.0 -0.5056924149
O  O8  1  0.48137000  0.10983000  0.49020000  1.0 -0.5056924149
O  O9  1  0.89017000  0.37154000  0.49020000  1.0 -0.5056924149
O  O10  1  0.10983000  0.48137000  0.50980000  1.0 -0.5056924149
O  O11  1  0.37154000  0.89017000  0.50980000  1.0 -0.5056924149
O  O12  1  0.51863000  0.62846000  0.50980000  1.0 -0.5056924149
O  O13  1  0.41101000  0.44020000  0.34380000  1.0 -0.5185964281
O  O14  1  0.55980000  0.97081000  0.34380000  1.0 -0.5185964281
O  O15  1  0.02919000  0.58899000  0.34380000  1.0 -0.5185964281
O  O16  1  0.97081000  0.55980000  0.65620000  1.0 -0.5185964281
O  O17  1  0.58899000  0.02919000  0.65620000  1.0 -0.5185964281
O  O18  1  0.44020000  0.41101000  0.65620000  1.0 -0.5185964281
O  O19  1  0.58899000  0.55980000  0.65620000  1.0 -0.5185964281
O  O20  1  0.44020000  0.02919000  0.65620000  1.0 -0.5185964281
O  O21  1  0.97081000  0.41101000  0.65620000  1.0 -0.5185964281
O  O22  1  0.02919000  0.44020000  0.34380000  1.0 -0.5185964281
O  O23  1  0.41101000  0.97081000  0.34380000  1.0 -0.5185964281
O  O24  1  0.55980000  0.58899000  0.34380000  1.0 -0.5185964281
