# DDEC6 charges by PACMAN v1.1 (https://github.com/mtap-research/PACMAN-charge/)
data_TOQCIL_FSR_pacman
_symmetry_space_group_name_H-M   'P 1'
_cell_length_a   5.30500000
_cell_length_b   9.29600000
_cell_length_c   15.47400000
_cell_angle_alpha   86.46200000
_cell_angle_beta   86.42000000
_cell_angle_gamma   78.90600000
_symmetry_Int_Tables_number   1
_chemical_formula_structural   Zn4P3O13
_chemical_formula_sum   'Zn8 P6 O26'
_cell_volume   746.42032518
_cell_formula_units_Z   2
loop_
 _symmetry_equiv_pos_site_id
 _symmetry_equiv_pos_as_xyz
  1  'x, y, z'
loop_
 _atom_site_type_symbol
 _atom_site_label
 _atom_site_symmetry_multiplicity
 _atom_site_fract_x
 _atom_site_fract_y
 _atom_site_fract_z
 _atom_site_occupancy
 _atom_site_charge
Zn  Zn1  1  0.77560000  0.61900000  0.26355000  1.0 1.0341286189
Zn  Zn2  1  0.22440000  0.38100000  0.73645000  1.0 1.0360081918
Zn  Zn3  1  0.27790000  0.55550000  0.39633000  1.0 1.081073118
Zn  Zn4  1  0.72210000  0.44450000  0.60367000  1.0 1.081073118
Zn  Zn5  1  0.20570000  0.57550000  0.09975000  1.0 1.1011697776
Zn  Zn6  1  0.79430000  0.42450000  0.90025000  1.0 1.1011697776
Zn  Zn7  1  0.01540000  0.15090000  0.25745000  1.0 1.1596027739
Zn  Zn8  1  0.98460000  0.84910000  0.74255000  1.0 1.1596027739
P  P1  1  0.76210000  0.39560000  0.11850000  1.0 1.5390343793
P  P2  1  0.23790000  0.60440000  0.88150000  1.0 1.5390343793
P  P3  1  0.82730000  0.36320000  0.40730000  1.0 1.551162494
P  P4  1  0.17270000  0.63680000  0.59270000  1.0 1.551162494
P  P5  1  0.21210000  0.79600000  0.24050000  1.0 1.5305415519
P  P6  1  0.78790000  0.20400000  0.75950000  1.0 1.5305415519
O  O1  1  0.10000000  0.67370000  0.29820000  1.0 -0.7945080869
O  O2  1  0.90000000  0.32630000  0.70180000  1.0 -0.7945080869
O  O3  1  0.89000000  0.51480000  0.15750000  1.0 -0.7797222011
O  O4  1  0.11000000  0.48520000  0.84250000  1.0 -0.7797222011
O  O5  1  0.64900000  0.49640000  0.36060000  1.0 -0.7797222011
O  O6  1  0.35100000  0.50360000  0.63940000  1.0 -0.7797222011
O  O7  1  0.49200000  0.78050000  0.25930000  1.0 -0.7403898709
O  O8  1  0.50800000  0.21950000  0.74070000  1.0 -0.7403898709
O  O9  1  0.10100000  0.39130000  0.40200000  1.0 -0.7585454457
O  O10  1  0.89900000  0.60870000  0.59800000  1.0 -0.7585454457
O  O11  1  0.28200000  0.65650000  0.50010000  1.0 -0.7585454457
O  O12  1  0.71800000  0.34350000  0.49990000  1.0 -0.7585454457
O  O13  1  0.47600000  0.42850000  0.15040000  1.0 -0.7209848735
O  O14  1  0.52400000  0.57150000  0.84960000  1.0 -0.7209848735
O  O15  1  0.17700000  0.76860000  0.14510000  1.0 -0.7585454457
O  O16  1  0.82300000  0.23140000  0.85490000  1.0 -0.7585454457
O  O17  1  0.20600000  0.59160000  0.97870000  1.0 -0.7723958068
O  O18  1  0.79400000  0.40840000  0.02130000  1.0 -0.7723958068
O  O19  1  0.81500000  0.22340000  0.36070000  1.0 -0.7062301211
O  O20  1  0.18500000  0.77660000  0.63930000  1.0 -0.7062301211
O  O21  1  0.06000000  0.94380000  0.26510000  1.0 -0.7209848735
O  O22  1  0.94000000  0.05620000  0.73490000  1.0 -0.7209848735
O  O23  1  0.88400000  0.24450000  0.15140000  1.0 -0.7209848735
O  O24  1  0.11600000  0.75550000  0.84860000  1.0 -0.7209848735
O  O25  1  0.35900000  0.21500000  0.25900000  1.0 0.0139067456
O  O26  1  0.64100000  0.78500000  0.74100000  1.0 0.0139067456
