# DDEC6 charges by PACMAN v1.1 (https://github.com/mtap-research/PACMAN-charge/)
data_TORXEE_FSR_pacman
_symmetry_space_group_name_H-M   'P 1'
_cell_length_a   14.25260000
_cell_length_b   14.25260000
_cell_length_c   14.25260000
_cell_angle_alpha   116.09700000
_cell_angle_beta   116.09700000
_cell_angle_gamma   96.90430000
_symmetry_Int_Tables_number   1
_chemical_formula_structural   CoH12C24NO4
_chemical_formula_sum   'Co4 H48 C96 N4 O16'
_cell_volume   2151.08775291
_cell_formula_units_Z   4
loop_
 _symmetry_equiv_pos_site_id
 _symmetry_equiv_pos_as_xyz
  1  'x, y, z'
loop_
 _atom_site_type_symbol
 _atom_site_label
 _atom_site_symmetry_multiplicity
 _atom_site_fract_x
 _atom_site_fract_y
 _atom_site_fract_z
 _atom_site_occupancy
 _atom_site_charge
Co  Co1  1  0.42903000  0.42903000  0.00000000  1.0 0.7037689196
Co  Co2  1  0.07097000  0.07097000  0.00000000  1.0 0.7037689196
Co  Co3  1  0.57097000  0.57097000  0.00000000  1.0 0.7037689196
Co  Co4  1  0.92903000  0.92903000  0.00000000  1.0 0.7037689196
H  H1  1  0.54020000  0.63660000  0.39140000  1.0 0.1188907497
H  H2  1  0.24520000  0.14880000  0.60860000  1.0 0.1188907497
H  H3  1  0.63660000  0.24520000  0.09640000  1.0 0.1188907497
H  H4  1  0.14880000  0.54020000  0.90360000  1.0 0.1188907497
H  H5  1  0.25480000  0.86340000  0.90360000  1.0 0.1188907497
H  H6  1  0.95980000  0.35120000  0.09640000  1.0 0.1188907497
H  H7  1  0.35120000  0.25480000  0.39140000  1.0 0.1188907497
H  H8  1  0.86340000  0.95980000  0.60860000  1.0 0.1188907497
H  H9  1  0.45980000  0.36340000  0.60860000  1.0 0.1188907497
H  H10  1  0.75480000  0.85120000  0.39140000  1.0 0.1188907497
H  H11  1  0.36340000  0.75480000  0.90360000  1.0 0.1188907497
H  H12  1  0.85120000  0.45980000  0.09640000  1.0 0.1188907497
H  H13  1  0.74520000  0.13660000  0.09640000  1.0 0.1188907497
H  H14  1  0.04020000  0.64880000  0.90360000  1.0 0.1188907497
H  H15  1  0.64880000  0.74520000  0.60860000  1.0 0.1188907497
H  H16  1  0.13660000  0.04020000  0.39140000  1.0 0.1188907497
H  H17  1  0.41400000  0.39200000  0.18000000  1.0 0.059137422
H  H18  1  0.21200000  0.23400000  0.82000000  1.0 0.059137422
H  H19  1  0.39200000  0.21200000  0.97800000  1.0 0.059137422
H  H20  1  0.23400000  0.41400000  0.02200000  1.0 0.059137422
H  H21  1  0.28800000  0.10800000  0.02200000  1.0 0.059137422
H  H22  1  0.08600000  0.26600000  0.97800000  1.0 0.059137422
H  H23  1  0.26600000  0.28800000  0.18000000  1.0 0.059137422
H  H24  1  0.10800000  0.08600000  0.82000000  1.0 0.059137422
H  H25  1  0.58600000  0.60800000  0.82000000  1.0 0.059137422
H  H26  1  0.78800000  0.76600000  0.18000000  1.0 0.059137422
H  H27  1  0.60800000  0.78800000  0.02200000  1.0 0.059137422
H  H28  1  0.76600000  0.58600000  0.97800000  1.0 0.059137422
H  H29  1  0.71200000  0.89200000  0.97800000  1.0 0.059137422
H  H30  1  0.91400000  0.73400000  0.02200000  1.0 0.059137422
H  H31  1  0.73400000  0.71200000  0.82000000  1.0 0.059137422
H  H32  1  0.89200000  0.91400000  0.18000000  1.0 0.059137422
H  H33  1  0.44700000  0.32600000  0.14100000  1.0 0.052568771
H  H34  1  0.18500000  0.30600000  0.85900000  1.0 0.052568771
H  H35  1  0.32600000  0.18500000  0.87900000  1.0 0.052568771
H  H36  1  0.30600000  0.44700000  0.12100000  1.0 0.052568771
H  H37  1  0.31500000  0.17400000  0.12100000  1.0 0.052568771
H  H38  1  0.05300000  0.19400000  0.87900000  1.0 0.052568771
H  H39  1  0.19400000  0.31500000  0.14100000  1.0 0.052568771
H  H40  1  0.17400000  0.05300000  0.85900000  1.0 0.052568771
H  H41  1  0.55300000  0.67400000  0.85900000  1.0 0.052568771
H  H42  1  0.81500000  0.69400000  0.14100000  1.0 0.052568771
H  H43  1  0.67400000  0.81500000  0.12100000  1.0 0.052568771
H  H44  1  0.69400000  0.55300000  0.87900000  1.0 0.052568771
H  H45  1  0.68500000  0.82600000  0.87900000  1.0 0.052568771
H  H46  1  0.94700000  0.80600000  0.12100000  1.0 0.052568771
H  H47  1  0.80600000  0.68500000  0.85900000  1.0 0.052568771
H  H48  1  0.82600000  0.94700000  0.14100000  1.0 0.052568771
C  C1  1  0.57840000  0.65270000  0.23110000  1.0 0.4379768924
C  C2  1  0.42160000  0.34730000  0.76890000  1.0 0.4379768924
C  C3  1  0.65270000  0.42160000  0.07430000  1.0 0.4379768924
C  C4  1  0.34730000  0.57840000  0.92570000  1.0 0.4379768924
C  C5  1  0.07840000  0.84730000  0.92570000  1.0 0.4379768924
C  C6  1  0.92160000  0.15270000  0.07430000  1.0 0.4379768924
C  C7  1  0.15270000  0.07840000  0.23110000  1.0 0.4379768924
C  C8  1  0.84730000  0.92160000  0.76890000  1.0 0.4379768924
C  C9  1  0.63950000  0.72980000  0.36930000  1.0 0.052568771
C  C10  1  0.36050000  0.27020000  0.63070000  1.0 0.052568771
C  C11  1  0.72980000  0.36050000  0.09030000  1.0 0.052568771
C  C12  1  0.27020000  0.63950000  0.90970000  1.0 0.052568771
C  C13  1  0.13950000  0.77020000  0.90970000  1.0 0.052568771
C  C14  1  0.86050000  0.22980000  0.09030000  1.0 0.052568771
C  C15  1  0.22980000  0.13950000  0.36930000  1.0 0.052568771
C  C16  1  0.77020000  0.86050000  0.63070000  1.0 0.052568771
C  C17  1  0.60722000  0.70102000  0.43560000  1.0 -0.153894751
C  C18  1  0.26542000  0.17162000  0.56440000  1.0 -0.153894751
C  C19  1  0.70102000  0.26542000  0.09380000  1.0 -0.153894751
C  C20  1  0.17162000  0.60722000  0.90620000  1.0 -0.153894751
C  C21  1  0.23458000  0.79898000  0.90620000  1.0 -0.153894751
C  C22  1  0.89278000  0.32838000  0.09380000  1.0 -0.153894751
C  C23  1  0.32838000  0.23458000  0.43560000  1.0 -0.153894751
C  C24  1  0.79898000  0.89278000  0.56440000  1.0 -0.153894751
C  C25  1  0.39278000  0.29898000  0.56440000  1.0 -0.153894751
C  C26  1  0.73458000  0.82838000  0.43560000  1.0 -0.153894751
C  C27  1  0.29898000  0.73458000  0.90620000  1.0 -0.153894751
C  C28  1  0.82838000  0.39278000  0.09380000  1.0 -0.153894751
C  C29  1  0.76542000  0.20102000  0.09380000  1.0 -0.153894751
C  C30  1  0.10722000  0.67162000  0.90620000  1.0 -0.153894751
C  C31  1  0.67162000  0.76542000  0.56440000  1.0 -0.153894751
C  C32  1  0.20102000  0.10722000  0.43560000  1.0 -0.153894751
C  C33  1  0.36410000  0.35010000  0.13000000  1.0 -0.0196582472
C  C34  1  0.22010000  0.23410000  0.87000000  1.0 -0.0196582472
C  C35  1  0.35010000  0.22010000  0.98600000  1.0 -0.0196582472
C  C36  1  0.23410000  0.36410000  0.01400000  1.0 -0.0196582472
C  C37  1  0.27990000  0.14990000  0.01400000  1.0 -0.0196582472
C  C38  1  0.13590000  0.26590000  0.98600000  1.0 -0.0196582472
C  C39  1  0.26590000  0.27990000  0.13000000  1.0 -0.0196582472
C  C40  1  0.14990000  0.13590000  0.87000000  1.0 -0.0196582472
C  C41  1  0.63590000  0.64990000  0.87000000  1.0 -0.0196582472
C  C42  1  0.77990000  0.76590000  0.13000000  1.0 -0.0196582472
C  C43  1  0.64990000  0.77990000  0.01400000  1.0 -0.0196582472
C  C44  1  0.76590000  0.63590000  0.98600000  1.0 -0.0196582472
C  C45  1  0.72010000  0.85010000  0.98600000  1.0 -0.0196582472
C  C46  1  0.86410000  0.73410000  0.01400000  1.0 -0.0196582472
C  C47  1  0.73410000  0.72010000  0.87000000  1.0 -0.0196582472
C  C48  1  0.85010000  0.86410000  0.13000000  1.0 -0.0196582472
C  C49  1  0.27060000  0.37760000  0.06300000  1.0 -0.0196582472
C  C50  1  0.31460000  0.20760000  0.93700000  1.0 -0.0196582472
C  C51  1  0.37760000  0.31460000  0.10700000  1.0 -0.0196582472
C  C52  1  0.20760000  0.27060000  0.89300000  1.0 -0.0196582472
C  C53  1  0.18540000  0.12240000  0.89300000  1.0 -0.0196582472
C  C54  1  0.22940000  0.29240000  0.10700000  1.0 -0.0196582472
C  C55  1  0.29240000  0.18540000  0.06300000  1.0 -0.0196582472
C  C56  1  0.12240000  0.22940000  0.93700000  1.0 -0.0196582472
C  C57  1  0.72940000  0.62240000  0.93700000  1.0 -0.0196582472
C  C58  1  0.68540000  0.79240000  0.06300000  1.0 -0.0196582472
C  C59  1  0.62240000  0.68540000  0.89300000  1.0 -0.0196582472
C  C60  1  0.79240000  0.72940000  0.10700000  1.0 -0.0196582472
C  C61  1  0.81460000  0.87760000  0.10700000  1.0 -0.0196582472
C  C62  1  0.77060000  0.70760000  0.89300000  1.0 -0.0196582472
C  C63  1  0.70760000  0.81460000  0.93700000  1.0 -0.0196582472
C  C64  1  0.87760000  0.77060000  0.06300000  1.0 -0.0196582472
C  C65  1  0.33850000  0.37250000  0.13200000  1.0 -0.0076907167
C  C66  1  0.24050000  0.20650000  0.86800000  1.0 -0.0076907167
C  C67  1  0.37250000  0.24050000  0.03400000  1.0 -0.0076907167
C  C68  1  0.20650000  0.33850000  0.96600000  1.0 -0.0076907167
C  C69  1  0.25950000  0.12750000  0.96600000  1.0 -0.0076907167
C  C70  1  0.16150000  0.29350000  0.03400000  1.0 -0.0076907167
C  C71  1  0.29350000  0.25950000  0.13200000  1.0 -0.0076907167
C  C72  1  0.12750000  0.16150000  0.86800000  1.0 -0.0076907167
C  C73  1  0.66150000  0.62750000  0.86800000  1.0 -0.0076907167
C  C74  1  0.75950000  0.79350000  0.13200000  1.0 -0.0076907167
C  C75  1  0.62750000  0.75950000  0.96600000  1.0 -0.0076907167
C  C76  1  0.79350000  0.66150000  0.03400000  1.0 -0.0076907167
C  C77  1  0.74050000  0.87250000  0.03400000  1.0 -0.0076907167
C  C78  1  0.83850000  0.70650000  0.96600000  1.0 -0.0076907167
C  C79  1  0.70650000  0.74050000  0.86800000  1.0 -0.0076907167
C  C80  1  0.87250000  0.83850000  0.13200000  1.0 -0.0076907167
C  C81  1  0.30320000  0.38180000  0.10860000  1.0 -0.0076907167
C  C82  1  0.27320000  0.19460000  0.89140000  1.0 -0.0076907167
C  C83  1  0.38180000  0.27320000  0.07860000  1.0 -0.0076907167
C  C84  1  0.19460000  0.30320000  0.92140000  1.0 -0.0076907167
C  C85  1  0.22680000  0.11820000  0.92140000  1.0 -0.0076907167
C  C86  1  0.19680000  0.30540000  0.07860000  1.0 -0.0076907167
C  C87  1  0.30540000  0.22680000  0.10860000  1.0 -0.0076907167
C  C88  1  0.11820000  0.19680000  0.89140000  1.0 -0.0076907167
C  C89  1  0.69680000  0.61820000  0.89140000  1.0 -0.0076907167
C  C90  1  0.72680000  0.80540000  0.10860000  1.0 -0.0076907167
C  C91  1  0.61820000  0.72680000  0.92140000  1.0 -0.0076907167
C  C92  1  0.80540000  0.69680000  0.07860000  1.0 -0.0076907167
C  C93  1  0.77320000  0.88180000  0.07860000  1.0 -0.0076907167
C  C94  1  0.80320000  0.69460000  0.92140000  1.0 -0.0076907167
C  C95  1  0.69460000  0.77320000  0.89140000  1.0 -0.0076907167
C  C96  1  0.88180000  0.80320000  0.10860000  1.0 -0.0076907167
N  N1  1  0.31840000  0.31840000  0.00000000  1.0 0.0187477985
N  N2  1  0.18160000  0.18160000  0.00000000  1.0 0.0187477985
N  N3  1  0.68160000  0.68160000  0.00000000  1.0 0.0187477985
N  N4  1  0.81840000  0.81840000  0.00000000  1.0 0.0187477985
O  O1  1  0.49671000  0.56243000  0.17710000  1.0 -0.447906275
O  O2  1  0.38533000  0.31961000  0.82290000  1.0 -0.447906275
O  O3  1  0.56243000  0.38533000  0.06572000  1.0 -0.447906275
O  O4  1  0.31961000  0.49671000  0.93428000  1.0 -0.447906275
O  O5  1  0.11467000  0.93757000  0.93428000  1.0 -0.447906275
O  O6  1  0.00329000  0.18039000  0.06572000  1.0 -0.447906275
O  O7  1  0.18039000  0.11467000  0.17710000  1.0 -0.447906275
O  O8  1  0.93757000  0.00329000  0.82290000  1.0 -0.447906275
O  O9  1  0.50329000  0.43757000  0.82290000  1.0 -0.447906275
O  O10  1  0.61467000  0.68039000  0.17710000  1.0 -0.447906275
O  O11  1  0.43757000  0.61467000  0.93428000  1.0 -0.447906275
O  O12  1  0.68039000  0.50329000  0.06572000  1.0 -0.447906275
O  O13  1  0.88533000  0.06243000  0.06572000  1.0 -0.447906275
O  O14  1  0.99671000  0.81961000  0.93428000  1.0 -0.447906275
O  O15  1  0.81961000  0.88533000  0.82290000  1.0 -0.447906275
O  O16  1  0.06243000  0.99671000  0.17710000  1.0 -0.447906275
