# DDEC6 charges by PACMAN v1.1 (https://github.com/mtap-research/PACMAN-charge/)
data_TOSKOE_ASR_pacman
_symmetry_space_group_name_H-M   'P 1'
_cell_length_a   18.48100000
_cell_length_b   18.48100000
_cell_length_c   18.48100000
_cell_angle_alpha   60.17540000
_cell_angle_beta   60.17540000
_cell_angle_gamma   60.17540000
_symmetry_Int_Tables_number   1
_chemical_formula_structural   CuH13C21NO6
_chemical_formula_sum   'Cu6 H78 C126 N6 O36'
_cell_volume   4481.08466525
_cell_formula_units_Z   6
loop_
 _symmetry_equiv_pos_site_id
 _symmetry_equiv_pos_as_xyz
  1  'x, y, z'
loop_
 _atom_site_type_symbol
 _atom_site_label
 _atom_site_symmetry_multiplicity
 _atom_site_fract_x
 _atom_site_fract_y
 _atom_site_fract_z
 _atom_site_occupancy
 _atom_site_charge
Cu  Cu1  1  0.49986000  0.49986000  0.92841000  1.0 0.8646432701
Cu  Cu2  1  0.49986000  0.92841000  0.49986000  1.0 0.8646432701
Cu  Cu3  1  0.92841000  0.49986000  0.49986000  1.0 0.8646432701
Cu  Cu4  1  0.50014000  0.07159000  0.50014000  1.0 0.8646432701
Cu  Cu5  1  0.50014000  0.50014000  0.07159000  1.0 0.8646432701
Cu  Cu6  1  0.07159000  0.50014000  0.50014000  1.0 0.8646432701
H  H1  1  0.77130000  0.44690000  0.98790000  1.0 0.131558608
H  H2  1  0.92400000  0.42780000  0.98600000  1.0 0.0894133839
H  H3  1  0.07130000  0.60340000  0.88150000  1.0 0.0894133839
H  H4  1  0.12400000  0.58080000  0.98040000  1.0 0.0987068557
H  H5  1  0.02240000  0.38610000  0.16360000  1.0 0.230480736
H  H6  1  0.96340000  0.41080000  0.06320000  1.0 0.0629093665
H  H7  1  0.44690000  0.98790000  0.77130000  1.0 0.131558608
H  H8  1  0.42780000  0.98600000  0.92400000  1.0 0.0894133839
H  H9  1  0.60340000  0.88150000  0.07130000  1.0 0.0894133839
H  H10  1  0.58080000  0.98040000  0.12400000  1.0 0.0987068557
H  H11  1  0.38610000  0.16360000  0.02240000  1.0 0.230480736
H  H12  1  0.41080000  0.06320000  0.96340000  1.0 0.0629093665
H  H13  1  0.98790000  0.77130000  0.44690000  1.0 0.131558608
H  H14  1  0.98600000  0.92400000  0.42780000  1.0 0.0894133839
H  H15  1  0.88150000  0.07130000  0.60340000  1.0 0.0894133839
H  H16  1  0.98040000  0.12400000  0.58080000  1.0 0.0987068557
H  H17  1  0.16360000  0.02240000  0.38610000  1.0 0.230480736
H  H18  1  0.06320000  0.96340000  0.41080000  1.0 0.0629093665
H  H19  1  0.22870000  0.01210000  0.55310000  1.0 0.131558608
H  H20  1  0.07600000  0.01400000  0.57220000  1.0 0.0894133839
H  H21  1  0.92870000  0.11850000  0.39660000  1.0 0.0894133839
H  H22  1  0.87600000  0.01960000  0.41920000  1.0 0.0987068557
H  H23  1  0.97760000  0.83640000  0.61390000  1.0 0.230480736
H  H24  1  0.03660000  0.93680000  0.58920000  1.0 0.0629093665
H  H25  1  0.55310000  0.22870000  0.01210000  1.0 0.131558608
H  H26  1  0.57220000  0.07600000  0.01400000  1.0 0.0894133839
H  H27  1  0.39660000  0.92870000  0.11850000  1.0 0.0894133839
H  H28  1  0.41920000  0.87600000  0.01960000  1.0 0.0987068557
H  H29  1  0.61390000  0.97760000  0.83640000  1.0 0.230480736
H  H30  1  0.58920000  0.03660000  0.93680000  1.0 0.0629093665
H  H31  1  0.01210000  0.55310000  0.22870000  1.0 0.131558608
H  H32  1  0.01400000  0.57220000  0.07600000  1.0 0.0894133839
H  H33  1  0.11850000  0.39660000  0.92870000  1.0 0.0894133839
H  H34  1  0.01960000  0.41920000  0.87600000  1.0 0.0987068557
H  H35  1  0.83640000  0.61390000  0.97760000  1.0 0.230480736
H  H36  1  0.93680000  0.58920000  0.03660000  1.0 0.0629093665
H  H37  1  0.22870000  0.55310000  0.01210000  1.0 0.131558608
H  H38  1  0.07600000  0.57220000  0.01400000  1.0 0.0894133839
H  H39  1  0.92870000  0.39660000  0.11850000  1.0 0.0894133839
H  H40  1  0.87600000  0.41920000  0.01960000  1.0 0.0987068557
H  H41  1  0.97760000  0.61390000  0.83640000  1.0 0.230480736
H  H42  1  0.03660000  0.58920000  0.93680000  1.0 0.0629093665
H  H43  1  0.55310000  0.01210000  0.22870000  1.0 0.131558608
H  H44  1  0.57220000  0.01400000  0.07600000  1.0 0.0894133839
H  H45  1  0.39660000  0.11850000  0.92870000  1.0 0.0894133839
H  H46  1  0.41920000  0.01960000  0.87600000  1.0 0.0987068557
H  H47  1  0.61390000  0.83640000  0.97760000  1.0 0.230480736
H  H48  1  0.58920000  0.93680000  0.03660000  1.0 0.0629093665
H  H49  1  0.01210000  0.22870000  0.55310000  1.0 0.131558608
H  H50  1  0.01400000  0.07600000  0.57220000  1.0 0.0894133839
H  H51  1  0.11850000  0.92870000  0.39660000  1.0 0.0894133839
H  H52  1  0.01960000  0.87600000  0.41920000  1.0 0.0987068557
H  H53  1  0.83640000  0.97760000  0.61390000  1.0 0.230480736
H  H54  1  0.93680000  0.03660000  0.58920000  1.0 0.0629093665
H  H55  1  0.77130000  0.98790000  0.44690000  1.0 0.131558608
H  H56  1  0.92400000  0.98600000  0.42780000  1.0 0.0894133839
H  H57  1  0.07130000  0.88150000  0.60340000  1.0 0.0894133839
H  H58  1  0.12400000  0.98040000  0.58080000  1.0 0.0987068557
H  H59  1  0.02240000  0.16360000  0.38610000  1.0 0.230480736
H  H60  1  0.96340000  0.06320000  0.41080000  1.0 0.0629093665
H  H61  1  0.44690000  0.77130000  0.98790000  1.0 0.131558608
H  H62  1  0.42780000  0.92400000  0.98600000  1.0 0.0894133839
H  H63  1  0.60340000  0.07130000  0.88150000  1.0 0.0894133839
H  H64  1  0.58080000  0.12400000  0.98040000  1.0 0.0987068557
H  H65  1  0.38610000  0.02240000  0.16360000  1.0 0.230480736
H  H66  1  0.41080000  0.96340000  0.06320000  1.0 0.0629093665
H  H67  1  0.98790000  0.44690000  0.77130000  1.0 0.131558608
H  H68  1  0.98600000  0.42780000  0.92400000  1.0 0.0894133839
H  H69  1  0.88150000  0.60340000  0.07130000  1.0 0.0894133839
H  H70  1  0.98040000  0.58080000  0.12400000  1.0 0.0987068557
H  H71  1  0.16360000  0.38610000  0.02240000  1.0 0.230480736
H  H72  1  0.06320000  0.41080000  0.96340000  1.0 0.0629093665
H  H73  1  0.77315000  0.46660000  0.77315000  1.0 0.131558608
H  H74  1  0.46660000  0.77315000  0.77315000  1.0 0.131558608
H  H75  1  0.77315000  0.77315000  0.46660000  1.0 0.131558608
H  H76  1  0.22685000  0.22685000  0.53340000  1.0 0.131558608
H  H77  1  0.53340000  0.22685000  0.22685000  1.0 0.131558608
H  H78  1  0.22685000  0.53340000  0.22685000  1.0 0.131558608
C  C1  1  0.65960000  0.48120000  0.92910000  1.0 0.5793722017
C  C2  1  0.79740000  0.47290000  0.93010000  1.0 -0.2180065843
C  C3  1  0.75580000  0.46990000  0.88770000  1.0 -0.035231627
C  C4  1  0.97480000  0.52150000  0.90150000  1.0 0.0629093665
C  C5  1  0.01240000  0.50780000  0.96430000  1.0 0.0312525915
C  C6  1  0.06400000  0.55680000  0.93750000  1.0 -0.1519303031
C  C7  1  0.09750000  0.54260000  0.99710000  1.0 -0.0715848314
C  C8  1  0.02950000  0.43300000  0.10780000  1.0 0.0134701592
C  C9  1  0.99550000  0.44710000  0.04820000  1.0 0.0021800068
C  C10  1  0.48120000  0.92910000  0.65960000  1.0 0.5793722017
C  C11  1  0.47290000  0.93010000  0.79740000  1.0 -0.2180065843
C  C12  1  0.46990000  0.88770000  0.75580000  1.0 -0.035231627
C  C13  1  0.52150000  0.90150000  0.97480000  1.0 0.0629093665
C  C14  1  0.50780000  0.96430000  0.01240000  1.0 0.0312525915
C  C15  1  0.55680000  0.93750000  0.06400000  1.0 -0.1519303031
C  C16  1  0.54260000  0.99710000  0.09750000  1.0 -0.0715848314
C  C17  1  0.43300000  0.10780000  0.02950000  1.0 0.0134701592
C  C18  1  0.44710000  0.04820000  0.99550000  1.0 0.0021800068
C  C19  1  0.92910000  0.65960000  0.48120000  1.0 0.5793722017
C  C20  1  0.93010000  0.79740000  0.47290000  1.0 -0.2180065843
C  C21  1  0.88770000  0.75580000  0.46990000  1.0 -0.035231627
C  C22  1  0.90150000  0.97480000  0.52150000  1.0 0.0629093665
C  C23  1  0.96430000  0.01240000  0.50780000  1.0 0.0312525915
C  C24  1  0.93750000  0.06400000  0.55680000  1.0 -0.1519303031
C  C25  1  0.99710000  0.09750000  0.54260000  1.0 -0.0715848314
C  C26  1  0.10780000  0.02950000  0.43300000  1.0 0.0134701592
C  C27  1  0.04820000  0.99550000  0.44710000  1.0 0.0021800068
C  C28  1  0.34040000  0.07090000  0.51880000  1.0 0.5793722017
C  C29  1  0.20260000  0.06990000  0.52710000  1.0 -0.2180065843
C  C30  1  0.24420000  0.11230000  0.53010000  1.0 -0.035231627
C  C31  1  0.02520000  0.09850000  0.47850000  1.0 0.0629093665
C  C32  1  0.98760000  0.03570000  0.49220000  1.0 0.0312525915
C  C33  1  0.93600000  0.06250000  0.44320000  1.0 -0.1519303031
C  C34  1  0.90250000  0.00290000  0.45740000  1.0 -0.0715848314
C  C35  1  0.97050000  0.89220000  0.56700000  1.0 0.0134701592
C  C36  1  0.00450000  0.95180000  0.55290000  1.0 0.0021800068
C  C37  1  0.51880000  0.34040000  0.07090000  1.0 0.5793722017
C  C38  1  0.52710000  0.20260000  0.06990000  1.0 -0.2180065843
C  C39  1  0.53010000  0.24420000  0.11230000  1.0 -0.035231627
C  C40  1  0.47850000  0.02520000  0.09850000  1.0 0.0629093665
C  C41  1  0.49220000  0.98760000  0.03570000  1.0 0.0312525915
C  C42  1  0.44320000  0.93600000  0.06250000  1.0 -0.1519303031
C  C43  1  0.45740000  0.90250000  0.00290000  1.0 -0.0715848314
C  C44  1  0.56700000  0.97050000  0.89220000  1.0 0.0134701592
C  C45  1  0.55290000  0.00450000  0.95180000  1.0 0.0021800068
C  C46  1  0.07090000  0.51880000  0.34040000  1.0 0.5793722017
C  C47  1  0.06990000  0.52710000  0.20260000  1.0 -0.2180065843
C  C48  1  0.11230000  0.53010000  0.24420000  1.0 -0.035231627
C  C49  1  0.09850000  0.47850000  0.02520000  1.0 0.0629093665
C  C50  1  0.03570000  0.49220000  0.98760000  1.0 0.0312525915
C  C51  1  0.06250000  0.44320000  0.93600000  1.0 -0.1519303031
C  C52  1  0.00290000  0.45740000  0.90250000  1.0 -0.0715848314
C  C53  1  0.89220000  0.56700000  0.97050000  1.0 0.0134701592
C  C54  1  0.95180000  0.55290000  0.00450000  1.0 0.0134701592
C  C55  1  0.34040000  0.51880000  0.07090000  1.0 0.5793722017
C  C56  1  0.20260000  0.52710000  0.06990000  1.0 -0.2180065843
C  C57  1  0.24420000  0.53010000  0.11230000  1.0 -0.035231627
C  C58  1  0.02520000  0.47850000  0.09850000  1.0 0.0629093665
C  C59  1  0.98760000  0.49220000  0.03570000  1.0 0.0312525915
C  C60  1  0.93600000  0.44320000  0.06250000  1.0 -0.1519303031
C  C61  1  0.90250000  0.45740000  0.00290000  1.0 -0.0715848314
C  C62  1  0.97050000  0.56700000  0.89220000  1.0 0.0134701592
C  C63  1  0.00450000  0.55290000  0.95180000  1.0 0.0021800068
C  C64  1  0.51880000  0.07090000  0.34040000  1.0 0.5793722017
C  C65  1  0.52710000  0.06990000  0.20260000  1.0 -0.2180065843
C  C66  1  0.53010000  0.11230000  0.24420000  1.0 -0.035231627
C  C67  1  0.47850000  0.09850000  0.02520000  1.0 0.0629093665
C  C68  1  0.49220000  0.03570000  0.98760000  1.0 0.0312525915
C  C69  1  0.44320000  0.06250000  0.93600000  1.0 -0.1519303031
C  C70  1  0.45740000  0.00290000  0.90250000  1.0 -0.0715848314
C  C71  1  0.56700000  0.89220000  0.97050000  1.0 0.0134701592
C  C72  1  0.55290000  0.95180000  0.00450000  1.0 0.0021800068
C  C73  1  0.07090000  0.34040000  0.51880000  1.0 0.5793722017
C  C74  1  0.06990000  0.20260000  0.52710000  1.0 -0.2180065843
C  C75  1  0.11230000  0.24420000  0.53010000  1.0 -0.035231627
C  C76  1  0.09850000  0.02520000  0.47850000  1.0 0.0629093665
C  C77  1  0.03570000  0.98760000  0.49220000  1.0 0.0312525915
C  C78  1  0.06250000  0.93600000  0.44320000  1.0 -0.1519303031
C  C79  1  0.00290000  0.90250000  0.45740000  1.0 -0.0715848314
C  C80  1  0.89220000  0.97050000  0.56700000  1.0 0.0134701592
C  C81  1  0.95180000  0.00450000  0.55290000  1.0 0.0021800068
C  C82  1  0.65960000  0.92910000  0.48120000  1.0 0.5793722017
C  C83  1  0.79740000  0.93010000  0.47290000  1.0 -0.2180065843
C  C84  1  0.75580000  0.88770000  0.46990000  1.0 -0.035231627
C  C85  1  0.97480000  0.90150000  0.52150000  1.0 0.0629093665
C  C86  1  0.01240000  0.96430000  0.50780000  1.0 0.0312525915
C  C87  1  0.06400000  0.93750000  0.55680000  1.0 -0.1519303031
C  C88  1  0.09750000  0.99710000  0.54260000  1.0 -0.0715848314
C  C89  1  0.02950000  0.10780000  0.43300000  1.0 0.0134701592
C  C90  1  0.99550000  0.04820000  0.44710000  1.0 0.0021800068
C  C91  1  0.48120000  0.65960000  0.92910000  1.0 0.5793722017
C  C92  1  0.47290000  0.79740000  0.93010000  1.0 -0.2180065843
C  C93  1  0.46990000  0.75580000  0.88770000  1.0 -0.035231627
C  C94  1  0.52150000  0.97480000  0.90150000  1.0 0.0629093665
C  C95  1  0.50780000  0.01240000  0.96430000  1.0 0.0312525915
C  C96  1  0.55680000  0.06400000  0.93750000  1.0 -0.1519303031
C  C97  1  0.54260000  0.09750000  0.99710000  1.0 -0.0715848314
C  C98  1  0.43300000  0.02950000  0.10780000  1.0 0.0134701592
C  C99  1  0.44710000  0.99550000  0.04820000  1.0 0.0021800068
C  C100  1  0.92910000  0.48120000  0.65960000  1.0 0.5793722017
C  C101  1  0.93010000  0.47290000  0.79740000  1.0 -0.2180065843
C  C102  1  0.88770000  0.46990000  0.75580000  1.0 -0.035231627
C  C103  1  0.90150000  0.52150000  0.97480000  1.0 0.0629093665
C  C104  1  0.96430000  0.50780000  0.01240000  1.0 0.0312525915
C  C105  1  0.93750000  0.55680000  0.06400000  1.0 -0.1519303031
C  C106  1  0.99710000  0.54260000  0.09750000  1.0 -0.0715848314
C  C107  1  0.10780000  0.43300000  0.02950000  1.0 0.0134701592
C  C108  1  0.04820000  0.44710000  0.99550000  1.0 0.0021800068
C  C109  1  0.80145000  0.46850000  0.80145000  1.0 -0.0921877878
C  C110  1  0.88760000  0.46660000  0.88760000  1.0 0.0312525915
C  C111  1  0.08165000  0.48170000  0.08165000  1.0 0.0409516176
C  C112  1  0.46850000  0.80145000  0.80145000  1.0 -0.0921877878
C  C113  1  0.46660000  0.88760000  0.88760000  1.0 0.0312525915
C  C114  1  0.48170000  0.08165000  0.08165000  1.0 0.0409516176
C  C115  1  0.80145000  0.80145000  0.46850000  1.0 -0.0921877878
C  C116  1  0.88760000  0.88760000  0.46660000  1.0 0.0312525915
C  C117  1  0.08165000  0.08165000  0.48170000  1.0 0.0409516176
C  C118  1  0.19855000  0.19855000  0.53150000  1.0 -0.0921877878
C  C119  1  0.11240000  0.11240000  0.53340000  1.0 0.0409516176
C  C120  1  0.91835000  0.91835000  0.51830000  1.0 0.0409516176
C  C121  1  0.53150000  0.19855000  0.19855000  1.0 -0.0921877878
C  C122  1  0.53340000  0.11240000  0.11240000  1.0 0.0409516176
C  C123  1  0.51830000  0.91835000  0.91835000  1.0 0.0409516176
C  C124  1  0.19855000  0.53150000  0.19855000  1.0 -0.0921877878
C  C125  1  0.11240000  0.53340000  0.11240000  1.0 0.0312525915
C  C126  1  0.91835000  0.51830000  0.91835000  1.0 0.0409516176
N  N1  1  0.93110000  0.46990000  0.93110000  1.0 -0.1119040829
N  N2  1  0.46990000  0.93110000  0.93110000  1.0 -0.1119040829
N  N3  1  0.93110000  0.93110000  0.46990000  1.0 -0.1119040829
N  N4  1  0.06890000  0.06890000  0.53010000  1.0 -0.1119040829
N  N5  1  0.53010000  0.06890000  0.06890000  1.0 -0.1119040829
N  N6  1  0.06890000  0.53010000  0.06890000  1.0 -0.1119040829
O  O1  1  0.62623000  0.47963000  0.88583000  1.0 -0.5195880192
O  O2  1  0.62505000  0.48095000  0.00815000  1.0 -0.5323223826
O  O3  1  0.98820000  0.58000000  0.82720000  1.0 -0.2977173708
O  O4  1  0.47963000  0.88583000  0.62623000  1.0 -0.5195880192
O  O5  1  0.48095000  0.00815000  0.62505000  1.0 -0.5323223826
O  O6  1  0.58000000  0.82720000  0.98820000  1.0 -0.2977173708
O  O7  1  0.88583000  0.62623000  0.47963000  1.0 -0.5195880192
O  O8  1  0.00815000  0.62505000  0.48095000  1.0 -0.5323223826
O  O9  1  0.82720000  0.98820000  0.58000000  1.0 -0.2977173708
O  O10  1  0.37377000  0.11417000  0.52037000  1.0 -0.5195880192
O  O11  1  0.37495000  0.99185000  0.51905000  1.0 -0.5323223826
O  O12  1  0.01180000  0.17280000  0.42000000  1.0 -0.2977173708
O  O13  1  0.52037000  0.37377000  0.11417000  1.0 -0.5195880192
O  O14  1  0.51905000  0.37495000  0.99185000  1.0 -0.5323223826
O  O15  1  0.42000000  0.01180000  0.17280000  1.0 -0.2977173708
O  O16  1  0.11417000  0.52037000  0.37377000  1.0 -0.5195880192
O  O17  1  0.99185000  0.51905000  0.37495000  1.0 -0.5323223826
O  O18  1  0.17280000  0.42000000  0.01180000  1.0 -0.2977173708
O  O19  1  0.37377000  0.52037000  0.11417000  1.0 -0.5195880192
O  O20  1  0.37495000  0.51905000  0.99185000  1.0 -0.5323223826
O  O21  1  0.01180000  0.42000000  0.17280000  1.0 -0.2977173708
O  O22  1  0.52037000  0.11417000  0.37377000  1.0 -0.5195880192
O  O23  1  0.51905000  0.99185000  0.37495000  1.0 -0.5323223826
O  O24  1  0.42000000  0.17280000  0.01180000  1.0 -0.2977173708
O  O25  1  0.11417000  0.37377000  0.52037000  1.0 -0.5195880192
O  O26  1  0.99185000  0.37495000  0.51905000  1.0 -0.5323223826
O  O27  1  0.17280000  0.01180000  0.42000000  1.0 -0.2977173708
O  O28  1  0.62623000  0.88583000  0.47963000  1.0 -0.5195880192
O  O29  1  0.62505000  0.00815000  0.48095000  1.0 -0.5323223826
O  O30  1  0.98820000  0.82720000  0.58000000  1.0 -0.2977173708
O  O31  1  0.47963000  0.62623000  0.88583000  1.0 -0.5195880192
O  O32  1  0.48095000  0.62505000  0.00815000  1.0 -0.5323223826
O  O33  1  0.58000000  0.98820000  0.82720000  1.0 -0.2977173708
O  O34  1  0.88583000  0.47963000  0.62623000  1.0 -0.5195880192
O  O35  1  0.00815000  0.48095000  0.62505000  1.0 -0.5323223826
O  O36  1  0.82720000  0.58000000  0.98820000  1.0 -0.2977173708
