# DDEC6 charges by PACMAN v1.1 (https://github.com/mtap-research/PACMAN-charge/)
data_TOTNAU01_FSR_pacman
_symmetry_space_group_name_H-M   'P 1'
_cell_length_a   15.15000000
_cell_length_b   15.21200000
_cell_length_c   26.73200000
_cell_angle_alpha   94.25000000
_cell_angle_beta   96.06000000
_cell_angle_gamma   93.76000000
_symmetry_Int_Tables_number   1
_chemical_formula_structural   Zn3H69C102N9O17
_chemical_formula_sum   'Zn6 H138 C204 N18 O34'
_cell_volume   6092.67373908
_cell_formula_units_Z   2
loop_
 _symmetry_equiv_pos_site_id
 _symmetry_equiv_pos_as_xyz
  1  'x, y, z'
loop_
 _atom_site_type_symbol
 _atom_site_label
 _atom_site_symmetry_multiplicity
 _atom_site_fract_x
 _atom_site_fract_y
 _atom_site_fract_z
 _atom_site_occupancy
 _atom_site_charge
Zn  Zn1  1  0.13126000  0.14016000  0.22649000  1.0 0.7763140595
Zn  Zn2  1  0.15399000  0.15851000  0.33687000  1.0 0.8508533037
Zn  Zn3  1  0.51025000  0.00938000  0.55631000  1.0 0.8508533037
Zn  Zn4  1  0.86874000  0.85984000  0.77351000  1.0 0.7763140595
Zn  Zn5  1  0.84601000  0.84149000  0.66313000  1.0 0.8508533037
Zn  Zn6  1  0.48975000  0.99062000  0.44369000  1.0 0.8508533037
H  H1  1  0.08000000  0.22880000  0.13030000  1.0 0.1195901606
H  H2  1  0.18400000  0.99590000  0.15720000  1.0 0.0904449551
H  H3  1  0.11020000  0.21030000  0.04620000  1.0 0.0706113987
H  H4  1  0.21420000  0.97740000  0.07320000  1.0 0.129180949
H  H5  1  0.10810000  0.43700000  0.34820000  1.0 0.129180949
H  H6  1  0.13940000  0.42130000  0.19910000  1.0 0.129180949
H  H7  1  0.11800000  0.86360000  0.20810000  1.0 0.1195901606
H  H8  1  0.20200000  0.87210000  0.35760000  1.0 0.1195901606
H  H9  1  0.43630000  0.16950000  0.35710000  1.0 0.1195901606
H  H10  1  0.41830000  0.17780000  0.20520000  1.0 0.1195901606
H  H11  1  0.87470000  0.13690000  0.36210000  1.0 0.1195901606
H  H12  1  0.84610000  0.10290000  0.20930000  1.0 0.129180949
H  H13  1  0.11970000  0.59140000  0.35020000  1.0 0.109457246
H  H14  1  0.15100000  0.57570000  0.20110000  1.0 0.109457246
H  H15  1  0.10640000  0.70900000  0.20380000  1.0 0.1195901606
H  H16  1  0.19040000  0.71750000  0.35330000  1.0 0.1195901606
H  H17  1  0.58900000  0.15250000  0.35920000  1.0 0.1195901606
H  H18  1  0.57100000  0.16090000  0.20730000  1.0 0.109457246
H  H19  1  0.72200000  0.15280000  0.36100000  1.0 0.1195901606
H  H20  1  0.69330000  0.11880000  0.20820000  1.0 0.109457246
H  H21  1  0.10850000  0.15680000  0.97540000  1.0 0.129180949
H  H22  1  0.31130000  0.16730000  0.41710000  1.0 0.1195901606
H  H23  1  0.05120000  0.20850000  0.42430000  1.0 0.1195901606
H  H24  1  0.33560000  0.17870000  0.50530000  1.0 0.129180949
H  H25  1  0.07550000  0.21990000  0.51250000  1.0 0.1195901606
H  H26  1  0.02800000  0.16240000  0.89830000  1.0 0.1195901606
H  H27  1  0.27780000  0.08000000  0.90820000  1.0 0.0706113987
H  H28  1  0.03200000  0.17670000  0.81200000  1.0 0.0996908687
H  H29  1  0.28180000  0.09430000  0.82190000  1.0 0.0596157046
H  H30  1  0.10700000  0.19060000  0.58390000  1.0 0.2596554926
H  H31  1  0.29330000  0.19280000  0.75980000  1.0 0.0996908687
H  H32  1  0.03170000  0.10890000  0.73590000  1.0 0.1195901606
H  H33  1  0.29270000  0.21460000  0.67400000  1.0 0.129180949
H  H34  1  0.03100000  0.13070000  0.65020000  1.0 0.1195901606
H  H35  1  0.38670000  0.99450000  0.19270000  1.0 0.2596554926
H  H36  1  0.32600000  0.07970000  0.03640000  1.0 0.2100547499
H  H37  1  0.32690000  0.05820000  0.12220000  1.0 0.1195901606
H  H38  1  0.53410000  0.90420000  0.11390000  1.0 0.0904449551
H  H39  1  0.53320000  0.92570000  0.02810000  1.0 0.0792628746
H  H40  1  0.21520000  0.26390000  0.83330000  1.0 0.0996908687
H  H41  1  0.20430000  0.25570000  0.91950000  1.0 0.0996908687
H  H42  1  0.06120000  0.01970000  0.88930000  1.0 0.0996908687
H  H43  1  0.07200000  0.02780000  0.80310000  1.0 0.0996908687
H  H44  1  0.03210000  0.00960000  0.14700000  1.0 0.0792628746
H  H45  1  0.01490000  0.98750000  0.05880000  1.0 0.1912037975
H  H46  1  0.18040000  0.20550000  0.05150000  1.0 0.0706113987
H  H47  1  0.19770000  0.22750000  0.13960000  1.0 0.1195901606
H  H48  1  0.14310000  0.18810000  0.98310000  1.0 0.1593787468
H  H49  1  0.27350000  0.21820000  0.76350000  1.0 0.0996908687
H  H50  1  0.28380000  0.23870000  0.67830000  1.0 0.129180949
H  H51  1  0.04090000  0.10860000  0.64100000  1.0 0.1195901606
H  H52  1  0.03070000  0.08810000  0.72610000  1.0 0.1195901606
H  H53  1  0.30150000  0.04330000  0.95100000  1.0 0.1536738521
H  H54  1  0.31210000  0.06440000  0.86600000  1.0 0.0792628746
H  H55  1  0.55700000  0.97650000  0.96680000  1.0 0.109457246
H  H56  1  0.56750000  0.99760000  0.88180000  1.0 0.0996908687
H  H57  1  0.64850000  0.02570000  0.64820000  1.0 0.1195901606
H  H58  1  0.38550000  0.06520000  0.63100000  1.0 0.1195901606
H  H59  1  0.38600000  0.08230000  0.71880000  1.0 0.1195901606
H  H60  1  0.64910000  0.04280000  0.73600000  1.0 0.1195901606
H  H61  1  0.39700000  0.04140000  0.79390000  1.0 0.2524245775
H  H62  1  0.07710000  0.98050000  0.57460000  1.0 0.109457246
H  H63  1  0.23000000  0.96790000  0.57350000  1.0 0.1195901606
H  H64  1  0.20280000  0.98610000  0.42220000  1.0 0.1195901606
H  H65  1  0.04990000  0.99870000  0.42340000  1.0 0.109457246
H  H66  1  0.48250000  0.28060000  0.56570000  1.0 0.129180949
H  H67  1  0.51600000  0.28120000  0.41730000  1.0 0.1195901606
H  H68  1  0.51840000  0.43560000  0.42350000  1.0 0.109457246
H  H69  1  0.48480000  0.43500000  0.57190000  1.0 0.109457246
H  H70  1  0.92000000  0.77120000  0.86970000  1.0 0.1195901606
H  H71  1  0.81600000  0.00410000  0.84280000  1.0 0.0904449551
H  H72  1  0.88980000  0.78970000  0.95380000  1.0 0.0706113987
H  H73  1  0.78580000  0.02260000  0.92680000  1.0 0.129180949
H  H74  1  0.89190000  0.56300000  0.65180000  1.0 0.1195901606
H  H75  1  0.86060000  0.57870000  0.80090000  1.0 0.129180949
H  H76  1  0.88200000  0.13640000  0.79190000  1.0 0.1195901606
H  H77  1  0.79800000  0.12790000  0.64240000  1.0 0.1195901606
H  H78  1  0.56370000  0.83050000  0.64290000  1.0 0.1195901606
H  H79  1  0.58170000  0.82220000  0.79480000  1.0 0.1195901606
H  H80  1  0.12530000  0.86310000  0.63790000  1.0 0.1195901606
H  H81  1  0.15390000  0.89710000  0.79070000  1.0 0.129180949
H  H82  1  0.88030000  0.40860000  0.64980000  1.0 0.109457246
H  H83  1  0.84900000  0.42430000  0.79890000  1.0 0.109457246
H  H84  1  0.89360000  0.29100000  0.79620000  1.0 0.1195901606
H  H85  1  0.80960000  0.28250000  0.64670000  1.0 0.1195901606
H  H86  1  0.41100000  0.84750000  0.64080000  1.0 0.1195901606
H  H87  1  0.42900000  0.83910000  0.79270000  1.0 0.109457246
H  H88  1  0.27800000  0.84720000  0.63900000  1.0 0.1195901606
H  H89  1  0.30670000  0.88120000  0.79180000  1.0 0.109457246
H  H90  1  0.89150000  0.84320000  0.02460000  1.0 0.129180949
H  H91  1  0.68870000  0.83270000  0.58290000  1.0 0.1195901606
H  H92  1  0.94880000  0.79150000  0.57570000  1.0 0.1195901606
H  H93  1  0.66440000  0.82130000  0.49470000  1.0 0.129180949
H  H94  1  0.92450000  0.78010000  0.48750000  1.0 0.1195901606
H  H95  1  0.97200000  0.83760000  0.10170000  1.0 0.1195901606
H  H96  1  0.72220000  0.92000000  0.09180000  1.0 0.0596157046
H  H97  1  0.96800000  0.82330000  0.18800000  1.0 0.0996908687
H  H98  1  0.71820000  0.90570000  0.17810000  1.0 0.0596157046
H  H99  1  0.89300000  0.80940000  0.41610000  1.0 0.2596554926
H  H100  1  0.70670000  0.80720000  0.24020000  1.0 0.0996908687
H  H101  1  0.96830000  0.89110000  0.26410000  1.0 0.1195901606
H  H102  1  0.70730000  0.78540000  0.32600000  1.0 0.129180949
H  H103  1  0.96900000  0.86930000  0.34980000  1.0 0.1195901606
H  H104  1  0.61330000  0.00550000  0.80730000  1.0 0.2596554926
H  H105  1  0.67400000  0.92030000  0.96360000  1.0 0.2100547499
H  H106  1  0.67310000  0.94180000  0.87780000  1.0 0.1195901606
H  H107  1  0.46590000  0.09580000  0.88610000  1.0 0.0904449551
H  H108  1  0.46680000  0.07430000  0.97190000  1.0 0.0792628746
H  H109  1  0.78480000  0.73610000  0.16670000  1.0 0.0996908687
H  H110  1  0.79570000  0.74430000  0.08050000  1.0 0.0996908687
H  H111  1  0.93880000  0.98030000  0.11070000  1.0 0.0996908687
H  H112  1  0.92800000  0.97220000  0.19690000  1.0 0.0996908687
H  H113  1  0.96790000  0.99040000  0.85300000  1.0 0.0706113987
H  H114  1  0.98510000  0.01250000  0.94120000  1.0 0.1912037975
H  H115  1  0.81960000  0.79450000  0.94850000  1.0 0.0706113987
H  H116  1  0.80230000  0.77250000  0.86040000  1.0 0.1195901606
H  H117  1  0.85690000  0.81190000  0.01690000  1.0 0.1593787468
H  H118  1  0.72650000  0.78180000  0.23650000  1.0 0.0996908687
H  H119  1  0.71620000  0.76130000  0.32170000  1.0 0.129180949
H  H120  1  0.95910000  0.89140000  0.35900000  1.0 0.1195901606
H  H121  1  0.96930000  0.91190000  0.27390000  1.0 0.1195901606
H  H122  1  0.69850000  0.95670000  0.04900000  1.0 0.1536738521
H  H123  1  0.68790000  0.93560000  0.13400000  1.0 0.0792628746
H  H124  1  0.44300000  0.02350000  0.03320000  1.0 0.0996908687
H  H125  1  0.43250000  0.00240000  0.11820000  1.0 0.0996908687
H  H126  1  0.35150000  0.97430000  0.35180000  1.0 0.1195901606
H  H127  1  0.61450000  0.93480000  0.36900000  1.0 0.1195901606
H  H128  1  0.61400000  0.91770000  0.28120000  1.0 0.1195901606
H  H129  1  0.35090000  0.95720000  0.26400000  1.0 0.1195901606
H  H130  1  0.60300000  0.95860000  0.20610000  1.0 0.2524245775
H  H131  1  0.92290000  0.01950000  0.42540000  1.0 0.109457246
H  H132  1  0.77000000  0.03210000  0.42650000  1.0 0.1195901606
H  H133  1  0.79720000  0.01390000  0.57780000  1.0 0.1195901606
H  H134  1  0.95010000  0.00130000  0.57660000  1.0 0.109457246
H  H135  1  0.51750000  0.71940000  0.43430000  1.0 0.129180949
H  H136  1  0.48400000  0.71880000  0.58270000  1.0 0.1195901606
H  H137  1  0.48160000  0.56440000  0.57650000  1.0 0.109457246
H  H138  1  0.51520000  0.56500000  0.42810000  1.0 0.109457246
C  C1  1  0.10720000  0.17780000  0.11869000  1.0 0.0996908687
C  C2  1  0.16900000  0.03940000  0.13468000  1.0 0.0904449551
C  C3  1  0.12222000  0.31523000  0.27345000  1.0 0.5808435973
C  C4  1  0.16263000  0.98233000  0.28580000  1.0 0.5603931344
C  C5  1  0.31281000  0.17516000  0.27894000  1.0 0.5808435973
C  C6  1  0.97496000  0.12091000  0.28595000  1.0 0.5706105328
C  C7  1  0.12520000  0.16680000  0.06877000  1.0 -0.1420116168
C  C8  1  0.18700000  0.02840000  0.08476000  1.0 -0.2761998975
C  C9  1  0.12270000  0.41465000  0.27344000  1.0 -0.0297460726
C  C10  1  0.16109000  0.88236000  0.28324000  1.0 -0.0478537583
C  C11  1  0.41296000  0.17523000  0.28091000  1.0 -0.0297460726
C  C12  1  0.87475000  0.11842000  0.28582000  1.0 -0.021919416
C  C13  1  0.16500000  0.09210000  0.05180000  1.0 0.0302823486
C  C14  1  0.11683000  0.46518000  0.31831000  1.0 -0.0945352593
C  C15  1  0.13543000  0.45584000  0.22978000  1.0 -0.1001350864
C  C16  1  0.13270000  0.83393000  0.23758000  1.0 -0.1191605845
C  C17  1  0.18258000  0.83896000  0.32636000  1.0 -0.11048701
C  C18  1  0.46366000  0.16772000  0.32665000  1.0 -0.0945352593
C  C19  1  0.45298000  0.17269000  0.23642000  1.0 -0.1305575425
C  C20  1  0.83789000  0.13324000  0.33088000  1.0 -0.1001350864
C  C21  1  0.82087000  0.11300000  0.24011000  1.0 -0.1001350864
C  C22  1  0.19370000  0.07810000  0.99931000  1.0 0.1843900329
C  C23  1  0.12368000  0.55690000  0.31952000  1.0 -0.1605338152
C  C24  1  0.14228000  0.54756000  0.23099000  1.0 -0.1502054834
C  C25  1  0.12581000  0.74210000  0.23503000  1.0 -0.1605338152
C  C26  1  0.17568000  0.74713000  0.32381000  1.0 -0.1605338152
C  C27  1  0.55438000  0.15768000  0.32790000  1.0 -0.1420116168
C  C28  1  0.54370000  0.16264000  0.23767000  1.0 -0.1826804613
C  C29  1  0.74715000  0.14269000  0.33024000  1.0 -0.1502054834
C  C30  1  0.73012000  0.12250000  0.23947000  1.0 -0.1605338152
C  C31  1  0.26342000  0.17796000  0.43646000  1.0 0.0792628746
C  C32  1  0.10891000  0.20246000  0.44074000  1.0 0.0706113987
C  C33  1  0.13640000  0.59809000  0.27586000  1.0 0.0792628746
C  C34  1  0.14729000  0.69870000  0.27814000  1.0 0.0904449551
C  C35  1  0.59440000  0.15513000  0.28341000  1.0 0.0792628746
C  C36  1  0.69327000  0.13732000  0.28453000  1.0 0.0792628746
C  C37  1  0.15250000  0.11990000  0.91136000  1.0 0.1421799085
C  C38  1  0.27789000  0.18473000  0.48887000  1.0 -0.1420116168
C  C39  1  0.12337000  0.20923000  0.49315000  1.0 -0.1826804613
C  C40  1  0.07950000  0.14860000  0.88280000  1.0 -0.0412271449
C  C41  1  0.22790000  0.09970000  0.88866000  1.0 -0.1605338152
C  C42  1  0.20786000  0.20036000  0.51721000  1.0 0.0302823486
C  C43  1  0.08190000  0.15710000  0.83152000  1.0 -0.0297460726
C  C44  1  0.23030000  0.10810000  0.83740000  1.0 -0.1191605845
C  C45  1  0.23060000  0.19937000  0.57379000  1.0 0.4383773899
C  C46  1  0.15730000  0.13690000  0.80882000  1.0 0.0302823486
C  C47  1  0.16260000  0.14880000  0.75590000  1.0 0.0596157046
C  C48  1  0.16180000  0.17470000  0.65401000  1.0 0.129180949
C  C49  1  0.24010000  0.18020000  0.73750000  1.0 -0.1001350864
C  C50  1  0.08470000  0.13030000  0.72330000  1.0 -0.1305575425
C  C51  1  0.23970000  0.19320000  0.68660000  1.0 -0.1687084937
C  C52  1  0.08430000  0.14330000  0.67240000  1.0 -0.1502054834
C  C53  1  0.42950000  0.00470000  0.02420000  1.0 0.0404958206
C  C54  1  0.36820000  0.04410000  0.05210000  1.0 -0.2267351353
C  C55  1  0.36880000  0.03130000  0.10310000  1.0 -0.210320493
C  C56  1  0.43060000  0.97920000  0.12610000  1.0 0.0706113987
C  C57  1  0.49190000  0.93990000  0.09820000  1.0 -0.0599440545
C  C58  1  0.49130000  0.95260000  0.04720000  1.0 -0.0478537583
C  C59  1  0.14460000  0.14660000  0.81007000  1.0 0.0404958206
C  C60  1  0.18390000  0.21430000  0.84466000  1.0 -0.0599440545
C  C61  1  0.17750000  0.20950000  0.89588000  1.0 -0.1420116168
C  C62  1  0.13180000  0.13700000  0.91252000  1.0 0.129180949
C  C63  1  0.09250000  0.06930000  0.87793000  1.0 -0.1305575425
C  C64  1  0.09890000  0.07410000  0.82671000  1.0 -0.0703891569
C  C65  1  0.06230000  0.04940000  0.12760000  1.0 0.0996908687
C  C66  1  0.05200000  0.03630000  0.07520000  1.0 -0.2175743187
C  C67  1  0.09610000  0.09440000  0.04687000  1.0 0.0173635243
C  C68  1  0.15030000  0.16570000  0.07090000  1.0 -0.1420116168
C  C69  1  0.16060000  0.17880000  0.12320000  1.0 0.0706113987
C  C70  1  0.10160000  0.06870000  0.99144000  1.0 0.2524245775
C  C71  1  0.22630000  0.19600000  0.73860000  1.0 -0.11048701
C  C72  1  0.23240000  0.20810000  0.68800000  1.0 -0.1605338152
C  C73  1  0.16330000  0.17560000  0.65164000  1.0 0.1593787468
C  C74  1  0.08810000  0.13090000  0.66580000  1.0 -0.1605338152
C  C75  1  0.08200000  0.11870000  0.71640000  1.0 -0.1191605845
C  C76  1  0.15110000  0.15130000  0.75279000  1.0 0.0596157046
C  C77  1  0.44080000  0.03300000  0.86590000  1.0 -0.0297460726
C  C78  1  0.36180000  0.04660000  0.88650000  1.0 -0.2175743187
C  C79  1  0.35550000  0.03400000  0.93700000  1.0 -0.2175743187
C  C80  1  0.42830000  0.00790000  0.96690000  1.0 -0.0078646159
C  C81  1  0.50730000  0.99430000  0.94640000  1.0 -0.0412271449
C  C82  1  0.51350000  0.00690000  0.89580000  1.0 -0.0412271449
C  C83  1  0.59525000  0.03718000  0.66256000  1.0 0.0904449551
C  C84  1  0.43898000  0.06066000  0.65232000  1.0 0.0792628746
C  C85  1  0.43932000  0.07082000  0.70445000  1.0 -0.210320493
C  C86  1  0.51763000  0.06416000  0.73563000  1.0 -0.0599440545
C  C87  1  0.59559000  0.04733000  0.71468000  1.0 -0.1826804613
C  C88  1  0.51620000  0.07150000  0.79210000  1.0 0.3567353732
C  C89  1  0.49556000  0.16661000  0.48778000  1.0 0.5706105328
C  C90  1  0.33090000  0.98202000  0.49783000  1.0 0.5808435973
C  C91  1  0.10261000  0.98162000  0.54371000  1.0 -0.1826804613
C  C92  1  0.19343000  0.97413000  0.54302000  1.0 -0.11048701
C  C93  1  0.23075000  0.97581000  0.49775000  1.0 -0.0297460726
C  C94  1  0.17725000  0.98496000  0.45316000  1.0 -0.1001350864
C  C95  1  0.08643000  0.99245000  0.45386000  1.0 -0.1687084937
C  C96  1  0.04911000  0.99078000  0.49913000  1.0 0.0706113987
C  C97  1  0.48980000  0.31207000  0.53684000  1.0 -0.1001350864
C  C98  1  0.49904000  0.26639000  0.49092000  1.0 -0.0297460726
C  C99  1  0.50971000  0.31244000  0.44869000  1.0 -0.11048701
C  C100  1  0.51109000  0.40416000  0.45238000  1.0 -0.1502054834
C  C101  1  0.50181000  0.44983000  0.49830000  1.0 0.0792628746
C  C102  1  0.49110000  0.40379000  0.54053000  1.0 -0.1605338152
C  C103  1  0.89280000  0.82220000  0.88131000  1.0 0.0996908687
C  C104  1  0.83100000  0.96060000  0.86532000  1.0 0.0904449551
C  C105  1  0.87778000  0.68477000  0.72655000  1.0 0.5808435973
C  C106  1  0.83737000  0.01767000  0.71420000  1.0 0.5603931344
C  C107  1  0.68719000  0.82484000  0.72106000  1.0 0.5808435973
C  C108  1  0.02504000  0.87909000  0.71405000  1.0 0.5706105328
C  C109  1  0.87480000  0.83320000  0.93123000  1.0 -0.1420116168
C  C110  1  0.81300000  0.97160000  0.91524000  1.0 -0.2761998975
C  C111  1  0.87730000  0.58535000  0.72656000  1.0 -0.0297460726
C  C112  1  0.83891000  0.11764000  0.71676000  1.0 -0.0478537583
C  C113  1  0.58704000  0.82477000  0.71909000  1.0 -0.0297460726
C  C114  1  0.12525000  0.88158000  0.71418000  1.0 -0.021919416
C  C115  1  0.83500000  0.90790000  0.94820000  1.0 0.0302823486
C  C116  1  0.88317000  0.53482000  0.68169000  1.0 -0.0945352593
C  C117  1  0.86457000  0.54416000  0.77022000  1.0 -0.1001350864
C  C118  1  0.86730000  0.16607000  0.76242000  1.0 -0.1191605845
C  C119  1  0.81742000  0.16104000  0.67364000  1.0 -0.11048701
C  C120  1  0.53634000  0.83228000  0.67335000  1.0 -0.0945352593
C  C121  1  0.54702000  0.82731000  0.76358000  1.0 -0.1305575425
C  C122  1  0.16211000  0.86676000  0.66912000  1.0 -0.1001350864
C  C123  1  0.17913000  0.88700000  0.75989000  1.0 -0.1001350864
C  C124  1  0.80630000  0.92190000  0.00069000  1.0 0.1843900329
C  C125  1  0.87632000  0.44310000  0.68048000  1.0 -0.1605338152
C  C126  1  0.85772000  0.45244000  0.76901000  1.0 -0.1502054834
C  C127  1  0.87419000  0.25790000  0.76497000  1.0 -0.1605338152
C  C128  1  0.82432000  0.25287000  0.67619000  1.0 -0.1605338152
C  C129  1  0.44562000  0.84232000  0.67210000  1.0 -0.1420116168
C  C130  1  0.45630000  0.83736000  0.76233000  1.0 -0.1826804613
C  C131  1  0.25285000  0.85731000  0.66976000  1.0 -0.1502054834
C  C132  1  0.26988000  0.87750000  0.76053000  1.0 -0.1605338152
C  C133  1  0.73658000  0.82204000  0.56354000  1.0 0.0792628746
C  C134  1  0.89109000  0.79754000  0.55926000  1.0 0.0792628746
C  C135  1  0.86360000  0.40191000  0.72414000  1.0 0.0792628746
C  C136  1  0.85271000  0.30130000  0.72186000  1.0 0.0904449551
C  C137  1  0.40560000  0.84487000  0.71659000  1.0 0.0792628746
C  C138  1  0.30673000  0.86268000  0.71547000  1.0 0.0792628746
C  C139  1  0.84750000  0.88010000  0.08864000  1.0 0.1421799085
C  C140  1  0.72211000  0.81527000  0.51113000  1.0 -0.1420116168
C  C141  1  0.87663000  0.79077000  0.50685000  1.0 -0.1826804613
C  C142  1  0.92050000  0.85140000  0.11720000  1.0 -0.0412271449
C  C143  1  0.77210000  0.90030000  0.11134000  1.0 -0.1605338152
C  C144  1  0.79214000  0.79964000  0.48279000  1.0 0.0302823486
C  C145  1  0.91810000  0.84290000  0.16848000  1.0 -0.0297460726
C  C146  1  0.76970000  0.89190000  0.16260000  1.0 -0.11048701
C  C147  1  0.76940000  0.80063000  0.42621000  1.0 0.4383773899
C  C148  1  0.84270000  0.86310000  0.19118000  1.0 0.0302823486
C  C149  1  0.83740000  0.85120000  0.24410000  1.0 0.0596157046
C  C150  1  0.83820000  0.82530000  0.34599000  1.0 0.129180949
C  C151  1  0.75990000  0.81980000  0.26250000  1.0 -0.1001350864
C  C152  1  0.91530000  0.86970000  0.27670000  1.0 -0.1305575425
C  C153  1  0.76030000  0.80680000  0.31340000  1.0 -0.1687084937
C  C154  1  0.91570000  0.85670000  0.32760000  1.0 -0.1502054834
C  C155  1  0.57050000  0.99530000  0.97580000  1.0 0.0404958206
C  C156  1  0.63180000  0.95590000  0.94790000  1.0 -0.2267351353
C  C157  1  0.63120000  0.96870000  0.89690000  1.0 -0.210320493
C  C158  1  0.56940000  0.02080000  0.87390000  1.0 0.0706113987
C  C159  1  0.50810000  0.06010000  0.90180000  1.0 -0.0599440545
C  C160  1  0.50870000  0.04740000  0.95280000  1.0 -0.0478537583
C  C161  1  0.85540000  0.85340000  0.18993000  1.0 0.0404958206
C  C162  1  0.81610000  0.78570000  0.15534000  1.0 -0.0599440545
C  C163  1  0.82250000  0.79050000  0.10412000  1.0 -0.1420116168
C  C164  1  0.86820000  0.86300000  0.08748000  1.0 0.129180949
C  C165  1  0.90750000  0.93070000  0.12207000  1.0 -0.1305575425
C  C166  1  0.90110000  0.92590000  0.17329000  1.0 -0.0703891569
C  C167  1  0.93770000  0.95060000  0.87240000  1.0 0.0996908687
C  C168  1  0.94800000  0.96370000  0.92480000  1.0 -0.2175743187
C  C169  1  0.90390000  0.90560000  0.95313000  1.0 0.0173635243
C  C170  1  0.84970000  0.83430000  0.92910000  1.0 -0.1420116168
C  C171  1  0.83940000  0.82120000  0.87680000  1.0 0.0706113987
C  C172  1  0.89840000  0.93130000  0.00856000  1.0 0.2524245775
C  C173  1  0.77370000  0.80400000  0.26140000  1.0 -0.11048701
C  C174  1  0.76760000  0.79190000  0.31200000  1.0 -0.1605338152
C  C175  1  0.83670000  0.82440000  0.34836000  1.0 0.1593787468
C  C176  1  0.91190000  0.86910000  0.33420000  1.0 -0.1605338152
C  C177  1  0.91800000  0.88130000  0.28360000  1.0 -0.1191605845
C  C178  1  0.84890000  0.84870000  0.24721000  1.0 0.0596157046
C  C179  1  0.55920000  0.96700000  0.13410000  1.0 -0.0297460726
C  C180  1  0.63820000  0.95340000  0.11350000  1.0 -0.2175743187
C  C181  1  0.64450000  0.96600000  0.06300000  1.0 -0.210320493
C  C182  1  0.57170000  0.99210000  0.03310000  1.0 -0.0078646159
C  C183  1  0.49270000  0.00570000  0.05360000  1.0 -0.0412271449
C  C184  1  0.48650000  0.99310000  0.10420000  1.0 -0.0412271449
C  C185  1  0.40475000  0.96282000  0.33744000  1.0 0.0904449551
C  C186  1  0.56102000  0.93934000  0.34768000  1.0 0.0792628746
C  C187  1  0.56068000  0.92918000  0.29555000  1.0 -0.210320493
C  C188  1  0.48237000  0.93584000  0.26437000  1.0 -0.0599440545
C  C189  1  0.40441000  0.95267000  0.28532000  1.0 -0.1826804613
C  C190  1  0.48380000  0.92850000  0.20790000  1.0 0.3567353732
C  C191  1  0.50444000  0.83339000  0.51222000  1.0 0.5706105328
C  C192  1  0.66910000  0.01798000  0.50217000  1.0 0.5808435973
C  C193  1  0.89739000  0.01838000  0.45629000  1.0 -0.1826804613
C  C194  1  0.80657000  0.02587000  0.45698000  1.0 -0.11048701
C  C195  1  0.76925000  0.02419000  0.50225000  1.0 -0.0297460726
C  C196  1  0.82275000  0.01504000  0.54684000  1.0 -0.1001350864
C  C197  1  0.91357000  0.00755000  0.54614000  1.0 -0.1687084937
C  C198  1  0.95089000  0.00922000  0.50087000  1.0 0.0706113987
C  C199  1  0.51020000  0.68793000  0.46316000  1.0 -0.1001350864
C  C200  1  0.50096000  0.73361000  0.50908000  1.0 -0.0297460726
C  C201  1  0.49029000  0.68756000  0.55131000  1.0 -0.11048701
C  C202  1  0.48891000  0.59584000  0.54762000  1.0 -0.1502054834
C  C203  1  0.49819000  0.55017000  0.50170000  1.0 0.0792628746
C  C204  1  0.50890000  0.59621000  0.45947000  1.0 -0.1605338152
N  N1  1  0.12910000  0.11410000  0.15164000  1.0 -0.1420116168
N  N2  1  0.17893000  0.18682000  0.41240000  1.0 -0.2416360283
N  N3  1  0.14730000  0.12200000  0.96400000  1.0 -0.1502054834
N  N4  1  0.15992000  0.18876000  0.60067000  1.0 -0.2519379647
N  N5  1  0.42950000  0.96960000  0.17840000  1.0 -0.1605338152
N  N6  1  0.11650000  0.12070000  0.15160000  1.0 -0.1001350864
N  N7  1  0.12740000  0.13750000  0.96530000  1.0 -0.210320493
N  N8  1  0.51695000  0.04384000  0.63137000  1.0 -0.2519379647
N  N9  1  0.44740000  0.04870000  0.81370000  1.0 -0.1687084937
N  N10  1  0.87090000  0.88590000  0.84836000  1.0 -0.1420116168
N  N11  1  0.82107000  0.81318000  0.58760000  1.0 -0.2416360283
N  N12  1  0.85270000  0.87800000  0.03600000  1.0 -0.1502054834
N  N13  1  0.84008000  0.81124000  0.39933000  1.0 -0.2519379647
N  N14  1  0.57050000  0.03040000  0.82160000  1.0 -0.1502054834
N  N15  1  0.88350000  0.87930000  0.84840000  1.0 -0.1001350864
N  N16  1  0.87260000  0.86250000  0.03470000  1.0 -0.210320493
N  N17  1  0.48305000  0.95616000  0.36863000  1.0 -0.2519379647
N  N18  1  0.55260000  0.95130000  0.18630000  1.0 -0.1687084937
O  O1  1  0.12195000  0.27208000  0.23138000  1.0 -0.5462513292
O  O2  1  0.15274000  0.01648000  0.24465000  1.0 -0.5410067403
O  O3  1  0.26799000  0.16801000  0.23661000  1.0 -0.5462513292
O  O4  1  0.00491000  0.12051000  0.24366000  1.0 -0.5410067403
O  O5  1  0.12255000  0.28189000  0.31538000  1.0 -0.5563726628
O  O6  1  0.17393000  0.02477000  0.32848000  1.0 -0.5295244062
O  O7  1  0.28061000  0.18147000  0.32059000  1.0 -0.5462513292
O  O8  1  0.02184000  0.12446000  0.32810000  1.0 -0.5462513292
O  O9  1  0.26110000  0.04110000  0.99270000  1.0 -0.393578788
O  O10  1  0.30797000  0.20595000  0.59235000  1.0 -0.4284978116
O  O11  1  0.54710000  0.88610000  0.19270000  1.0 -0.1502054834
O  O12  1  0.06880000  0.99720000  0.97200000  1.0 -0.413528105
O  O13  1  0.58940000  0.09060000  0.81740000  1.0 -0.11048701
O  O14  1  0.50148000  0.13112000  0.52872000  1.0 -0.5462513292
O  O15  1  0.48637000  0.12576000  0.44446000  1.0 -0.5410067403
O  O16  1  0.35991000  0.98239000  0.45520000  1.0 -0.5410067403
O  O17  1  0.37662000  0.98673000  0.53989000  1.0 -0.5410067403
O  O18  1  0.87805000  0.72792000  0.76862000  1.0 -0.5462513292
O  O19  1  0.84726000  0.98352000  0.75535000  1.0 -0.5410067403
O  O20  1  0.73201000  0.83199000  0.76339000  1.0 -0.5462513292
O  O21  1  0.99509000  0.87949000  0.75634000  1.0 -0.5410067403
O  O22  1  0.87745000  0.71811000  0.68462000  1.0 -0.5563726628
O  O23  1  0.82607000  0.97523000  0.67152000  1.0 -0.5295244062
O  O24  1  0.71939000  0.81853000  0.67941000  1.0 -0.5462513292
O  O25  1  0.97816000  0.87554000  0.67190000  1.0 -0.5462513292
O  O26  1  0.73890000  0.95890000  0.00730000  1.0 -0.393578788
O  O27  1  0.69203000  0.79405000  0.40765000  1.0 -0.4284978116
O  O28  1  0.45290000  0.11390000  0.80730000  1.0 -0.1605338152
O  O29  1  0.93120000  0.00280000  0.02800000  1.0 -0.413528105
O  O30  1  0.41060000  0.90940000  0.18260000  1.0 -0.11048701
O  O31  1  0.49852000  0.86888000  0.47128000  1.0 -0.5462513292
O  O32  1  0.51363000  0.87424000  0.55554000  1.0 -0.5410067403
O  O33  1  0.64009000  0.01761000  0.54480000  1.0 -0.5410067403
O  O34  1  0.62338000  0.01327000  0.46011000  1.0 -0.5410067403
