# DDEC6 charges by PACMAN v1.1 (https://github.com/mtap-research/PACMAN-charge/)
data_TOTVEF_FSR_pacman
_symmetry_space_group_name_H-M   'P 1'
_cell_length_a   17.52130000
_cell_length_b   17.52130000
_cell_length_c   17.52130000
_cell_angle_alpha   118.36700000
_cell_angle_beta   118.36700000
_cell_angle_gamma   118.36700000
_symmetry_Int_Tables_number   1
_chemical_formula_structural   Zn2H6C7(N4O)2
_chemical_formula_sum   'Zn12 H36 C42 N48 O12'
_cell_volume   1770.05878263
_cell_formula_units_Z   6
loop_
 _symmetry_equiv_pos_site_id
 _symmetry_equiv_pos_as_xyz
  1  'x, y, z'
loop_
 _atom_site_type_symbol
 _atom_site_label
 _atom_site_symmetry_multiplicity
 _atom_site_fract_x
 _atom_site_fract_y
 _atom_site_fract_z
 _atom_site_occupancy
 _atom_site_charge
Zn  Zn1  1  0.61157000  0.75611000  0.35738000  1.0 0.7026080511
Zn  Zn2  1  0.75611000  0.35738000  0.61157000  1.0 0.7026080511
Zn  Zn3  1  0.35738000  0.61157000  0.75611000  1.0 0.7026080511
Zn  Zn4  1  0.38843000  0.24389000  0.64262000  1.0 0.7026080511
Zn  Zn5  1  0.24389000  0.64262000  0.38843000  1.0 0.7026080511
Zn  Zn6  1  0.64262000  0.38843000  0.24389000  1.0 0.7026080511
Zn  Zn7  1  0.07960000  0.29433000  0.84624000  1.0 0.7242439411
Zn  Zn8  1  0.29433000  0.84624000  0.07960000  1.0 0.7242439411
Zn  Zn9  1  0.84624000  0.07960000  0.29433000  1.0 0.7242439411
Zn  Zn10  1  0.92040000  0.70567000  0.15376000  1.0 0.7242439411
Zn  Zn11  1  0.70567000  0.15376000  0.92040000  1.0 0.7242439411
Zn  Zn12  1  0.15376000  0.92040000  0.70567000  1.0 0.7242439411
H  H1  1  0.73600000  0.03530000  0.71600000  1.0 0.140435437
H  H2  1  0.03530000  0.71600000  0.73600000  1.0 0.140435437
H  H3  1  0.71600000  0.73600000  0.03530000  1.0 0.140435437
H  H4  1  0.26400000  0.96470000  0.28400000  1.0 0.140435437
H  H5  1  0.96470000  0.28400000  0.26400000  1.0 0.140435437
H  H6  1  0.28400000  0.26400000  0.96470000  1.0 0.140435437
H  H7  1  0.67800000  0.91450000  0.69380000  1.0 0.140435437
H  H8  1  0.91450000  0.69380000  0.67800000  1.0 0.140435437
H  H9  1  0.69380000  0.67800000  0.91450000  1.0 0.140435437
H  H10  1  0.32200000  0.08550000  0.30620000  1.0 0.140435437
H  H11  1  0.08550000  0.30620000  0.32200000  1.0 0.140435437
H  H12  1  0.30620000  0.32200000  0.08550000  1.0 0.140435437
H  H13  1  0.78150000  0.89460000  0.65280000  1.0 0.0836826398
H  H14  1  0.89460000  0.65280000  0.78150000  1.0 0.0836826398
H  H15  1  0.65280000  0.78150000  0.89460000  1.0 0.0836826398
H  H16  1  0.21850000  0.10540000  0.34720000  1.0 0.0836826398
H  H17  1  0.10540000  0.34720000  0.21850000  1.0 0.0836826398
H  H18  1  0.34720000  0.21850000  0.10540000  1.0 0.0836826398
H  H19  1  0.96390000  0.12360000  0.86240000  1.0 0.0836826398
H  H20  1  0.12360000  0.86240000  0.96390000  1.0 0.0836826398
H  H21  1  0.86240000  0.96390000  0.12360000  1.0 0.0836826398
H  H22  1  0.03610000  0.87640000  0.13760000  1.0 0.0836826398
H  H23  1  0.87640000  0.13760000  0.03610000  1.0 0.0836826398
H  H24  1  0.13760000  0.03610000  0.87640000  1.0 0.0836826398
H  H25  1  0.38170000  0.59820000  0.97560000  1.0 0.1501464381
H  H26  1  0.59820000  0.97560000  0.38170000  1.0 0.1501464381
H  H27  1  0.97560000  0.38170000  0.59820000  1.0 0.1501464381
H  H28  1  0.61830000  0.40180000  0.02440000  1.0 0.1501464381
H  H29  1  0.40180000  0.02440000  0.61830000  1.0 0.1501464381
H  H30  1  0.02440000  0.61830000  0.40180000  1.0 0.1501464381
H  H31  1  0.49260000  0.62400000  0.99610000  1.0 0.1501464381
H  H32  1  0.62400000  0.99610000  0.49260000  1.0 0.1501464381
H  H33  1  0.99610000  0.49260000  0.62400000  1.0 0.1501464381
H  H34  1  0.50740000  0.37600000  0.00390000  1.0 0.1501464381
H  H35  1  0.37600000  0.00390000  0.50740000  1.0 0.1501464381
H  H36  1  0.00390000  0.50740000  0.37600000  1.0 0.1501464381
C  C1  1  0.39783000  0.49942000  0.99915000  1.0 0.2682864389
C  C2  1  0.49942000  0.99915000  0.39783000  1.0 0.2682864389
C  C3  1  0.99915000  0.39783000  0.49942000  1.0 0.2682864389
C  C4  1  0.60217000  0.50058000  0.00085000  1.0 0.2682864389
C  C5  1  0.50058000  0.00085000  0.60217000  1.0 0.2682864389
C  C6  1  0.00085000  0.60217000  0.50058000  1.0 0.2682864389
C  C7  1  0.47347000  0.73259000  0.42264000  1.0 0.3306891194
C  C8  1  0.73259000  0.42264000  0.47347000  1.0 0.3306891194
C  C9  1  0.42264000  0.47347000  0.73259000  1.0 0.3306891194
C  C10  1  0.52653000  0.26741000  0.57736000  1.0 0.3306891194
C  C11  1  0.26741000  0.57736000  0.52653000  1.0 0.3306891194
C  C12  1  0.57736000  0.52653000  0.26741000  1.0 0.3306891194
C  C13  1  0.68438000  0.93028000  0.64974000  1.0 -0.3237476626
C  C14  1  0.93028000  0.64974000  0.68438000  1.0 -0.3237476626
C  C15  1  0.64974000  0.68438000  0.93028000  1.0 -0.3237476626
C  C16  1  0.31562000  0.06972000  0.35026000  1.0 -0.3237476626
C  C17  1  0.06972000  0.35026000  0.31562000  1.0 -0.3237476626
C  C18  1  0.35026000  0.31562000  0.06972000  1.0 -0.3237476626
C  C19  1  0.83091000  0.99762000  0.71547000  1.0 0.0332279947
C  C20  1  0.99762000  0.71547000  0.83091000  1.0 0.0332279947
C  C21  1  0.71547000  0.83091000  0.99762000  1.0 0.0332279947
C  C22  1  0.16909000  0.00238000  0.28453000  1.0 0.0332279947
C  C23  1  0.00238000  0.28453000  0.16909000  1.0 0.0332279947
C  C24  1  0.28453000  0.16909000  0.00238000  1.0 0.0332279947
C  C25  1  0.68244000  0.86065000  0.27071000  1.0 0.3364905935
C  C26  1  0.86065000  0.27071000  0.68244000  1.0 0.3364905935
C  C27  1  0.27071000  0.68244000  0.86065000  1.0 0.3364905935
C  C28  1  0.31756000  0.13935000  0.72929000  1.0 0.3364905935
C  C29  1  0.13935000  0.72929000  0.31756000  1.0 0.3364905935
C  C30  1  0.72929000  0.31756000  0.13935000  1.0 0.3364905935
C  C31  1  0.47959000  0.63991000  0.04690000  1.0 -0.3143222162
C  C32  1  0.63991000  0.04690000  0.47959000  1.0 -0.3143222162
C  C33  1  0.04690000  0.47959000  0.63991000  1.0 -0.3143222162
C  C34  1  0.52041000  0.36009000  0.95310000  1.0 -0.3143222162
C  C35  1  0.36009000  0.95310000  0.52041000  1.0 -0.3143222162
C  C36  1  0.95310000  0.52041000  0.36009000  1.0 -0.3143222162
C  C37  1  0.48720000  0.54490000  0.06890000  1.0 -0.12628917
C  C38  1  0.54490000  0.06890000  0.48720000  1.0 -0.1245697119
C  C39  1  0.06890000  0.48720000  0.54490000  1.0 -0.12628917
C  C40  1  0.51280000  0.45510000  0.93110000  1.0 -0.12628917
C  C41  1  0.45510000  0.93110000  0.51280000  1.0 -0.12628917
C  C42  1  0.93110000  0.51280000  0.45510000  1.0 -0.1245697119
N  N1  1  0.42818000  0.64783000  0.29799000  1.0 -0.271791009
N  N2  1  0.64783000  0.29799000  0.42818000  1.0 -0.271791009
N  N3  1  0.29799000  0.42818000  0.64783000  1.0 -0.271791009
N  N4  1  0.57182000  0.35217000  0.70201000  1.0 -0.271791009
N  N5  1  0.35217000  0.70201000  0.57182000  1.0 -0.271791009
N  N6  1  0.70201000  0.57182000  0.35217000  1.0 -0.271791009
N  N7  1  0.22561000  0.47527000  0.10942000  1.0 -0.0704325003
N  N8  1  0.47527000  0.10942000  0.22561000  1.0 -0.0704325003
N  N9  1  0.10942000  0.22561000  0.47527000  1.0 -0.0704325003
N  N10  1  0.77439000  0.52473000  0.89058000  1.0 -0.0704325003
N  N11  1  0.52473000  0.89058000  0.77439000  1.0 -0.0704325003
N  N12  1  0.89058000  0.77439000  0.52473000  1.0 -0.0704325003
N  N13  1  0.14946000  0.45480000  0.11694000  1.0 -0.062705962
N  N14  1  0.45480000  0.11694000  0.14946000  1.0 -0.062705962
N  N15  1  0.11694000  0.14946000  0.45480000  1.0 -0.062705962
N  N16  1  0.85054000  0.54520000  0.88306000  1.0 -0.062705962
N  N17  1  0.54520000  0.88306000  0.85054000  1.0 -0.062705962
N  N18  1  0.88306000  0.85054000  0.54520000  1.0 -0.062705962
N  N19  1  0.30467000  0.61666000  0.31527000  1.0 -0.2876595535
N  N20  1  0.61666000  0.31527000  0.30467000  1.0 -0.2876595535
N  N21  1  0.31527000  0.30467000  0.61666000  1.0 -0.2876595535
N  N22  1  0.69533000  0.38334000  0.68473000  1.0 -0.2876595535
N  N23  1  0.38334000  0.68473000  0.69533000  1.0 -0.2876595535
N  N24  1  0.68473000  0.69533000  0.38334000  1.0 -0.2876595535
N  N25  1  0.82283000  0.02300000  0.36997000  1.0 -0.2778322675
N  N26  1  0.02300000  0.36997000  0.82283000  1.0 -0.2778322675
N  N27  1  0.36997000  0.82283000  0.02300000  1.0 -0.2778322675
N  N28  1  0.17717000  0.97700000  0.63003000  1.0 -0.2778322675
N  N29  1  0.97700000  0.63003000  0.17717000  1.0 -0.2778322675
N  N30  1  0.63003000  0.17717000  0.97700000  1.0 -0.2778322675
N  N31  1  0.97977000  0.18839000  0.56844000  1.0 -0.0704325003
N  N32  1  0.18839000  0.56844000  0.97977000  1.0 -0.0704325003
N  N33  1  0.56844000  0.97977000  0.18839000  1.0 -0.0704325003
N  N34  1  0.02023000  0.81161000  0.43156000  1.0 -0.0704325003
N  N35  1  0.81161000  0.43156000  0.02023000  1.0 -0.0704325003
N  N36  1  0.43156000  0.02023000  0.81161000  1.0 -0.0704325003
N  N37  1  0.93243000  0.12522000  0.58595000  1.0 -0.062705962
N  N38  1  0.12522000  0.58595000  0.93243000  1.0 -0.062705962
N  N39  1  0.58595000  0.93243000  0.12522000  1.0 -0.062705962
N  N40  1  0.06757000  0.87478000  0.41405000  1.0 -0.062705962
N  N41  1  0.87478000  0.41405000  0.06757000  1.0 -0.062705962
N  N42  1  0.41405000  0.06757000  0.87478000  1.0 -0.062705962
N  N43  1  0.74694000  0.92010000  0.40176000  1.0 -0.2621300497
N  N44  1  0.92010000  0.40176000  0.74694000  1.0 -0.2621300497
N  N45  1  0.40176000  0.74694000  0.92010000  1.0 -0.2621300497
N  N46  1  0.25306000  0.07990000  0.59824000  1.0 -0.2621300497
N  N47  1  0.07990000  0.59824000  0.25306000  1.0 -0.2621300497
N  N48  1  0.59824000  0.25306000  0.07990000  1.0 -0.2621300497
O  O1  1  0.85152000  0.02836000  0.66052000  1.0 -0.5760595181
O  O2  1  0.02836000  0.66052000  0.85152000  1.0 -0.5760595181
O  O3  1  0.66052000  0.85152000  0.02836000  1.0 -0.5760595181
O  O4  1  0.14848000  0.97164000  0.33948000  1.0 -0.5760595181
O  O5  1  0.97164000  0.33948000  0.14848000  1.0 -0.5760595181
O  O6  1  0.33948000  0.14848000  0.97164000  1.0 -0.5760595181
O  O7  1  0.35189000  0.49738000  0.04713000  1.0 -0.4385399499
O  O8  1  0.49738000  0.04713000  0.35189000  1.0 -0.4385399499
O  O9  1  0.04713000  0.35189000  0.49738000  1.0 -0.4385399499
O  O10  1  0.64811000  0.50262000  0.95287000  1.0 -0.4385399499
O  O11  1  0.50262000  0.95287000  0.64811000  1.0 -0.4385399499
O  O12  1  0.95287000  0.64811000  0.50262000  1.0 -0.4385399499
