# DDEC6 charges by PACMAN v1.1 (https://github.com/mtap-research/PACMAN-charge/)
data_TOVJAP_ion_pacman
_symmetry_space_group_name_H-M   'P 1'
_cell_length_a   14.38300000
_cell_length_b   10.15000000
_cell_length_c   23.24180000
_cell_angle_alpha   90.00000000
_cell_angle_beta   127.84100000
_cell_angle_gamma   90.00000000
_symmetry_Int_Tables_number   1
_chemical_formula_structural   V8FeP8H24C4(N2O23)2
_chemical_formula_sum   'V16 Fe2 P16 H48 C8 N8 O92'
_cell_volume   2679.51592272
_cell_formula_units_Z   2
loop_
 _symmetry_equiv_pos_site_id
 _symmetry_equiv_pos_as_xyz
  1  'x, y, z'
loop_
 _atom_site_type_symbol
 _atom_site_label
 _atom_site_symmetry_multiplicity
 _atom_site_fract_x
 _atom_site_fract_y
 _atom_site_fract_z
 _atom_site_occupancy
 _atom_site_charge
V  V1  1  0.13710000  0.18380000  0.89600000  1.0 1.9692998659
V  V2  1  0.86290000  0.68380000  0.60400000  1.0 1.9692998659
V  V3  1  0.86290000  0.81620000  0.10400000  1.0 1.9692998659
V  V4  1  0.13710000  0.31620000  0.39600000  1.0 1.9692998659
V  V5  1  0.09130000  0.69830000  0.80350000  1.0 1.9444738608
V  V6  1  0.90870000  0.19830000  0.69650000  1.0 1.9444738608
V  V7  1  0.90870000  0.30170000  0.19650000  1.0 1.9444738608
V  V8  1  0.09130000  0.80170000  0.30350000  1.0 1.9444738608
V  V9  1  0.44970000  0.34850000  0.19660000  1.0 1.9329491835
V  V10  1  0.55030000  0.84850000  0.30340000  1.0 1.9329491835
V  V11  1  0.55030000  0.65150000  0.80340000  1.0 1.9329491835
V  V12  1  0.44970000  0.15150000  0.69660000  1.0 1.9329491835
V  V13  1  0.36040000  0.86110000  0.10730000  1.0 1.9692998659
V  V14  1  0.63960000  0.36110000  0.39270000  1.0 1.9692998659
V  V15  1  0.63960000  0.13890000  0.89270000  1.0 1.9692998659
V  V16  1  0.36040000  0.63890000  0.60730000  1.0 1.9692998659
Fe  Fe1  1  0.00000000  0.00000000  0.00000000  1.0 1.4459500294
Fe  Fe2  1  0.00000000  0.50000000  0.50000000  1.0 1.4459500294
P  P1  1  0.35250000  0.63700000  0.19900000  1.0 1.5800616722
P  P2  1  0.64750000  0.13700000  0.30100000  1.0 1.5800616722
P  P3  1  0.64750000  0.36300000  0.80100000  1.0 1.5800616722
P  P4  1  0.35250000  0.86300000  0.69900000  1.0 1.5800616722
P  P5  1  0.97800000  0.42820000  0.81330000  1.0 1.5800616722
P  P6  1  0.02200000  0.92820000  0.68670000  1.0 1.5800616722
P  P7  1  0.02200000  0.57180000  0.18670000  1.0 1.5800616722
P  P8  1  0.97800000  0.07180000  0.31330000  1.0 1.5800616722
P  P9  1  0.25270000  0.14360000  0.06930000  1.0 1.6420600793
P  P10  1  0.74730000  0.64360000  0.43070000  1.0 1.6420600793
P  P11  1  0.74730000  0.85640000  0.93070000  1.0 1.6420600793
P  P12  1  0.25270000  0.35640000  0.56930000  1.0 1.6420600793
P  P13  1  0.13150000  0.88820000  0.93360000  1.0 1.6452524644
P  P14  1  0.86850000  0.38820000  0.56640000  1.0 1.6420600793
P  P15  1  0.86850000  0.11180000  0.06640000  1.0 1.6420600793
P  P16  1  0.13150000  0.61180000  0.43360000  1.0 1.6452524644
H  H1  1  0.24780000  0.61380000  0.22550000  1.0 0.3913600762
H  H2  1  0.75220000  0.11380000  0.27450000  1.0 0.3913600762
H  H3  1  0.75220000  0.38620000  0.77450000  1.0 0.3913600762
H  H4  1  0.24780000  0.88620000  0.72550000  1.0 0.3913600762
H  H5  1  0.81880000  0.50400000  0.75060000  1.0 0.3913600762
H  H6  1  0.18120000  0.00400000  0.74940000  1.0 0.3913600762
H  H7  1  0.18120000  0.49600000  0.24940000  1.0 0.3913600762
H  H8  1  0.81880000  0.99600000  0.25060000  1.0 0.3913600762
H  H9  1  0.12940000  0.18010000  0.67870000  1.0 0.2599309068
H  H10  1  0.21930000  0.23100000  0.67440000  1.0 0.2716875877
H  H11  1  0.11250000  0.30670000  0.64430000  1.0 0.2716875877
H  H12  1  0.16180000  0.32480000  0.75580000  1.0 0.1283589822
H  H13  1  0.28070000  0.25720000  0.78510000  1.0 0.1218902053
H  H14  1  0.34470000  0.42550000  0.76670000  1.0 0.1283589822
H  H15  1  0.29360000  0.47060000  0.80630000  1.0 0.1218902053
H  H16  1  0.20340000  0.52670000  0.66820000  1.0 0.2599309068
H  H17  1  0.24600000  0.61980000  0.72710000  1.0 0.2599309068
H  H18  1  0.13610000  0.54980000  0.69490000  1.0 0.2468034755
H  H19  1  0.87060000  0.68010000  0.82130000  1.0 0.2599309068
H  H20  1  0.78070000  0.73100000  0.82560000  1.0 0.2716875877
H  H21  1  0.88750000  0.80670000  0.85570000  1.0 0.2716875877
H  H22  1  0.83820000  0.82480000  0.74420000  1.0 0.1283589822
H  H23  1  0.71930000  0.75720000  0.71490000  1.0 0.1218902053
H  H24  1  0.65530000  0.92550000  0.73330000  1.0 0.1283589822
H  H25  1  0.70640000  0.97060000  0.69370000  1.0 0.1218902053
H  H26  1  0.79660000  0.02670000  0.83180000  1.0 0.2599309068
H  H27  1  0.75400000  0.11980000  0.77290000  1.0 0.2599309068
H  H28  1  0.86390000  0.04980000  0.80510000  1.0 0.2468034755
H  H29  1  0.87060000  0.81990000  0.32130000  1.0 0.2599309068
H  H30  1  0.78070000  0.76900000  0.32560000  1.0 0.2716875877
H  H31  1  0.88750000  0.69330000  0.35570000  1.0 0.2716875877
H  H32  1  0.83820000  0.67520000  0.24420000  1.0 0.1283589822
H  H33  1  0.71930000  0.74280000  0.21490000  1.0 0.1218902053
H  H34  1  0.65530000  0.57450000  0.23330000  1.0 0.1283589822
H  H35  1  0.70640000  0.52940000  0.19370000  1.0 0.1283589822
H  H36  1  0.79660000  0.47330000  0.33180000  1.0 0.2599309068
H  H37  1  0.75400000  0.38020000  0.27290000  1.0 0.2599309068
H  H38  1  0.86390000  0.45020000  0.30510000  1.0 0.2468034755
H  H39  1  0.12940000  0.31990000  0.17870000  1.0 0.2599309068
H  H40  1  0.21930000  0.26900000  0.17440000  1.0 0.2716875877
H  H41  1  0.11250000  0.19330000  0.14430000  1.0 0.2716875877
H  H42  1  0.16180000  0.17520000  0.25580000  1.0 0.1283589822
H  H43  1  0.28070000  0.24280000  0.28510000  1.0 0.1218902053
H  H44  1  0.34470000  0.07450000  0.26670000  1.0 0.1283589822
H  H45  1  0.29360000  0.02940000  0.30630000  1.0 0.1283589822
H  H46  1  0.20340000  0.97330000  0.16820000  1.0 0.2599309068
H  H47  1  0.24600000  0.88020000  0.22710000  1.0 0.2599309068
H  H48  1  0.13610000  0.95020000  0.19490000  1.0 0.2468034755
C  C1  1  0.22030000  0.31630000  0.74780000  1.0 -0.0478225183
C  C2  1  0.27190000  0.43880000  0.76020000  1.0 -0.0380264074
C  C3  1  0.77970000  0.81630000  0.75220000  1.0 -0.0478225183
C  C4  1  0.72810000  0.93880000  0.73980000  1.0 -0.0380264074
C  C5  1  0.77970000  0.68370000  0.25220000  1.0 -0.0478225183
C  C6  1  0.72810000  0.56120000  0.23980000  1.0 -0.0380264074
C  C7  1  0.22030000  0.18370000  0.24780000  1.0 -0.0478225183
C  C8  1  0.27190000  0.06120000  0.26020000  1.0 -0.0380264074
N  N1  1  0.16540000  0.25280000  0.68010000  1.0 -0.3910232801
N  N2  1  0.20820000  0.54390000  0.70750000  1.0 -0.3677934129
N  N3  1  0.83460000  0.75280000  0.81990000  1.0 -0.3910232801
N  N4  1  0.79180000  0.04390000  0.79250000  1.0 -0.3677934129
N  N5  1  0.83460000  0.74720000  0.31990000  1.0 -0.3910232801
N  N6  1  0.79180000  0.45610000  0.29250000  1.0 -0.3677934129
N  N7  1  0.16540000  0.24720000  0.18010000  1.0 -0.3910232801
N  N8  1  0.20820000  0.95610000  0.20750000  1.0 -0.3677934129
O  O1  1  0.23490000  0.24880000  0.89050000  1.0 -0.6553989667
O  O2  1  0.76510000  0.74880000  0.60950000  1.0 -0.6544670283
O  O3  1  0.76510000  0.75120000  0.10950000  1.0 -0.6544670283
O  O4  1  0.23490000  0.25120000  0.39050000  1.0 -0.6544670283
O  O5  1  0.49050000  0.38800000  0.14850000  1.0 -0.6067537461
O  O6  1  0.50950000  0.88800000  0.35150000  1.0 -0.6067537461
O  O7  1  0.50950000  0.61200000  0.85150000  1.0 -0.6067537461
O  O8  1  0.49050000  0.11200000  0.64850000  1.0 -0.6067537461
O  O9  1  0.47260000  0.81530000  0.11370000  1.0 -0.6262529213
O  O10  1  0.52740000  0.31530000  0.38630000  1.0 -0.6262529213
O  O11  1  0.52740000  0.18470000  0.88630000  1.0 -0.6262529213
O  O12  1  0.47260000  0.68470000  0.61370000  1.0 -0.6262529213
O  O13  1  0.22130000  0.68170000  0.83210000  1.0 -0.6217579264
O  O14  1  0.77870000  0.18170000  0.66790000  1.0 -0.6217579264
O  O15  1  0.77870000  0.31830000  0.16790000  1.0 -0.6217579264
O  O16  1  0.22130000  0.81830000  0.33210000  1.0 -0.6217579264
O  O17  1  0.30240000  0.70680000  0.12710000  1.0 -0.7574035395
O  O18  1  0.69760000  0.20680000  0.37290000  1.0 -0.7574035395
O  O19  1  0.69760000  0.29320000  0.87290000  1.0 -0.7574035395
O  O20  1  0.30240000  0.79320000  0.62710000  1.0 -0.7574035395
O  O21  1  0.34470000  0.48850000  0.18730000  1.0 -0.8073197919
O  O22  1  0.65530000  0.98850000  0.31270000  1.0 -0.8073197919
O  O23  1  0.65530000  0.51150000  0.81270000  1.0 -0.8073197919
O  O24  1  0.34470000  0.01150000  0.68730000  1.0 -0.8073197919
O  O25  1  0.48360000  0.67470000  0.25650000  1.0 -0.790572254
O  O26  1  0.51640000  0.17470000  0.24350000  1.0 -0.790572254
O  O27  1  0.51640000  0.32530000  0.74350000  1.0 -0.790572254
O  O28  1  0.48360000  0.82530000  0.75650000  1.0 -0.790572254
O  O29  1  0.28240000  0.67800000  0.22550000  1.0 -0.6067537461
O  O30  1  0.71760000  0.17800000  0.27450000  1.0 -0.6067537461
O  O31  1  0.71760000  0.32200000  0.77450000  1.0 -0.6067537461
O  O32  1  0.28240000  0.82200000  0.72550000  1.0 -0.6067537461
O  O33  1  0.02420000  0.32450000  0.87200000  1.0 -0.7685525361
O  O34  1  0.97580000  0.82450000  0.62800000  1.0 -0.7685525361
O  O35  1  0.97580000  0.67550000  0.12800000  1.0 -0.7685525361
O  O36  1  0.02420000  0.17550000  0.37200000  1.0 -0.7685525361
O  O37  1  0.95720000  0.37220000  0.74560000  1.0 -0.8161846865
O  O38  1  0.04280000  0.87220000  0.75440000  1.0 -0.8161846865
O  O39  1  0.04280000  0.62780000  0.25440000  1.0 -0.8161846865
O  O40  1  0.95720000  0.12780000  0.24560000  1.0 -0.8161846865
O  O41  1  0.06520000  0.53950000  0.84000000  1.0 -0.7815512536
O  O42  1  0.93480000  0.03950000  0.66000000  1.0 -0.7815512536
O  O43  1  0.93480000  0.46050000  0.16000000  1.0 -0.7815512536
O  O44  1  0.06520000  0.96050000  0.34000000  1.0 -0.7815512536
O  O45  1  0.86350000  0.48530000  0.79410000  1.0 -0.5980191845
O  O46  1  0.13650000  0.98530000  0.70590000  1.0 -0.5980191845
O  O47  1  0.13650000  0.51470000  0.20590000  1.0 -0.5980191845
O  O48  1  0.86350000  0.01470000  0.29410000  1.0 -0.5980191845
O  O49  1  0.19390000  0.21400000  0.99710000  1.0 -0.790572254
O  O50  1  0.80610000  0.71400000  0.50290000  1.0 -0.790572254
O  O51  1  0.80610000  0.78600000  0.00290000  1.0 -0.790572254
O  O52  1  0.19390000  0.28600000  0.49710000  1.0 -0.790572254
O  O53  1  0.35220000  0.05360000  0.08520000  1.0 -0.790572254
O  O54  1  0.64780000  0.55360000  0.41480000  1.0 -0.790572254
O  O55  1  0.64780000  0.94640000  0.91480000  1.0 -0.790572254
O  O56  1  0.35220000  0.44640000  0.58520000  1.0 -0.790572254
O  O57  1  0.30020000  0.24950000  0.12910000  1.0 -0.790572254
O  O58  1  0.69980000  0.74950000  0.37090000  1.0 -0.790572254
O  O59  1  0.69980000  0.75050000  0.87090000  1.0 -0.790572254
O  O60  1  0.30020000  0.25050000  0.62910000  1.0 -0.790572254
O  O61  1  0.16560000  0.05820000  0.07110000  1.0 -0.7815512536
O  O62  1  0.83440000  0.55820000  0.42890000  1.0 -0.7815512536
O  O63  1  0.83440000  0.94180000  0.92890000  1.0 -0.7815512536
O  O64  1  0.16560000  0.44180000  0.57110000  1.0 -0.7815512536
O  O65  1  0.18750000  0.99890000  0.91830000  1.0 -0.8073197919
O  O66  1  0.81250000  0.49890000  0.58170000  1.0 -0.8073197919
O  O67  1  0.81250000  0.00110000  0.08170000  1.0 -0.8073197919
O  O68  1  0.18750000  0.50110000  0.41830000  1.0 -0.8073197919
O  O69  1  0.08030000  0.78340000  0.87410000  1.0 -0.8161846865
O  O70  1  0.91970000  0.28340000  0.62590000  1.0 -0.8161846865
O  O71  1  0.91970000  0.21660000  0.12590000  1.0 -0.8161846865
O  O72  1  0.08030000  0.71660000  0.37410000  1.0 -0.8161846865
O  O73  1  0.22360000  0.82520000  0.00710000  1.0 -0.7815512536
O  O74  1  0.77640000  0.32520000  0.49290000  1.0 -0.7815512536
O  O75  1  0.77640000  0.17480000  0.99290000  1.0 -0.7815512536
O  O76  1  0.22360000  0.67480000  0.50710000  1.0 -0.7815512536
O  O77  1  0.02740000  0.94400000  0.92960000  1.0 -0.7685525361
O  O78  1  0.97260000  0.44400000  0.57040000  1.0 -0.7685525361
O  O79  1  0.97260000  0.05600000  0.07040000  1.0 -0.7685525361
O  O80  1  0.02740000  0.55600000  0.42960000  1.0 -0.7685525361
O  O81  1  0.01050000  0.11530000  0.79450000  1.0 -0.9511007685
O  O82  1  0.98950000  0.61530000  0.70550000  1.0 -0.9511007685
O  O83  1  0.98950000  0.88470000  0.20550000  1.0 -0.9511007685
O  O84  1  0.01050000  0.38470000  0.29450000  1.0 -0.9511007685
O  O85  1  0.57540000  0.42620000  0.29370000  1.0 -0.9037569482
O  O86  1  0.42460000  0.92620000  0.20630000  1.0 -0.9037569482
O  O87  1  0.42460000  0.57380000  0.70630000  1.0 -0.9037569482
O  O88  1  0.57540000  0.07380000  0.79370000  1.0 -0.9037569482
O  O89  1  0.94840000  0.17470000  0.95130000  1.0 -0.379040556
O  O90  1  0.05160000  0.67470000  0.54870000  1.0 -0.379040556
O  O91  1  0.05160000  0.82530000  0.04870000  1.0 -0.379040556
O  O92  1  0.94840000  0.32530000  0.45130000  1.0 -0.379040556
