# DDEC6 charges by PACMAN v1.1 (https://github.com/mtap-research/PACMAN-charge/)
data_TOWMEZ_ASR_pacman
_symmetry_space_group_name_H-M   'P 1'
_cell_length_a   15.39200000
_cell_length_b   15.39200000
_cell_length_c   12.42500000
_cell_angle_alpha   90.00000000
_cell_angle_beta   90.00000000
_cell_angle_gamma   120.00000000
_symmetry_Int_Tables_number   1
_chemical_formula_structural   Fe3H27C54Br9O13
_chemical_formula_sum   'Fe6 H54 C108 Br18 O26'
_cell_volume   2549.27765023
_cell_formula_units_Z   2
loop_
 _symmetry_equiv_pos_site_id
 _symmetry_equiv_pos_as_xyz
  1  'x, y, z'
loop_
 _atom_site_type_symbol
 _atom_site_label
 _atom_site_symmetry_multiplicity
 _atom_site_fract_x
 _atom_site_fract_y
 _atom_site_fract_z
 _atom_site_occupancy
 _atom_site_charge
Fe  Fe1  1  0.20650000  0.66060000  0.75000000  1.0 1.0300598007
Fe  Fe2  1  0.45410000  0.79350000  0.75000000  1.0 1.0300598007
Fe  Fe3  1  0.33940000  0.54590000  0.75000000  1.0 1.0300598007
Fe  Fe4  1  0.54590000  0.33940000  0.25000000  1.0 1.0300598007
Fe  Fe5  1  0.79350000  0.45410000  0.25000000  1.0 1.0300598007
Fe  Fe6  1  0.66060000  0.20650000  0.25000000  1.0 1.0300598007
H  H1  1  0.00000000  0.46210000  0.50000000  1.0 0.083659578
H  H2  1  0.46210000  0.00000000  0.00000000  1.0 0.083659578
H  H3  1  0.53790000  0.53790000  0.50000000  1.0 0.083659578
H  H4  1  0.00000000  0.46210000  0.00000000  1.0 0.083659578
H  H5  1  0.46210000  0.00000000  0.50000000  1.0 0.083659578
H  H6  1  0.53790000  0.53790000  0.00000000  1.0 0.083659578
H  H7  1  0.12810000  0.29780000  0.58910000  1.0 0.1126619589
H  H8  1  0.16970000  0.87190000  0.91090000  1.0 0.1126619589
H  H9  1  0.70220000  0.83030000  0.58910000  1.0 0.1126619589
H  H10  1  0.12810000  0.29780000  0.91090000  1.0 0.1126619589
H  H11  1  0.16970000  0.87190000  0.58910000  1.0 0.1126619589
H  H12  1  0.70220000  0.83030000  0.91090000  1.0 0.1126619589
H  H13  1  0.83030000  0.70220000  0.41090000  1.0 0.1126619589
H  H14  1  0.87190000  0.16970000  0.41090000  1.0 0.1126619589
H  H15  1  0.29780000  0.12810000  0.41090000  1.0 0.1126619589
H  H16  1  0.29780000  0.12810000  0.08910000  1.0 0.1126619589
H  H17  1  0.83030000  0.70220000  0.08910000  1.0 0.1126619589
H  H18  1  0.87190000  0.16970000  0.08910000  1.0 0.1126619589
H  H19  1  0.97700000  0.43920000  0.53850000  1.0 0.0882358115
H  H20  1  0.46220000  0.02300000  0.96150000  1.0 0.0882358115
H  H21  1  0.56080000  0.53780000  0.53850000  1.0 0.0882358115
H  H22  1  0.97700000  0.43920000  0.96150000  1.0 0.0882358115
H  H23  1  0.46220000  0.02300000  0.53850000  1.0 0.0882358115
H  H24  1  0.56080000  0.53780000  0.96150000  1.0 0.0882358115
H  H25  1  0.53780000  0.56080000  0.46150000  1.0 0.0882358115
H  H26  1  0.02300000  0.46220000  0.46150000  1.0 0.0882358115
H  H27  1  0.43920000  0.97700000  0.46150000  1.0 0.0882358115
H  H28  1  0.43920000  0.97700000  0.03850000  1.0 0.0882358115
H  H29  1  0.53780000  0.56080000  0.03850000  1.0 0.0882358115
H  H30  1  0.02300000  0.46220000  0.03850000  1.0 0.0882358115
H  H31  1  0.19180000  0.36430000  0.48140000  1.0 0.1161846331
H  H32  1  0.17250000  0.80820000  0.01860000  1.0 0.1161846331
H  H33  1  0.63570000  0.82750000  0.48140000  1.0 0.1161846331
H  H34  1  0.19180000  0.36430000  0.01860000  1.0 0.1161846331
H  H35  1  0.17250000  0.80820000  0.48140000  1.0 0.1161846331
H  H36  1  0.63570000  0.82750000  0.01860000  1.0 0.1161846331
H  H37  1  0.82750000  0.63570000  0.51860000  1.0 0.1161846331
H  H38  1  0.80820000  0.17250000  0.51860000  1.0 0.1161846331
H  H39  1  0.36430000  0.19180000  0.51860000  1.0 0.1161846331
H  H40  1  0.36430000  0.19180000  0.98140000  1.0 0.1161846331
H  H41  1  0.82750000  0.63570000  0.98140000  1.0 0.1161846331
H  H42  1  0.80820000  0.17250000  0.98140000  1.0 0.1161846331
H  H43  1  0.93140000  0.23080000  0.31030000  1.0 0.0978786733
H  H44  1  0.29940000  0.06860000  0.18970000  1.0 0.0978786733
H  H45  1  0.76920000  0.70060000  0.31030000  1.0 0.0978786733
H  H46  1  0.93140000  0.23080000  0.18970000  1.0 0.0978786733
H  H47  1  0.29940000  0.06860000  0.31030000  1.0 0.0978786733
H  H48  1  0.76920000  0.70060000  0.18970000  1.0 0.0978786733
H  H49  1  0.70060000  0.76920000  0.68970000  1.0 0.0978786733
H  H50  1  0.06860000  0.29940000  0.68970000  1.0 0.0978786733
H  H51  1  0.23080000  0.93140000  0.68970000  1.0 0.0978786733
H  H52  1  0.23080000  0.93140000  0.81030000  1.0 0.0978786733
H  H53  1  0.70060000  0.76920000  0.81030000  1.0 0.0978786733
H  H54  1  0.06860000  0.29940000  0.81030000  1.0 0.0978786733
C  C1  1  0.15840000  0.48270000  0.60980000  1.0 0.3986580954
C  C2  1  0.32430000  0.84160000  0.89020000  1.0 0.3986580954
C  C3  1  0.51730000  0.67570000  0.60980000  1.0 0.3986580954
C  C4  1  0.15840000  0.48270000  0.89020000  1.0 0.3986580954
C  C5  1  0.32430000  0.84160000  0.60980000  1.0 0.3986580954
C  C6  1  0.51730000  0.67570000  0.89020000  1.0 0.3986580954
C  C7  1  0.67570000  0.51730000  0.39020000  1.0 0.3986580954
C  C8  1  0.84160000  0.32430000  0.39020000  1.0 0.3986580954
C  C9  1  0.48270000  0.15840000  0.39020000  1.0 0.3986580954
C  C10  1  0.48270000  0.15840000  0.10980000  1.0 0.3986580954
C  C11  1  0.67570000  0.51730000  0.10980000  1.0 0.3986580954
C  C12  1  0.84160000  0.32430000  0.10980000  1.0 0.3986580954
C  C13  1  0.00000000  0.40040000  0.50000000  1.0 -0.1066045204
C  C14  1  0.40040000  0.00000000  0.00000000  1.0 -0.1066045204
C  C15  1  0.59960000  0.59960000  0.50000000  1.0 -0.1066045204
C  C16  1  0.00000000  0.40040000  0.00000000  1.0 -0.1066045204
C  C17  1  0.40040000  0.00000000  0.50000000  1.0 -0.1066045204
C  C18  1  0.59960000  0.59960000  0.00000000  1.0 -0.1066045204
C  C19  1  0.07579000  0.39310000  0.55250000  1.0 0.059402596
C  C20  1  0.31731000  0.92421000  0.94750000  1.0 0.059402596
C  C21  1  0.60690000  0.68269000  0.55250000  1.0 0.0656657262
C  C22  1  0.07579000  0.39310000  0.94750000  1.0 0.059402596
C  C23  1  0.31731000  0.92421000  0.55250000  1.0 0.0656657262
C  C24  1  0.60690000  0.68269000  0.94750000  1.0 0.059402596
C  C25  1  0.68269000  0.60690000  0.44750000  1.0 0.0656657262
C  C26  1  0.92421000  0.31731000  0.44750000  1.0 0.0656657262
C  C27  1  0.39310000  0.07579000  0.44750000  1.0 0.059402596
C  C28  1  0.39310000  0.07579000  0.05250000  1.0 0.0656657262
C  C29  1  0.68269000  0.60690000  0.05250000  1.0 0.0656657262
C  C30  1  0.92421000  0.31731000  0.05250000  1.0 0.0656657262
C  C31  1  0.07580000  0.30280000  0.55260000  1.0 -0.0469017713
C  C32  1  0.22700000  0.92420000  0.94740000  1.0 -0.0469017713
C  C33  1  0.69720000  0.77300000  0.55260000  1.0 -0.0469017713
C  C34  1  0.07580000  0.30280000  0.94740000  1.0 -0.0469017713
C  C35  1  0.22700000  0.92420000  0.55260000  1.0 -0.0469017713
C  C36  1  0.69720000  0.77300000  0.94740000  1.0 -0.0469017713
C  C37  1  0.77300000  0.69720000  0.44740000  1.0 -0.0469017713
C  C38  1  0.92420000  0.22700000  0.44740000  1.0 -0.0469017713
C  C39  1  0.30280000  0.07580000  0.44740000  1.0 -0.0469017713
C  C40  1  0.30280000  0.07580000  0.05260000  1.0 -0.0469017713
C  C41  1  0.77300000  0.69720000  0.05260000  1.0 -0.0469017713
C  C42  1  0.92420000  0.22700000  0.05260000  1.0 -0.0469017713
C  C43  1  0.00000000  0.21970000  0.50000000  1.0 0.0425167421
C  C44  1  0.21970000  0.00000000  0.00000000  1.0 0.0456599977
C  C45  1  0.78030000  0.78030000  0.50000000  1.0 0.0425167421
C  C46  1  0.00000000  0.21970000  0.00000000  1.0 0.0456599977
C  C47  1  0.21970000  0.00000000  0.50000000  1.0 0.0425167421
C  C48  1  0.78030000  0.78030000  0.00000000  1.0 0.0425167421
C  C49  1  0.09380000  0.41220000  0.52210000  1.0 0.0425167421
C  C50  1  0.31840000  0.90620000  0.97790000  1.0 0.0425167421
C  C51  1  0.58780000  0.68160000  0.52210000  1.0 0.0425167421
C  C52  1  0.09380000  0.41220000  0.97790000  1.0 0.0425167421
C  C53  1  0.31840000  0.90620000  0.52210000  1.0 0.0425167421
C  C54  1  0.58780000  0.68160000  0.97790000  1.0 0.0425167421
C  C55  1  0.68160000  0.58780000  0.47790000  1.0 0.0425167421
C  C56  1  0.90620000  0.31840000  0.47790000  1.0 0.0425167421
C  C57  1  0.41220000  0.09380000  0.47790000  1.0 0.0425167421
C  C58  1  0.41220000  0.09380000  0.02210000  1.0 0.0425167421
C  C59  1  0.68160000  0.58780000  0.02210000  1.0 0.0425167421
C  C60  1  0.90620000  0.31840000  0.02210000  1.0 0.0425167421
C  C61  1  0.12720000  0.35650000  0.46550000  1.0 -0.0923774511
C  C62  1  0.22930000  0.87280000  0.03450000  1.0 -0.0923774511
C  C63  1  0.64350000  0.77070000  0.46550000  1.0 -0.0923774511
C  C64  1  0.12720000  0.35650000  0.03450000  1.0 -0.0923774511
C  C65  1  0.22930000  0.87280000  0.46550000  1.0 -0.0923774511
C  C66  1  0.64350000  0.77070000  0.03450000  1.0 -0.0923774511
C  C67  1  0.77070000  0.64350000  0.53450000  1.0 -0.0923774511
C  C68  1  0.87280000  0.22930000  0.53450000  1.0 -0.0923774511
C  C69  1  0.35650000  0.12720000  0.53450000  1.0 -0.0923774511
C  C70  1  0.35650000  0.12720000  0.96550000  1.0 -0.0923774511
C  C71  1  0.77070000  0.64350000  0.96550000  1.0 -0.0923774511
C  C72  1  0.87280000  0.22930000  0.96550000  1.0 -0.0923774511
C  C73  1  0.06680000  0.28910000  0.38680000  1.0 -0.1236284752
C  C74  1  0.22230000  0.93320000  0.11320000  1.0 -0.1259813745
C  C75  1  0.71090000  0.77770000  0.38680000  1.0 -0.1236284752
C  C76  1  0.06680000  0.28910000  0.11320000  1.0 -0.1236284752
C  C77  1  0.22230000  0.93320000  0.38680000  1.0 -0.1259813745
C  C78  1  0.71090000  0.77770000  0.11320000  1.0 -0.1236284752
C  C79  1  0.77770000  0.71090000  0.61320000  1.0 -0.1236284752
C  C80  1  0.93320000  0.22230000  0.61320000  1.0 -0.1236284752
C  C81  1  0.28910000  0.06680000  0.61320000  1.0 -0.1236284752
C  C82  1  0.28910000  0.06680000  0.88680000  1.0 -0.1236284752
C  C83  1  0.77770000  0.71090000  0.88680000  1.0 -0.1236284752
C  C84  1  0.93320000  0.22230000  0.88680000  1.0 -0.1236284752
C  C85  1  0.93960000  0.33310000  0.42130000  1.0 0.059402596
C  C86  1  0.39350000  0.06040000  0.07870000  1.0 0.059402596
C  C87  1  0.66690000  0.60650000  0.42130000  1.0 0.059402596
C  C88  1  0.93960000  0.33310000  0.07870000  1.0 0.059402596
C  C89  1  0.39350000  0.06040000  0.42130000  1.0 0.059402596
C  C90  1  0.66690000  0.60650000  0.07870000  1.0 0.059402596
C  C91  1  0.60650000  0.66690000  0.57870000  1.0 0.059402596
C  C92  1  0.06040000  0.39350000  0.57870000  1.0 0.059402596
C  C93  1  0.33310000  0.93960000  0.57870000  1.0 0.059402596
C  C94  1  0.33310000  0.93960000  0.92130000  1.0 0.059402596
C  C95  1  0.60650000  0.66690000  0.92130000  1.0 0.059402596
C  C96  1  0.06040000  0.39350000  0.92130000  1.0 0.059402596
C  C97  1  0.97300000  0.27740000  0.36470000  1.0 -0.1025258757
C  C98  1  0.30440000  0.02700000  0.13530000  1.0 -0.1025258757
C  C99  1  0.72260000  0.69560000  0.36470000  1.0 -0.1025258757
C  C100  1  0.97300000  0.27740000  0.13530000  1.0 -0.1025258757
C  C101  1  0.30440000  0.02700000  0.36470000  1.0 -0.1025258757
C  C102  1  0.72260000  0.69560000  0.13530000  1.0 -0.1025258757
C  C103  1  0.69560000  0.72260000  0.63530000  1.0 -0.1025258757
C  C104  1  0.02700000  0.30440000  0.63530000  1.0 -0.1025258757
C  C105  1  0.27740000  0.97300000  0.63530000  1.0 -0.1025258757
C  C106  1  0.27740000  0.97300000  0.86470000  1.0 -0.1025258757
C  C107  1  0.69560000  0.72260000  0.86470000  1.0 -0.1025258757
C  C108  1  0.02700000  0.30440000  0.86470000  1.0 -0.1025258757
Br  Br1  1  0.00000000  0.09910000  0.50000000  1.0 0.0127784157
Br  Br2  1  0.09910000  0.00000000  0.00000000  1.0 0.0127784157
Br  Br3  1  0.90090000  0.90090000  0.50000000  1.0 0.0127784157
Br  Br4  1  0.00000000  0.09910000  0.00000000  1.0 0.0127784157
Br  Br5  1  0.09910000  0.00000000  0.50000000  1.0 0.0127784157
Br  Br6  1  0.90090000  0.90090000  0.00000000  1.0 0.0157589029
Br  Br7  1  0.10580000  0.19700000  0.31510000  1.0 -0.0469017713
Br  Br8  1  0.09120000  0.89420000  0.18490000  1.0 -0.0469017713
Br  Br9  1  0.80300000  0.90880000  0.31510000  1.0 -0.0469017713
Br  Br10  1  0.10580000  0.19700000  0.18490000  1.0 -0.0469017713
Br  Br11  1  0.09120000  0.89420000  0.31510000  1.0 -0.0469017713
Br  Br12  1  0.80300000  0.90880000  0.18490000  1.0 -0.0469017713
Br  Br13  1  0.90880000  0.80300000  0.68490000  1.0 -0.0469017713
Br  Br14  1  0.89420000  0.09120000  0.68490000  1.0 -0.0469017713
Br  Br15  1  0.19700000  0.10580000  0.68490000  1.0 -0.0469017713
Br  Br16  1  0.19700000  0.10580000  0.81510000  1.0 -0.0469017713
Br  Br17  1  0.90880000  0.80300000  0.81510000  1.0 -0.0469017713
Br  Br18  1  0.89420000  0.09120000  0.81510000  1.0 -0.0469017713
O  O1  1  0.23270000  0.47560000  0.63530000  1.0 -0.4726151962
O  O2  1  0.24290000  0.76730000  0.86470000  1.0 -0.4726151962
O  O3  1  0.52440000  0.75710000  0.63530000  1.0 -0.4726151962
O  O4  1  0.23270000  0.47560000  0.86470000  1.0 -0.4726151962
O  O5  1  0.24290000  0.76730000  0.63530000  1.0 -0.4726151962
O  O6  1  0.52440000  0.75710000  0.86470000  1.0 -0.4726151962
O  O7  1  0.75710000  0.52440000  0.36470000  1.0 -0.4726151962
O  O8  1  0.76730000  0.24290000  0.36470000  1.0 -0.4726151962
O  O9  1  0.47560000  0.23270000  0.36470000  1.0 -0.4726151962
O  O10  1  0.47560000  0.23270000  0.13530000  1.0 -0.4726151962
O  O11  1  0.75710000  0.52440000  0.13530000  1.0 -0.4726151962
O  O12  1  0.76730000  0.24290000  0.13530000  1.0 -0.4726151962
O  O13  1  0.14280000  0.55250000  0.63680000  1.0 -0.4794646937
O  O14  1  0.40970000  0.85720000  0.86320000  1.0 -0.4794646937
O  O15  1  0.44750000  0.59030000  0.63680000  1.0 -0.4794646937
O  O16  1  0.14280000  0.55250000  0.86320000  1.0 -0.4794646937
O  O17  1  0.40970000  0.85720000  0.63680000  1.0 -0.4794646937
O  O18  1  0.44750000  0.59030000  0.86320000  1.0 -0.4794646937
O  O19  1  0.59030000  0.44750000  0.36320000  1.0 -0.4794646937
O  O20  1  0.85720000  0.40970000  0.36320000  1.0 -0.4794646937
O  O21  1  0.55250000  0.14280000  0.36320000  1.0 -0.4794646937
O  O22  1  0.55250000  0.14280000  0.13680000  1.0 -0.4794646937
O  O23  1  0.59030000  0.44750000  0.13680000  1.0 -0.4794646937
O  O24  1  0.85720000  0.40970000  0.13680000  1.0 -0.4794646937
O  O25  1  0.33333333  0.66666667  0.75000000  1.0 -0.8745868344
O  O26  1  0.66666667  0.33333333  0.25000000  1.0 -0.8745868344
