# DDEC6 charges by PACMAN v1.1 (https://github.com/mtap-research/PACMAN-charge/)
data_TOWTOR_ASR_pacman
_symmetry_space_group_name_H-M   'P 1'
_cell_length_a   13.22630000
_cell_length_b   13.22630000
_cell_length_c   21.15200000
_cell_angle_alpha   78.11420000
_cell_angle_beta   101.88600000
_cell_angle_gamma   113.85600000
_symmetry_Int_Tables_number   1
_chemical_formula_structural   NaH12(C3N)6
_chemical_formula_sum   'Na4 H48 C72 N24'
_cell_volume   3280.28755135
_cell_formula_units_Z   4
loop_
 _symmetry_equiv_pos_site_id
 _symmetry_equiv_pos_as_xyz
  1  'x, y, z'
loop_
 _atom_site_type_symbol
 _atom_site_label
 _atom_site_symmetry_multiplicity
 _atom_site_fract_x
 _atom_site_fract_y
 _atom_site_fract_z
 _atom_site_occupancy
 _atom_site_charge
Na  Na1  1  0.20658000  0.44162000  0.36516000  1.0 0.6536459689
Na  Na2  1  0.55838000  0.79342000  0.86516000  1.0 0.6536459689
Na  Na3  1  0.44162000  0.20658000  0.13484000  1.0 0.6536459689
Na  Na4  1  0.79342000  0.55838000  0.63484000  1.0 0.6536459689
H  H1  1  0.11414000  0.26228000  0.25016000  1.0 0.0915216439
H  H2  1  0.00954000  0.24096000  0.14812000  1.0 0.122191782
H  H3  1  0.02629000  0.55145000  0.13571000  1.0 0.1292582901
H  H4  1  0.12548000  0.56012000  0.23576000  1.0 0.0915216439
H  H5  1  0.81070000  0.07398000  0.03455000  1.0 0.1292582901
H  H6  1  0.72791000  0.91525000  0.98643000  1.0 0.0823502716
H  H7  1  0.66330000  0.07104000  0.82209000  1.0 0.0960169833
H  H8  1  0.74216000  0.23958000  0.85979000  1.0 0.122191782
H  H9  1  0.86820000  0.65242000  0.01779000  1.0 0.1292582901
H  H10  1  0.79774000  0.77612000  0.96921000  1.0 0.0915216439
H  H11  1  0.63963000  0.61573000  0.82346000  1.0 0.0915216439
H  H12  1  0.70657000  0.48039000  0.86931000  1.0 0.122191782
H  H13  1  0.73772000  0.88586000  0.75016000  1.0 0.0915216439
H  H14  1  0.75904000  0.99046000  0.64812000  1.0 0.122191782
H  H15  1  0.44855000  0.97371000  0.63571000  1.0 0.1292582901
H  H16  1  0.43988000  0.87452000  0.73576000  1.0 0.0915216439
H  H17  1  0.92602000  0.18930000  0.53455000  1.0 0.1292582901
H  H18  1  0.08475000  0.27209000  0.48643000  1.0 0.0823502716
H  H19  1  0.92896000  0.33670000  0.32209000  1.0 0.0960169833
H  H20  1  0.76042000  0.25784000  0.35979000  1.0 0.122191782
H  H21  1  0.34758000  0.13180000  0.51779000  1.0 0.1292582901
H  H22  1  0.22388000  0.20226000  0.46921000  1.0 0.0915216439
H  H23  1  0.38427000  0.36037000  0.32346000  1.0 0.0915216439
H  H24  1  0.51961000  0.29343000  0.36931000  1.0 0.122191782
H  H25  1  0.26228000  0.11414000  0.24984000  1.0 0.0915216439
H  H26  1  0.24096000  0.00954000  0.35188000  1.0 0.122191782
H  H27  1  0.55145000  0.02629000  0.36429000  1.0 0.1292582901
H  H28  1  0.56012000  0.12548000  0.26424000  1.0 0.0915216439
H  H29  1  0.07398000  0.81070000  0.46545000  1.0 0.1292582901
H  H30  1  0.91525000  0.72791000  0.51357000  1.0 0.0823502716
H  H31  1  0.07104000  0.66330000  0.67791000  1.0 0.0960169833
H  H32  1  0.23958000  0.74216000  0.64021000  1.0 0.122191782
H  H33  1  0.65242000  0.86820000  0.48221000  1.0 0.1292582901
H  H34  1  0.77612000  0.79774000  0.53079000  1.0 0.0915216439
H  H35  1  0.61573000  0.63963000  0.67654000  1.0 0.0915216439
H  H36  1  0.48039000  0.70657000  0.63069000  1.0 0.122191782
H  H37  1  0.88586000  0.73772000  0.74984000  1.0 0.0915216439
H  H38  1  0.99046000  0.75904000  0.85188000  1.0 0.122191782
H  H39  1  0.97371000  0.44855000  0.86429000  1.0 0.1292582901
H  H40  1  0.87452000  0.43988000  0.76424000  1.0 0.0915216439
H  H41  1  0.18930000  0.92602000  0.96545000  1.0 0.1292582901
H  H42  1  0.27209000  0.08475000  0.01357000  1.0 0.0823502716
H  H43  1  0.33670000  0.92896000  0.17791000  1.0 0.0960169833
H  H44  1  0.25784000  0.76042000  0.14021000  1.0 0.122191782
H  H45  1  0.13180000  0.34758000  0.98221000  1.0 0.1292582901
H  H46  1  0.20226000  0.22388000  0.03079000  1.0 0.0915216439
H  H47  1  0.36037000  0.38427000  0.17654000  1.0 0.0915216439
H  H48  1  0.29343000  0.51961000  0.13069000  1.0 0.122191782
C  C1  1  0.09670000  0.32210000  0.22650000  1.0 0.0401556263
C  C2  1  0.03190000  0.30770000  0.16480000  1.0 -0.1741560634
C  C3  1  0.00260000  0.39280000  0.12990000  1.0 0.0461924475
C  C4  1  0.04190000  0.48990000  0.15790000  1.0 -0.1777638394
C  C5  1  0.10330000  0.49450000  0.21780000  1.0 0.0401556263
C  C6  1  0.93410000  0.38350000  0.06670000  1.0 0.3414442652
C  C7  1  0.79010000  0.18170000  0.95410000  1.0 0.0559331522
C  C8  1  0.83770000  0.45690000  0.97990000  1.0 0.3414442652
C  C9  1  0.83300000  0.28600000  0.98320000  1.0 0.3505282764
C  C10  1  0.78210000  0.07850000  0.99050000  1.0 -0.1964807596
C  C11  1  0.73070000  0.98190000  0.96030000  1.0 0.0715483621
C  C12  1  0.69390000  0.07210000  0.86580000  1.0 0.0401556263
C  C13  1  0.74180000  0.17540000  0.88800000  1.0 -0.1922517244
C  C14  1  0.79980000  0.54680000  0.94900000  1.0 0.0401556263
C  C15  1  0.82200000  0.64120000  0.97820000  1.0 -0.1922517244
C  C16  1  0.77630000  0.71350000  0.94860000  1.0 0.0401556263
C  C17  1  0.68420000  0.62220000  0.86380000  1.0 0.0130672369
C  C18  1  0.72730000  0.54170000  0.89100000  1.0 -0.1777638394
C  C19  1  0.67790000  0.90330000  0.72650000  1.0 0.0401556263
C  C20  1  0.69230000  0.96810000  0.66480000  1.0 -0.1741560634
C  C21  1  0.60720000  0.99740000  0.62990000  1.0 0.0461924475
C  C22  1  0.51010000  0.95810000  0.65790000  1.0 -0.1777638394
C  C23  1  0.50550000  0.89670000  0.71780000  1.0 0.0401556263
C  C24  1  0.61650000  0.06590000  0.56670000  1.0 0.3414442652
C  C25  1  0.81830000  0.20990000  0.45410000  1.0 0.0559331522
C  C26  1  0.54310000  0.16230000  0.47990000  1.0 0.3414442652
C  C27  1  0.71400000  0.16700000  0.48320000  1.0 0.3505282764
C  C28  1  0.92150000  0.21790000  0.49050000  1.0 -0.1964807596
C  C29  1  0.01810000  0.26930000  0.46030000  1.0 0.0715483621
C  C30  1  0.92790000  0.30610000  0.36580000  1.0 0.0401556263
C  C31  1  0.82460000  0.25820000  0.38800000  1.0 -0.1922517244
C  C32  1  0.45320000  0.20020000  0.44900000  1.0 0.0401556263
C  C33  1  0.35880000  0.17800000  0.47820000  1.0 -0.1922517244
C  C34  1  0.28650000  0.22370000  0.44860000  1.0 0.0401556263
C  C35  1  0.37780000  0.31580000  0.36380000  1.0 0.0130672369
C  C36  1  0.45830000  0.27270000  0.39100000  1.0 -0.1777638394
C  C37  1  0.32210000  0.09670000  0.27350000  1.0 0.0401556263
C  C38  1  0.30770000  0.03190000  0.33520000  1.0 -0.1741560634
C  C39  1  0.39280000  0.00260000  0.37010000  1.0 0.0461924475
C  C40  1  0.48990000  0.04190000  0.34210000  1.0 -0.1777638394
C  C41  1  0.49450000  0.10330000  0.28220000  1.0 0.0401556263
C  C42  1  0.38350000  0.93410000  0.43330000  1.0 0.3414442652
C  C43  1  0.18170000  0.79010000  0.54590000  1.0 0.0559331522
C  C44  1  0.45690000  0.83770000  0.52010000  1.0 0.3337068174
C  C45  1  0.28600000  0.83300000  0.51680000  1.0 0.3505282764
C  C46  1  0.07850000  0.78210000  0.50950000  1.0 -0.1964807596
C  C47  1  0.98190000  0.73070000  0.53970000  1.0 0.0715483621
C  C48  1  0.07210000  0.69390000  0.63420000  1.0 0.0401556263
C  C49  1  0.17540000  0.74180000  0.61200000  1.0 -0.1922517244
C  C50  1  0.54680000  0.79980000  0.55100000  1.0 0.0401556263
C  C51  1  0.64120000  0.82200000  0.52180000  1.0 -0.1922517244
C  C52  1  0.71350000  0.77630000  0.55140000  1.0 0.0401556263
C  C53  1  0.62220000  0.68420000  0.63620000  1.0 0.0130672369
C  C54  1  0.54170000  0.72730000  0.60900000  1.0 -0.1777638394
C  C55  1  0.90330000  0.67790000  0.77350000  1.0 0.0401556263
C  C56  1  0.96810000  0.69230000  0.83520000  1.0 -0.1741560634
C  C57  1  0.99740000  0.60720000  0.87010000  1.0 0.0461924475
C  C58  1  0.95810000  0.51010000  0.84210000  1.0 -0.1777638394
C  C59  1  0.89670000  0.50550000  0.78220000  1.0 0.0401556263
C  C60  1  0.06590000  0.61650000  0.93330000  1.0 0.3414442652
C  C61  1  0.20990000  0.81830000  0.04590000  1.0 0.0559331522
C  C62  1  0.16230000  0.54310000  0.02010000  1.0 0.3337068174
C  C63  1  0.16700000  0.71400000  0.01680000  1.0 0.3505282764
C  C64  1  0.21790000  0.92150000  0.00950000  1.0 -0.1964807596
C  C65  1  0.26930000  0.01810000  0.03970000  1.0 0.0715483621
C  C66  1  0.30610000  0.92790000  0.13420000  1.0 0.0401556263
C  C67  1  0.25820000  0.82460000  0.11200000  1.0 -0.1922517244
C  C68  1  0.20020000  0.45320000  0.05100000  1.0 0.0401556263
C  C69  1  0.17800000  0.35880000  0.02180000  1.0 -0.1922517244
C  C70  1  0.22370000  0.28650000  0.05140000  1.0 0.0401556263
C  C71  1  0.31580000  0.37780000  0.13620000  1.0 0.0130672369
C  C72  1  0.27270000  0.45830000  0.10900000  1.0 -0.1777638394
N  N1  1  0.13440000  0.41520000  0.25300000  1.0 -0.3072320457
N  N2  1  0.68760000  0.97540000  0.90090000  1.0 -0.3285459812
N  N3  1  0.70490000  0.71150000  0.89440000  1.0 -0.3378696155
N  N4  1  0.89840000  0.28600000  0.04120000  1.0 -0.4453682091
N  N5  1  0.90470000  0.46950000  0.03730000  1.0 -0.4147123184
N  N6  1  0.80250000  0.36630000  0.94940000  1.0 -0.4253907587
N  N7  1  0.58480000  0.86560000  0.75300000  1.0 -0.3072320457
N  N8  1  0.02460000  0.31240000  0.40090000  1.0 -0.3285459812
N  N9  1  0.28850000  0.29510000  0.39440000  1.0 -0.3378696155
N  N10  1  0.71400000  0.10160000  0.54120000  1.0 -0.4448628511
N  N11  1  0.53050000  0.09530000  0.53730000  1.0 -0.4147123184
N  N12  1  0.63370000  0.19750000  0.44940000  1.0 -0.4211059656
N  N13  1  0.41520000  0.13440000  0.24700000  1.0 -0.3072320457
N  N14  1  0.97540000  0.68760000  0.59910000  1.0 -0.3285459812
N  N15  1  0.71150000  0.70490000  0.60560000  1.0 -0.3378696155
N  N16  1  0.28600000  0.89840000  0.45880000  1.0 -0.4453682091
N  N17  1  0.46950000  0.90470000  0.46270000  1.0 -0.4211059656
N  N18  1  0.36630000  0.80250000  0.55060000  1.0 -0.4211059656
N  N19  1  0.86560000  0.58480000  0.74700000  1.0 -0.3072320457
N  N20  1  0.31240000  0.02460000  0.09910000  1.0 -0.3285459812
N  N21  1  0.29510000  0.28850000  0.10560000  1.0 -0.3378696155
N  N22  1  0.10160000  0.71400000  0.95880000  1.0 -0.4448628511
N  N23  1  0.09530000  0.53050000  0.96270000  1.0 -0.4211059656
N  N24  1  0.19750000  0.63370000  0.05060000  1.0 -0.4211059656
