# DDEC6 charges by PACMAN v1.1 (https://github.com/mtap-research/PACMAN-charge/)
data_TOXZOY_ASR_pacman
_symmetry_space_group_name_H-M   'P 1'
_cell_length_a   9.45500000
_cell_length_b   13.26030000
_cell_length_c   15.24130000
_cell_angle_alpha   105.04300000
_cell_angle_beta   96.23700000
_cell_angle_gamma   99.16400000
_symmetry_Int_Tables_number   1
_chemical_formula_structural   Gd2H29(C25O7)2
_chemical_formula_sum   'Gd4 H58 C100 O28'
_cell_volume   1799.17523270
_cell_formula_units_Z   2
loop_
 _symmetry_equiv_pos_site_id
 _symmetry_equiv_pos_as_xyz
  1  'x, y, z'
loop_
 _atom_site_type_symbol
 _atom_site_label
 _atom_site_symmetry_multiplicity
 _atom_site_fract_x
 _atom_site_fract_y
 _atom_site_fract_z
 _atom_site_occupancy
 _atom_site_charge
Gd  Gd1  1  0.42195000  0.83086000  0.95612000  1.0 1.2208934042
Gd  Gd2  1  0.38337000  0.83812000  0.95578000  1.0 1.1778521154
Gd  Gd3  1  0.57805000  0.16914000  0.04388000  1.0 1.2208934042
Gd  Gd4  1  0.61663000  0.16188000  0.04422000  1.0 1.1778521154
H  H1  1  0.14792000  0.89671000  0.69526000  1.0 0.0810761058
H  H2  1  0.98333000  0.00752000  0.92785000  1.0 0.0810761058
H  H3  1  0.02018000  0.99506000  0.62248000  1.0 0.0997893769
H  H4  1  0.83733000  0.09259000  0.85054000  1.0 0.0997893769
H  H5  1  0.82080000  0.02044000  0.55008000  1.0 0.0810761058
H  H6  1  0.83652000  0.24057000  0.79303000  1.0 0.0810761058
H  H7  1  0.61698000  0.26762000  0.55926000  1.0 0.0881328503
H  H8  1  0.63994000  0.23248000  0.41016000  1.0 0.0810761058
H  H9  1  0.61574000  0.93529000  0.43580000  1.0 0.1152923953
H  H10  1  0.65512000  0.32922000  0.85731000  1.0 0.0703016299
H  H11  1  0.67381000  0.43971000  0.63401000  1.0 0.0703016299
H  H12  1  0.56265000  0.16265000  0.25220000  1.0 0.0881328503
H  H13  1  0.54100000  0.86465000  0.27828000  1.0 0.1362317789
H  H14  1  0.57993000  0.48163000  0.93465000  1.0 0.0810761058
H  H15  1  0.59176000  0.58910000  0.71011000  1.0 0.0881328503
H  H16  1  0.64130000  0.93843000  0.43392000  1.0 0.1084587413
H  H17  1  0.59434000  0.23088000  0.41127000  1.0 0.0810761058
H  H18  1  0.50722000  0.15799000  0.25398000  1.0 0.0881328503
H  H19  1  0.78666000  0.02853000  0.55647000  1.0 0.1084587413
H  H20  1  0.01672000  0.02732000  0.62822000  1.0 0.0997893769
H  H21  1  0.15004000  0.93374000  0.70428000  1.0 0.0997893769
H  H22  1  0.98483000  0.05003000  0.93583000  1.0 0.0810761058
H  H23  1  0.83748000  0.13090000  0.85568000  1.0 0.0703016299
H  H24  1  0.79290000  0.25665000  0.79342000  1.0 0.0881328503
H  H25  1  0.60082000  0.32752000  0.85139000  1.0 0.0997893769
H  H26  1  0.51249000  0.47475000  0.92767000  1.0 0.0594392884
H  H27  1  0.51450000  0.58511000  0.70347000  1.0 0.0703016299
H  H28  1  0.60490000  0.43943000  0.62714000  1.0 0.0881328503
H  H29  1  0.56707000  0.26434000  0.55488000  1.0 0.0594392884
H  H30  1  0.85208000  0.10329000  0.30474000  1.0 0.0810761058
H  H31  1  0.01667000  0.99248000  0.07215000  1.0 0.0810761058
H  H32  1  0.97982000  0.00494000  0.37752000  1.0 0.0997893769
H  H33  1  0.16267000  0.90741000  0.14946000  1.0 0.0997893769
H  H34  1  0.17920000  0.97956000  0.44992000  1.0 0.0810761058
H  H35  1  0.16348000  0.75943000  0.20697000  1.0 0.0810761058
H  H36  1  0.38302000  0.73238000  0.44074000  1.0 0.0881328503
H  H37  1  0.36006000  0.76752000  0.58984000  1.0 0.0810761058
H  H38  1  0.38426000  0.06471000  0.56420000  1.0 0.1152923953
H  H39  1  0.34488000  0.67078000  0.14269000  1.0 0.0703016299
H  H40  1  0.32619000  0.56029000  0.36599000  1.0 0.0703016299
H  H41  1  0.43735000  0.83735000  0.74780000  1.0 0.0881328503
H  H42  1  0.45900000  0.13535000  0.72172000  1.0 0.1362317789
H  H43  1  0.42007000  0.51837000  0.06535000  1.0 0.0810761058
H  H44  1  0.40824000  0.41090000  0.28989000  1.0 0.0881328503
H  H45  1  0.35870000  0.06157000  0.56608000  1.0 0.1084587413
H  H46  1  0.40566000  0.76912000  0.58873000  1.0 0.0810761058
H  H47  1  0.49278000  0.84201000  0.74602000  1.0 0.0881328503
H  H48  1  0.21334000  0.97147000  0.44353000  1.0 0.1084587413
H  H49  1  0.98328000  0.97268000  0.37178000  1.0 0.0997893769
H  H50  1  0.84996000  0.06626000  0.29572000  1.0 0.0997893769
H  H51  1  0.01517000  0.94997000  0.06417000  1.0 0.0810761058
H  H52  1  0.16252000  0.86910000  0.14432000  1.0 0.0703016299
H  H53  1  0.20710000  0.74335000  0.20658000  1.0 0.0881328503
H  H54  1  0.39918000  0.67248000  0.14861000  1.0 0.0997893769
H  H55  1  0.48751000  0.52525000  0.07233000  1.0 0.0594392884
H  H56  1  0.48550000  0.41489000  0.29653000  1.0 0.0703016299
H  H57  1  0.39510000  0.56057000  0.37286000  1.0 0.0881328503
H  H58  1  0.43293000  0.73566000  0.44512000  1.0 0.0594392884
C  C1  1  0.17550000  0.88810000  0.86820000  1.0 0.309425852
C  C2  1  0.08130000  0.94510000  0.82010000  1.0 0.0026934694
C  C3  1  0.08840000  0.93960000  0.72780000  1.0 -0.0580973199
C  C4  1  0.98870000  0.00330000  0.86520000  1.0 -0.0397917691
C  C5  1  0.00990000  0.99580000  0.68400000  1.0 -0.0917621502
C  C6  1  0.90400000  0.05540000  0.81990000  1.0 -0.0580973199
C  C7  1  0.91640000  0.05350000  0.72820000  1.0 0.041840317
C  C8  1  0.82910000  0.11480000  0.68120000  1.0 0.041840317
C  C9  1  0.79010000  0.08140000  0.58460000  1.0 -0.2308357543
C  C10  1  0.79960000  0.21230000  0.72930000  1.0 -0.1038496022
C  C11  1  0.70780000  0.13560000  0.53900000  1.0 0.0703016299
C  C12  1  0.71660000  0.26950000  0.68560000  1.0 0.0458195533
C  C13  1  0.65230000  0.09180000  0.43870000  1.0 0.0458195533
C  C14  1  0.67240000  0.22960000  0.59010000  1.0 -0.1155677077
C  C15  1  0.67380000  0.36730000  0.73670000  1.0 0.041840317
C  C16  1  0.62340000  0.15770000  0.38320000  1.0 -0.071509314
C  C17  1  0.60940000  0.98200000  0.39830000  1.0 -0.209225538
C  C18  1  0.64330000  0.38230000  0.82710000  1.0 -0.071509314
C  C19  1  0.65350000  0.44690000  0.69480000  1.0 -0.0793538794
C  C20  1  0.57100000  0.11610000  0.28960000  1.0 -0.209225538
C  C21  1  0.55790000  0.93950000  0.30500000  1.0 -0.2690575507
C  C22  1  0.59640000  0.47240000  0.87290000  1.0 -0.0580973199
C  C23  1  0.60450000  0.53600000  0.74010000  1.0 -0.052825138
C  C24  1  0.53080000  0.00530000  0.25020000  1.0 -0.0023548601
C  C25  1  0.57360000  0.54910000  0.82920000  1.0 0.0139832867
C  C26  1  0.48340000  0.95700000  0.14920000  1.0 0.2110708717
C  C27  1  0.51770000  0.64530000  0.87570000  1.0 0.2555960629
C  C28  1  0.61380000  0.09160000  0.43970000  1.0 0.0594392884
C  C29  1  0.58290000  0.15640000  0.38430000  1.0 -0.071509314
C  C30  1  0.53600000  0.11420000  0.29040000  1.0 -0.2308357543
C  C31  1  0.67100000  0.13940000  0.53950000  1.0 0.0594392884
C  C32  1  0.76100000  0.09350000  0.58760000  1.0 -0.1514473569
C  C33  1  0.81780000  0.14030000  0.68230000  1.0 0.0594392884
C  C34  1  0.91070000  0.08530000  0.73210000  1.0 0.0270834386
C  C35  1  0.00640000  0.02920000  0.68990000  1.0 -0.0917621502
C  C36  1  0.08790000  0.97530000  0.73540000  1.0 -0.052825138
C  C37  1  0.07870000  0.98220000  0.82790000  1.0 0.041840317
C  C38  1  0.16730000  0.92230000  0.87560000  1.0 0.2738666746
C  C39  1  0.98810000  0.04250000  0.87240000  1.0 -0.052825138
C  C40  1  0.90270000  0.09190000  0.82530000  1.0 -0.0793538794
C  C41  1  0.76500000  0.22850000  0.72870000  1.0 -0.0917621502
C  C42  1  0.67220000  0.27600000  0.68200000  1.0 -0.0023548601
C  C43  1  0.61720000  0.36870000  0.73140000  1.0 0.0139832867
C  C44  1  0.58500000  0.38010000  0.82130000  1.0 -0.0580973199
C  C45  1  0.53050000  0.46730000  0.86640000  1.0 -0.052825138
C  C46  1  0.50170000  0.54410000  0.82320000  1.0 0.0270834386
C  C47  1  0.44700000  0.63950000  0.87140000  1.0 0.2843639168
C  C48  1  0.53200000  0.53290000  0.73360000  1.0 -0.071509314
C  C49  1  0.58710000  0.44640000  0.68840000  1.0 -0.052825138
C  C50  1  0.62810000  0.23130000  0.58740000  1.0 -0.1354454246
C  C51  1  0.82450000  0.11190000  0.13180000  1.0 0.309425852
C  C52  1  0.91870000  0.05490000  0.17990000  1.0 0.0026934694
C  C53  1  0.91160000  0.06040000  0.27220000  1.0 -0.0580973199
C  C54  1  0.01130000  0.99670000  0.13480000  1.0 -0.0397917691
C  C55  1  0.99010000  0.00420000  0.31600000  1.0 -0.0917621502
C  C56  1  0.09600000  0.94460000  0.18010000  1.0 -0.0580973199
C  C57  1  0.08360000  0.94650000  0.27180000  1.0 0.041840317
C  C58  1  0.17090000  0.88520000  0.31880000  1.0 0.041840317
C  C59  1  0.20990000  0.91860000  0.41540000  1.0 -0.2308357543
C  C60  1  0.20040000  0.78770000  0.27070000  1.0 -0.1038496022
C  C61  1  0.29220000  0.86440000  0.46100000  1.0 0.0703016299
C  C62  1  0.28340000  0.73050000  0.31440000  1.0 0.0458195533
C  C63  1  0.34770000  0.90820000  0.56130000  1.0 0.0458195533
C  C64  1  0.32760000  0.77040000  0.40990000  1.0 -0.1155677077
C  C65  1  0.32620000  0.63270000  0.26330000  1.0 0.041840317
C  C66  1  0.37660000  0.84230000  0.61680000  1.0 -0.071509314
C  C67  1  0.39060000  0.01800000  0.60170000  1.0 -0.209225538
C  C68  1  0.35670000  0.61770000  0.17290000  1.0 -0.071509314
C  C69  1  0.34650000  0.55310000  0.30520000  1.0 -0.0793538794
C  C70  1  0.42900000  0.88390000  0.71040000  1.0 -0.209225538
C  C71  1  0.44210000  0.06050000  0.69500000  1.0 -0.2690575507
C  C72  1  0.40360000  0.52760000  0.12710000  1.0 -0.0580973199
C  C73  1  0.39550000  0.46400000  0.25990000  1.0 -0.052825138
C  C74  1  0.46920000  0.99470000  0.74980000  1.0 -0.0023548601
C  C75  1  0.42640000  0.45090000  0.17080000  1.0 0.0139832867
C  C76  1  0.51660000  0.04300000  0.85080000  1.0 0.2110708717
C  C77  1  0.48230000  0.35470000  0.12430000  1.0 0.2555960629
C  C78  1  0.38620000  0.90840000  0.56030000  1.0 0.0594392884
C  C79  1  0.41710000  0.84360000  0.61570000  1.0 -0.071509314
C  C80  1  0.46400000  0.88580000  0.70960000  1.0 -0.2308357543
C  C81  1  0.32900000  0.86060000  0.46050000  1.0 0.0594392884
C  C82  1  0.23900000  0.90650000  0.41240000  1.0 -0.1514473569
C  C83  1  0.18220000  0.85970000  0.31770000  1.0 0.0594392884
C  C84  1  0.08930000  0.91470000  0.26790000  1.0 0.0270834386
C  C85  1  0.99360000  0.97080000  0.31010000  1.0 -0.0917621502
C  C86  1  0.91210000  0.02470000  0.26460000  1.0 -0.052825138
C  C87  1  0.92130000  0.01780000  0.17210000  1.0 0.041840317
C  C88  1  0.83270000  0.07770000  0.12440000  1.0 0.2738666746
C  C89  1  0.01190000  0.95750000  0.12760000  1.0 -0.052825138
C  C90  1  0.09730000  0.90810000  0.17470000  1.0 -0.0793538794
C  C91  1  0.23500000  0.77150000  0.27130000  1.0 -0.0917621502
C  C92  1  0.32780000  0.72400000  0.31800000  1.0 -0.0023548601
C  C93  1  0.38280000  0.63130000  0.26860000  1.0 0.0139832867
C  C94  1  0.41500000  0.61990000  0.17870000  1.0 -0.0580973199
C  C95  1  0.46950000  0.53270000  0.13360000  1.0 -0.052825138
C  C96  1  0.49830000  0.45590000  0.17680000  1.0 0.0270834386
C  C97  1  0.55300000  0.36050000  0.12860000  1.0 0.2843639168
C  C98  1  0.46800000  0.46710000  0.26640000  1.0 -0.071509314
C  C99  1  0.41290000  0.55360000  0.31160000  1.0 -0.052825138
C  C100  1  0.37190000  0.76870000  0.41260000  1.0 -0.1354454246
O  O1  1  0.49480000  0.01480000  0.09429000  1.0 -0.6803385403
O  O2  1  0.43310000  0.85890000  0.11928000  1.0 -0.5763222959
O  O3  1  0.68430000  0.86970000  0.99360000  1.0 -0.0397917691
O  O4  1  0.21700000  0.70320000  0.97010000  1.0 -0.3093982177
O  O5  1  0.20910000  0.92110000  0.95660000  1.0 -0.2883605298
O  O6  1  0.23030000  0.81520000  0.82350000  1.0 -0.3093982177
O  O7  1  0.48990000  0.70910000  0.82920000  1.0 -0.1987861431
O  O8  1  0.50100000  0.66360000  0.95870000  1.0 -0.1987861431
O  O9  1  0.20400000  0.95530000  0.96320000  1.0 -0.3093982177
O  O10  1  0.20900000  0.84330000  0.82900000  1.0 -0.1514473569
O  O11  1  0.41820000  0.70340000  0.82590000  1.0 -0.2308357543
O  O12  1  0.42890000  0.65500000  0.95420000  1.0 -0.2361863937
O  O13  1  0.64560000  0.84740000  0.97790000  1.0 -0.4038939562
O  O14  1  0.16230000  0.73680000  0.97900000  1.0 -0.0167319649
O  O15  1  0.50520000  0.98520000  0.90571000  1.0 -0.6803385403
O  O16  1  0.56690000  0.14110000  0.88072000  1.0 -0.5742461469
O  O17  1  0.31570000  0.13030000  0.00640000  1.0 -0.0397917691
O  O18  1  0.78300000  0.29680000  0.02990000  1.0 -0.3093982177
O  O19  1  0.79090000  0.07890000  0.04340000  1.0 -0.2883605298
O  O20  1  0.76970000  0.18480000  0.17650000  1.0 -0.3093982177
O  O21  1  0.51010000  0.29090000  0.17080000  1.0 -0.1987861431
O  O22  1  0.49900000  0.33640000  0.04130000  1.0 -0.209225538
O  O23  1  0.79600000  0.04470000  0.03680000  1.0 -0.3093982177
O  O24  1  0.79100000  0.15670000  0.17100000  1.0 -0.1514473569
O  O25  1  0.58180000  0.29660000  0.17410000  1.0 -0.2308357543
O  O26  1  0.57110000  0.34500000  0.04580000  1.0 -0.2361863937
O  O27  1  0.35440000  0.15260000  0.02210000  1.0 -0.4038939562
O  O28  1  0.83770000  0.26320000  0.02100000  1.0 -0.0167319649
