# DDEC6 charges by PACMAN v1.1 (https://github.com/mtap-research/PACMAN-charge/)
data_TOYBER_FSR_pacman
_symmetry_space_group_name_H-M   'P 1'
_cell_length_a   17.53220000
_cell_length_b   17.53220000
_cell_length_c   28.24150000
_cell_angle_alpha   72.85930000
_cell_angle_beta   107.14100000
_cell_angle_gamma   148.17800000
_symmetry_Int_Tables_number   1
_chemical_formula_structural   GdH31C34N3O8
_chemical_formula_sum   'Gd4 H124 C136 N12 O32'
_cell_volume   4356.99473837
_cell_formula_units_Z   4
loop_
 _symmetry_equiv_pos_site_id
 _symmetry_equiv_pos_as_xyz
  1  'x, y, z'
loop_
 _atom_site_type_symbol
 _atom_site_label
 _atom_site_symmetry_multiplicity
 _atom_site_fract_x
 _atom_site_fract_y
 _atom_site_fract_z
 _atom_site_occupancy
 _atom_site_charge
Gd  Gd1  1  0.43275000  0.32973000  0.50364000  1.0 2.0195865937
Gd  Gd2  1  0.32973000  0.43275000  0.99636000  1.0 2.0195865937
Gd  Gd3  1  0.56725000  0.67027000  0.49636000  1.0 2.0195865937
Gd  Gd4  1  0.67027000  0.56725000  0.00364000  1.0 2.0195865937
H  H1  1  0.74105000  0.56029000  0.44860000  1.0 0.1195240675
H  H2  1  0.89294000  0.62972000  0.40707000  1.0 0.1110317009
H  H3  1  0.08385000  0.00381000  0.35147000  1.0 0.1110317009
H  H4  1  0.93286000  0.93516000  0.39275000  1.0 0.1110317009
H  H5  1  0.57700000  0.95432000  0.37893000  1.0 0.1299692072
H  H6  1  0.49227000  0.01239000  0.34015000  1.0 0.1110317009
H  H7  1  0.11721000  0.64293000  0.40600000  1.0 0.1110317009
H  H8  1  0.20288000  0.58564000  0.44446000  1.0 0.1195240675
H  H9  1  0.18083000  0.14077000  0.13122000  1.0 0.1195240675
H  H10  1  0.10546000  0.00098000  0.20691000  1.0 0.1195240675
H  H11  1  0.48188000  0.19072000  0.23494000  1.0 0.1195240675
H  H12  1  0.55474000  0.32756000  0.15835000  1.0 0.1299692072
H  H13  1  0.11450000  0.97642000  0.28859000  1.0 0.1110317009
H  H14  1  0.12109000  0.77653000  0.40184000  1.0 0.1110317009
H  H15  1  0.34820000  0.98280000  0.28292000  1.0 0.1195240675
H  H16  1  0.53546000  0.29160000  0.32657000  1.0 0.0993607536
H  H17  1  0.45867000  0.20105000  0.37744000  1.0 0.1195240675
H  H18  1  0.62100000  0.37074000  0.37685000  1.0 0.1195240675
H  H19  1  0.45255000  0.33723000  0.27365000  1.0 0.0697327007
H  H20  1  0.48688000  0.44396000  0.29110000  1.0 0.1110317009
H  H21  1  0.32675000  0.27307000  0.29302000  1.0 0.0426904674
H  H22  1  0.06097000  0.96453000  0.51859000  1.0 0.1110317009
H  H23  1  0.10782000  0.77758000  0.52750000  1.0 0.1299692072
H  H24  1  0.25417000  0.95007000  0.52946000  1.0 0.1474606626
H  H25  1  0.15700000  0.88132000  0.47787000  1.0 0.1299692072
H  H26  1  0.93570000  0.66638000  0.56117000  1.0 0.14165143
H  H27  1  0.86365000  0.69203000  0.53518000  1.0 0.1474606626
H  H28  1  0.97058000  0.76712000  0.58486000  1.0 0.14165143
H  H29  1  0.58601000  0.45491000  0.28464000  1.0 0.0890172462
H  H30  1  0.62030000  0.55122000  0.31170000  1.0 0.0697327007
H  H31  1  0.46088000  0.41074000  0.28610000  1.0 0.0993607536
H  H32  1  0.56029000  0.74105000  0.05140000  1.0 0.1195240675
H  H33  1  0.62972000  0.89294000  0.09293000  1.0 0.1110317009
H  H34  1  0.00381000  0.08385000  0.14853000  1.0 0.1110317009
H  H35  1  0.93516000  0.93286000  0.10725000  1.0 0.1110317009
H  H36  1  0.95432000  0.57700000  0.12107000  1.0 0.1299692072
H  H37  1  0.01239000  0.49227000  0.15985000  1.0 0.1110317009
H  H38  1  0.64293000  0.11721000  0.09400000  1.0 0.1110317009
H  H39  1  0.58564000  0.20288000  0.05554000  1.0 0.1195240675
H  H40  1  0.14077000  0.18083000  0.36878000  1.0 0.1195240675
H  H41  1  0.00098000  0.10546000  0.29309000  1.0 0.1195240675
H  H42  1  0.19072000  0.48188000  0.26506000  1.0 0.1195240675
H  H43  1  0.32756000  0.55474000  0.34165000  1.0 0.1299692072
H  H44  1  0.97642000  0.11450000  0.21141000  1.0 0.1110317009
H  H45  1  0.77653000  0.12109000  0.09816000  1.0 0.1110317009
H  H46  1  0.98280000  0.34820000  0.21708000  1.0 0.1195240675
H  H47  1  0.29160000  0.53546000  0.17343000  1.0 0.0993607536
H  H48  1  0.20105000  0.45867000  0.12255000  1.0 0.1195240675
H  H49  1  0.37074000  0.62100000  0.12315000  1.0 0.1195240675
H  H50  1  0.33723000  0.45255000  0.22635000  1.0 0.0697327007
H  H51  1  0.44396000  0.48688000  0.20890000  1.0 0.1110317009
H  H52  1  0.27307000  0.32675000  0.20698000  1.0 0.0426904674
H  H53  1  0.96453000  0.06097000  0.98141000  1.0 0.1110317009
H  H54  1  0.77758000  0.10782000  0.97250000  1.0 0.1299692072
H  H55  1  0.95007000  0.25417000  0.97054000  1.0 0.1474606626
H  H56  1  0.88132000  0.15700000  0.02213000  1.0 0.1299692072
H  H57  1  0.66638000  0.93570000  0.93883000  1.0 0.14165143
H  H58  1  0.69203000  0.86365000  0.96482000  1.0 0.1474606626
H  H59  1  0.76712000  0.97058000  0.91514000  1.0 0.14165143
H  H60  1  0.45491000  0.58601000  0.21536000  1.0 0.0890172462
H  H61  1  0.55122000  0.62030000  0.18830000  1.0 0.0697327007
H  H62  1  0.41074000  0.46088000  0.21390000  1.0 0.0993607536
H  H63  1  0.25895000  0.43971000  0.55140000  1.0 0.1195240675
H  H64  1  0.10706000  0.37028000  0.59293000  1.0 0.1110317009
H  H65  1  0.91615000  0.99619000  0.64853000  1.0 0.1110317009
H  H66  1  0.06714000  0.06484000  0.60725000  1.0 0.1110317009
H  H67  1  0.42300000  0.04568000  0.62107000  1.0 0.1299692072
H  H68  1  0.50773000  0.98761000  0.65985000  1.0 0.1110317009
H  H69  1  0.88279000  0.35707000  0.59400000  1.0 0.1110317009
H  H70  1  0.79712000  0.41436000  0.55554000  1.0 0.1195240675
H  H71  1  0.81917000  0.85923000  0.86878000  1.0 0.1195240675
H  H72  1  0.89454000  0.99902000  0.79309000  1.0 0.1195240675
H  H73  1  0.51812000  0.80928000  0.76506000  1.0 0.1195240675
H  H74  1  0.44526000  0.67244000  0.84165000  1.0 0.1299692072
H  H75  1  0.88550000  0.02358000  0.71141000  1.0 0.1110317009
H  H76  1  0.87891000  0.22347000  0.59816000  1.0 0.1110317009
H  H77  1  0.65180000  0.01720000  0.71708000  1.0 0.1195240675
H  H78  1  0.46454000  0.70840000  0.67343000  1.0 0.0993607536
H  H79  1  0.54133000  0.79895000  0.62255000  1.0 0.1195240675
H  H80  1  0.37900000  0.62926000  0.62315000  1.0 0.1195240675
H  H81  1  0.54745000  0.66277000  0.72635000  1.0 0.0697327007
H  H82  1  0.51312000  0.55604000  0.70890000  1.0 0.1110317009
H  H83  1  0.67325000  0.72693000  0.70698000  1.0 0.0426904674
H  H84  1  0.93903000  0.03547000  0.48141000  1.0 0.1110317009
H  H85  1  0.89218000  0.22242000  0.47250000  1.0 0.1299692072
H  H86  1  0.74583000  0.04993000  0.47054000  1.0 0.1474606626
H  H87  1  0.84300000  0.11868000  0.52213000  1.0 0.1299692072
H  H88  1  0.06430000  0.33362000  0.43883000  1.0 0.14165143
H  H89  1  0.13635000  0.30797000  0.46482000  1.0 0.1474606626
H  H90  1  0.02942000  0.23288000  0.41514000  1.0 0.14165143
H  H91  1  0.41399000  0.54509000  0.71536000  1.0 0.0890172462
H  H92  1  0.37970000  0.44878000  0.68830000  1.0 0.0697327007
H  H93  1  0.53912000  0.58926000  0.71390000  1.0 0.0993607536
H  H94  1  0.43971000  0.25895000  0.94860000  1.0 0.1195240675
H  H95  1  0.37028000  0.10706000  0.90707000  1.0 0.1110317009
H  H96  1  0.99619000  0.91615000  0.85147000  1.0 0.1110317009
H  H97  1  0.06484000  0.06714000  0.89275000  1.0 0.1110317009
H  H98  1  0.04568000  0.42300000  0.87893000  1.0 0.1299692072
H  H99  1  0.98761000  0.50773000  0.84015000  1.0 0.1110317009
H  H100  1  0.35707000  0.88279000  0.90600000  1.0 0.1110317009
H  H101  1  0.41436000  0.79712000  0.94446000  1.0 0.1195240675
H  H102  1  0.85923000  0.81917000  0.63122000  1.0 0.1195240675
H  H103  1  0.99902000  0.89454000  0.70691000  1.0 0.1195240675
H  H104  1  0.80928000  0.51812000  0.73494000  1.0 0.1195240675
H  H105  1  0.67244000  0.44526000  0.65835000  1.0 0.1299692072
H  H106  1  0.02358000  0.88550000  0.78859000  1.0 0.1110317009
H  H107  1  0.22347000  0.87891000  0.90184000  1.0 0.1110317009
H  H108  1  0.01720000  0.65180000  0.78292000  1.0 0.1195240675
H  H109  1  0.70840000  0.46454000  0.82657000  1.0 0.0993607536
H  H110  1  0.79895000  0.54133000  0.87744000  1.0 0.1195240675
H  H111  1  0.62926000  0.37900000  0.87685000  1.0 0.1195240675
H  H112  1  0.66277000  0.54745000  0.77365000  1.0 0.0697327007
H  H113  1  0.55604000  0.51312000  0.79110000  1.0 0.1110317009
H  H114  1  0.72693000  0.67325000  0.79302000  1.0 0.0426904674
H  H115  1  0.03547000  0.93903000  0.01859000  1.0 0.1110317009
H  H116  1  0.22242000  0.89218000  0.02750000  1.0 0.1299692072
H  H117  1  0.04993000  0.74583000  0.02946000  1.0 0.1474606626
H  H118  1  0.11868000  0.84300000  0.97787000  1.0 0.1299692072
H  H119  1  0.33362000  0.06430000  0.06117000  1.0 0.14165143
H  H120  1  0.30797000  0.13635000  0.03518000  1.0 0.1474606626
H  H121  1  0.23288000  0.02942000  0.08486000  1.0 0.14165143
H  H122  1  0.54509000  0.41399000  0.78464000  1.0 0.0890172462
H  H123  1  0.44878000  0.37970000  0.81170000  1.0 0.0697327007
H  H124  1  0.58926000  0.53912000  0.78610000  1.0 0.0993607536
C  C1  1  0.72371000  0.69769000  0.45000000  1.0 0.6146636762
C  C2  1  0.82018000  0.73962000  0.42412000  1.0 -0.0409217441
C  C3  1  0.81024000  0.65016000  0.42867000  1.0 -0.1005080496
C  C4  1  0.90135000  0.69205000  0.40412000  1.0 -0.170578325
C  C5  1  0.00530000  0.82490000  0.37510000  1.0 0.0697327007
C  C6  1  0.01438000  0.91362000  0.37120000  1.0 -0.1547189624
C  C7  1  0.92414000  0.87266000  0.39551000  1.0 -0.1005080496
C  C8  1  0.45730000  0.73170000  0.44343000  1.0 0.5524780162
C  C9  1  0.39934000  0.76506000  0.41605000  1.0 -0.0226676699
C  C10  1  0.48358000  0.89102000  0.38469000  1.0 -0.1005080496
C  C11  1  0.43311000  0.92569000  0.36163000  1.0 -0.1576193653
C  C12  1  0.29625000  0.83475000  0.36954000  1.0 0.0697327007
C  C13  1  0.21131000  0.70729000  0.40051000  1.0 -0.1547189624
C  C14  1  0.26233000  0.67307000  0.42343000  1.0 -0.1005080496
C  C15  1  0.42119000  0.33761000  0.08817000  1.0 0.6203207679
C  C16  1  0.37550000  0.24890000  0.13746000  1.0 -0.0409217441
C  C17  1  0.24215000  0.15085000  0.15227000  1.0 -0.1285682164
C  C18  1  0.19715000  0.06745000  0.19730000  1.0 -0.170578325
C  C19  1  0.28509000  0.07991000  0.22877000  1.0 0.0697327007
C  C20  1  0.41967000  0.17933000  0.21378000  1.0 -0.1758667968
C  C21  1  0.46375000  0.26185000  0.16837000  1.0 -0.1005080496
C  C22  1  0.23783000  0.99237000  0.27760000  1.0 0.0890172462
C  C23  1  0.14675000  0.94985000  0.30305000  1.0 -0.2202824831
C  C24  1  0.10256000  0.86944000  0.34918000  1.0 0.0890172462
C  C25  1  0.15102000  0.83158000  0.37042000  1.0 -0.2202824831
C  C26  1  0.24337000  0.87363000  0.34594000  1.0 0.0890172462
C  C27  1  0.28562000  0.95378000  0.29970000  1.0 -0.2202824831
C  C28  1  0.44960000  0.33820000  0.38580000  1.0 0.1299692072
C  C29  1  0.52570000  0.29530000  0.35790000  1.0 -0.170578325
C  C30  1  0.43060000  0.34740000  0.29730000  1.0 -0.1200928345
C  C31  1  0.11487000  0.97153000  0.50945000  1.0 0.3174205654
C  C32  1  0.15475000  0.86845000  0.51390000  1.0 -0.3245151035
C  C33  1  0.95100000  0.73680000  0.55370000  1.0 -0.3496373586
C  C34  1  0.54610000  0.45190000  0.30460000  1.0 -0.1005080496
C  C35  1  0.69769000  0.72371000  0.05000000  1.0 0.6146636762
C  C36  1  0.73962000  0.82018000  0.07588000  1.0 -0.0409217441
C  C37  1  0.65016000  0.81024000  0.07133000  1.0 -0.1005080496
C  C38  1  0.69205000  0.90135000  0.09588000  1.0 -0.170578325
C  C39  1  0.82490000  0.00530000  0.12490000  1.0 0.0697327007
C  C40  1  0.91362000  0.01438000  0.12880000  1.0 -0.1547189624
C  C41  1  0.87266000  0.92414000  0.10449000  1.0 -0.1005080496
C  C42  1  0.73170000  0.45730000  0.05657000  1.0 0.5524780162
C  C43  1  0.76506000  0.39934000  0.08395000  1.0 -0.0226676699
C  C44  1  0.89102000  0.48358000  0.11531000  1.0 -0.1005080496
C  C45  1  0.92569000  0.43311000  0.13837000  1.0 -0.1576193653
C  C46  1  0.83475000  0.29625000  0.13046000  1.0 0.0697327007
C  C47  1  0.70729000  0.21131000  0.09949000  1.0 -0.1547189624
C  C48  1  0.67307000  0.26233000  0.07657000  1.0 -0.1005080496
C  C49  1  0.33761000  0.42119000  0.41183000  1.0 0.6203207679
C  C50  1  0.24890000  0.37550000  0.36254000  1.0 -0.0409217441
C  C51  1  0.15085000  0.24215000  0.34773000  1.0 -0.1285682164
C  C52  1  0.06745000  0.19715000  0.30270000  1.0 -0.170578325
C  C53  1  0.07991000  0.28509000  0.27123000  1.0 0.0697327007
C  C54  1  0.17933000  0.41967000  0.28622000  1.0 -0.1758667968
C  C55  1  0.26185000  0.46375000  0.33163000  1.0 -0.1005080496
C  C56  1  0.99237000  0.23783000  0.22240000  1.0 0.0890172462
C  C57  1  0.94985000  0.14675000  0.19695000  1.0 -0.2202824831
C  C58  1  0.86944000  0.10256000  0.15082000  1.0 0.0890172462
C  C59  1  0.83158000  0.15102000  0.12958000  1.0 -0.2202824831
C  C60  1  0.87363000  0.24337000  0.15406000  1.0 0.0890172462
C  C61  1  0.95378000  0.28562000  0.20030000  1.0 -0.2202824831
C  C62  1  0.33820000  0.44960000  0.11420000  1.0 0.1299692072
C  C63  1  0.29530000  0.52570000  0.14210000  1.0 -0.170578325
C  C64  1  0.34740000  0.43060000  0.20270000  1.0 -0.1200928345
C  C65  1  0.97153000  0.11487000  0.99055000  1.0 0.3174205654
C  C66  1  0.86845000  0.15475000  0.98610000  1.0 -0.3245151035
C  C67  1  0.73680000  0.95100000  0.94630000  1.0 -0.3496373586
C  C68  1  0.45190000  0.54610000  0.19540000  1.0 -0.1005080496
C  C69  1  0.27629000  0.30231000  0.55000000  1.0 0.6146636762
C  C70  1  0.17982000  0.26038000  0.57588000  1.0 -0.0409217441
C  C71  1  0.18976000  0.34984000  0.57133000  1.0 -0.1005080496
C  C72  1  0.09865000  0.30795000  0.59588000  1.0 -0.170578325
C  C73  1  0.99470000  0.17510000  0.62490000  1.0 0.0697327007
C  C74  1  0.98562000  0.08638000  0.62880000  1.0 -0.1547189624
C  C75  1  0.07586000  0.12734000  0.60449000  1.0 -0.1005080496
C  C76  1  0.54270000  0.26830000  0.55657000  1.0 0.5524780162
C  C77  1  0.60066000  0.23494000  0.58395000  1.0 -0.0226676699
C  C78  1  0.51642000  0.10898000  0.61531000  1.0 -0.1005080496
C  C79  1  0.56689000  0.07431000  0.63837000  1.0 -0.1576193653
C  C80  1  0.70375000  0.16525000  0.63046000  1.0 0.0697327007
C  C81  1  0.78869000  0.29271000  0.59949000  1.0 -0.1547189624
C  C82  1  0.73767000  0.32693000  0.57657000  1.0 -0.1005080496
C  C83  1  0.57881000  0.66239000  0.91183000  1.0 0.6203207679
C  C84  1  0.62450000  0.75110000  0.86254000  1.0 -0.0409217441
C  C85  1  0.75785000  0.84915000  0.84773000  1.0 -0.1285682164
C  C86  1  0.80285000  0.93255000  0.80270000  1.0 -0.170578325
C  C87  1  0.71491000  0.92009000  0.77123000  1.0 0.0697327007
C  C88  1  0.58033000  0.82067000  0.78622000  1.0 -0.1758667968
C  C89  1  0.53625000  0.73815000  0.83163000  1.0 -0.1005080496
C  C90  1  0.76217000  0.00763000  0.72240000  1.0 0.0890172462
C  C91  1  0.85325000  0.05015000  0.69695000  1.0 -0.2202824831
C  C92  1  0.89744000  0.13056000  0.65082000  1.0 0.0890172462
C  C93  1  0.84898000  0.16842000  0.62958000  1.0 -0.2202824831
C  C94  1  0.75663000  0.12637000  0.65406000  1.0 0.0890172462
C  C95  1  0.71438000  0.04622000  0.70030000  1.0 -0.2202824831
C  C96  1  0.55040000  0.66180000  0.61420000  1.0 0.1299692072
C  C97  1  0.47430000  0.70470000  0.64210000  1.0 -0.170578325
C  C98  1  0.56940000  0.65260000  0.70270000  1.0 -0.1200928345
C  C99  1  0.88513000  0.02847000  0.49055000  1.0 0.3174205654
C  C100  1  0.84525000  0.13155000  0.48610000  1.0 -0.3245151035
C  C101  1  0.04900000  0.26320000  0.44630000  1.0 -0.3496373586
C  C102  1  0.45390000  0.54810000  0.69540000  1.0 -0.1005080496
C  C103  1  0.30231000  0.27629000  0.95000000  1.0 0.6146636762
C  C104  1  0.26038000  0.17982000  0.92412000  1.0 -0.0409217441
C  C105  1  0.34984000  0.18976000  0.92867000  1.0 -0.1005080496
C  C106  1  0.30795000  0.09865000  0.90412000  1.0 -0.170578325
C  C107  1  0.17510000  0.99470000  0.87510000  1.0 0.0697327007
C  C108  1  0.08638000  0.98562000  0.87120000  1.0 -0.1547189624
C  C109  1  0.12734000  0.07586000  0.89551000  1.0 -0.1005080496
C  C110  1  0.26830000  0.54270000  0.94343000  1.0 0.5524780162
C  C111  1  0.23494000  0.60066000  0.91605000  1.0 -0.0226676699
C  C112  1  0.10898000  0.51642000  0.88469000  1.0 -0.1005080496
C  C113  1  0.07431000  0.56689000  0.86163000  1.0 -0.1576193653
C  C114  1  0.16525000  0.70375000  0.86954000  1.0 0.0697327007
C  C115  1  0.29271000  0.78869000  0.90051000  1.0 -0.1576193653
C  C116  1  0.32693000  0.73767000  0.92343000  1.0 -0.1005080496
C  C117  1  0.66239000  0.57881000  0.58817000  1.0 0.6203207679
C  C118  1  0.75110000  0.62450000  0.63746000  1.0 -0.0409217441
C  C119  1  0.84915000  0.75785000  0.65227000  1.0 -0.1285682164
C  C120  1  0.93255000  0.80285000  0.69730000  1.0 -0.170578325
C  C121  1  0.92009000  0.71491000  0.72877000  1.0 0.0697327007
C  C122  1  0.82067000  0.58033000  0.71378000  1.0 -0.1758667968
C  C123  1  0.73815000  0.53625000  0.66837000  1.0 -0.1005080496
C  C124  1  0.00763000  0.76217000  0.77760000  1.0 0.0890172462
C  C125  1  0.05015000  0.85325000  0.80305000  1.0 -0.2202824831
C  C126  1  0.13056000  0.89744000  0.84918000  1.0 0.0890172462
C  C127  1  0.16842000  0.84898000  0.87042000  1.0 -0.2202824831
C  C128  1  0.12637000  0.75663000  0.84594000  1.0 0.0890172462
C  C129  1  0.04622000  0.71438000  0.79970000  1.0 -0.2202824831
C  C130  1  0.66180000  0.55040000  0.88580000  1.0 0.1299692072
C  C131  1  0.70470000  0.47430000  0.85790000  1.0 -0.170578325
C  C132  1  0.65260000  0.56940000  0.79730000  1.0 -0.1200928345
C  C133  1  0.02847000  0.88513000  0.00945000  1.0 0.3174205654
C  C134  1  0.13155000  0.84525000  0.01390000  1.0 -0.3245151035
C  C135  1  0.26320000  0.04900000  0.05370000  1.0 -0.3496373586
C  C136  1  0.54810000  0.45390000  0.80460000  1.0 -0.1005080496
N  N1  1  0.46850000  0.32950000  0.34730000  1.0 -0.0086188531
N  N2  1  0.07391000  0.86289000  0.52393000  1.0 0.0426904674
N  N3  1  0.50560000  0.36440000  0.35040000  1.0 0.0204320865
N  N4  1  0.32950000  0.46850000  0.15270000  1.0 -0.0086188531
N  N5  1  0.86289000  0.07391000  0.97607000  1.0 0.0426904674
N  N6  1  0.36440000  0.50560000  0.14960000  1.0 0.0204320865
N  N7  1  0.53150000  0.67050000  0.65270000  1.0 -0.0086188531
N  N8  1  0.92609000  0.13711000  0.47607000  1.0 0.0426904674
N  N9  1  0.49440000  0.63560000  0.64960000  1.0 0.0204320865
N  N10  1  0.67050000  0.53150000  0.84730000  1.0 -0.0086188531
N  N11  1  0.13711000  0.92609000  0.02393000  1.0 0.0426904674
N  N12  1  0.63560000  0.49440000  0.85040000  1.0 0.0204320865
O  O1  1  0.62136000  0.57204000  0.47230000  1.0 -0.7182164036
O  O2  1  0.74718000  0.78842000  0.44920000  1.0 -0.6292663408
O  O3  1  0.38588000  0.62652000  0.47632000  1.0 -0.6124927841
O  O4  1  0.57751000  0.81149000  0.43354000  1.0 -0.6034751527
O  O5  1  0.54356000  0.42664000  0.07663000  1.0 -0.6292663408
O  O6  1  0.33110000  0.31450000  0.06241000  1.0 -0.6640820794
O  O7  1  0.46227000  0.31393000  0.42888000  1.0 -0.4786569767
O  O8  1  0.21914000  0.08306000  0.48459000  1.0 -0.5288622074
O  O9  1  0.57204000  0.62136000  0.02770000  1.0 -0.7182164036
O  O10  1  0.78842000  0.74718000  0.05080000  1.0 -0.6292663408
O  O11  1  0.62652000  0.38588000  0.02368000  1.0 -0.6124927841
O  O12  1  0.81149000  0.57751000  0.06646000  1.0 -0.6034751527
O  O13  1  0.42664000  0.54356000  0.42337000  1.0 -0.6292663408
O  O14  1  0.31450000  0.33110000  0.43759000  1.0 -0.6640820794
O  O15  1  0.31393000  0.46227000  0.07112000  1.0 -0.4786569767
O  O16  1  0.08306000  0.21914000  0.01541000  1.0 -0.5288622074
O  O17  1  0.37864000  0.42796000  0.52770000  1.0 -0.7182164036
O  O18  1  0.25282000  0.21158000  0.55080000  1.0 -0.6247523122
O  O19  1  0.61412000  0.37348000  0.52368000  1.0 -0.6124927841
O  O20  1  0.42249000  0.18851000  0.56646000  1.0 -0.6034751527
O  O21  1  0.45644000  0.57336000  0.92337000  1.0 -0.6292663408
O  O22  1  0.66890000  0.68550000  0.93759000  1.0 -0.6640820794
O  O23  1  0.53773000  0.68607000  0.57112000  1.0 -0.4786569767
O  O24  1  0.78086000  0.91694000  0.51541000  1.0 -0.5288622074
O  O25  1  0.42796000  0.37864000  0.97230000  1.0 -0.7182164036
O  O26  1  0.21158000  0.25282000  0.94920000  1.0 -0.6247523122
O  O27  1  0.37348000  0.61412000  0.97632000  1.0 -0.6124927841
O  O28  1  0.18851000  0.42249000  0.93354000  1.0 -0.6034751527
O  O29  1  0.57336000  0.45644000  0.57663000  1.0 -0.6292663408
O  O30  1  0.68550000  0.66890000  0.56241000  1.0 -0.6640820794
O  O31  1  0.68607000  0.53773000  0.92888000  1.0 -0.4786569767
O  O32  1  0.91694000  0.78086000  0.98459000  1.0 -0.5288622074
