# DDEC6 charges by PACMAN v1.1 (https://github.com/mtap-research/PACMAN-charge/)
data_TOYBUH_FSR_pacman
_symmetry_space_group_name_H-M   'P 1'
_cell_length_a   17.53820000
_cell_length_b   17.53820000
_cell_length_c   28.52260000
_cell_angle_alpha   72.12370000
_cell_angle_beta   107.87600000
_cell_angle_gamma   147.98000000
_symmetry_Int_Tables_number   1
_chemical_formula_structural   GdH36C36(NO3)3
_chemical_formula_sum   'Gd4 H144 C144 N12 O36'
_cell_volume   4408.12394646
_cell_formula_units_Z   4
loop_
 _symmetry_equiv_pos_site_id
 _symmetry_equiv_pos_as_xyz
  1  'x, y, z'
loop_
 _atom_site_type_symbol
 _atom_site_label
 _atom_site_symmetry_multiplicity
 _atom_site_fract_x
 _atom_site_fract_y
 _atom_site_fract_z
 _atom_site_occupancy
 _atom_site_charge
Gd  Gd1  1  0.17116000  0.06816000  0.50512000  1.0 1.9334663358
Gd  Gd2  1  0.06816000  0.17116000  0.99488000  1.0 1.9334663358
Gd  Gd3  1  0.82884000  0.93184000  0.49488000  1.0 1.9350976752
Gd  Gd4  1  0.93184000  0.82884000  0.00512000  1.0 1.9334663358
H  H1  1  0.14883000  0.08971000  0.38137000  1.0 0.1116040287
H  H2  1  0.53825000  0.44591000  0.52080000  1.0 0.0871657686
H  H3  1  0.14778000  0.89798000  0.34619000  1.0 0.130233814
H  H4  1  0.22345000  0.96137000  0.39896000  1.0 0.1529695945
H  H5  1  0.31445000  0.06067000  0.35173000  1.0 0.120142921
H  H6  1  0.07509000  0.97007000  0.28437000  1.0 0.140104934
H  H7  1  0.22721000  0.14159000  0.28491000  1.0 0.130233814
H  H8  1  0.09051000  0.06015000  0.30313000  1.0 0.130233814
H  H9  1  0.83935000  0.57581000  0.55622000  1.0 0.0997476799
H  H10  1  0.80963000  0.64503000  0.53184000  1.0 0.0997476799
H  H11  1  0.74177000  0.54073000  0.58207000  1.0 0.0871657686
H  H12  1  0.71942000  0.39652000  0.52286000  1.0 0.0604660992
H  H13  1  0.54980000  0.25320000  0.52858000  1.0 0.0778643514
H  H14  1  0.60805000  0.34303000  0.47567000  1.0 0.0604660992
H  H15  1  0.57026000  0.57392000  0.39118000  1.0 0.120142921
H  H16  1  0.94594000  0.76544000  0.44558000  1.0 0.120142921
H  H17  1  0.50201000  0.42456000  0.34993000  1.0 0.1116040287
H  H18  1  0.87589000  0.61485000  0.40407000  1.0 0.120142921
H  H19  1  0.52761000  0.39255000  0.28668000  1.0 0.1116040287
H  H20  1  0.72859000  0.38597000  0.40005000  1.0 0.120142921
H  H21  1  0.51592000  0.15320000  0.28445000  1.0 0.1116040287
H  H22  1  0.49772000  0.39562000  0.20496000  1.0 0.120142921
H  H23  1  0.30948000  0.02040000  0.23700000  1.0 0.120142921
H  H24  1  0.86912000  0.39474000  0.39900000  1.0 0.1116040287
H  H25  1  0.47919000  0.00473000  0.34718000  1.0 0.1116040287
H  H26  1  0.35779000  0.31869000  0.12927000  1.0 0.120142921
H  H27  1  0.17115000  0.94471000  0.16070000  1.0 0.130233814
H  H28  1  0.92624000  0.30790000  0.43894000  1.0 0.120142921
H  H29  1  0.53984000  0.92028000  0.38614000  1.0 0.130233814
H  H30  1  0.55332000  0.32978000  0.47467000  1.0 0.0778643514
H  H31  1  0.82659000  0.56081000  0.56264000  1.0 0.0997476799
H  H32  1  0.74007000  0.41979000  0.54597000  1.0 0.0684715359
H  H33  1  0.81069000  0.55081000  0.50569000  1.0 0.0997476799
H  H34  1  0.70836000  0.56346000  0.57042000  1.0 0.0778643514
H  H35  1  0.63505000  0.55373000  0.51741000  1.0 0.0778643514
H  H36  1  0.53617000  0.42389000  0.55989000  1.0 0.0778643514
H  H37  1  0.08971000  0.14883000  0.11863000  1.0 0.1116040287
H  H38  1  0.44591000  0.53825000  0.97920000  1.0 0.0871657686
H  H39  1  0.89798000  0.14778000  0.15381000  1.0 0.130233814
H  H40  1  0.96137000  0.22345000  0.10104000  1.0 0.1529695945
H  H41  1  0.06067000  0.31445000  0.14827000  1.0 0.120142921
H  H42  1  0.97007000  0.07509000  0.21563000  1.0 0.140104934
H  H43  1  0.14159000  0.22721000  0.21509000  1.0 0.130233814
H  H44  1  0.06015000  0.09051000  0.19687000  1.0 0.130233814
H  H45  1  0.57581000  0.83935000  0.94378000  1.0 0.0997476799
H  H46  1  0.64503000  0.80963000  0.96816000  1.0 0.0997476799
H  H47  1  0.54073000  0.74177000  0.91793000  1.0 0.0871657686
H  H48  1  0.39652000  0.71942000  0.97714000  1.0 0.0604660992
H  H49  1  0.25320000  0.54980000  0.97142000  1.0 0.0778643514
H  H50  1  0.34303000  0.60805000  0.02433000  1.0 0.0604660992
H  H51  1  0.57392000  0.57026000  0.10882000  1.0 0.120142921
H  H52  1  0.76544000  0.94594000  0.05442000  1.0 0.120142921
H  H53  1  0.42456000  0.50201000  0.15007000  1.0 0.1116040287
H  H54  1  0.61485000  0.87589000  0.09593000  1.0 0.120142921
H  H55  1  0.39255000  0.52761000  0.21332000  1.0 0.1116040287
H  H56  1  0.38597000  0.72859000  0.09995000  1.0 0.120142921
H  H57  1  0.15320000  0.51592000  0.21555000  1.0 0.1116040287
H  H58  1  0.39562000  0.49772000  0.29504000  1.0 0.120142921
H  H59  1  0.02040000  0.30948000  0.26300000  1.0 0.120142921
H  H60  1  0.39474000  0.86912000  0.10100000  1.0 0.1116040287
H  H61  1  0.00473000  0.47919000  0.15282000  1.0 0.1116040287
H  H62  1  0.31869000  0.35779000  0.37073000  1.0 0.120142921
H  H63  1  0.94471000  0.17115000  0.33930000  1.0 0.130233814
H  H64  1  0.30790000  0.92624000  0.06106000  1.0 0.120142921
H  H65  1  0.92028000  0.53984000  0.11386000  1.0 0.130233814
H  H66  1  0.32978000  0.55332000  0.02533000  1.0 0.0778643514
H  H67  1  0.56081000  0.82659000  0.93736000  1.0 0.0997476799
H  H68  1  0.41979000  0.74007000  0.95403000  1.0 0.0684715359
H  H69  1  0.55081000  0.81069000  0.99431000  1.0 0.0997476799
H  H70  1  0.56346000  0.70836000  0.92958000  1.0 0.0778643514
H  H71  1  0.55373000  0.63505000  0.98259000  1.0 0.0778643514
H  H72  1  0.42389000  0.53617000  0.94011000  1.0 0.0778643514
H  H73  1  0.85117000  0.91029000  0.61863000  1.0 0.1116040287
H  H74  1  0.46175000  0.55409000  0.47920000  1.0 0.0871657686
H  H75  1  0.85222000  0.10202000  0.65381000  1.0 0.130233814
H  H76  1  0.77655000  0.03863000  0.60104000  1.0 0.1529695945
H  H77  1  0.68555000  0.93933000  0.64827000  1.0 0.120142921
H  H78  1  0.92491000  0.02993000  0.71563000  1.0 0.140104934
H  H79  1  0.77279000  0.85841000  0.71509000  1.0 0.130233814
H  H80  1  0.90949000  0.93985000  0.69687000  1.0 0.130233814
H  H81  1  0.16065000  0.42419000  0.44378000  1.0 0.0997476799
H  H82  1  0.19037000  0.35497000  0.46816000  1.0 0.0997476799
H  H83  1  0.25823000  0.45927000  0.41793000  1.0 0.0871657686
H  H84  1  0.28058000  0.60348000  0.47714000  1.0 0.0604660992
H  H85  1  0.45020000  0.74680000  0.47142000  1.0 0.0778643514
H  H86  1  0.39195000  0.65697000  0.52433000  1.0 0.0604660992
H  H87  1  0.42974000  0.42608000  0.60882000  1.0 0.120142921
H  H88  1  0.05406000  0.23456000  0.55442000  1.0 0.120142921
H  H89  1  0.49799000  0.57545000  0.65007000  1.0 0.1116040287
H  H90  1  0.12411000  0.38515000  0.59593000  1.0 0.120142921
H  H91  1  0.47239000  0.60745000  0.71332000  1.0 0.1116040287
H  H92  1  0.27141000  0.61403000  0.59995000  1.0 0.120142921
H  H93  1  0.48408000  0.84680000  0.71555000  1.0 0.1116040287
H  H94  1  0.50228000  0.60438000  0.79504000  1.0 0.120142921
H  H95  1  0.69052000  0.97960000  0.76300000  1.0 0.120142921
H  H96  1  0.13088000  0.60526000  0.60100000  1.0 0.1116040287
H  H97  1  0.52081000  0.99527000  0.65282000  1.0 0.1116040287
H  H98  1  0.64221000  0.68131000  0.87073000  1.0 0.120142921
H  H99  1  0.82885000  0.05529000  0.83930000  1.0 0.130233814
H  H100  1  0.07376000  0.69210000  0.56106000  1.0 0.120142921
H  H101  1  0.46016000  0.07972000  0.61386000  1.0 0.130233814
H  H102  1  0.44668000  0.67022000  0.52533000  1.0 0.0778643514
H  H103  1  0.17341000  0.43919000  0.43736000  1.0 0.0997476799
H  H104  1  0.25993000  0.58021000  0.45403000  1.0 0.0684715359
H  H105  1  0.18931000  0.44919000  0.49431000  1.0 0.0997476799
H  H106  1  0.29164000  0.43654000  0.42958000  1.0 0.0778643514
H  H107  1  0.36495000  0.44627000  0.48259000  1.0 0.0778643514
H  H108  1  0.46383000  0.57611000  0.44011000  1.0 0.0778643514
H  H109  1  0.91029000  0.85117000  0.88137000  1.0 0.1116040287
H  H110  1  0.55409000  0.46175000  0.02080000  1.0 0.0871657686
H  H111  1  0.10202000  0.85222000  0.84619000  1.0 0.130233814
H  H112  1  0.03863000  0.77655000  0.89896000  1.0 0.1529695945
H  H113  1  0.93933000  0.68555000  0.85173000  1.0 0.120142921
H  H114  1  0.02993000  0.92491000  0.78437000  1.0 0.140104934
H  H115  1  0.85841000  0.77279000  0.78491000  1.0 0.130233814
H  H116  1  0.93985000  0.90949000  0.80313000  1.0 0.130233814
H  H117  1  0.42419000  0.16065000  0.05622000  1.0 0.0997476799
H  H118  1  0.35497000  0.19037000  0.03184000  1.0 0.0997476799
H  H119  1  0.45927000  0.25823000  0.08207000  1.0 0.0871657686
H  H120  1  0.60348000  0.28058000  0.02286000  1.0 0.0604660992
H  H121  1  0.74680000  0.45020000  0.02858000  1.0 0.0778643514
H  H122  1  0.65697000  0.39195000  0.97567000  1.0 0.0604660992
H  H123  1  0.42608000  0.42974000  0.89118000  1.0 0.120142921
H  H124  1  0.23456000  0.05406000  0.94558000  1.0 0.120142921
H  H125  1  0.57544000  0.49799000  0.84993000  1.0 0.1116040287
H  H126  1  0.38515000  0.12411000  0.90407000  1.0 0.120142921
H  H127  1  0.60745000  0.47239000  0.78668000  1.0 0.1116040287
H  H128  1  0.61403000  0.27141000  0.90005000  1.0 0.120142921
H  H129  1  0.84680000  0.48408000  0.78445000  1.0 0.1116040287
H  H130  1  0.60438000  0.50228000  0.70496000  1.0 0.120142921
H  H131  1  0.97960000  0.69052000  0.73700000  1.0 0.120142921
H  H132  1  0.60526000  0.13088000  0.89900000  1.0 0.1116040287
H  H133  1  0.99527000  0.52081000  0.84718000  1.0 0.1116040287
H  H134  1  0.68131000  0.64221000  0.62927000  1.0 0.120142921
H  H135  1  0.05529000  0.82885000  0.66070000  1.0 0.130233814
H  H136  1  0.69210000  0.07376000  0.93894000  1.0 0.120142921
H  H137  1  0.07972000  0.46016000  0.88614000  1.0 0.130233814
H  H138  1  0.67022000  0.44668000  0.97467000  1.0 0.0778643514
H  H139  1  0.43919000  0.17341000  0.06264000  1.0 0.0997476799
H  H140  1  0.58021000  0.25993000  0.04597000  1.0 0.0684715359
H  H141  1  0.44919000  0.18931000  0.00569000  1.0 0.0997476799
H  H142  1  0.43654000  0.29164000  0.07042000  1.0 0.0684715359
H  H143  1  0.44627000  0.36495000  0.01741000  1.0 0.0778643514
H  H144  1  0.57611000  0.46383000  0.05989000  1.0 0.0778643514
C  C1  1  0.17490000  0.05650000  0.38990000  1.0 0.3005788134
C  C2  1  0.52890000  0.39250000  0.50940000  1.0 0.2029173853
C  C3  1  0.80738000  0.78042000  0.44886000  1.0 0.5772508191
C  C4  1  0.76562000  0.68578000  0.42232000  1.0 -0.0332523118
C  C5  1  0.21940000  0.98440000  0.36320000  1.0 -0.333216895
C  C6  1  0.13930000  0.05270000  0.30210000  1.0 -0.3458994372
C  C7  1  0.76810000  0.55930000  0.55030000  1.0 -0.0986084092
C  C8  1  0.62830000  0.35010000  0.51140000  1.0 -0.0986084092
C  C9  1  0.63275000  0.58265000  0.39380000  1.0 -0.1308310442
C  C10  1  0.85568000  0.69632000  0.42610000  1.0 -0.1359490795
C  C11  1  0.59218000  0.49342000  0.36950000  1.0 -0.1586457311
C  C12  1  0.81345000  0.60615000  0.40150000  1.0 -0.1696407856
C  C13  1  0.67997000  0.50203000  0.37287000  1.0 0.0604660992
C  C14  1  0.63560000  0.40520000  0.34738000  1.0 0.0997476799
C  C15  1  0.55344000  0.35936000  0.30172000  1.0 -0.2128505154
C  C16  1  0.67247000  0.35533000  0.36899000  1.0 -0.2128505154
C  C17  1  0.50813000  0.26547000  0.27758000  1.0 0.0778643514
C  C18  1  0.62858000  0.26142000  0.34591000  1.0 0.0871657686
C  C19  1  0.54642000  0.21738000  0.30035000  1.0 -0.2162441393
C  C20  1  0.41900000  0.21660000  0.22878000  1.0 0.0684715359
C  C21  1  0.66752000  0.20788000  0.36990000  1.0 0.0604660992
C  C22  1  0.43134000  0.30366000  0.19625000  1.0 -0.1586457311
C  C23  1  0.32017000  0.08183000  0.21509000  1.0 -0.1696407856
C  C24  1  0.80089000  0.29751000  0.39680000  1.0 -0.1462356602
C  C25  1  0.57010000  0.06670000  0.36590000  1.0 -0.1586457311
C  C26  1  0.34772000  0.25768000  0.15113000  1.0 -0.1308310442
C  C27  1  0.23687000  0.03613000  0.16971000  1.0 -0.0986084092
C  C28  1  0.83514000  0.24586000  0.42040000  1.0 -0.1203597976
C  C29  1  0.60605000  0.01615000  0.38940000  1.0 -0.0986084092
C  C30  1  0.24957000  0.12363000  0.13762000  1.0 -0.0332523118
C  C31  1  0.73785000  0.10495000  0.41740000  1.0 -0.0131122816
C  C32  1  0.16014000  0.07626000  0.08834000  1.0 0.5975933479
C  C33  1  0.77210000  0.04730000  0.44444000  1.0 0.5401795911
C  C34  1  0.52810000  0.33990000  0.49460000  1.0 0.2157323466
C  C35  1  0.76240000  0.49560000  0.53630000  1.0 -0.0835859223
C  C36  1  0.62730000  0.49870000  0.54540000  1.0 -0.1308310442
C  C37  1  0.05650000  0.17490000  0.11010000  1.0 0.3005788134
C  C38  1  0.39250000  0.52890000  0.99060000  1.0 0.2029173853
C  C39  1  0.78042000  0.80738000  0.05114000  1.0 0.5772508191
C  C40  1  0.68578000  0.76562000  0.07768000  1.0 -0.0332523118
C  C41  1  0.98440000  0.21940000  0.13680000  1.0 -0.333216895
C  C42  1  0.05270000  0.13930000  0.19790000  1.0 -0.3458994372
C  C43  1  0.55930000  0.76810000  0.94970000  1.0 -0.0986084092
C  C44  1  0.35010000  0.62830000  0.98860000  1.0 -0.0986084092
C  C45  1  0.58265000  0.63275000  0.10620000  1.0 -0.1308310442
C  C46  1  0.69632000  0.85568000  0.07390000  1.0 -0.1359490795
C  C47  1  0.49342000  0.59218000  0.13050000  1.0 -0.1586457311
C  C48  1  0.60615000  0.81345000  0.09850000  1.0 -0.1696407856
C  C49  1  0.50203000  0.67997000  0.12713000  1.0 0.0604660992
C  C50  1  0.40520000  0.63560000  0.15262000  1.0 0.0997476799
C  C51  1  0.35936000  0.55344000  0.19828000  1.0 -0.2128505154
C  C52  1  0.35533000  0.67247000  0.13101000  1.0 -0.2128505154
C  C53  1  0.26547000  0.50813000  0.22242000  1.0 0.0778643514
C  C54  1  0.26142000  0.62858000  0.15409000  1.0 0.0871657686
C  C55  1  0.21738000  0.54642000  0.19965000  1.0 -0.2162441393
C  C56  1  0.21660000  0.41900000  0.27122000  1.0 0.0684715359
C  C57  1  0.20788000  0.66752000  0.13010000  1.0 0.0604660992
C  C58  1  0.30366000  0.43134000  0.30375000  1.0 -0.1586457311
C  C59  1  0.08183000  0.32017000  0.28491000  1.0 -0.1696407856
C  C60  1  0.29751000  0.80089000  0.10320000  1.0 -0.1462356602
C  C61  1  0.06670000  0.57010000  0.13410000  1.0 -0.1586457311
C  C62  1  0.25768000  0.34772000  0.34887000  1.0 -0.1308310442
C  C63  1  0.03613000  0.23687000  0.33029000  1.0 -0.0986084092
C  C64  1  0.24586000  0.83514000  0.07960000  1.0 -0.1203597976
C  C65  1  0.01615000  0.60605000  0.11060000  1.0 -0.0986084092
C  C66  1  0.12363000  0.24957000  0.36238000  1.0 -0.0332523118
C  C67  1  0.10495000  0.73785000  0.08260000  1.0 -0.0131122816
C  C68  1  0.07626000  0.16014000  0.41166000  1.0 0.5975933479
C  C69  1  0.04730000  0.77210000  0.05556000  1.0 0.5401795911
C  C70  1  0.33990000  0.52810000  0.00540000  1.0 0.2157323466
C  C71  1  0.49560000  0.76240000  0.96370000  1.0 -0.0835859223
C  C72  1  0.49870000  0.62730000  0.95460000  1.0 -0.1308310442
C  C73  1  0.82510000  0.94350000  0.61010000  1.0 0.3005788134
C  C74  1  0.47110000  0.60750000  0.49060000  1.0 0.2029173853
C  C75  1  0.19262000  0.21958000  0.55114000  1.0 0.5772508191
C  C76  1  0.23438000  0.31422000  0.57768000  1.0 -0.0332523118
C  C77  1  0.78060000  0.01560000  0.63680000  1.0 -0.333216895
C  C78  1  0.86070000  0.94730000  0.69790000  1.0 -0.3458994372
C  C79  1  0.23190000  0.44070000  0.44970000  1.0 -0.0986084092
C  C80  1  0.37170000  0.64990000  0.48860000  1.0 -0.0986084092
C  C81  1  0.36725000  0.41735000  0.60620000  1.0 -0.1308310442
C  C82  1  0.14432000  0.30368000  0.57390000  1.0 -0.1359490795
C  C83  1  0.40782000  0.50658000  0.63050000  1.0 -0.1586457311
C  C84  1  0.18655000  0.39385000  0.59850000  1.0 -0.1696407856
C  C85  1  0.32003000  0.49797000  0.62713000  1.0 0.0604660992
C  C86  1  0.36440000  0.59480000  0.65262000  1.0 0.0997476799
C  C87  1  0.44656000  0.64064000  0.69828000  1.0 -0.2128505154
C  C88  1  0.32753000  0.64467000  0.63101000  1.0 -0.2128505154
C  C89  1  0.49187000  0.73453000  0.72242000  1.0 0.0778643514
C  C90  1  0.37142000  0.73858000  0.65409000  1.0 0.0871657686
C  C91  1  0.45358000  0.78262000  0.69965000  1.0 -0.2162441393
C  C92  1  0.58100000  0.78340000  0.77122000  1.0 0.0684715359
C  C93  1  0.33248000  0.79212000  0.63010000  1.0 0.0604660992
C  C94  1  0.56866000  0.69634000  0.80375000  1.0 -0.1586457311
C  C95  1  0.67983000  0.91817000  0.78491000  1.0 -0.1696407856
C  C96  1  0.19911000  0.70249000  0.60320000  1.0 -0.1462356602
C  C97  1  0.42990000  0.93330000  0.63410000  1.0 -0.1586457311
C  C98  1  0.65228000  0.74232000  0.84887000  1.0 -0.1308310442
C  C99  1  0.76313000  0.96387000  0.83029000  1.0 -0.0986084092
C  C100  1  0.16486000  0.75414000  0.57960000  1.0 -0.1203597976
C  C101  1  0.39395000  0.98385000  0.61060000  1.0 -0.0986084092
C  C102  1  0.75043000  0.87637000  0.86238000  1.0 -0.0351152128
C  C103  1  0.26215000  0.89505000  0.58260000  1.0 -0.0131122816
C  C104  1  0.83986000  0.92374000  0.91166000  1.0 0.5975933479
C  C105  1  0.22790000  0.95270000  0.55556000  1.0 0.5401795911
C  C106  1  0.47190000  0.66010000  0.50540000  1.0 0.2157323466
C  C107  1  0.23760000  0.50440000  0.46370000  1.0 -0.0835859223
C  C108  1  0.37270000  0.50130000  0.45460000  1.0 -0.1308310442
C  C109  1  0.94350000  0.82510000  0.88990000  1.0 0.3005788134
C  C110  1  0.60750000  0.47110000  0.00940000  1.0 0.2029173853
C  C111  1  0.21958000  0.19262000  0.94886000  1.0 0.5772508191
C  C112  1  0.31422000  0.23438000  0.92232000  1.0 -0.0332523118
C  C113  1  0.01560000  0.78060000  0.86320000  1.0 -0.333216895
C  C114  1  0.94730000  0.86070000  0.80210000  1.0 -0.3458994372
C  C115  1  0.44070000  0.23190000  0.05030000  1.0 -0.0986084092
C  C116  1  0.64990000  0.37170000  0.01140000  1.0 -0.0986084092
C  C117  1  0.41735000  0.36725000  0.89380000  1.0 -0.1308310442
C  C118  1  0.30368000  0.14432000  0.92610000  1.0 -0.1308310442
C  C119  1  0.50658000  0.40782000  0.86950000  1.0 -0.1586457311
C  C120  1  0.39385000  0.18655000  0.90150000  1.0 -0.1696407856
C  C121  1  0.49797000  0.32003000  0.87287000  1.0 0.0604660992
C  C122  1  0.59480000  0.36440000  0.84738000  1.0 0.0997476799
C  C123  1  0.64064000  0.44656000  0.80172000  1.0 -0.2128505154
C  C124  1  0.64467000  0.32753000  0.86899000  1.0 -0.2128505154
C  C125  1  0.73453000  0.49187000  0.77758000  1.0 0.0778643514
C  C126  1  0.73858000  0.37142000  0.84591000  1.0 0.0871657686
C  C127  1  0.78262000  0.45358000  0.80035000  1.0 -0.2162441393
C  C128  1  0.78340000  0.58100000  0.72878000  1.0 0.0684715359
C  C129  1  0.79212000  0.33248000  0.86990000  1.0 0.0604660992
C  C130  1  0.69634000  0.56866000  0.69625000  1.0 -0.1586457311
C  C131  1  0.91817000  0.67983000  0.71509000  1.0 -0.1696407856
C  C132  1  0.70249000  0.19911000  0.89680000  1.0 -0.1462356602
C  C133  1  0.93330000  0.42990000  0.86590000  1.0 -0.1586457311
C  C134  1  0.74232000  0.65228000  0.65113000  1.0 -0.1308310442
C  C135  1  0.96387000  0.76313000  0.66971000  1.0 -0.0986084092
C  C136  1  0.75414000  0.16486000  0.92040000  1.0 -0.1203597976
C  C137  1  0.98385000  0.39395000  0.88940000  1.0 -0.0986084092
C  C138  1  0.87637000  0.75043000  0.63762000  1.0 -0.0332523118
C  C139  1  0.89505000  0.26215000  0.91740000  1.0 -0.0131122816
C  C140  1  0.92374000  0.83986000  0.58834000  1.0 0.5975933479
C  C141  1  0.95270000  0.22790000  0.94444000  1.0 0.5401795911
C  C142  1  0.66010000  0.47190000  0.99460000  1.0 0.2157323466
C  C143  1  0.50440000  0.23760000  0.03630000  1.0 -0.0835859223
C  C144  1  0.50130000  0.37270000  0.04540000  1.0 -0.1308310442
N  N1  1  0.17850000  0.03410000  0.35230000  1.0 0.0173925794
N  N2  1  0.63960000  0.43500000  0.52170000  1.0 -0.0494405093
N  N3  1  0.62930000  0.43070000  0.52840000  1.0 -0.0332523118
N  N4  1  0.03410000  0.17850000  0.14770000  1.0 0.0173925794
N  N5  1  0.43500000  0.63960000  0.97830000  1.0 -0.0494405093
N  N6  1  0.43070000  0.62930000  0.97160000  1.0 -0.0332523118
N  N7  1  0.82150000  0.96590000  0.64770000  1.0 0.0173925794
N  N8  1  0.36040000  0.56500000  0.47830000  1.0 -0.0494405093
N  N9  1  0.37070000  0.56930000  0.47160000  1.0 -0.0332523118
N  N10  1  0.96590000  0.82150000  0.85230000  1.0 0.0173925794
N  N11  1  0.56500000  0.36040000  0.02170000  1.0 -0.0494405093
N  N12  1  0.56930000  0.37070000  0.02840000  1.0 -0.0332523118
O  O1  1  0.11739000  0.87801000  0.52540000  1.0 -0.5991489409
O  O2  1  0.31422000  0.07718000  0.56292000  1.0 -0.5991489409
O  O3  1  0.19727000  0.04393000  0.43282000  1.0 -0.4710227443
O  O4  1  0.41820000  0.29520000  0.48550000  1.0 -0.4125670983
O  O5  1  0.04511000  0.92709000  0.57766000  1.0 -0.6267816914
O  O6  1  0.28339000  0.24301000  0.55203000  1.0 -0.6063986762
O  O7  1  0.16640000  0.18300000  0.43811000  1.0 -0.6655751659
O  O8  1  0.06771000  0.11949000  0.52832000  1.0 -0.7078406407
O  O9  1  0.40960000  0.26840000  0.48510000  1.0 -0.4255016638
O  O10  1  0.87801000  0.11739000  0.97460000  1.0 -0.5991489409
O  O11  1  0.07718000  0.31422000  0.93708000  1.0 -0.5991489409
O  O12  1  0.04393000  0.19727000  0.06718000  1.0 -0.4710227443
O  O13  1  0.29520000  0.41820000  0.01450000  1.0 -0.4125670983
O  O14  1  0.92709000  0.04511000  0.92234000  1.0 -0.6267816914
O  O15  1  0.24301000  0.28339000  0.94797000  1.0 -0.6063986762
O  O16  1  0.18300000  0.16640000  0.06189000  1.0 -0.6645159317
O  O17  1  0.11949000  0.06771000  0.97168000  1.0 -0.7078406407
O  O18  1  0.26840000  0.40960000  0.01490000  1.0 -0.4255016638
O  O19  1  0.88261000  0.12199000  0.47460000  1.0 -0.5991489409
O  O20  1  0.68578000  0.92282000  0.43708000  1.0 -0.5991489409
O  O21  1  0.80273000  0.95607000  0.56718000  1.0 -0.4710227443
O  O22  1  0.58180000  0.70480000  0.51450000  1.0 -0.4125670983
O  O23  1  0.95489000  0.07291000  0.42234000  1.0 -0.6267816914
O  O24  1  0.71661000  0.75699000  0.44797000  1.0 -0.6063986762
O  O25  1  0.83360000  0.81700000  0.56189000  1.0 -0.6655751659
O  O26  1  0.93229000  0.88051000  0.47168000  1.0 -0.7078406407
O  O27  1  0.59040000  0.73160000  0.51490000  1.0 -0.4255016638
O  O28  1  0.12199000  0.88261000  0.02540000  1.0 -0.5991489409
O  O29  1  0.92282000  0.68578000  0.06292000  1.0 -0.5991489409
O  O30  1  0.95607000  0.80273000  0.93282000  1.0 -0.4710227443
O  O31  1  0.70480000  0.58180000  0.98550000  1.0 -0.4125670983
O  O32  1  0.07291000  0.95489000  0.07766000  1.0 -0.6267816914
O  O33  1  0.75699000  0.71661000  0.05203000  1.0 -0.6063986762
O  O34  1  0.81700000  0.83360000  0.93811000  1.0 -0.6655751659
O  O35  1  0.88051000  0.93229000  0.02832000  1.0 -0.7078406407
O  O36  1  0.73160000  0.59040000  0.98510000  1.0 -0.4255016638
