# DDEC6 charges by PACMAN v1.1 (https://github.com/mtap-research/PACMAN-charge/)
data_TOYBIV_FSR_pacman
_symmetry_space_group_name_H-M   'P 1'
_cell_length_a   17.42860000
_cell_length_b   17.42860000
_cell_length_c   28.54430000
_cell_angle_alpha   72.35910000
_cell_angle_beta   107.64100000
_cell_angle_gamma   148.28900000
_symmetry_Int_Tables_number   1
_chemical_formula_structural   GdH26C31NO8
_chemical_formula_sum   'Gd4 H104 C124 N4 O32'
_cell_volume   4325.44907360
_cell_formula_units_Z   4
loop_
 _symmetry_equiv_pos_site_id
 _symmetry_equiv_pos_as_xyz
  1  'x, y, z'
loop_
 _atom_site_type_symbol
 _atom_site_label
 _atom_site_symmetry_multiplicity
 _atom_site_fract_x
 _atom_site_fract_y
 _atom_site_fract_z
 _atom_site_occupancy
 _atom_site_charge
Gd  Gd1  1  0.33042000  0.43218000  0.49528000  1.0 1.993579043
Gd  Gd2  1  0.43218000  0.33042000  0.00472000  1.0 1.993579043
Gd  Gd3  1  0.66958000  0.56782000  0.50472000  1.0 1.993579043
Gd  Gd4  1  0.56782000  0.66958000  0.99528000  1.0 1.993579043
H  H1  1  0.17726000  0.13592000  0.63035000  1.0 0.1188281026
H  H2  1  0.10499000  0.00105000  0.70631000  1.0 0.1116588867
H  H3  1  0.48714000  0.20144000  0.73663000  1.0 0.1116588867
H  H4  1  0.55785000  0.33439000  0.65981000  1.0 0.128722369
H  H5  1  0.73927000  0.55835000  0.94887000  1.0 0.1188281026
H  H6  1  0.89310000  0.62940000  0.90787000  1.0 0.1116588867
H  H7  1  0.05687000  0.98625000  0.84179000  1.0 0.1047911867
H  H8  1  0.91196000  0.92110000  0.88577000  1.0 0.1188281026
H  H9  1  0.58984000  0.97008000  0.88585000  1.0 0.128722369
H  H10  1  0.49960000  0.02354000  0.84699000  1.0 0.1116588867
H  H11  1  0.10766000  0.63292000  0.90205000  1.0 0.1116588867
H  H12  1  0.20327000  0.58519000  0.94430000  1.0 0.1188281026
H  H13  1  0.35469000  0.99143000  0.78429000  1.0 0.1116588867
H  H14  1  0.10519000  0.96955000  0.78437000  1.0 0.1116588867
H  H15  1  0.12643000  0.78445000  0.90096000  1.0 0.1116588867
H  H16  1  0.29063000  0.50755000  0.55273000  1.0 0.3497197125
H  H17  1  0.26936000  0.45280000  0.62588000  1.0 0.1047911867
H  H18  1  0.36959000  0.46011000  0.63131000  1.0 0.128722369
H  H19  1  0.19565000  0.30967000  0.62036000  1.0 0.1188281026
H  H20  1  0.96042000  0.04478000  0.47232000  1.0 0.0905826694
H  H21  1  0.63356000  0.92068000  0.43884000  1.0 0.128722369
H  H22  1  0.64313000  0.83369000  0.46556000  1.0 0.1417288314
H  H23  1  0.70497000  0.92297000  0.41280000  1.0 0.128722369
H  H24  1  0.78694000  0.12412000  0.47693000  1.0 0.1188281026
H  H25  1  0.96051000  0.26239000  0.47639000  1.0 0.128722369
H  H26  1  0.88314000  0.15246000  0.52528000  1.0 0.1188281026
H  H27  1  0.13592000  0.17726000  0.86965000  1.0 0.1188281026
H  H28  1  0.00105000  0.10499000  0.79369000  1.0 0.1116588867
H  H29  1  0.20144000  0.48714000  0.76337000  1.0 0.1116588867
H  H30  1  0.33439000  0.55785000  0.84019000  1.0 0.128722369
H  H31  1  0.55835000  0.73927000  0.55113000  1.0 0.1188281026
H  H32  1  0.62940000  0.89310000  0.59213000  1.0 0.1116588867
H  H33  1  0.98625000  0.05687000  0.65821000  1.0 0.1047911867
H  H34  1  0.92110000  0.91196000  0.61423000  1.0 0.1188281026
H  H35  1  0.97008000  0.58984000  0.61415000  1.0 0.128722369
H  H36  1  0.02354000  0.49960000  0.65301000  1.0 0.1116588867
H  H37  1  0.63292000  0.10766000  0.59795000  1.0 0.1116588867
H  H38  1  0.58519000  0.20327000  0.55570000  1.0 0.1188281026
H  H39  1  0.99143000  0.35469000  0.71571000  1.0 0.1116588867
H  H40  1  0.96955000  0.10519000  0.71563000  1.0 0.1116588867
H  H41  1  0.78445000  0.12643000  0.59904000  1.0 0.1116588867
H  H42  1  0.50755000  0.29063000  0.94727000  1.0 0.3497197125
H  H43  1  0.45280000  0.26936000  0.87412000  1.0 0.1047911867
H  H44  1  0.46011000  0.36959000  0.86869000  1.0 0.128722369
H  H45  1  0.30967000  0.19565000  0.87964000  1.0 0.1188281026
H  H46  1  0.04478000  0.96042000  0.02768000  1.0 0.0905826694
H  H47  1  0.92068000  0.63356000  0.06116000  1.0 0.128722369
H  H48  1  0.83369000  0.64313000  0.03444000  1.0 0.1417288314
H  H49  1  0.92297000  0.70497000  0.08720000  1.0 0.128722369
H  H50  1  0.12412000  0.78694000  0.02307000  1.0 0.1188281026
H  H51  1  0.26239000  0.96051000  0.02361000  1.0 0.128722369
H  H52  1  0.15246000  0.88314000  0.97472000  1.0 0.1188281026
H  H53  1  0.82274000  0.86408000  0.36965000  1.0 0.1188281026
H  H54  1  0.89501000  0.99895000  0.29369000  1.0 0.1116588867
H  H55  1  0.51286000  0.79856000  0.26337000  1.0 0.1116588867
H  H56  1  0.44215000  0.66561000  0.34019000  1.0 0.128722369
H  H57  1  0.26073000  0.44165000  0.05113000  1.0 0.1188281026
H  H58  1  0.10690000  0.37060000  0.09213000  1.0 0.1116588867
H  H59  1  0.94313000  0.01375000  0.15821000  1.0 0.1047911867
H  H60  1  0.08804000  0.07890000  0.11423000  1.0 0.1188281026
H  H61  1  0.41016000  0.02992000  0.11415000  1.0 0.128722369
H  H62  1  0.50040000  0.97646000  0.15301000  1.0 0.1116588867
H  H63  1  0.89234000  0.36708000  0.09795000  1.0 0.1116588867
H  H64  1  0.79673000  0.41481000  0.05570000  1.0 0.1188281026
H  H65  1  0.64531000  0.00857000  0.21571000  1.0 0.1116588867
H  H66  1  0.89481000  0.03045000  0.21563000  1.0 0.1116588867
H  H67  1  0.87357000  0.21555000  0.09904000  1.0 0.1116588867
H  H68  1  0.70937000  0.49245000  0.44727000  1.0 0.3497197125
H  H69  1  0.73064000  0.54720000  0.37412000  1.0 0.1047911867
H  H70  1  0.63041000  0.53989000  0.36869000  1.0 0.128722369
H  H71  1  0.80435000  0.69033000  0.37964000  1.0 0.1188281026
H  H72  1  0.03958000  0.95522000  0.52768000  1.0 0.0905826694
H  H73  1  0.36644000  0.07932000  0.56116000  1.0 0.128722369
H  H74  1  0.35687000  0.16631000  0.53444000  1.0 0.1417288314
H  H75  1  0.29503000  0.07703000  0.58720000  1.0 0.128722369
H  H76  1  0.21306000  0.87588000  0.52307000  1.0 0.1188281026
H  H77  1  0.03949000  0.73761000  0.52361000  1.0 0.128722369
H  H78  1  0.11686000  0.84754000  0.47472000  1.0 0.1188281026
H  H79  1  0.86408000  0.82274000  0.13035000  1.0 0.1188281026
H  H80  1  0.99895000  0.89501000  0.20631000  1.0 0.1116588867
H  H81  1  0.79856000  0.51286000  0.23663000  1.0 0.1116588867
H  H82  1  0.66561000  0.44215000  0.15981000  1.0 0.128722369
H  H83  1  0.44165000  0.26073000  0.44887000  1.0 0.1188281026
H  H84  1  0.37060000  0.10690000  0.40787000  1.0 0.1116588867
H  H85  1  0.01375000  0.94313000  0.34179000  1.0 0.1047911867
H  H86  1  0.07890000  0.08804000  0.38577000  1.0 0.1188281026
H  H87  1  0.02992000  0.41016000  0.38585000  1.0 0.128722369
H  H88  1  0.97646000  0.50040000  0.34699000  1.0 0.1116588867
H  H89  1  0.36708000  0.89234000  0.40205000  1.0 0.1116588867
H  H90  1  0.41481000  0.79673000  0.44430000  1.0 0.1188281026
H  H91  1  0.00857000  0.64531000  0.28429000  1.0 0.1116588867
H  H92  1  0.03045000  0.89481000  0.28437000  1.0 0.1116588867
H  H93  1  0.21555000  0.87357000  0.40096000  1.0 0.1116588867
H  H94  1  0.49245000  0.70937000  0.05273000  1.0 0.3497197125
H  H95  1  0.54720000  0.73064000  0.12588000  1.0 0.1047911867
H  H96  1  0.53989000  0.63041000  0.13131000  1.0 0.128722369
H  H97  1  0.69033000  0.80435000  0.12036000  1.0 0.1188281026
H  H98  1  0.95522000  0.03958000  0.97232000  1.0 0.0905826694
H  H99  1  0.07932000  0.36644000  0.93884000  1.0 0.128722369
H  H100  1  0.16631000  0.35687000  0.96556000  1.0 0.1417288314
H  H101  1  0.07703000  0.29503000  0.91280000  1.0 0.128722369
H  H102  1  0.87588000  0.21306000  0.97693000  1.0 0.1188281026
H  H103  1  0.73761000  0.03949000  0.97639000  1.0 0.128722369
H  H104  1  0.84754000  0.11686000  0.02528000  1.0 0.1188281026
C  C1  1  0.42420000  0.34220000  0.58820000  1.0 0.6217763554
C  C2  1  0.37690000  0.25170000  0.63830000  1.0 -0.0218708769
C  C3  1  0.24140000  0.15000000  0.65210000  1.0 -0.114404047
C  C4  1  0.19770000  0.06810000  0.69710000  1.0 -0.1485425767
C  C5  1  0.28350000  0.08130000  0.72840000  1.0 0.0801384039
C  C6  1  0.42220000  0.18600000  0.71460000  1.0 -0.1485425767
C  C7  1  0.46540000  0.26720000  0.66930000  1.0 -0.0966687105
C  C8  1  0.71910000  0.69710000  0.94790000  1.0 0.6119804512
C  C9  1  0.81070000  0.73390000  0.92040000  1.0 -0.0218708769
C  C10  1  0.80490000  0.64610000  0.92740000  1.0 -0.0966687105
C  C11  1  0.89590000  0.68810000  0.90280000  1.0 -0.1485425767
C  C12  1  0.98910000  0.81270000  0.87140000  1.0 0.0699193067
C  C13  1  0.99380000  0.90020000  0.86410000  1.0 -0.1485425767
C  C14  1  0.90600000  0.86000000  0.88970000  1.0 -0.0892378856
C  C15  1  0.45650000  0.73170000  0.94500000  1.0 0.5559306871
C  C16  1  0.39730000  0.76410000  0.91740000  1.0 -0.026244734
C  C17  1  0.49220000  0.90180000  0.88910000  1.0 -0.0966687105
C  C18  1  0.43750000  0.93270000  0.86640000  1.0 -0.1485425767
C  C19  1  0.29800000  0.83900000  0.87040000  1.0 0.0699193067
C  C20  1  0.20610000  0.70270000  0.89920000  1.0 -0.1601481904
C  C21  1  0.26250000  0.67310000  0.92320000  1.0 -0.0966687105
C  C22  1  0.24030000  0.87370000  0.84630000  1.0 0.0801384039
C  C23  1  0.28840000  0.95920000  0.79990000  1.0 -0.2119595017
C  C24  1  0.23760000  0.99520000  0.77750000  1.0 0.0905826694
C  C25  1  0.14020000  0.94560000  0.80000000  1.0 -0.2159126942
C  C26  1  0.08960000  0.85860000  0.84620000  1.0 0.0905826694
C  C27  1  0.14990000  0.83290000  0.86860000  1.0 -0.1971808393
C  C28  1  0.28150000  0.41650000  0.61400000  1.0 -0.1601481904
C  C29  1  0.96570000  0.09430000  0.48450000  1.0 0.3497197125
C  C30  1  0.69250000  0.92150000  0.44450000  1.0 -0.3896600475
C  C31  1  0.87220000  0.15980000  0.48910000  1.0 -0.3588312064
C  C32  1  0.34220000  0.42420000  0.91180000  1.0 0.6217763554
C  C33  1  0.25170000  0.37690000  0.86170000  1.0 -0.0218708769
C  C34  1  0.15000000  0.24140000  0.84790000  1.0 -0.114404047
C  C35  1  0.06810000  0.19770000  0.80290000  1.0 -0.1485425767
C  C36  1  0.08130000  0.28350000  0.77160000  1.0 0.0801384039
C  C37  1  0.18600000  0.42220000  0.78540000  1.0 -0.1485425767
C  C38  1  0.26720000  0.46540000  0.83070000  1.0 -0.0966687105
C  C39  1  0.69710000  0.71910000  0.55210000  1.0 0.6119804512
C  C40  1  0.73390000  0.81070000  0.57960000  1.0 -0.0218708769
C  C41  1  0.64610000  0.80490000  0.57260000  1.0 -0.0966687105
C  C42  1  0.68810000  0.89590000  0.59720000  1.0 -0.1485425767
C  C43  1  0.81270000  0.98910000  0.62860000  1.0 0.0699193067
C  C44  1  0.90020000  0.99380000  0.63590000  1.0 -0.1485425767
C  C45  1  0.86000000  0.90600000  0.61030000  1.0 -0.0892378856
C  C46  1  0.73170000  0.45650000  0.55500000  1.0 0.5559306871
C  C47  1  0.76410000  0.39730000  0.58260000  1.0 -0.026244734
C  C48  1  0.90180000  0.49220000  0.61090000  1.0 -0.0966687105
C  C49  1  0.93270000  0.43750000  0.63360000  1.0 -0.1485425767
C  C50  1  0.83900000  0.29800000  0.62960000  1.0 0.0699193067
C  C51  1  0.70270000  0.20610000  0.60080000  1.0 -0.1601481904
C  C52  1  0.67310000  0.26250000  0.57680000  1.0 -0.0966687105
C  C53  1  0.87370000  0.24030000  0.65370000  1.0 0.0801384039
C  C54  1  0.95920000  0.28840000  0.70010000  1.0 -0.2119595017
C  C55  1  0.99520000  0.23760000  0.72250000  1.0 0.0905826694
C  C56  1  0.94560000  0.14020000  0.70000000  1.0 -0.2159126942
C  C57  1  0.85860000  0.08960000  0.65380000  1.0 0.0905826694
C  C58  1  0.83290000  0.14990000  0.63140000  1.0 -0.1971808393
C  C59  1  0.41650000  0.28150000  0.88600000  1.0 -0.1601481904
C  C60  1  0.09430000  0.96570000  0.01550000  1.0 0.3497197125
C  C61  1  0.92150000  0.69250000  0.05550000  1.0 -0.3896600475
C  C62  1  0.15980000  0.87220000  0.01090000  1.0 -0.3588312064
C  C63  1  0.57580000  0.65780000  0.41180000  1.0 0.6217763554
C  C64  1  0.62310000  0.74830000  0.36170000  1.0 -0.0218708769
C  C65  1  0.75860000  0.85000000  0.34790000  1.0 -0.114404047
C  C66  1  0.80230000  0.93190000  0.30290000  1.0 -0.1485425767
C  C67  1  0.71650000  0.91870000  0.27160000  1.0 0.0801384039
C  C68  1  0.57780000  0.81400000  0.28540000  1.0 -0.1485425767
C  C69  1  0.53460000  0.73280000  0.33070000  1.0 -0.0966687105
C  C70  1  0.28090000  0.30290000  0.05210000  1.0 0.6119804512
C  C71  1  0.18930000  0.26610000  0.07960000  1.0 -0.0218708769
C  C72  1  0.19510000  0.35390000  0.07260000  1.0 -0.0966687105
C  C73  1  0.10410000  0.31190000  0.09720000  1.0 -0.1485425767
C  C74  1  0.01090000  0.18730000  0.12860000  1.0 0.0699193067
C  C75  1  0.00620000  0.09980000  0.13590000  1.0 -0.1485425767
C  C76  1  0.09400000  0.14000000  0.11030000  1.0 -0.0892378856
C  C77  1  0.54350000  0.26830000  0.05500000  1.0 0.5559306871
C  C78  1  0.60270000  0.23590000  0.08260000  1.0 -0.026244734
C  C79  1  0.50780000  0.09820000  0.11090000  1.0 -0.0966687105
C  C80  1  0.56250000  0.06730000  0.13360000  1.0 -0.1485425767
C  C81  1  0.70200000  0.16100000  0.12960000  1.0 0.0699193067
C  C82  1  0.79390000  0.29730000  0.10080000  1.0 -0.1601481904
C  C83  1  0.73750000  0.32690000  0.07680000  1.0 -0.0966687105
C  C84  1  0.75970000  0.12630000  0.15370000  1.0 0.0801384039
C  C85  1  0.71160000  0.04080000  0.20010000  1.0 -0.2119595017
C  C86  1  0.76240000  0.00480000  0.22250000  1.0 0.0905826694
C  C87  1  0.85980000  0.05440000  0.20000000  1.0 -0.2159126942
C  C88  1  0.91040000  0.14140000  0.15380000  1.0 0.0905826694
C  C89  1  0.85010000  0.16710000  0.13140000  1.0 -0.1971808393
C  C90  1  0.71850000  0.58350000  0.38600000  1.0 -0.1601481904
C  C91  1  0.03430000  0.90570000  0.51550000  1.0 0.3497197125
C  C92  1  0.30750000  0.07850000  0.55550000  1.0 -0.3896600475
C  C93  1  0.12780000  0.84020000  0.51090000  1.0 -0.3588312064
C  C94  1  0.65780000  0.57580000  0.08820000  1.0 0.6217763554
C  C95  1  0.74830000  0.62310000  0.13830000  1.0 -0.0218708769
C  C96  1  0.85000000  0.75860000  0.15210000  1.0 -0.114404047
C  C97  1  0.93190000  0.80230000  0.19710000  1.0 -0.1485425767
C  C98  1  0.91870000  0.71650000  0.22840000  1.0 0.0801384039
C  C99  1  0.81400000  0.57780000  0.21460000  1.0 -0.1485425767
C  C100  1  0.73280000  0.53460000  0.16930000  1.0 -0.0966687105
C  C101  1  0.30290000  0.28090000  0.44790000  1.0 0.6119804512
C  C102  1  0.26610000  0.18930000  0.42040000  1.0 -0.0218708769
C  C103  1  0.35390000  0.19510000  0.42740000  1.0 -0.0966687105
C  C104  1  0.31190000  0.10410000  0.40280000  1.0 -0.1485425767
C  C105  1  0.18730000  0.01090000  0.37140000  1.0 0.0699193067
C  C106  1  0.09980000  0.00620000  0.36410000  1.0 -0.1485425767
C  C107  1  0.14000000  0.09400000  0.38970000  1.0 -0.0892378856
C  C108  1  0.26830000  0.54350000  0.44500000  1.0 0.5559306871
C  C109  1  0.23590000  0.60270000  0.41740000  1.0 -0.026244734
C  C110  1  0.09820000  0.50780000  0.38910000  1.0 -0.0966687105
C  C111  1  0.06730000  0.56250000  0.36640000  1.0 -0.1485425767
C  C112  1  0.16100000  0.70200000  0.37040000  1.0 0.0699193067
C  C113  1  0.29730000  0.79390000  0.39920000  1.0 -0.1601481904
C  C114  1  0.32690000  0.73750000  0.42320000  1.0 -0.0966687105
C  C115  1  0.12630000  0.75970000  0.34630000  1.0 0.0801384039
C  C116  1  0.04080000  0.71160000  0.29990000  1.0 -0.2119595017
C  C117  1  0.00480000  0.76240000  0.27750000  1.0 0.0905826694
C  C118  1  0.05440000  0.85980000  0.30000000  1.0 -0.2159126942
C  C119  1  0.14140000  0.91040000  0.34620000  1.0 0.0905826694
C  C120  1  0.16710000  0.85010000  0.36860000  1.0 -0.1971808393
C  C121  1  0.58350000  0.71850000  0.11400000  1.0 -0.1601481904
C  C122  1  0.90570000  0.03430000  0.98450000  1.0 0.3497197125
C  C123  1  0.07850000  0.30750000  0.94450000  1.0 -0.3896600475
C  C124  1  0.84020000  0.12780000  0.98910000  1.0 -0.3588312064
N  N1  1  0.84980000  0.06420000  0.47100000  1.0 0.0585080199
N  N2  1  0.06420000  0.84980000  0.02900000  1.0 0.0585080199
N  N3  1  0.15020000  0.93580000  0.52900000  1.0 0.0585080199
N  N4  1  0.93580000  0.15020000  0.97100000  1.0 0.0585080199
O  O1  1  0.54310000  0.42590000  0.57670000  1.0 -0.5985649844
O  O2  1  0.33640000  0.32280000  0.56300000  1.0 -0.644351678
O  O3  1  0.74390000  0.78930000  0.94580000  1.0 -0.6069946159
O  O4  1  0.62300000  0.57440000  0.97410000  1.0 -0.7341627498
O  O5  1  0.38120000  0.62000000  0.97450000  1.0 -0.6213707869
O  O6  1  0.58400000  0.81900000  0.93720000  1.0 -0.6213707869
O  O7  1  0.29590000  0.45490000  0.56420000  1.0 -0.4503928367
O  O8  1  0.07390000  0.19750000  0.51470000  1.0 -0.5877253879
O  O9  1  0.42590000  0.54310000  0.92330000  1.0 -0.5985649844
O  O10  1  0.32280000  0.33640000  0.93700000  1.0 -0.644351678
O  O11  1  0.78930000  0.74390000  0.55420000  1.0 -0.6069946159
O  O12  1  0.57440000  0.62300000  0.52590000  1.0 -0.7341627498
O  O13  1  0.62000000  0.38120000  0.52550000  1.0 -0.6213707869
O  O14  1  0.81900000  0.58400000  0.56280000  1.0 -0.6213707869
O  O15  1  0.45490000  0.29590000  0.93580000  1.0 -0.4503928367
O  O16  1  0.19750000  0.07390000  0.98530000  1.0 -0.5877253879
O  O17  1  0.45690000  0.57410000  0.42330000  1.0 -0.5985649844
O  O18  1  0.66360000  0.67720000  0.43700000  1.0 -0.644351678
O  O19  1  0.25610000  0.21070000  0.05420000  1.0 -0.6069946159
O  O20  1  0.37700000  0.42560000  0.02590000  1.0 -0.7341627498
O  O21  1  0.61880000  0.38000000  0.02550000  1.0 -0.6213707869
O  O22  1  0.41600000  0.18100000  0.06280000  1.0 -0.6213707869
O  O23  1  0.70410000  0.54510000  0.43580000  1.0 -0.4503928367
O  O24  1  0.92610000  0.80250000  0.48530000  1.0 -0.5877253879
O  O25  1  0.57410000  0.45690000  0.07670000  1.0 -0.5985649844
O  O26  1  0.67720000  0.66360000  0.06300000  1.0 -0.644351678
O  O27  1  0.21070000  0.25610000  0.44580000  1.0 -0.6069946159
O  O28  1  0.42560000  0.37700000  0.47410000  1.0 -0.7341627498
O  O29  1  0.38000000  0.61880000  0.47450000  1.0 -0.6213707869
O  O30  1  0.18100000  0.41600000  0.43720000  1.0 -0.6213707869
O  O31  1  0.54510000  0.70410000  0.06420000  1.0 -0.4503928367
O  O32  1  0.80250000  0.92610000  0.01470000  1.0 -0.5877253879
