# DDEC6 charges by PACMAN v1.1 (https://github.com/mtap-research/PACMAN-charge/)
data_TOYCES_ASR_pacman
_symmetry_space_group_name_H-M   'P 1'
_cell_length_a   17.66770000
_cell_length_b   17.66770000
_cell_length_c   28.46900000
_cell_angle_alpha   71.13130000
_cell_angle_beta   108.86900000
_cell_angle_gamma   148.58600000
_symmetry_Int_Tables_number   1
_chemical_formula_structural   HoH19(C17O4)2
_chemical_formula_sum   'Ho4 H76 C136 O32'
_cell_volume   4362.62277602
_cell_formula_units_Z   4
loop_
 _symmetry_equiv_pos_site_id
 _symmetry_equiv_pos_as_xyz
  1  'x, y, z'
loop_
 _atom_site_type_symbol
 _atom_site_label
 _atom_site_symmetry_multiplicity
 _atom_site_fract_x
 _atom_site_fract_y
 _atom_site_fract_z
 _atom_site_occupancy
 _atom_site_charge
Ho  Ho1  1  0.33069000  0.43031000  0.99206000  1.0 1.8864266043
Ho  Ho2  1  0.43031000  0.33069000  0.50794000  1.0 1.8864266043
Ho  Ho3  1  0.66931000  0.56969000  0.00794000  1.0 1.8864266043
Ho  Ho4  1  0.56969000  0.66931000  0.49206000  1.0 1.8864266043
H  H1  1  0.17888000  0.14158000  0.12939000  1.0 0.1108913082
H  H2  1  0.10379000  0.00197000  0.20689000  1.0 0.1005644464
H  H3  1  0.48294000  0.19676000  0.23923000  1.0 0.1108913082
H  H4  1  0.55815000  0.33687000  0.16279000  1.0 0.1108913082
H  H5  1  0.73610000  0.55243000  0.44951000  1.0 0.1005644464
H  H6  1  0.89020000  0.62462000  0.40972000  1.0 0.1108913082
H  H7  1  0.06966000  0.99226000  0.34905000  1.0 0.1005644464
H  H8  1  0.92391000  0.92477000  0.39159000  1.0 0.1178354653
H  H9  1  0.55989000  0.93809000  0.37733000  1.0 0.1005644464
H  H10  1  0.48795000  0.01033000  0.34656000  1.0 0.1178354653
H  H11  1  0.09591000  0.61949000  0.40226000  1.0 0.0704247701
H  H12  1  0.19010000  0.56746000  0.44419000  1.0 0.0704247701
H  H13  1  0.34928000  0.98928000  0.28678000  1.0 0.1005644464
H  H14  1  0.10822000  0.97226000  0.28935000  1.0 0.1005644464
H  H15  1  0.12010000  0.77340000  0.40457000  1.0 0.1108913082
H  H16  1  0.59587000  0.97541000  0.37807000  1.0 0.1005644464
H  H17  1  0.50001000  0.02087000  0.33802000  1.0 0.1108913082
H  H18  1  0.17567000  0.69935000  0.43059000  1.0 0.0704247701
H  H19  1  0.26983000  0.64701000  0.46621000  1.0 0.0704247701
H  H20  1  0.14158000  0.17888000  0.37061000  1.0 0.1108913082
H  H21  1  0.00197000  0.10379000  0.29311000  1.0 0.1005644464
H  H22  1  0.19676000  0.48294000  0.26077000  1.0 0.1108913082
H  H23  1  0.33687000  0.55815000  0.33721000  1.0 0.1108913082
H  H24  1  0.55243000  0.73610000  0.05049000  1.0 0.1005644464
H  H25  1  0.62462000  0.89020000  0.09028000  1.0 0.1108913082
H  H26  1  0.99226000  0.06966000  0.15095000  1.0 0.1005644464
H  H27  1  0.92477000  0.92391000  0.10841000  1.0 0.1178354653
H  H28  1  0.93809000  0.55989000  0.12267000  1.0 0.1005644464
H  H29  1  0.01033000  0.48795000  0.15344000  1.0 0.1178354653
H  H30  1  0.61949000  0.09591000  0.09774000  1.0 0.0704247701
H  H31  1  0.56746000  0.19010000  0.05581000  1.0 0.0704247701
H  H32  1  0.98928000  0.34928000  0.21322000  1.0 0.1005644464
H  H33  1  0.97226000  0.10822000  0.21065000  1.0 0.1005644464
H  H34  1  0.77340000  0.12010000  0.09543000  1.0 0.1108913082
H  H35  1  0.97541000  0.59587000  0.12193000  1.0 0.1005644464
H  H36  1  0.02087000  0.50001000  0.16198000  1.0 0.1108913082
H  H37  1  0.69935000  0.17567000  0.06941000  1.0 0.0704247701
H  H38  1  0.64701000  0.26983000  0.03379000  1.0 0.0704247701
H  H39  1  0.82112000  0.85842000  0.87061000  1.0 0.1108913082
H  H40  1  0.89621000  0.99803000  0.79311000  1.0 0.1005644464
H  H41  1  0.51706000  0.80324000  0.76077000  1.0 0.1108913082
H  H42  1  0.44185000  0.66313000  0.83721000  1.0 0.1108913082
H  H43  1  0.26390000  0.44757000  0.55049000  1.0 0.1005644464
H  H44  1  0.10980000  0.37538000  0.59028000  1.0 0.1108913082
H  H45  1  0.93034000  0.00774000  0.65095000  1.0 0.1005644464
H  H46  1  0.07609000  0.07523000  0.60841000  1.0 0.1178354653
H  H47  1  0.44011000  0.06191000  0.62267000  1.0 0.1005644464
H  H48  1  0.51205000  0.98967000  0.65344000  1.0 0.1178354653
H  H49  1  0.90409000  0.38051000  0.59774000  1.0 0.0704247701
H  H50  1  0.80990000  0.43254000  0.55581000  1.0 0.0704247701
H  H51  1  0.65072000  0.01072000  0.71322000  1.0 0.1005644464
H  H52  1  0.89178000  0.02774000  0.71065000  1.0 0.1005644464
H  H53  1  0.87990000  0.22660000  0.59543000  1.0 0.1108913082
H  H54  1  0.40413000  0.02459000  0.62193000  1.0 0.1005644464
H  H55  1  0.49999000  0.97913000  0.66198000  1.0 0.1108913082
H  H56  1  0.82433000  0.30065000  0.56941000  1.0 0.0704247701
H  H57  1  0.73017000  0.35299000  0.53379000  1.0 0.0704247701
H  H58  1  0.85842000  0.82112000  0.62939000  1.0 0.1108913082
H  H59  1  0.99803000  0.89621000  0.70689000  1.0 0.1005644464
H  H60  1  0.80324000  0.51706000  0.73923000  1.0 0.1108913082
H  H61  1  0.66313000  0.44185000  0.66279000  1.0 0.1108913082
H  H62  1  0.44757000  0.26391000  0.94951000  1.0 0.1005644464
H  H63  1  0.37538000  0.10980000  0.90972000  1.0 0.1108913082
H  H64  1  0.00774000  0.93034000  0.84905000  1.0 0.1005644464
H  H65  1  0.07523000  0.07609000  0.89159000  1.0 0.1178354653
H  H66  1  0.06191000  0.44011000  0.87733000  1.0 0.1005644464
H  H67  1  0.98967000  0.51205000  0.84656000  1.0 0.1178354653
H  H68  1  0.38051000  0.90409000  0.90226000  1.0 0.0704247701
H  H69  1  0.43254000  0.80990000  0.94419000  1.0 0.0704247701
H  H70  1  0.01072000  0.65072000  0.78678000  1.0 0.1005644464
H  H71  1  0.02774000  0.89178000  0.78935000  1.0 0.1005644464
H  H72  1  0.22660000  0.87990000  0.90457000  1.0 0.1108913082
H  H73  1  0.02459000  0.40413000  0.87807000  1.0 0.1005644464
H  H74  1  0.97913000  0.49999000  0.83802000  1.0 0.1178354653
H  H75  1  0.30065000  0.82433000  0.93059000  1.0 0.0704247701
H  H76  1  0.35299000  0.73017000  0.96621000  1.0 0.0704247701
C  C1  1  0.24110000  0.15310000  0.15170000  1.0 -0.1017186786
C  C2  1  0.37490000  0.25170000  0.13880000  1.0 -0.021032923
C  C3  1  0.41910000  0.33810000  0.08910000  1.0 0.64562074
C  C4  1  0.19630000  0.06950000  0.19810000  1.0 -0.1707284833
C  C5  1  0.28440000  0.08340000  0.23120000  1.0 0.0757993977
C  C6  1  0.42020000  0.18480000  0.21710000  1.0 -0.1489507988
C  C7  1  0.46510000  0.26810000  0.17160000  1.0 -0.1017186786
C  C8  1  0.71900000  0.69060000  0.44890000  1.0 0.6257597571
C  C9  1  0.81230000  0.72950000  0.42320000  1.0 -0.0135090218
C  C10  1  0.80470000  0.64250000  0.42920000  1.0 -0.1017186786
C  C11  1  0.89750000  0.68630000  0.40550000  1.0 -0.1489507988
C  C12  1  0.00020000  0.81800000  0.37590000  1.0 0.0757993977
C  C13  1  0.00390000  0.90370000  0.37020000  1.0 -0.1707284833
C  C14  1  0.91480000  0.86220000  0.39450000  1.0 -0.1017186786
C  C15  1  0.44450000  0.71670000  0.44200000  1.0 0.3201879924
C  C16  1  0.38650000  0.75030000  0.41610000  1.0 0.0201105019
C  C17  1  0.46910000  0.87690000  0.38500000  1.0 -0.0761911134
C  C18  1  0.42430000  0.91770000  0.36470000  1.0 -0.1443359452
C  C19  1  0.28280000  0.82120000  0.37050000  1.0 0.0531764513
C  C20  1  0.19250000  0.68750000  0.39900000  1.0 -0.0282911221
C  C21  1  0.24870000  0.65550000  0.42310000  1.0 -0.0708804806
C  C22  1  0.24290000  0.87370000  0.34940000  1.0 0.0573832532
C  C23  1  0.28490000  0.95710000  0.30320000  1.0 -0.2335612076
C  C24  1  0.23720000  0.99400000  0.28080000  1.0 0.0757993977
C  C25  1  0.14145000  0.94655000  0.30460000  1.0 -0.1987346011
C  C26  1  0.09540000  0.86300000  0.34980000  1.0 0.0757993977
C  C27  1  0.14880000  0.82820000  0.37290000  1.0 -0.2528626407
C  C28  1  0.49190000  0.76210000  0.44760000  1.0 0.3311448534
C  C29  1  0.43780000  0.80020000  0.42380000  1.0 0.0040823547
C  C30  1  0.50710000  0.91490000  0.38740000  1.0 -0.056487329
C  C31  1  0.45170000  0.94430000  0.36400000  1.0 -0.1707284833
C  C32  1  0.32290000  0.86110000  0.37850000  1.0 0.0573832532
C  C33  1  0.25760000  0.75240000  0.41820000  1.0 -0.039759445
C  C34  1  0.31570000  0.72230000  0.43980000  1.0 -0.0708804806
C  C35  1  0.15310000  0.24110000  0.34830000  1.0 -0.1017186786
C  C36  1  0.25170000  0.37490000  0.36120000  1.0 -0.021032923
C  C37  1  0.33810000  0.41910000  0.41090000  1.0 0.64562074
C  C38  1  0.06950000  0.19630000  0.30190000  1.0 -0.1707284833
C  C39  1  0.08340000  0.28440000  0.26880000  1.0 0.0757993977
C  C40  1  0.18480000  0.42020000  0.28290000  1.0 -0.1489507988
C  C41  1  0.26810000  0.46510000  0.32840000  1.0 -0.1017186786
C  C42  1  0.69060000  0.71900000  0.05110000  1.0 0.6257597571
C  C43  1  0.72950000  0.81230000  0.07680000  1.0 -0.0135090218
C  C44  1  0.64250000  0.80470000  0.07080000  1.0 -0.1017186786
C  C45  1  0.68630000  0.89750000  0.09450000  1.0 -0.1489507988
C  C46  1  0.81800000  0.00020000  0.12410000  1.0 0.0704247701
C  C47  1  0.90370000  0.00390000  0.12980000  1.0 -0.1647869582
C  C48  1  0.86220000  0.91480000  0.10550000  1.0 -0.1017186786
C  C49  1  0.71670000  0.44450000  0.05800000  1.0 0.3201879924
C  C50  1  0.75030000  0.38650000  0.08390000  1.0 0.0201105019
C  C51  1  0.87690000  0.46910000  0.11500000  1.0 -0.0761911134
C  C52  1  0.91770000  0.42430000  0.13530000  1.0 -0.1443359452
C  C53  1  0.82120000  0.28280000  0.12950000  1.0 0.0531764513
C  C54  1  0.68750000  0.19250000  0.10100000  1.0 -0.0282911221
C  C55  1  0.65550000  0.24870000  0.07690000  1.0 -0.0708804806
C  C56  1  0.87370000  0.24290000  0.15060000  1.0 0.0573832532
C  C57  1  0.95710000  0.28490000  0.19680000  1.0 -0.2335612076
C  C58  1  0.99400000  0.23720000  0.21920000  1.0 0.0757993977
C  C59  1  0.94655000  0.14145000  0.19540000  1.0 -0.1987346011
C  C60  1  0.86300000  0.09540000  0.15020000  1.0 0.0757993977
C  C61  1  0.82820000  0.14880000  0.12710000  1.0 -0.2528626407
C  C62  1  0.76210000  0.49190000  0.05240000  1.0 0.3311448534
C  C63  1  0.80020000  0.43780000  0.07620000  1.0 0.0040823547
C  C64  1  0.91490000  0.50710000  0.11260000  1.0 -0.056487329
C  C65  1  0.94430000  0.45170000  0.13600000  1.0 -0.1707284833
C  C66  1  0.86110000  0.32290000  0.12150000  1.0 0.0573832532
C  C67  1  0.75240000  0.25760000  0.08180000  1.0 -0.039759445
C  C68  1  0.72230000  0.31570000  0.06020000  1.0 -0.0708804806
C  C69  1  0.75890000  0.84690000  0.84830000  1.0 -0.1017186786
C  C70  1  0.62510000  0.74830000  0.86120000  1.0 -0.021032923
C  C71  1  0.58090000  0.66190000  0.91090000  1.0 0.64562074
C  C72  1  0.80370000  0.93050000  0.80190000  1.0 -0.1707284833
C  C73  1  0.71560000  0.91660000  0.76880000  1.0 0.0757993977
C  C74  1  0.57980000  0.81520000  0.78290000  1.0 -0.1489507988
C  C75  1  0.53490000  0.73190000  0.82840000  1.0 -0.1017186786
C  C76  1  0.28100000  0.30940000  0.55110000  1.0 0.6257597571
C  C77  1  0.18770000  0.27050000  0.57680000  1.0 -0.0135090218
C  C78  1  0.19530000  0.35750000  0.57080000  1.0 -0.1017186786
C  C79  1  0.10250000  0.31370000  0.59450000  1.0 -0.1489507988
C  C80  1  0.99980000  0.18200000  0.62410000  1.0 0.0757993977
C  C81  1  0.99610000  0.09630000  0.62980000  1.0 -0.1647869582
C  C82  1  0.08520000  0.13780000  0.60550000  1.0 -0.1017186786
C  C83  1  0.55550000  0.28330000  0.55800000  1.0 0.3201879924
C  C84  1  0.61350000  0.24970000  0.58390000  1.0 0.0201105019
C  C85  1  0.53090000  0.12310000  0.61500000  1.0 -0.0761911134
C  C86  1  0.57570000  0.08230000  0.63530000  1.0 -0.1443359452
C  C87  1  0.71720000  0.17880000  0.62950000  1.0 0.0531764513
C  C88  1  0.80750000  0.31250000  0.60100000  1.0 -0.0282911221
C  C89  1  0.75130000  0.34450000  0.57690000  1.0 -0.0708804806
C  C90  1  0.75710000  0.12630000  0.65060000  1.0 0.0573832532
C  C91  1  0.71510000  0.04290000  0.69680000  1.0 -0.2335612076
C  C92  1  0.76280000  0.00600000  0.71920000  1.0 0.0757993977
C  C93  1  0.85855000  0.05345000  0.69540000  1.0 -0.1987346011
C  C94  1  0.90460000  0.13700000  0.65020000  1.0 0.0757993977
C  C95  1  0.85120000  0.17180000  0.62710000  1.0 -0.2528626407
C  C96  1  0.50810000  0.23790000  0.55240000  1.0 0.3311448534
C  C97  1  0.56220000  0.19980000  0.57620000  1.0 0.0040823547
C  C98  1  0.49290000  0.08510000  0.61260000  1.0 -0.056487329
C  C99  1  0.54830000  0.05570000  0.63600000  1.0 -0.1707284833
C  C100  1  0.67710000  0.13890000  0.62150000  1.0 0.0573832532
C  C101  1  0.74240000  0.24760000  0.58180000  1.0 -0.039759445
C  C102  1  0.68430000  0.27770000  0.56020000  1.0 -0.0708804806
C  C103  1  0.84690000  0.75890000  0.65170000  1.0 -0.1017186786
C  C104  1  0.74830000  0.62510000  0.63880000  1.0 -0.021032923
C  C105  1  0.66190000  0.58090000  0.58910000  1.0 0.64562074
C  C106  1  0.93050000  0.80370000  0.69810000  1.0 -0.1707284833
C  C107  1  0.91660000  0.71560000  0.73120000  1.0 0.0757993977
C  C108  1  0.81520000  0.57980000  0.71710000  1.0 -0.1489507988
C  C109  1  0.73190000  0.53490000  0.67160000  1.0 -0.1017186786
C  C110  1  0.30940000  0.28100000  0.94890000  1.0 0.6257597571
C  C111  1  0.27050000  0.18770000  0.92320000  1.0 -0.0135090218
C  C112  1  0.35750000  0.19530000  0.92920000  1.0 -0.1017186786
C  C113  1  0.31370000  0.10250000  0.90550000  1.0 -0.1489507988
C  C114  1  0.18200000  0.99980000  0.87590000  1.0 0.0757993977
C  C115  1  0.09630000  0.99610000  0.87020000  1.0 -0.1707284833
C  C116  1  0.13780000  0.08520000  0.89450000  1.0 -0.1017186786
C  C117  1  0.28330000  0.55550000  0.94200000  1.0 0.3201879924
C  C118  1  0.24970000  0.61350000  0.91610000  1.0 0.0201105019
C  C119  1  0.12310000  0.53090000  0.88500000  1.0 -0.0761911134
C  C120  1  0.08230000  0.57570000  0.86470000  1.0 -0.1443359452
C  C121  1  0.17880000  0.71720000  0.87050000  1.0 0.0531764513
C  C122  1  0.31250000  0.80750000  0.89900000  1.0 -0.0282911221
C  C123  1  0.34450000  0.75130000  0.92310000  1.0 -0.0708804806
C  C124  1  0.12630000  0.75710000  0.84940000  1.0 0.0573832532
C  C125  1  0.04290000  0.71510000  0.80320000  1.0 -0.2335612076
C  C126  1  0.00600000  0.76280000  0.78080000  1.0 0.0757993977
C  C127  1  0.05345000  0.85855000  0.80460000  1.0 -0.1987346011
C  C128  1  0.13700000  0.90460000  0.84980000  1.0 0.0757993977
C  C129  1  0.17180000  0.85120000  0.87290000  1.0 -0.2528626407
C  C130  1  0.23790000  0.50810000  0.94760000  1.0 0.3311448534
C  C131  1  0.19980000  0.56220000  0.92380000  1.0 0.0040823547
C  C132  1  0.08510000  0.49290000  0.88740000  1.0 -0.0546594719
C  C133  1  0.05570000  0.54830000  0.86400000  1.0 -0.1750290925
C  C134  1  0.13890000  0.67710000  0.87850000  1.0 0.0531764513
C  C135  1  0.24760000  0.74240000  0.91820000  1.0 -0.039759445
C  C136  1  0.27770000  0.68430000  0.93980000  1.0 -0.0708804806
O  O1  1  0.32814000  0.31546000  0.06159000  1.0 -0.6989851082
O  O2  1  0.54228000  0.42592000  0.07723000  1.0 -0.6788377995
O  O3  1  0.74175000  0.78105000  0.44574000  1.0 -0.5842944021
O  O4  1  0.62044000  0.56776000  0.47280000  1.0 -0.717109465
O  O5  1  0.37610000  0.60910000  0.47510000  1.0 -0.1136807567
O  O6  1  0.57110000  0.80490000  0.43380000  1.0 -0.3580610538
O  O7  1  0.44050000  0.67350000  0.48730000  1.0 -0.1489507988
O  O8  1  0.58970000  0.81830000  0.42740000  1.0 -0.4694281379
O  O9  1  0.31546000  0.32814000  0.43841000  1.0 -0.6989851082
O  O10  1  0.42592000  0.54228000  0.42277000  1.0 -0.6788377995
O  O11  1  0.78105000  0.74175000  0.05426000  1.0 -0.5842944021
O  O12  1  0.56776000  0.62044000  0.02720000  1.0 -0.717109465
O  O13  1  0.60910000  0.37610000  0.02490000  1.0 -0.1136807567
O  O14  1  0.80490000  0.57110000  0.06620000  1.0 -0.3580610538
O  O15  1  0.67350000  0.44050000  0.01270000  1.0 -0.1489507988
O  O16  1  0.81830000  0.58970000  0.07260000  1.0 -0.4694281379
O  O17  1  0.67186000  0.68454000  0.93841000  1.0 -0.6989851082
O  O18  1  0.45772000  0.57408000  0.92277000  1.0 -0.6788377995
O  O19  1  0.25825000  0.21895000  0.55426000  1.0 -0.5842944021
O  O20  1  0.37956000  0.43224000  0.52720000  1.0 -0.717109465
O  O21  1  0.62390000  0.39090000  0.52490000  1.0 -0.1136807567
O  O22  1  0.42890000  0.19510000  0.56620000  1.0 -0.3580610538
O  O23  1  0.55950000  0.32650000  0.51270000  1.0 -0.1489507988
O  O24  1  0.41030000  0.18170000  0.57260000  1.0 -0.4694281379
O  O25  1  0.68454000  0.67186000  0.56159000  1.0 -0.6989851082
O  O26  1  0.57408000  0.45772000  0.57723000  1.0 -0.6788377995
O  O27  1  0.21895000  0.25825000  0.94574000  1.0 -0.5842944021
O  O28  1  0.43224000  0.37956000  0.97280000  1.0 -0.717109465
O  O29  1  0.39090000  0.62390000  0.97510000  1.0 -0.1136807567
O  O30  1  0.19510000  0.42890000  0.93380000  1.0 -0.3580610538
O  O31  1  0.32650000  0.55950000  0.98730000  1.0 -0.1489507988
O  O32  1  0.18170000  0.41030000  0.92740000  1.0 -0.4694281379
