# DDEC6 charges by PACMAN v1.1 (https://github.com/mtap-research/PACMAN-charge/)
data_TOYCIW_FSR_pacman
_symmetry_space_group_name_H-M   'P 1'
_cell_length_a   17.23380000
_cell_length_b   17.23380000
_cell_length_c   16.27230000
_cell_angle_alpha   87.38400000
_cell_angle_beta   92.61600000
_cell_angle_gamma   129.96700000
_symmetry_Int_Tables_number   1
_chemical_formula_structural   CeH20C28N3O8
_chemical_formula_sum   'Ce4 H80 C112 N12 O32'
_cell_volume   3699.33110135
_cell_formula_units_Z   4
loop_
 _symmetry_equiv_pos_site_id
 _symmetry_equiv_pos_as_xyz
  1  'x, y, z'
loop_
 _atom_site_type_symbol
 _atom_site_label
 _atom_site_symmetry_multiplicity
 _atom_site_fract_x
 _atom_site_fract_y
 _atom_site_fract_z
 _atom_site_occupancy
 _atom_site_charge
Ce  Ce1  1  0.51741000  0.39287000  0.47764000  1.0 1.9267304036
Ce  Ce2  1  0.39287000  0.51741000  0.02236000  1.0 1.9244512412
Ce  Ce3  1  0.48259000  0.60713000  0.52236000  1.0 1.9267304036
Ce  Ce4  1  0.60713000  0.48259000  0.97764000  1.0 1.9267304036
H  H1  1  0.64410000  0.42190000  0.34400000  1.0 0.2636704239
H  H2  1  0.62600000  0.47400000  0.31600000  1.0 0.2884832627
H  H3  1  0.40600000  0.18200000  0.41600000  1.0 0.3387888117
H  H4  1  0.45100000  0.26100000  0.36000000  1.0 0.2884832627
H  H5  1  0.94423000  0.68355000  0.42410000  1.0 0.118292706
H  H6  1  0.78248000  0.60810000  0.46999000  1.0 0.118292706
H  H7  1  0.95602000  0.90306000  0.30584000  1.0 0.1044470313
H  H8  1  0.79856000  0.83218000  0.35643000  1.0 0.118292706
H  H9  1  0.46500000  0.85444000  0.35745000  1.0 0.0818844325
H  H10  1  0.38809000  0.92037000  0.30750000  1.0 0.0818844325
H  H11  1  0.12180000  0.67418000  0.39938000  1.0 0.0614859982
H  H12  1  0.19924000  0.60808000  0.44699000  1.0 0.0684996181
H  H13  1  0.25031000  0.24687000  0.15736000  1.0 0.118292706
H  H14  1  0.15393000  0.08115000  0.20715000  1.0 0.1098308767
H  H15  1  0.40544000  0.10788000  0.22507000  1.0 0.118292706
H  H16  1  0.50146000  0.27402000  0.17502000  1.0 0.118292706
H  H17  1  0.43575000  0.81167000  0.31541000  1.0 0.0818844325
H  H18  1  0.36308000  0.88378000  0.27110000  1.0 0.0818844325
H  H19  1  0.15661000  0.72807000  0.45024000  1.0 0.0614859982
H  H20  1  0.23156000  0.65852000  0.49464000  1.0 0.0684996181
H  H21  1  0.42190000  0.64410000  0.15600000  1.0 0.2651495132
H  H22  1  0.47400000  0.62600000  0.18400000  1.0 0.2884832627
H  H23  1  0.18200000  0.40600000  0.08400000  1.0 0.3387888117
H  H24  1  0.26100000  0.45100000  0.14000000  1.0 0.2884832627
H  H25  1  0.68355000  0.94423000  0.07590000  1.0 0.118292706
H  H26  1  0.60810000  0.78248000  0.03001000  1.0 0.118292706
H  H27  1  0.90306000  0.95602000  0.19416000  1.0 0.1044470313
H  H28  1  0.83218000  0.79856000  0.14357000  1.0 0.118292706
H  H29  1  0.85444000  0.46500000  0.14255000  1.0 0.0818844325
H  H30  1  0.92037000  0.38809000  0.19250000  1.0 0.0818844325
H  H31  1  0.67418000  0.12180000  0.10062000  1.0 0.0614859982
H  H32  1  0.60808000  0.19924000  0.05301000  1.0 0.0684996181
H  H33  1  0.24687000  0.25031000  0.34264000  1.0 0.118292706
H  H34  1  0.08115000  0.15393000  0.29285000  1.0 0.1098308767
H  H35  1  0.10788000  0.40544000  0.27493000  1.0 0.118292706
H  H36  1  0.27402000  0.50146000  0.32498000  1.0 0.118292706
H  H37  1  0.81167000  0.43575000  0.18459000  1.0 0.0818844325
H  H38  1  0.88378000  0.36308000  0.22890000  1.0 0.0818844325
H  H39  1  0.72807000  0.15661000  0.04976000  1.0 0.0614859982
H  H40  1  0.65852000  0.23156000  0.00536000  1.0 0.0684996181
H  H41  1  0.35590000  0.57810000  0.65600000  1.0 0.2651495132
H  H42  1  0.37400000  0.52600000  0.68400000  1.0 0.2844754252
H  H43  1  0.59400000  0.81800000  0.58400000  1.0 0.3387888117
H  H44  1  0.54900000  0.73900000  0.64000000  1.0 0.2884832627
H  H45  1  0.05577000  0.31645000  0.57590000  1.0 0.118292706
H  H46  1  0.21752000  0.39190000  0.53001000  1.0 0.118292706
H  H47  1  0.04398000  0.09694000  0.69416000  1.0 0.1044470313
H  H48  1  0.20144000  0.16782000  0.64357000  1.0 0.118292706
H  H49  1  0.53500000  0.14556000  0.64255000  1.0 0.0818844325
H  H50  1  0.61191000  0.07963000  0.69250000  1.0 0.0818844325
H  H51  1  0.87820000  0.32582000  0.60062000  1.0 0.0614859982
H  H52  1  0.80076000  0.39192000  0.55301000  1.0 0.0684996181
H  H53  1  0.74969000  0.75313000  0.84264000  1.0 0.118292706
H  H54  1  0.84607000  0.91885000  0.79285000  1.0 0.1098308767
H  H55  1  0.59456000  0.89212000  0.77493000  1.0 0.118292706
H  H56  1  0.49854000  0.72598000  0.82498000  1.0 0.118292706
H  H57  1  0.56425000  0.18833000  0.68459000  1.0 0.0818844325
H  H58  1  0.63692000  0.11622000  0.72890000  1.0 0.0818844325
H  H59  1  0.84339000  0.27193000  0.54976000  1.0 0.0614859982
H  H60  1  0.76844000  0.34148000  0.50536000  1.0 0.0684996181
H  H61  1  0.57810000  0.35590000  0.84400000  1.0 0.2651495132
H  H62  1  0.52600000  0.37400000  0.81600000  1.0 0.2884832627
H  H63  1  0.81800000  0.59400000  0.91600000  1.0 0.3387888117
H  H64  1  0.73900000  0.54900000  0.86000000  1.0 0.2884832627
H  H65  1  0.31645000  0.05577000  0.92410000  1.0 0.118292706
H  H66  1  0.39190000  0.21752000  0.96999000  1.0 0.118292706
H  H67  1  0.09694000  0.04398000  0.80584000  1.0 0.1044470313
H  H68  1  0.16782000  0.20144000  0.85643000  1.0 0.118292706
H  H69  1  0.14556000  0.53500000  0.85745000  1.0 0.0818844325
H  H70  1  0.07963000  0.61191000  0.80750000  1.0 0.0818844325
H  H71  1  0.32582000  0.87820000  0.89938000  1.0 0.0614859982
H  H72  1  0.39192000  0.80076000  0.94699000  1.0 0.0684996181
H  H73  1  0.75313000  0.74969000  0.65736000  1.0 0.118292706
H  H74  1  0.91885000  0.84607000  0.70715000  1.0 0.1098308767
H  H75  1  0.89212000  0.59456000  0.72507000  1.0 0.118292706
H  H76  1  0.72598000  0.49854000  0.67502000  1.0 0.118292706
H  H77  1  0.18833000  0.56425000  0.81541000  1.0 0.0818844325
H  H78  1  0.11622000  0.63692000  0.77110000  1.0 0.0818844325
H  H79  1  0.27193000  0.84339000  0.95024000  1.0 0.0614859982
H  H80  1  0.34148000  0.76844000  0.99464000  1.0 0.0684996181
C  C1  1  0.67462000  0.66938000  0.45210000  1.0 0.5921565982
C  C2  1  0.77600000  0.71400000  0.41860000  1.0 -0.0107621952
C  C3  1  0.91411000  0.71309000  0.40940000  1.0 -0.1122474243
C  C4  1  0.81853000  0.66887000  0.43770000  1.0 -0.1267610771
C  C5  1  0.96576000  0.79984000  0.35990000  1.0 0.0209569264
C  C6  1  0.92138000  0.84382000  0.34000000  1.0 -0.1190655773
C  C7  1  0.82788000  0.80152000  0.36950000  1.0 -0.1190655773
C  C8  1  0.38975000  0.68585000  0.44380000  1.0 0.4879848528
C  C9  1  0.33958000  0.72662000  0.40910000  1.0 -0.0392307634
C  C10  1  0.24955000  0.80765000  0.35280000  1.0 -0.0305835759
C  C11  1  0.39530000  0.81830000  0.36680000  1.0 -0.0305835759
C  C12  1  0.34970000  0.85810000  0.33780000  1.0 -0.0392307634
C  C13  1  0.19230000  0.71210000  0.39200000  1.0 -0.0107621952
C  C14  1  0.23820000  0.67260000  0.42010000  1.0 -0.0305835759
C  C15  1  0.44778000  0.38682000  0.13740000  1.0 0.6177752706
C  C16  1  0.38615000  0.27865000  0.16510000  1.0 -0.0237224439
C  C17  1  0.28226000  0.21934000  0.17260000  1.0 -0.0987600369
C  C18  1  0.22505000  0.12095000  0.20210000  1.0 -0.1267610771
C  C19  1  0.27075000  0.07945000  0.22450000  1.0 0.0209569264
C  C20  1  0.37404000  0.13656000  0.21270000  1.0 -0.1369454396
C  C21  1  0.43104000  0.23536000  0.18310000  1.0 -0.1190655773
C  C22  1  0.21096000  0.97844000  0.26600000  1.0 0.3673074673
C  C23  1  0.06820000  0.84860000  0.33100000  1.0 0.3673074673
C  C24  1  0.20187000  0.85273000  0.32690000  1.0 0.3324146959
C  C25  1  0.37850000  0.79390000  0.34260000  1.0 -0.0392307634
C  C26  1  0.33450000  0.83570000  0.31550000  1.0 -0.0392307634
C  C27  1  0.21220000  0.74380000  0.42170000  1.0 -0.0107621952
C  C28  1  0.25820000  0.70380000  0.44820000  1.0 -0.0237224439
C  C29  1  0.66938000  0.67462000  0.04790000  1.0 0.5921565982
C  C30  1  0.71400000  0.77600000  0.08140000  1.0 -0.0107621952
C  C31  1  0.71309000  0.91411000  0.09060000  1.0 -0.1122474243
C  C32  1  0.66887000  0.81853000  0.06230000  1.0 -0.1267610771
C  C33  1  0.79984000  0.96576000  0.14010000  1.0 0.0209569264
C  C34  1  0.84382000  0.92138000  0.16000000  1.0 -0.1190655773
C  C35  1  0.80152000  0.82788000  0.13050000  1.0 -0.1190655773
C  C36  1  0.68585000  0.38975000  0.05620000  1.0 0.4879848528
C  C37  1  0.72662000  0.33958000  0.09090000  1.0 -0.0392307634
C  C38  1  0.80765000  0.24955000  0.14720000  1.0 -0.0305835759
C  C39  1  0.81830000  0.39530000  0.13320000  1.0 -0.0305835759
C  C40  1  0.85810000  0.34970000  0.16220000  1.0 -0.0305835759
C  C41  1  0.71210000  0.19230000  0.10800000  1.0 -0.0107621952
C  C42  1  0.67260000  0.23820000  0.07990000  1.0 -0.0305835759
C  C43  1  0.38682000  0.44778000  0.36260000  1.0 0.6177752706
C  C44  1  0.27865000  0.38615000  0.33490000  1.0 -0.0237224439
C  C45  1  0.21934000  0.28226000  0.32740000  1.0 -0.0987600369
C  C46  1  0.12095000  0.22505000  0.29790000  1.0 -0.1267610771
C  C47  1  0.07945000  0.27075000  0.27550000  1.0 0.0209569264
C  C48  1  0.13656000  0.37404000  0.28730000  1.0 -0.1369454396
C  C49  1  0.23536000  0.43104000  0.31690000  1.0 -0.1190655773
C  C50  1  0.97844000  0.21096000  0.23400000  1.0 0.3673074673
C  C51  1  0.84860000  0.06820000  0.16900000  1.0 0.3673074673
C  C52  1  0.85273000  0.20187000  0.17310000  1.0 0.3387888117
C  C53  1  0.79390000  0.37850000  0.15740000  1.0 -0.0392307634
C  C54  1  0.83570000  0.33450000  0.18450000  1.0 -0.0392307634
C  C55  1  0.74380000  0.21220000  0.07830000  1.0 -0.0107621952
C  C56  1  0.70380000  0.25820000  0.05180000  1.0 -0.0237224439
C  C57  1  0.32538000  0.33062000  0.54790000  1.0 0.5921565982
C  C58  1  0.22400000  0.28600000  0.58140000  1.0 -0.0107621952
C  C59  1  0.08589000  0.28691000  0.59060000  1.0 -0.1122474243
C  C60  1  0.18147000  0.33113000  0.56230000  1.0 -0.1267610771
C  C61  1  0.03424000  0.20016000  0.64010000  1.0 0.0209569264
C  C62  1  0.07862000  0.15618000  0.66000000  1.0 -0.1190655773
C  C63  1  0.17212000  0.19848000  0.63050000  1.0 -0.1190655773
C  C64  1  0.61025000  0.31415000  0.55620000  1.0 0.4879848528
C  C65  1  0.66042000  0.27338000  0.59090000  1.0 -0.0392307634
C  C66  1  0.75045000  0.19235000  0.64720000  1.0 -0.0305835759
C  C67  1  0.60470000  0.18170000  0.63320000  1.0 -0.0305835759
C  C68  1  0.65030000  0.14190000  0.66220000  1.0 -0.0392307634
C  C69  1  0.80770000  0.28790000  0.60800000  1.0 -0.0107621952
C  C70  1  0.76180000  0.32740000  0.57990000  1.0 -0.0305835759
C  C71  1  0.55222000  0.61318000  0.86260000  1.0 0.6177752706
C  C72  1  0.61385000  0.72135000  0.83490000  1.0 -0.0237224439
C  C73  1  0.71774000  0.78066000  0.82740000  1.0 -0.0987600369
C  C74  1  0.77495000  0.87905000  0.79790000  1.0 -0.1267610771
C  C75  1  0.72925000  0.92055000  0.77550000  1.0 0.0209569264
C  C76  1  0.62596000  0.86344000  0.78730000  1.0 -0.1369454396
C  C77  1  0.56896000  0.76464000  0.81690000  1.0 -0.1190655773
C  C78  1  0.78904000  0.02156000  0.73400000  1.0 0.3673074673
C  C79  1  0.93180000  0.15140000  0.66900000  1.0 0.3673074673
C  C80  1  0.79813000  0.14727000  0.67310000  1.0 0.3324146959
C  C81  1  0.62150000  0.20610000  0.65740000  1.0 -0.0392307634
C  C82  1  0.66550000  0.16430000  0.68450000  1.0 -0.0392307634
C  C83  1  0.78780000  0.25620000  0.57830000  1.0 -0.0107621952
C  C84  1  0.74180000  0.29620000  0.55180000  1.0 -0.0237224439
C  C85  1  0.33062000  0.32538000  0.95210000  1.0 0.5921565982
C  C86  1  0.28600000  0.22400000  0.91860000  1.0 -0.0107621952
C  C87  1  0.28691000  0.08589000  0.90940000  1.0 -0.1122474243
C  C88  1  0.33113000  0.18147000  0.93770000  1.0 -0.1267610771
C  C89  1  0.20016000  0.03424000  0.85990000  1.0 0.0209569264
C  C90  1  0.15618000  0.07862000  0.84000000  1.0 -0.1190655773
C  C91  1  0.19848000  0.17212000  0.86950000  1.0 -0.1190655773
C  C92  1  0.31415000  0.61025000  0.94380000  1.0 0.4879848528
C  C93  1  0.27338000  0.66042000  0.90910000  1.0 -0.0392307634
C  C94  1  0.19235000  0.75045000  0.85280000  1.0 -0.0305835759
C  C95  1  0.18170000  0.60470000  0.86680000  1.0 -0.0305835759
C  C96  1  0.14190000  0.65030000  0.83780000  1.0 -0.0392307634
C  C97  1  0.28790000  0.80770000  0.89200000  1.0 -0.0107621952
C  C98  1  0.32740000  0.76180000  0.92010000  1.0 -0.0305835759
C  C99  1  0.61318000  0.55222000  0.63740000  1.0 0.6177752706
C  C100  1  0.72135000  0.61385000  0.66510000  1.0 -0.0237224439
C  C101  1  0.78066000  0.71774000  0.67260000  1.0 -0.0987600369
C  C102  1  0.87905000  0.77495000  0.70210000  1.0 -0.1267610771
C  C103  1  0.92055000  0.72925000  0.72450000  1.0 0.0209569264
C  C104  1  0.86344000  0.62596000  0.71270000  1.0 -0.1369454396
C  C105  1  0.76464000  0.56896000  0.68310000  1.0 -0.1190655773
C  C106  1  0.02156000  0.78904000  0.76600000  1.0 0.3673074673
C  C107  1  0.15140000  0.93180000  0.83100000  1.0 0.3673074673
C  C108  1  0.14727000  0.79813000  0.82690000  1.0 0.3387888117
C  C109  1  0.20610000  0.62150000  0.84260000  1.0 -0.0392307634
C  C110  1  0.16430000  0.66550000  0.81550000  1.0 -0.0392307634
C  C111  1  0.25620000  0.78780000  0.92170000  1.0 -0.0107621952
C  C112  1  0.29620000  0.74180000  0.94820000  1.0 -0.0237224439
N  N1  1  0.11675000  0.93545000  0.28790000  1.0 -0.410532063
N  N2  1  0.10736000  0.80364000  0.35200000  1.0 -0.410532063
N  N3  1  0.25633000  0.93887000  0.28240000  1.0 -0.410532063
N  N4  1  0.93545000  0.11675000  0.21210000  1.0 -0.410532063
N  N5  1  0.80364000  0.10736000  0.14800000  1.0 -0.410532063
N  N6  1  0.93887000  0.25633000  0.21760000  1.0 -0.410532063
N  N7  1  0.88325000  0.06455000  0.71210000  1.0 -0.410532063
N  N8  1  0.89264000  0.19636000  0.64800000  1.0 -0.410532063
N  N9  1  0.74367000  0.06113000  0.71760000  1.0 -0.410532063
N  N10  1  0.06455000  0.88325000  0.78790000  1.0 -0.410532063
N  N11  1  0.19636000  0.89264000  0.85200000  1.0 -0.410532063
N  N12  1  0.06113000  0.74367000  0.78240000  1.0 -0.410532063
O  O1  1  0.61751000  0.44169000  0.35280000  1.0 -0.6184516904
O  O2  1  0.43741000  0.23359000  0.39950000  1.0 -0.5888957885
O  O3  1  0.61275000  0.57605000  0.46998000  1.0 -0.6839563158
O  O4  1  0.65464000  0.72736000  0.46040000  1.0 -0.5888957885
O  O5  1  0.33683000  0.60557000  0.48800000  1.0 -0.59769879
O  O6  1  0.48055000  0.73085000  0.42900000  1.0 -0.5520431456
O  O7  1  0.53907000  0.43393000  0.11880000  1.0 -0.6284390447
O  O8  1  0.40504000  0.42496000  0.13490000  1.0 -0.6457898525
O  O9  1  0.44169000  0.61751000  0.14720000  1.0 -0.6184516904
O  O10  1  0.23359000  0.43741000  0.10050000  1.0 -0.59769879
O  O11  1  0.57605000  0.61275000  0.03002000  1.0 -0.6839563158
O  O12  1  0.72736000  0.65464000  0.03960000  1.0 -0.5888957885
O  O13  1  0.60557000  0.33683000  0.01200000  1.0 -0.59769879
O  O14  1  0.73085000  0.48055000  0.07100000  1.0 -0.5520431456
O  O15  1  0.43393000  0.53907000  0.38120000  1.0 -0.6284390447
O  O16  1  0.42496000  0.40504000  0.36510000  1.0 -0.6457898525
O  O17  1  0.38249000  0.55831000  0.64720000  1.0 -0.6184516904
O  O18  1  0.56259000  0.76641000  0.60050000  1.0 -0.59769879
O  O19  1  0.38725000  0.42395000  0.53002000  1.0 -0.6839563158
O  O20  1  0.34536000  0.27264000  0.53960000  1.0 -0.5888957885
O  O21  1  0.66317000  0.39443000  0.51200000  1.0 -0.59769879
O  O22  1  0.51945000  0.26915000  0.57100000  1.0 -0.5520431456
O  O23  1  0.46093000  0.56607000  0.88120000  1.0 -0.6284390447
O  O24  1  0.59496000  0.57504000  0.86510000  1.0 -0.6457898525
O  O25  1  0.55831000  0.38249000  0.85280000  1.0 -0.6184516904
O  O26  1  0.76641000  0.56259000  0.89950000  1.0 -0.59769879
O  O27  1  0.42395000  0.38725000  0.96998000  1.0 -0.6839563158
O  O28  1  0.27264000  0.34536000  0.96040000  1.0 -0.5888957885
O  O29  1  0.39443000  0.66317000  0.98800000  1.0 -0.59769879
O  O30  1  0.26915000  0.51945000  0.92900000  1.0 -0.5520431456
O  O31  1  0.56607000  0.46093000  0.61880000  1.0 -0.6284390447
O  O32  1  0.57504000  0.59496000  0.63490000  1.0 -0.6457898525
