# DDEC6 charges by PACMAN v1.1 (https://github.com/mtap-research/PACMAN-charge/)
data_TOZXAK_ASR_pacman
_chemical_formula_sum              "O60 C72 H96 Dy4 Zn6"
_cell_length_a       14.632
_cell_length_b       14.632
_cell_length_c       15.737
_cell_angle_alpha    90
_cell_angle_beta     90
_cell_angle_gamma    120

_symmetry_space_group_name_H-M    "P 1"
_symmetry_Int_Tables_number       1

loop_
  _symmetry_equiv_pos_as_xyz
  'x, y, z'

loop_
  _atom_site_type_symbol
  _atom_site_label
  _atom_site_symmetry_multiplicity
  _atom_site_fract_x
  _atom_site_fract_y
  _atom_site_fract_z
  _atom_site_occupancy
 _atom_site_charge
O   O1        1.0  0.57930  0.19440  0.35470  1.0000 -0.5904622063
C   C1        1.0  0.48110  0.13110  0.36080  1.0000 0.4703497628
C   C2        1.0  0.40550  0.15660  0.31180  1.0000 -0.0760678013
H   H1        1.0  0.35040  0.09370  0.28430  1.0000 0.0719382626
H   H2        1.0  0.37280  0.18390  0.35010  1.0000 0.0881123715
O   O2        1.0  0.43790  0.05470  0.40930  1.0000 -0.4880378928
C   C3        1.0  0.42000  0.13700  0.28560  1.0000 -0.0605941562
H   H3        1.0  0.41260  0.08530  0.24340  1.0000 0.0719382626
H   H4        1.0  0.34970  0.11930  0.30400  1.0000 0.0719382626
O   O3        1.0  0.80560  0.38490  0.35470  1.0000 -0.5904622063
C   C4        1.0  0.86890  0.35000  0.36080  1.0000 0.4703497628
C   C5        1.0  0.84340  0.24890  0.31180  1.0000 -0.0760678013
H   H5        1.0  0.90630  0.25670  0.28430  1.0000 0.0719382626
H   H6        1.0  0.81610  0.18890  0.35010  1.0000 0.0881123715
O   O4        1.0  0.94530  0.38320  0.40930  1.0000 -0.4880378928
C   C6        1.0  0.86300  0.28300  0.28560  1.0000 -0.0605941562
H   H7        1.0  0.91470  0.32730  0.24340  1.0000 0.0719382626
H   H8        1.0  0.88070  0.23040  0.30400  1.0000 0.0719382626
O   O5        1.0  0.61510  0.42070  0.35470  1.0000 -0.5904622063
C   C7        1.0  0.65000  0.51890  0.36080  1.0000 0.4703497628
C   C8        1.0  0.75110  0.59450  0.31180  1.0000 -0.0760678013
H   H9        1.0  0.74330  0.64960  0.28430  1.0000 0.0719382626
H   H10       1.0  0.81110  0.62720  0.35010  1.0000 0.0881123715
O   O6        1.0  0.61680  0.56210  0.40930  1.0000 -0.4880378928
C   C9        1.0  0.71700  0.58000  0.28560  1.0000 -0.0605941562
H   H11       1.0  0.67270  0.58740  0.24340  1.0000 0.0719382626
H   H12       1.0  0.76960  0.65030  0.30400  1.0000 0.0719382626
O   O7        1.0  0.42070  0.80560  0.35470  1.0000 -0.5904622063
C   C10       1.0  0.51890  0.86890  0.36080  1.0000 0.4703497628
C   C11       1.0  0.59450  0.84340  0.31180  1.0000 -0.0760678013
H   H13       1.0  0.64960  0.90630  0.28430  1.0000 0.0719382626
H   H14       1.0  0.62720  0.81610  0.35010  1.0000 0.0881123715
O   O8        1.0  0.56210  0.94530  0.40930  1.0000 -0.4880378928
C   C12       1.0  0.58000  0.86300  0.28560  1.0000 -0.0605941562
H   H15       1.0  0.58740  0.91470  0.24340  1.0000 0.0719382626
H   H16       1.0  0.65030  0.88070  0.30400  1.0000 0.0719382626
O   O9        1.0  0.19440  0.61510  0.35470  1.0000 -0.5904622063
C   C13       1.0  0.13110  0.65000  0.36080  1.0000 0.4703497628
C   C14       1.0  0.15660  0.75110  0.31180  1.0000 -0.0760678013
H   H17       1.0  0.09370  0.74330  0.28430  1.0000 0.0719382626
H   H18       1.0  0.18390  0.81110  0.35010  1.0000 0.0881123715
O   O10       1.0  0.05470  0.61680  0.40930  1.0000 -0.4880378928
C   C15       1.0  0.13700  0.71700  0.28560  1.0000 -0.0605941562
H   H19       1.0  0.08530  0.67270  0.24340  1.0000 0.0719382626
H   H20       1.0  0.11930  0.76960  0.30400  1.0000 0.0719382626
O   O11       1.0  0.38490  0.57930  0.35470  1.0000 -0.5904622063
C   C16       1.0  0.35000  0.48110  0.36080  1.0000 0.4703497628
C   C17       1.0  0.24890  0.40550  0.31180  1.0000 -0.0760678013
H   H21       1.0  0.25670  0.35040  0.28430  1.0000 0.0719382626
H   H22       1.0  0.18890  0.37280  0.35010  1.0000 0.0881123715
O   O12       1.0  0.38320  0.43790  0.40930  1.0000 -0.4880378928
C   C18       1.0  0.28300  0.42000  0.28560  1.0000 -0.0605941562
H   H23       1.0  0.32730  0.41260  0.24340  1.0000 0.0719382626
H   H24       1.0  0.23040  0.34970  0.30400  1.0000 0.0719382626
O   O13       1.0  0.19440  0.57930  0.14530  1.0000 -0.5904622063
C   C19       1.0  0.13110  0.48110  0.13920  1.0000 0.4703497628
C   C20       1.0  0.15660  0.40550  0.18820  1.0000 -0.0760678013
H   H25       1.0  0.09370  0.35040  0.21570  1.0000 0.0719382626
H   H26       1.0  0.18390  0.37280  0.14990  1.0000 0.0881123715
O   O14       1.0  0.05470  0.43790  0.09070  1.0000 -0.4880378928
C   C21       1.0  0.13700  0.42000  0.21440  1.0000 -0.0605941562
H   H27       1.0  0.08530  0.41260  0.25660  1.0000 0.0719382626
H   H28       1.0  0.11930  0.34970  0.19600  1.0000 0.0719382626
O   O15       1.0  0.38490  0.80560  0.14530  1.0000 -0.5904622063
C   C22       1.0  0.35000  0.86890  0.13920  1.0000 0.4703497628
C   C23       1.0  0.24890  0.84340  0.18820  1.0000 -0.0760678013
H   H29       1.0  0.25670  0.90630  0.21570  1.0000 0.0719382626
H   H30       1.0  0.18890  0.81610  0.14990  1.0000 0.0881123715
O   O16       1.0  0.38320  0.94530  0.09070  1.0000 -0.4880378928
C   C24       1.0  0.28300  0.86300  0.21440  1.0000 -0.0605941562
H   H31       1.0  0.32730  0.91470  0.25660  1.0000 0.0719382626
H   H32       1.0  0.23040  0.88070  0.19600  1.0000 0.0719382626
O   O17       1.0  0.42070  0.61510  0.14530  1.0000 -0.5904622063
C   C25       1.0  0.51890  0.65000  0.13920  1.0000 0.4703497628
C   C26       1.0  0.59450  0.75110  0.18820  1.0000 -0.0760678013
H   H33       1.0  0.64960  0.74330  0.21570  1.0000 0.0719382626
H   H34       1.0  0.62720  0.81110  0.14990  1.0000 0.0881123715
O   O18       1.0  0.56210  0.61680  0.09070  1.0000 -0.4880378928
C   C27       1.0  0.58000  0.71700  0.21440  1.0000 -0.0605941562
H   H35       1.0  0.58740  0.67270  0.25660  1.0000 0.0719382626
H   H36       1.0  0.65030  0.76960  0.19600  1.0000 0.0719382626
O   O19       1.0  0.80560  0.42070  0.14530  1.0000 -0.5904622063
C   C28       1.0  0.86890  0.51890  0.13920  1.0000 0.4703497628
C   C29       1.0  0.84340  0.59450  0.18820  1.0000 -0.0760678013
H   H37       1.0  0.90630  0.64960  0.21570  1.0000 0.0719382626
H   H38       1.0  0.81610  0.62720  0.14990  1.0000 0.0881123715
O   O20       1.0  0.94530  0.56210  0.09070  1.0000 -0.4880378928
C   C30       1.0  0.86300  0.58000  0.21440  1.0000 -0.0605941562
H   H39       1.0  0.91470  0.58740  0.25660  1.0000 0.0719382626
H   H40       1.0  0.88070  0.65030  0.19600  1.0000 0.0719382626
O   O21       1.0  0.61510  0.19440  0.14530  1.0000 -0.5904622063
C   C31       1.0  0.65000  0.13110  0.13920  1.0000 0.4703497628
C   C32       1.0  0.75110  0.15660  0.18820  1.0000 -0.0760678013
H   H41       1.0  0.74330  0.09370  0.21570  1.0000 0.0719382626
H   H42       1.0  0.81110  0.18390  0.14990  1.0000 0.0881123715
O   O22       1.0  0.61680  0.05470  0.09070  1.0000 -0.4880378928
C   C33       1.0  0.71700  0.13700  0.21440  1.0000 -0.0605941562
H   H43       1.0  0.67270  0.08530  0.25660  1.0000 0.0719382626
H   H44       1.0  0.76960  0.11930  0.19600  1.0000 0.0719382626
O   O23       1.0  0.57930  0.38490  0.14530  1.0000 -0.5904622063
C   C34       1.0  0.48110  0.35000  0.13920  1.0000 0.4703497628
C   C35       1.0  0.40550  0.24890  0.18820  1.0000 -0.0760678013
H   H45       1.0  0.35040  0.25670  0.21570  1.0000 0.0719382626
H   H46       1.0  0.37280  0.18890  0.14990  1.0000 0.0881123715
O   O24       1.0  0.43790  0.38320  0.09070  1.0000 -0.4880378928
C   C36       1.0  0.42000  0.28300  0.21440  1.0000 -0.0605941562
H   H47       1.0  0.41260  0.32730  0.25660  1.0000 0.0719382626
H   H48       1.0  0.34970  0.23040  0.19600  1.0000 0.0719382626
O   O25       1.0  0.42070  0.80560  0.64530  1.0000 -0.5904622063
C   C37       1.0  0.51890  0.86890  0.63920  1.0000 0.4703497628
C   C38       1.0  0.59450  0.84340  0.68820  1.0000 -0.0760678013
H   H49       1.0  0.64960  0.90630  0.71570  1.0000 0.0719382626
H   H50       1.0  0.62720  0.81610  0.64990  1.0000 0.0881123715
O   O26       1.0  0.56210  0.94530  0.59070  1.0000 -0.4880378928
C   C39       1.0  0.58000  0.86300  0.71440  1.0000 -0.0605941562
H   H51       1.0  0.58740  0.91470  0.75660  1.0000 0.0719382626
H   H52       1.0  0.65030  0.88070  0.69600  1.0000 0.0719382626
O   O27       1.0  0.19440  0.61510  0.64530  1.0000 -0.5904622063
C   C40       1.0  0.13110  0.65000  0.63920  1.0000 0.4703497628
C   C41       1.0  0.15660  0.75110  0.68820  1.0000 -0.0760678013
H   H53       1.0  0.09370  0.74330  0.71570  1.0000 0.0719382626
H   H54       1.0  0.18390  0.81110  0.64990  1.0000 0.0881123715
O   O28       1.0  0.05470  0.61680  0.59070  1.0000 -0.4880378928
C   C42       1.0  0.13700  0.71700  0.71440  1.0000 -0.0605941562
H   H55       1.0  0.08530  0.67270  0.75660  1.0000 0.0719382626
H   H56       1.0  0.11930  0.76960  0.69600  1.0000 0.0719382626
O   O29       1.0  0.38490  0.57930  0.64530  1.0000 -0.5904622063
C   C43       1.0  0.35000  0.48110  0.63920  1.0000 0.4703497628
C   C44       1.0  0.24890  0.40550  0.68820  1.0000 -0.0760678013
H   H57       1.0  0.25670  0.35040  0.71570  1.0000 0.0719382626
H   H58       1.0  0.18890  0.37280  0.64990  1.0000 0.0881123715
O   O30       1.0  0.38320  0.43790  0.59070  1.0000 -0.4880378928
C   C45       1.0  0.28300  0.42000  0.71440  1.0000 -0.0605941562
H   H59       1.0  0.32730  0.41260  0.75660  1.0000 0.0719382626
H   H60       1.0  0.23040  0.34970  0.69600  1.0000 0.0719382626
O   O31       1.0  0.57930  0.19440  0.64530  1.0000 -0.5904622063
C   C46       1.0  0.48110  0.13110  0.63920  1.0000 0.4703497628
C   C47       1.0  0.40550  0.15660  0.68820  1.0000 -0.0760678013
H   H61       1.0  0.35040  0.09370  0.71570  1.0000 0.0719382626
H   H62       1.0  0.37280  0.18390  0.64990  1.0000 0.0881123715
O   O32       1.0  0.43790  0.05470  0.59070  1.0000 -0.4880378928
C   C48       1.0  0.42000  0.13700  0.71440  1.0000 -0.0605941562
H   H63       1.0  0.41260  0.08530  0.75660  1.0000 0.0719382626
H   H64       1.0  0.34970  0.11930  0.69600  1.0000 0.0719382626
O   O33       1.0  0.80560  0.38490  0.64530  1.0000 -0.5904622063
C   C49       1.0  0.86890  0.35000  0.63920  1.0000 0.4703497628
C   C50       1.0  0.84340  0.24890  0.68820  1.0000 -0.0760678013
H   H65       1.0  0.90630  0.25670  0.71570  1.0000 0.0719382626
H   H66       1.0  0.81610  0.18890  0.64990  1.0000 0.0881123715
O   O34       1.0  0.94530  0.38320  0.59070  1.0000 -0.4880378928
C   C51       1.0  0.86300  0.28300  0.71440  1.0000 -0.0605941562
H   H67       1.0  0.91470  0.32730  0.75660  1.0000 0.0719382626
H   H68       1.0  0.88070  0.23040  0.69600  1.0000 0.0719382626
O   O35       1.0  0.61510  0.42070  0.64530  1.0000 -0.5904622063
C   C52       1.0  0.65000  0.51890  0.63920  1.0000 0.4703497628
C   C53       1.0  0.75110  0.59450  0.68820  1.0000 -0.0760678013
H   H69       1.0  0.74330  0.64960  0.71570  1.0000 0.0719382626
H   H70       1.0  0.81110  0.62720  0.64990  1.0000 0.0881123715
O   O36       1.0  0.61680  0.56210  0.59070  1.0000 -0.4880378928
C   C54       1.0  0.71700  0.58000  0.71440  1.0000 -0.0605941562
H   H71       1.0  0.67270  0.58740  0.75660  1.0000 0.0719382626
H   H72       1.0  0.76960  0.65030  0.69600  1.0000 0.0719382626
O   O37       1.0  0.80560  0.42070  0.85470  1.0000 -0.5904622063
C   C55       1.0  0.86890  0.51890  0.86080  1.0000 0.4703497628
C   C56       1.0  0.84340  0.59450  0.81180  1.0000 -0.0760678013
H   H73       1.0  0.90630  0.64960  0.78430  1.0000 0.0719382626
H   H74       1.0  0.81610  0.62720  0.85010  1.0000 0.0881123715
O   O38       1.0  0.94530  0.56210  0.90930  1.0000 -0.4880378928
C   C57       1.0  0.86300  0.58000  0.78560  1.0000 -0.0605941562
H   H75       1.0  0.91470  0.58740  0.74340  1.0000 0.0719382626
H   H76       1.0  0.88070  0.65030  0.80400  1.0000 0.0719382626
O   O39       1.0  0.61510  0.19440  0.85470  1.0000 -0.5904622063
C   C58       1.0  0.65000  0.13110  0.86080  1.0000 0.4703497628
C   C59       1.0  0.75110  0.15660  0.81180  1.0000 -0.0760678013
H   H77       1.0  0.74330  0.09370  0.78430  1.0000 0.0719382626
H   H78       1.0  0.81110  0.18390  0.85010  1.0000 0.0881123715
O   O40       1.0  0.61680  0.05470  0.90930  1.0000 -0.4880378928
C   C60       1.0  0.71700  0.13700  0.78560  1.0000 -0.0605941562
H   H79       1.0  0.67270  0.08530  0.74340  1.0000 0.0719382626
H   H80       1.0  0.76960  0.11930  0.80400  1.0000 0.0719382626
O   O41       1.0  0.57930  0.38490  0.85470  1.0000 -0.5904622063
C   C61       1.0  0.48110  0.35000  0.86080  1.0000 0.4703497628
C   C62       1.0  0.40550  0.24890  0.81180  1.0000 -0.0760678013
H   H81       1.0  0.35040  0.25670  0.78430  1.0000 0.0719382626
H   H82       1.0  0.37280  0.18890  0.85010  1.0000 0.0881123715
O   O42       1.0  0.43790  0.38320  0.90930  1.0000 -0.4880378928
C   C63       1.0  0.42000  0.28300  0.78560  1.0000 -0.0605941562
H   H83       1.0  0.41260  0.32730  0.74340  1.0000 0.0719382626
H   H84       1.0  0.34970  0.23040  0.80400  1.0000 0.0719382626
O   O43       1.0  0.19440  0.57930  0.85470  1.0000 -0.5904622063
C   C64       1.0  0.13110  0.48110  0.86080  1.0000 0.4703497628
C   C65       1.0  0.15660  0.40550  0.81180  1.0000 -0.0760678013
H   H85       1.0  0.09370  0.35040  0.78430  1.0000 0.0719382626
H   H86       1.0  0.18390  0.37280  0.85010  1.0000 0.0881123715
O   O44       1.0  0.05470  0.43790  0.90930  1.0000 -0.4880378928
C   C66       1.0  0.13700  0.42000  0.78560  1.0000 -0.0605941562
H   H87       1.0  0.08530  0.41260  0.74340  1.0000 0.0719382626
H   H88       1.0  0.11930  0.34970  0.80400  1.0000 0.0719382626
O   O45       1.0  0.38490  0.80560  0.85470  1.0000 -0.5904622063
C   C67       1.0  0.35000  0.86890  0.86080  1.0000 0.4703497628
C   C68       1.0  0.24890  0.84340  0.81180  1.0000 -0.0760678013
H   H89       1.0  0.25670  0.90630  0.78430  1.0000 0.0719382626
H   H90       1.0  0.18890  0.81610  0.85010  1.0000 0.0881123715
O   O46       1.0  0.38320  0.94530  0.90930  1.0000 -0.4880378928
C   C69       1.0  0.28300  0.86300  0.78560  1.0000 -0.0605941562
H   H91       1.0  0.32730  0.91470  0.74340  1.0000 0.0719382626
H   H92       1.0  0.23040  0.88070  0.80400  1.0000 0.0719382626
O   O47       1.0  0.42070  0.61510  0.85470  1.0000 -0.5904622063
C   C70       1.0  0.51890  0.65000  0.86080  1.0000 0.4703497628
C   C71       1.0  0.59450  0.75110  0.81180  1.0000 -0.0760678013
H   H93       1.0  0.64960  0.74330  0.78430  1.0000 0.0719382626
H   H94       1.0  0.62720  0.81110  0.85010  1.0000 0.0881123715
O   O48       1.0  0.56210  0.61680  0.90930  1.0000 -0.4880378928
C   C72       1.0  0.58000  0.71700  0.78560  1.0000 -0.0605941562
H   H95       1.0  0.58740  0.67270  0.74340  1.0000 0.0719382626
H   H96       1.0  0.65030  0.76960  0.80400  1.0000 0.0719382626
Dy  Dy1       1.0  0.66667  0.33333  0.25000  1.0000 1.8119628245
Dy  Dy2       1.0  0.33333  0.66667  0.25000  1.0000 1.8119628245
Dy  Dy3       1.0  0.33333  0.66667  0.75000  1.0000 1.8119628245
Dy  Dy4       1.0  0.66667  0.33333  0.75000  1.0000 1.8119628245
Zn  Zn1       1.0  0.50000  0.00000  0.50000  1.0000 0.9131719882
Zn  Zn2       1.0  0.00000  0.50000  0.50000  1.0000 0.9131719882
Zn  Zn3       1.0  0.50000  0.50000  0.50000  1.0000 0.9131719882
Zn  Zn4       1.0  0.00000  0.50000  0.00000  1.0000 0.9131719882
Zn  Zn5       1.0  0.50000  0.00000  0.00000  1.0000 0.9164715821
Zn  Zn6       1.0  0.50000  0.50000  0.00000  1.0000 0.9131719882
O   O49       1.0  0.46840  0.23420  0.25000  1.0000 -0.1790782993
O   O50       1.0  0.76580  0.23420  0.25000  1.0000 -0.1790782993
O   O51       1.0  0.76580  0.53160  0.25000  1.0000 -0.1790782993
O   O52       1.0  0.53160  0.76580  0.25000  1.0000 -0.1790782993
O   O53       1.0  0.23420  0.76580  0.25000  1.0000 -0.1790782993
O   O54       1.0  0.23420  0.46840  0.25000  1.0000 -0.1790782993
O   O55       1.0  0.53160  0.76580  0.75000  1.0000 -0.1790782993
O   O56       1.0  0.23420  0.76580  0.75000  1.0000 -0.1790782993
O   O57       1.0  0.23420  0.46840  0.75000  1.0000 -0.1790782993
O   O58       1.0  0.46840  0.23420  0.75000  1.0000 -0.1790782993
O   O59       1.0  0.76580  0.23420  0.75000  1.0000 -0.1790782993
O   O60       1.0  0.76580  0.53160  0.75000  1.0000 -0.1790782993
  Eu  Eu1       1.0  0.66667  0.33333  0.25000  1.0000
  Eu  Eu2       1.0  0.33333  0.66667  0.25000  1.0000
  Eu  Eu3       1.0  0.33333  0.66667  0.75000  1.0000
  Eu  Eu4       1.0  0.66667  0.33333  0.75000  1.0000
