# DDEC6 charges by PACMAN v1.1 (https://github.com/mtap-research/PACMAN-charge/)
data_TUGSOE_ion_pacman
_symmetry_space_group_name_H-M   'P 1'
_cell_length_a   13.62050000
_cell_length_b   15.41510000
_cell_length_c   15.97940000
_cell_angle_alpha   88.44000000
_cell_angle_beta   114.94900000
_cell_angle_gamma   104.36800000
_symmetry_Int_Tables_number   1
_chemical_formula_structural   Cd3H104C88(N22O9)2
_chemical_formula_sum   'Cd3 H104 C88 N44 O18'
_cell_volume   2935.34924709
_cell_formula_units_Z   1
loop_
 _symmetry_equiv_pos_site_id
 _symmetry_equiv_pos_as_xyz
  1  'x, y, z'
loop_
 _atom_site_type_symbol
 _atom_site_label
 _atom_site_symmetry_multiplicity
 _atom_site_fract_x
 _atom_site_fract_y
 _atom_site_fract_z
 _atom_site_occupancy
 _atom_site_charge
Cd  Cd1  1  0.00000000  0.00000000  0.00000000  1.0 0.671352605
Cd  Cd2  1  0.01132000  0.18129000  0.19050000  1.0 0.6986718674
Cd  Cd3  1  0.98868000  0.81871000  0.80950000  1.0 0.6986718674
H  H1  1  0.83000000  0.10680000  0.82270000  1.0 0.1196952902
H  H2  1  0.17000000  0.89320000  0.17730000  1.0 0.1196952902
H  H3  1  0.84460000  0.27720000  0.01050000  1.0 0.1196952902
H  H4  1  0.15540000  0.72280000  0.98950000  1.0 0.1196952902
H  H5  1  0.70270000  0.17320000  0.70460000  1.0 0.1100725554
H  H6  1  0.29730000  0.82680000  0.29540000  1.0 0.1100725554
H  H7  1  0.82170000  0.24230000  0.72560000  1.0 0.1008753309
H  H8  1  0.17830000  0.75770000  0.27440000  1.0 0.1008753309
H  H9  1  0.67790000  0.27860000  0.58850000  1.0 0.0898902164
H  H10  1  0.32210000  0.72140000  0.41150000  1.0 0.0898902164
H  H11  1  0.52650000  0.22480000  0.62860000  1.0 0.1008753309
H  H12  1  0.47350000  0.77520000  0.37140000  1.0 0.1008753309
H  H13  1  0.53160000  0.32590000  0.60060000  1.0 0.1196952902
H  H14  1  0.46840000  0.67410000  0.39940000  1.0 0.1196952902
H  H15  1  0.50470000  0.31030000  0.73800000  1.0 0.0804055808
H  H16  1  0.49530000  0.68970000  0.26200000  1.0 0.0804055808
H  H17  1  0.64800000  0.27560000  0.87510000  1.0 0.1100725554
H  H18  1  0.35200000  0.72440000  0.12490000  1.0 0.1100725554
H  H19  1  0.59650000  0.19350000  0.79640000  1.0 0.1100725554
H  H20  1  0.40350000  0.80650000  0.20360000  1.0 0.1100725554
H  H21  1  0.90260000  0.37070000  0.84750000  1.0 0.1196952902
H  H22  1  0.09740000  0.62930000  0.15250000  1.0 0.1196952902
H  H23  1  0.83740000  0.38440000  0.90750000  1.0 0.1100725554
H  H24  1  0.16260000  0.61560000  0.09250000  1.0 0.1100725554
H  H25  1  0.83250000  0.40260000  0.68260000  1.0 0.1100725554
H  H26  1  0.16750000  0.59740000  0.31740000  1.0 0.1100725554
H  H27  1  0.72020000  0.43600000  0.63250000  1.0 0.1196952902
H  H28  1  0.27980000  0.56400000  0.36750000  1.0 0.1196952902
H  H29  1  0.61160000  0.45460000  0.72540000  1.0 0.1196952902
H  H30  1  0.38840000  0.54540000  0.27460000  1.0 0.1196952902
H  H31  1  0.65870000  0.43380000  0.83220000  1.0 0.1100725554
H  H32  1  0.34130000  0.56620000  0.16780000  1.0 0.1100725554
H  H33  1  0.84390000  0.52960000  0.93560000  1.0 0.1100725554
H  H34  1  0.15610000  0.47040000  0.06440000  1.0 0.1100725554
H  H35  1  0.86100000  0.57870000  0.69800000  1.0 0.1292456909
H  H36  1  0.13900000  0.42130000  0.30200000  1.0 0.1292456909
H  H37  1  0.95130000  0.72530000  0.60330000  1.0 0.1100725554
H  H38  1  0.04870000  0.27470000  0.39670000  1.0 0.1100725554
H  H39  1  0.76140000  0.88610000  0.47040000  1.0 0.1196952902
H  H40  1  0.23860000  0.11390000  0.52960000  1.0 0.1196952902
H  H41  1  0.67940000  0.75100000  0.34190000  1.0 0.1100725554
H  H42  1  0.32060000  0.24900000  0.65810000  1.0 0.1100725554
H  H43  1  0.70450000  0.65950000  0.38550000  1.0 0.1100725554
H  H44  1  0.29550000  0.34050000  0.61450000  1.0 0.1100725554
H  H45  1  0.64620000  0.64190000  0.22230000  1.0 0.0804055808
H  H46  1  0.35380000  0.35810000  0.77770000  1.0 0.0804055808
H  H47  1  0.70840000  0.79660000  0.20050000  1.0 0.1196952902
H  H48  1  0.29160000  0.20340000  0.79950000  1.0 0.1196952902
H  H49  1  0.75610000  0.73600000  0.15440000  1.0 0.1008753309
H  H50  1  0.24390000  0.26400000  0.84560000  1.0 0.1008753309
H  H51  1  0.83640000  0.88400000  0.35750000  1.0 0.1196952902
H  H52  1  0.16360000  0.11600000  0.64250000  1.0 0.1196952902
H  H53  1  0.96420000  0.87820000  0.40950000  1.0 0.1196952902
H  H54  1  0.03580000  0.12180000  0.59050000  1.0 0.1196952902
H  H55  1  0.90660000  0.64910000  0.46730000  1.0 0.1196952902
H  H56  1  0.09340000  0.35090000  0.53270000  1.0 0.1196952902
H  H57  1  0.00680000  0.73500000  0.47680000  1.0 0.1008753309
H  H58  1  0.99320000  0.26500000  0.52320000  1.0 0.1008753309
H  H59  1  0.97530000  0.62870000  0.35600000  1.0 0.0898902164
H  H60  1  0.02470000  0.37130000  0.64400000  1.0 0.0898902164
H  H61  1  0.79900000  0.59440000  0.22240000  1.0 0.1008753309
H  H62  1  0.20100000  0.40560000  0.77760000  1.0 0.1008753309
H  H63  1  0.78000000  0.56370000  0.31230000  1.0 0.1100725554
H  H64  1  0.22000000  0.43630000  0.68770000  1.0 0.1100725554
H  H65  1  0.03760000  0.78520000  0.33590000  1.0 0.1100725554
H  H66  1  0.96240000  0.21480000  0.66410000  1.0 0.1100725554
H  H67  1  0.95770000  0.73020000  0.23660000  1.0 0.1100725554
H  H68  1  0.04230000  0.26980000  0.76340000  1.0 0.1100725554
H  H69  1  0.91900000  0.82960000  0.11900000  1.0 0.1196952902
H  H70  1  0.08100000  0.17040000  0.88100000  1.0 0.1196952902
H  H71  1  0.92560000  0.00220000  0.30180000  1.0 0.1196952902
H  H72  1  0.07440000  0.99780000  0.69820000  1.0 0.1196952902
H  H73  1  0.73270000  0.89010000  0.95730000  1.0 0.1196952902
H  H74  1  0.26730000  0.10990000  0.04270000  1.0 0.1196952902
H  H75  1  0.71250000  0.72450000  0.76100000  1.0 0.1292456909
H  H76  1  0.28750000  0.27550000  0.23900000  1.0 0.1292456909
H  H77  1  0.59730000  0.61120000  0.81310000  1.0 0.1100725554
H  H78  1  0.40270000  0.38880000  0.18690000  1.0 0.1100725554
H  H79  1  0.51990000  0.66030000  0.73110000  1.0 0.1196952902
H  H80  1  0.48010000  0.33970000  0.26890000  1.0 0.1196952902
H  H81  1  0.40480000  0.52890000  0.75850000  1.0 0.0804055808
H  H82  1  0.59520000  0.47110000  0.24150000  1.0 0.0804055808
H  H83  1  0.39870000  0.51780000  0.90550000  1.0 0.1100725554
H  H84  1  0.60130000  0.48220000  0.09450000  1.0 0.1100725554
H  H85  1  0.52410000  0.52520000  0.91850000  1.0 0.1100725554
H  H86  1  0.47590000  0.47480000  0.08150000  1.0 0.1100725554
H  H87  1  0.52770000  0.62640000  0.03050000  1.0 0.0804055808
H  H88  1  0.47230000  0.37360000  0.96950000  1.0 0.0804055808
H  H89  1  0.64130000  0.75860000  0.00320000  1.0 0.0898902164
H  H90  1  0.35870000  0.24140000  0.99680000  1.0 0.0898902164
H  H91  1  0.67220000  0.67140000  0.97900000  1.0 0.1196952902
H  H92  1  0.32780000  0.32860000  0.02100000  1.0 0.1196952902
H  H93  1  0.47070000  0.79740000  0.76780000  1.0 0.1292456909
H  H94  1  0.52930000  0.20260000  0.23220000  1.0 0.1292456909
H  H95  1  0.51880000  0.83680000  0.87370000  1.0 0.1196952902
H  H96  1  0.48120000  0.16320000  0.12630000  1.0 0.1196952902
H  H97  1  0.27470000  0.59600000  0.77650000  1.0 0.1100725554
H  H98  1  0.72530000  0.40400000  0.22350000  1.0 0.1100725554
H  H99  1  0.32280000  0.65130000  0.70920000  1.0 0.1196952902
H  H100  1  0.67720000  0.34870000  0.29080000  1.0 0.1196952902
H  H101  1  0.35060000  0.65720000  0.94450000  1.0 0.1100725554
H  H102  1  0.64940000  0.34280000  0.05550000  1.0 0.1100725554
H  H103  1  0.44670000  0.75010000  0.98170000  1.0 0.1196952902
H  H104  1  0.55330000  0.24990000  0.01830000  1.0 0.1196952902
C  C1  1  0.84590000  0.13610000  0.88030000  1.0 0.0898902164
C  C2  1  0.15410000  0.86390000  0.11970000  1.0 0.0898902164
C  C3  1  0.85410000  0.22850000  0.98220000  1.0 0.0898902164
C  C4  1  0.14590000  0.77150000  0.01780000  1.0 0.0898902164
C  C5  1  0.75690000  0.26670000  0.81720000  1.0 0.2517966826
C  C6  1  0.24310000  0.73330000  0.18280000  1.0 0.2517966826
C  C7  1  0.74640000  0.23680000  0.72270000  1.0 -0.2996998934
C  C8  1  0.25360000  0.76320000  0.27730000  1.0 -0.2996998934
C  C9  1  0.68620000  0.29770000  0.65090000  1.0 0.0804055808
C  C10  1  0.31380000  0.70230000  0.34910000  1.0 0.0804055808
C  C11  1  0.57110000  0.28810000  0.64740000  1.0 -0.2546084921
C  C12  1  0.42890000  0.71190000  0.35260000  1.0 -0.2546084921
C  C13  1  0.58120000  0.31650000  0.74140000  1.0 0.0804055808
C  C14  1  0.41880000  0.68350000  0.25860000  1.0 0.0804055808
C  C15  1  0.64080000  0.25710000  0.81350000  1.0 -0.2996998934
C  C16  1  0.35920000  0.74290000  0.18650000  1.0 -0.2996998934
C  C17  1  0.82760000  0.36500000  0.84530000  1.0 -0.3404171418
C  C18  1  0.17240000  0.63500000  0.15470000  1.0 -0.3404171418
C  C19  1  0.76590000  0.42460000  0.77290000  1.0 0.2574222783
C  C20  1  0.23410000  0.57540000  0.22710000  1.0 0.2574222783
C  C21  1  0.75680000  0.39680000  0.67910000  1.0 -0.2996998934
C  C22  1  0.24320000  0.60320000  0.32090000  1.0 -0.2996998934
C  C23  1  0.65050000  0.41520000  0.77030000  1.0 -0.2996998934
C  C24  1  0.34950000  0.58480000  0.22970000  1.0 -0.2996998934
C  C25  1  0.85940000  0.55960000  0.88810000  1.0 0.0898902164
C  C26  1  0.14060000  0.44040000  0.11190000  1.0 0.0898902164
C  C27  1  0.86910000  0.58570000  0.75960000  1.0 0.0898902164
C  C28  1  0.13090000  0.41430000  0.24040000  1.0 0.0898902164
C  C29  1  0.90870000  0.76840000  0.58990000  1.0 0.0804055808
C  C30  1  0.09130000  0.23160000  0.41010000  1.0 0.0804055808
C  C31  1  0.80610000  0.85580000  0.51840000  1.0 0.0898902164
C  C32  1  0.19390000  0.14420000  0.48160000  1.0 0.0898902164
C  C33  1  0.85010000  0.76180000  0.41610000  1.0 0.2574222783
C  C34  1  0.14990000  0.23820000  0.58390000  1.0 0.2574222783
C  C35  1  0.72960000  0.71080000  0.35430000  1.0 -0.2996998934
C  C36  1  0.27040000  0.28920000  0.64570000  1.0 -0.2996998934
C  C37  1  0.72460000  0.67670000  0.26290000  1.0 0.0804055808
C  C38  1  0.27540000  0.32330000  0.73710000  1.0 0.0804055808
C  C39  1  0.75980000  0.75730000  0.21380000  1.0 -0.3082921545
C  C40  1  0.24020000  0.24270000  0.78620000  1.0 -0.3082921545
C  C41  1  0.88020000  0.81000000  0.27720000  1.0 0.2574222783
C  C42  1  0.11980000  0.19000000  0.72280000  1.0 0.2574222783
C  C43  1  0.88660000  0.84390000  0.36910000  1.0 -0.345344315
C  C44  1  0.11340000  0.15610000  0.63090000  1.0 -0.345344315
C  C45  1  0.92920000  0.70130000  0.43570000  1.0 -0.3082921545
C  C46  1  0.07080000  0.29870000  0.56430000  1.0 -0.3082921545
C  C47  1  0.92390000  0.66870000  0.34400000  1.0 0.0804055808
C  C48  1  0.07610000  0.33130000  0.65600000  1.0 0.0898902164
C  C49  1  0.80320000  0.61640000  0.28170000  1.0 -0.2647303443
C  C50  1  0.19680000  0.38360000  0.71830000  1.0 -0.2657828133
C  C51  1  0.95990000  0.75070000  0.29570000  1.0 -0.3082921545
C  C52  1  0.04010000  0.24930000  0.70430000  1.0 -0.3082921545
C  C53  1  0.92740000  0.88390000  0.15100000  1.0 0.0517962996
C  C54  1  0.07260000  0.11610000  0.84900000  1.0 0.0517962996
C  C55  1  0.93140000  0.97770000  0.25060000  1.0 0.1008753309
C  C56  1  0.06860000  0.02230000  0.74940000  1.0 0.1008753309
C  C57  1  0.74990000  0.86230000  0.91470000  1.0 0.0439949103
C  C58  1  0.25010000  0.13770000  0.08530000  1.0 0.0439949103
C  C59  1  0.73880000  0.77240000  0.80750000  1.0 0.0898902164
C  C60  1  0.26120000  0.22760000  0.19250000  1.0 0.0898902164
C  C61  1  0.58080000  0.72850000  0.86080000  1.0 0.2517966826
C  C62  1  0.41920000  0.27150000  0.13920000  1.0 0.2517966826
C  C63  1  0.53860000  0.64410000  0.79540000  1.0 -0.2996998934
C  C64  1  0.46140000  0.35590000  0.20460000  1.0 -0.2996998934
C  C65  1  0.43360000  0.58450000  0.80160000  1.0 0.0898902164
C  C66  1  0.56640000  0.41550000  0.19840000  1.0 0.0898902164
C  C67  1  0.46510000  0.55780000  0.90090000  1.0 -0.2767902415
C  C68  1  0.53490000  0.44220000  0.09910000  1.0 -0.2767902415
C  C69  1  0.50770000  0.64320000  0.96560000  1.0 0.0898902164
C  C70  1  0.49230000  0.35680000  0.03440000  1.0 0.1008753309
C  C71  1  0.61260000  0.70360000  0.96050000  1.0 -0.3082921545
C  C72  1  0.38740000  0.29640000  0.03950000  1.0 -0.3082921545
C  C73  1  0.49060000  0.78100000  0.83220000  1.0 -0.3404171418
C  C74  1  0.50940000  0.21900000  0.16780000  1.0 -0.3404171418
C  C75  1  0.38700000  0.71930000  0.83970000  1.0 0.2342283179
C  C76  1  0.61300000  0.28070000  0.16030000  1.0 0.2342283179
C  C77  1  0.34280000  0.63480000  0.77360000  1.0 -0.2996998934
C  C78  1  0.65720000  0.36520000  0.22640000  1.0 -0.2996998934
C  C79  1  0.41780000  0.69480000  0.93930000  1.0 -0.3082921545
C  C80  1  0.58220000  0.30520000  0.06070000  1.0 -0.3082921545
C  C81  1  0.19400000  0.74160000  0.80580000  1.0 0.0804055808
C  C82  1  0.80600000  0.25840000  0.19420000  1.0 0.0804055808
C  C83  1  0.31600000  0.86340000  0.80660000  1.0 0.1008753309
C  C84  1  0.68400000  0.13660000  0.19340000  1.0 0.1008753309
C  C85  1  0.21870000  0.75710000  0.83800000  1.0 0.0804055808
C  C86  1  0.78130000  0.24290000  0.16200000  1.0 0.0804055808
C  C87  1  0.27720000  0.83000000  0.74790000  1.0 0.0898902164
C  C88  1  0.72280000  0.17000000  0.25210000  1.0 0.0898902164
N  N1  1  0.89990000  0.10950000  0.96120000  1.0 -0.1979450326
N  N2  1  0.10010000  0.89050000  0.03880000  1.0 -0.1979450326
N  N3  1  0.90590000  0.16890000  0.02720000  1.0 -0.1882526945
N  N4  1  0.09410000  0.83110000  0.97280000  1.0 -0.1979450326
N  N5  1  0.81590000  0.21080000  0.88960000  1.0 -0.0423196133
N  N6  1  0.18410000  0.78920000  0.11040000  1.0 -0.0423196133
N  N7  1  0.83220000  0.51930000  0.80440000  1.0 -0.047840893
N  N8  1  0.16780000  0.48070000  0.19560000  1.0 -0.047840893
N  N9  1  0.90960000  0.64500000  0.89570000  1.0 -0.227183492
N  N10  1  0.09040000  0.35500000  0.10430000  1.0 -0.227183492
N  N11  1  0.91810000  0.66180000  0.81350000  1.0 -0.227183492
N  N12  1  0.08190000  0.33820000  0.18650000  1.0 -0.2244252513
N  N13  1  0.89410000  0.81110000  0.65100000  1.0 -0.2132914241
N  N14  1  0.10590000  0.18890000  0.34900000  1.0 -0.2132914241
N  N15  1  0.82870000  0.86860000  0.60600000  1.0 -0.227183492
N  N16  1  0.17130000  0.13140000  0.39400000  1.0 -0.227183492
N  N17  1  0.85460000  0.79400000  0.50480000  1.0 -0.047840893
N  N18  1  0.14540000  0.20600000  0.49520000  1.0 -0.047840893
N  N19  1  0.91360000  0.88950000  0.22970000  1.0 -0.047840893
N  N20  1  0.08640000  0.11050000  0.77030000  1.0 -0.047840893
N  N21  1  0.95420000  0.96470000  0.12570000  1.0 -0.1979450326
N  N22  1  0.04580000  0.03530000  0.87430000  1.0 -0.1979450326
N  N23  1  0.95790000  0.02500000  0.19010000  1.0 -0.1882526945
N  N24  1  0.04210000  0.97500000  0.80990000  1.0 -0.1882526945
N  N25  1  0.84240000  0.89070000  0.90250000  1.0 -0.1882526945
N  N26  1  0.15760000  0.10930000  0.09750000  1.0 -0.1882526945
N  N27  1  0.83440000  0.83400000  0.83350000  1.0 -0.1658463504
N  N28  1  0.16560000  0.16600000  0.16650000  1.0 -0.1658463504
N  N29  1  0.68270000  0.78680000  0.85670000  1.0 -0.047840893
N  N30  1  0.31730000  0.21320000  0.14330000  1.0 -0.047840893
N  N31  1  0.29910000  0.76880000  0.81310000  1.0 -0.0020630121
N  N32  1  0.70090000  0.23120000  0.18690000  1.0 -0.0020630121
N  N33  1  0.14640000  0.80440000  0.79560000  1.0 -0.0787933234
N  N34  1  0.85360000  0.19560000  0.20440000  1.0 -0.0787933234
N  N35  1  0.22320000  0.88750000  0.79590000  1.0 -0.1123952518
N  N36  1  0.77680000  0.11250000  0.20410000  1.0 -0.1123952518
N  N37  1  0.18410000  0.85240000  0.73500000  1.0 -0.1163195546
N  N38  1  0.81590000  0.14760000  0.26500000  1.0 -0.1163195546
N  N39  1  0.58780000  0.95400000  0.31370000  1.0 0.671352605
N  N40  1  0.41220000  0.04600000  0.68630000  1.0 0.671352605
N  N41  1  0.35940000  0.48470000  0.53960000  1.0 0.682744642
N  N42  1  0.64060000  0.51530000  0.46040000  1.0 0.682744642
N  N43  1  0.85500000  0.48320000  0.10620000  1.0 0.6484713156
N  N44  1  0.14500000  0.51680000  0.89380000  1.0 0.6484713156
O  O1  1  0.51100000  0.98140000  0.25130000  1.0 -0.4522767838
O  O2  1  0.63720000  0.91040000  0.29020000  1.0 -0.4411728035
O  O3  1  0.59710000  0.96060000  0.39340000  1.0 -0.4087851595
O  O4  1  0.48900000  0.01860000  0.74870000  1.0 -0.4522767838
O  O5  1  0.36280000  0.08960000  0.70980000  1.0 -0.4411728035
O  O6  1  0.40290000  0.03940000  0.60660000  1.0 -0.4087851595
O  O7  1  0.45050000  0.46840000  0.57130000  1.0 -0.4087851595
O  O8  1  0.27580000  0.43220000  0.47590000  1.0 -0.4835831921
O  O9  1  0.34870000  0.55380000  0.56900000  1.0 -0.4411728035
O  O10  1  0.54950000  0.53160000  0.42870000  1.0 -0.4087851595
O  O11  1  0.72420000  0.56780000  0.52410000  1.0 -0.4835831921
O  O12  1  0.65130000  0.44620000  0.43100000  1.0 -0.4411728035
O  O13  1  0.84690000  0.41750000  0.05990000  1.0 -0.426751117
O  O14  1  0.91800000  0.50150000  0.18900000  1.0 -0.4205007057
O  O15  1  0.79470000  0.53550000  0.06430000  1.0 -0.4522767838
O  O16  1  0.15310000  0.58250000  0.94010000  1.0 -0.426751117
O  O17  1  0.08200000  0.49850000  0.81100000  1.0 -0.4205007057
O  O18  1  0.20530000  0.46450000  0.93570000  1.0 -0.4522767838
