# DDEC6 charges by PACMAN v1.1 (https://github.com/mtap-research/PACMAN-charge/)
data_TUGTAR_ion_pacman
_symmetry_space_group_name_H-M   'P 1'
_cell_length_a   13.84360000
_cell_length_b   17.80390000
_cell_length_c   17.14760000
_cell_angle_alpha   90.00000000
_cell_angle_beta   110.26800000
_cell_angle_gamma   90.00000000
_symmetry_Int_Tables_number   1
_chemical_formula_structural   Cu2H37C28N13O4
_chemical_formula_sum   'Cu8 H148 C112 N52 O16'
_cell_volume   3964.68412498
_cell_formula_units_Z   4
loop_
 _symmetry_equiv_pos_site_id
 _symmetry_equiv_pos_as_xyz
  1  'x, y, z'
loop_
 _atom_site_type_symbol
 _atom_site_label
 _atom_site_symmetry_multiplicity
 _atom_site_fract_x
 _atom_site_fract_y
 _atom_site_fract_z
 _atom_site_occupancy
 _atom_site_charge
Cu  Cu1  1  0.50000000  0.50000000  0.50000000  1.0 0.8249391206
Cu  Cu2  1  0.50000000  0.00000000  0.00000000  1.0 0.8249391206
Cu  Cu3  1  0.76071000  0.48945000  0.56218000  1.0 0.6407186874
Cu  Cu4  1  0.23929000  0.98945000  0.93782000  1.0 0.6407186874
Cu  Cu5  1  0.23929000  0.51055000  0.43782000  1.0 0.6407186874
Cu  Cu6  1  0.76071000  0.01055000  0.06218000  1.0 0.6407186874
Cu  Cu7  1  0.00000000  0.00000000  0.00000000  1.0 0.5274146684
Cu  Cu8  1  0.00000000  0.50000000  0.50000000  1.0 0.518791128
H  H1  1  0.62640000  0.53050000  0.44080000  1.0 0.3456242868
H  H2  1  0.37360000  0.03050000  0.05920000  1.0 0.3456242868
H  H3  1  0.37360000  0.46950000  0.55920000  1.0 0.3456242868
H  H4  1  0.62640000  0.96950000  0.94080000  1.0 0.3456242868
H  H5  1  0.76010000  0.66820000  0.58060000  1.0 0.1305179373
H  H6  1  0.23990000  0.16820000  0.91940000  1.0 0.1305179373
H  H7  1  0.23990000  0.33180000  0.41940000  1.0 0.1305179373
H  H8  1  0.76010000  0.83180000  0.08060000  1.0 0.1305179373
H  H9  1  0.99830000  0.67510000  0.50430000  1.0 0.1186791843
H  H10  1  0.00170000  0.17510000  0.99570000  1.0 0.1186791843
H  H11  1  0.00170000  0.32490000  0.49570000  1.0 0.1186791843
H  H12  1  0.99830000  0.82490000  0.00430000  1.0 0.1186791843
H  H13  1  0.13990000  0.93560000  0.75200000  1.0 0.1099955744
H  H14  1  0.86010000  0.43560000  0.74800000  1.0 0.1099955744
H  H15  1  0.86010000  0.06440000  0.24800000  1.0 0.1099955744
H  H16  1  0.13990000  0.56440000  0.25200000  1.0 0.1099955744
H  H17  1  0.88420000  0.89910000  0.79850000  1.0 0.1099955744
H  H18  1  0.11580000  0.39910000  0.70150000  1.0 0.1099955744
H  H19  1  0.11580000  0.10090000  0.20150000  1.0 0.1099955744
H  H20  1  0.88420000  0.60090000  0.29850000  1.0 0.1099955744
H  H21  1  0.73700000  0.80220000  0.46420000  1.0 0.1099955744
H  H22  1  0.26300000  0.30220000  0.03580000  1.0 0.1099955744
H  H23  1  0.26300000  0.19780000  0.53580000  1.0 0.1099955744
H  H24  1  0.73700000  0.69780000  0.96420000  1.0 0.1099955744
H  H25  1  0.73370000  0.79340000  0.55640000  1.0 0.1099955744
H  H26  1  0.26630000  0.29340000  0.94360000  1.0 0.1099955744
H  H27  1  0.26630000  0.20660000  0.44360000  1.0 0.1099955744
H  H28  1  0.73370000  0.70660000  0.05640000  1.0 0.1186791843
H  H29  1  0.70550000  0.92120000  0.51430000  1.0 0.0689535263
H  H30  1  0.29450000  0.42120000  0.98570000  1.0 0.0689535263
H  H31  1  0.29450000  0.07880000  0.48570000  1.0 0.0689535263
H  H32  1  0.70550000  0.57880000  0.01430000  1.0 0.0689535263
H  H33  1  0.79280000  0.90040000  0.65900000  1.0 0.1099955744
H  H34  1  0.20720000  0.40040000  0.84100000  1.0 0.1099955744
H  H35  1  0.20720000  0.09960000  0.34100000  1.0 0.1099955744
H  H36  1  0.79280000  0.59960000  0.15900000  1.0 0.1099955744
H  H37  1  0.83380000  0.97680000  0.63160000  1.0 0.0998728721
H  H38  1  0.16620000  0.47680000  0.86840000  1.0 0.0998728721
H  H39  1  0.16620000  0.02320000  0.36840000  1.0 0.0998728721
H  H40  1  0.83380000  0.52320000  0.13160000  1.0 0.0998728721
H  H41  1  0.00710000  0.78360000  0.66530000  1.0 0.1099955744
H  H42  1  0.99290000  0.28360000  0.83470000  1.0 0.1099955744
H  H43  1  0.99290000  0.21640000  0.33470000  1.0 0.1099955744
H  H44  1  0.00710000  0.71640000  0.16530000  1.0 0.1099955744
H  H45  1  0.89810000  0.78270000  0.67920000  1.0 0.1099955744
H  H46  1  0.10190000  0.28270000  0.82080000  1.0 0.1099955744
H  H47  1  0.10190000  0.21730000  0.32080000  1.0 0.1186791843
H  H48  1  0.89810000  0.71730000  0.17920000  1.0 0.1186791843
H  H49  1  0.01100000  0.79740000  0.51870000  1.0 0.0998728721
H  H50  1  0.98900000  0.29740000  0.98130000  1.0 0.0998728721
H  H51  1  0.98900000  0.20260000  0.48130000  1.0 0.0998728721
H  H52  1  0.01100000  0.70260000  0.01870000  1.0 0.0998728721
H  H53  1  0.90510000  0.80470000  0.44130000  1.0 0.1099955744
H  H54  1  0.09490000  0.30470000  0.05870000  1.0 0.1099955744
H  H55  1  0.09490000  0.19530000  0.55870000  1.0 0.1099955744
H  H56  1  0.90510000  0.69530000  0.94130000  1.0 0.1099955744
H  H57  1  0.98160000  0.92680000  0.47830000  1.0 0.0689535263
H  H58  1  0.01840000  0.42680000  0.02170000  1.0 0.0689535263
H  H59  1  0.01840000  0.07320000  0.52170000  1.0 0.0689535263
H  H60  1  0.98160000  0.57320000  0.97830000  1.0 0.0689535263
H  H61  1  0.00300000  0.97810000  0.61030000  1.0 0.0998728721
H  H62  1  0.99700000  0.47810000  0.88970000  1.0 0.0998728721
H  H63  1  0.99700000  0.02190000  0.38970000  1.0 0.0998728721
H  H64  1  0.00300000  0.52190000  0.11030000  1.0 0.0998728721
H  H65  1  0.06920000  0.90240000  0.62120000  1.0 0.0998728721
H  H66  1  0.93080000  0.40240000  0.87880000  1.0 0.0998728721
H  H67  1  0.93080000  0.09760000  0.37880000  1.0 0.0998728721
H  H68  1  0.06920000  0.59760000  0.12120000  1.0 0.0998728721
H  H69  1  0.79920000  0.92330000  0.42250000  1.0 0.0998728721
H  H70  1  0.20080000  0.42330000  0.07750000  1.0 0.0998728721
H  H71  1  0.20080000  0.07670000  0.57750000  1.0 0.0998728721
H  H72  1  0.79920000  0.57670000  0.92250000  1.0 0.0998728721
H  H73  1  0.83620000  0.99090000  0.48820000  1.0 0.0998728721
H  H74  1  0.16380000  0.49090000  0.01180000  1.0 0.0998728721
H  H75  1  0.16380000  0.00910000  0.51180000  1.0 0.0998728721
H  H76  1  0.83620000  0.50910000  0.98820000  1.0 0.0998728721
H  H77  1  0.35510000  0.90080000  0.10950000  1.0 0.1186791843
H  H78  1  0.64490000  0.40080000  0.39050000  1.0 0.1186791843
H  H79  1  0.64490000  0.09920000  0.89050000  1.0 0.1186791843
H  H80  1  0.35510000  0.59920000  0.60950000  1.0 0.1186791843
H  H81  1  0.11900000  0.92650000  0.18580000  1.0 0.1186791843
H  H82  1  0.88100000  0.42650000  0.31420000  1.0 0.1186791843
H  H83  1  0.88100000  0.07350000  0.81420000  1.0 0.1186791843
H  H84  1  0.11900000  0.57350000  0.68580000  1.0 0.1186791843
H  H85  1  0.52960000  0.66040000  0.41730000  1.0 0.1186791843
H  H86  1  0.47040000  0.16040000  0.08270000  1.0 0.1186791843
H  H87  1  0.47040000  0.33960000  0.58270000  1.0 0.1186791843
H  H88  1  0.52960000  0.83960000  0.91730000  1.0 0.1186791843
H  H89  1  0.23260000  0.68690000  0.37110000  1.0 0.1186791843
H  H90  1  0.76740000  0.18690000  0.12890000  1.0 0.1186791843
H  H91  1  0.76740000  0.31310000  0.62890000  1.0 0.1186791843
H  H92  1  0.23260000  0.81310000  0.87110000  1.0 0.1186791843
H  H93  1  0.30270000  0.98440000  0.31300000  1.0 0.0998728721
H  H94  1  0.69730000  0.48440000  0.18700000  1.0 0.1099955744
H  H95  1  0.69730000  0.01560000  0.68700000  1.0 0.0998728721
H  H96  1  0.30270000  0.51560000  0.81300000  1.0 0.1099955744
H  H97  1  0.22650000  0.91850000  0.31890000  1.0 0.0998728721
H  H98  1  0.77350000  0.41850000  0.18110000  1.0 0.0998728721
H  H99  1  0.77350000  0.08150000  0.68110000  1.0 0.0998728721
H  H100  1  0.22650000  0.58150000  0.81890000  1.0 0.0998728721
H  H101  1  0.34860000  0.94320000  0.45260000  1.0 0.0794094035
H  H102  1  0.65140000  0.44320000  0.04740000  1.0 0.0794094035
H  H103  1  0.65140000  0.05680000  0.54740000  1.0 0.0794094035
H  H104  1  0.34860000  0.55680000  0.95260000  1.0 0.0794094035
H  H105  1  0.28720000  0.81720000  0.42460000  1.0 0.0998728721
H  H106  1  0.71280000  0.31720000  0.07540000  1.0 0.0998728721
H  H107  1  0.71280000  0.18280000  0.57540000  1.0 0.0998728721
H  H108  1  0.28720000  0.68280000  0.92460000  1.0 0.0998728721
H  H109  1  0.40410000  0.81640000  0.48780000  1.0 0.1186791843
H  H110  1  0.59590000  0.31640000  0.01220000  1.0 0.1186791843
H  H111  1  0.59590000  0.18360000  0.51220000  1.0 0.1186791843
H  H112  1  0.40410000  0.68360000  0.98780000  1.0 0.1186791843
H  H113  1  0.33960000  0.76940000  0.23920000  1.0 0.1305179373
H  H114  1  0.66040000  0.26940000  0.26080000  1.0 0.1305179373
H  H115  1  0.66040000  0.23060000  0.76080000  1.0 0.1305179373
H  H116  1  0.33960000  0.73060000  0.73920000  1.0 0.1305179373
H  H117  1  0.24750000  0.78790000  0.27290000  1.0 0.1099955744
H  H118  1  0.75250000  0.28790000  0.22710000  1.0 0.1099955744
H  H119  1  0.75250000  0.21210000  0.72710000  1.0 0.0998728721
H  H120  1  0.24750000  0.71210000  0.77290000  1.0 0.0998728721
H  H121  1  0.44670000  0.95620000  0.26120000  1.0 0.1099955744
H  H122  1  0.55330000  0.45620000  0.23880000  1.0 0.1099955744
H  H123  1  0.55330000  0.04380000  0.73880000  1.0 0.1099955744
H  H124  1  0.44670000  0.54380000  0.76120000  1.0 0.1099955744
H  H125  1  0.46140000  0.87250000  0.23240000  1.0 0.1099955744
H  H126  1  0.53860000  0.37250000  0.26760000  1.0 0.1099955744
H  H127  1  0.53860000  0.12750000  0.76760000  1.0 0.1099955744
H  H128  1  0.46140000  0.62750000  0.73240000  1.0 0.1099955744
H  H129  1  0.58310000  0.89640000  0.36520000  1.0 0.0794094035
H  H130  1  0.41690000  0.39640000  0.13480000  1.0 0.0794094035
H  H131  1  0.41690000  0.10360000  0.63480000  1.0 0.0794094035
H  H132  1  0.58310000  0.60360000  0.86520000  1.0 0.0794094035
H  H133  1  0.54900000  0.78770000  0.43400000  1.0 0.1099955744
H  H134  1  0.45100000  0.28770000  0.06600000  1.0 0.1099955744
H  H135  1  0.45100000  0.21230000  0.56600000  1.0 0.1099955744
H  H136  1  0.54900000  0.71230000  0.93400000  1.0 0.1099955744
H  H137  1  0.52290000  0.76950000  0.33720000  1.0 0.1099955744
H  H138  1  0.47710000  0.26950000  0.16280000  1.0 0.1099955744
H  H139  1  0.47710000  0.23050000  0.66280000  1.0 0.1099955744
H  H140  1  0.52290000  0.73050000  0.83720000  1.0 0.1099955744
H  H141  1  0.48660000  0.98500000  0.41410000  1.0 0.0998728721
H  H142  1  0.51340000  0.48500000  0.08590000  1.0 0.0998728721
H  H143  1  0.51340000  0.01500000  0.58590000  1.0 0.0998728721
H  H144  1  0.48660000  0.51500000  0.91410000  1.0 0.0998728721
H  H145  1  0.52500000  0.91810000  0.48050000  1.0 0.0998728721
H  H146  1  0.47500000  0.41810000  0.01950000  1.0 0.0998728721
H  H147  1  0.47500000  0.08190000  0.51950000  1.0 0.0998728721
H  H148  1  0.52500000  0.58190000  0.98050000  1.0 0.0998728721
C  C1  1  0.81400000  0.65360000  0.56150000  1.0 0.0794094035
C  C2  1  0.18600000  0.15360000  0.93850000  1.0 0.0794094035
C  C3  1  0.18600000  0.34640000  0.43850000  1.0 0.0794094035
C  C4  1  0.81400000  0.84640000  0.06150000  1.0 0.0794094035
C  C5  1  0.94300000  0.65740000  0.52010000  1.0 0.0689535263
C  C6  1  0.05700000  0.15740000  0.97990000  1.0 0.0689535263
C  C7  1  0.05700000  0.34260000  0.47990000  1.0 0.0689535263
C  C8  1  0.94300000  0.84260000  0.02010000  1.0 0.0689535263
C  C9  1  0.09100000  0.93210000  0.77940000  1.0 0.0183589608
C  C10  1  0.90900000  0.43210000  0.72060000  1.0 0.0183589608
C  C11  1  0.90900000  0.06790000  0.22060000  1.0 0.0183589608
C  C12  1  0.09100000  0.56790000  0.27940000  1.0 0.0183589608
C  C13  1  0.95260000  0.91320000  0.80470000  1.0 0.0458754525
C  C14  1  0.04740000  0.41320000  0.69530000  1.0 0.0458754525
C  C15  1  0.04740000  0.08680000  0.19530000  1.0 0.0458754525
C  C16  1  0.95260000  0.58680000  0.30470000  1.0 0.0442669131
C  C17  1  0.88180000  0.78490000  0.55290000  1.0 0.240837833
C  C18  1  0.11820000  0.28490000  0.94710000  1.0 0.240837833
C  C19  1  0.11820000  0.21510000  0.44710000  1.0 0.240837833
C  C20  1  0.88180000  0.71510000  0.05290000  1.0 0.240837833
C  C21  1  0.77260000  0.81550000  0.52330000  1.0 -0.3281183694
C  C22  1  0.22740000  0.31550000  0.97670000  1.0 -0.3281183694
C  C23  1  0.22740000  0.18450000  0.47670000  1.0 -0.3281183694
C  C24  1  0.77260000  0.68450000  0.02330000  1.0 -0.3281183694
C  C25  1  0.77730000  0.90090000  0.53340000  1.0 0.0689535263
C  C26  1  0.22270000  0.40090000  0.96660000  1.0 0.0689535263
C  C27  1  0.22270000  0.09910000  0.46660000  1.0 0.0689535263
C  C28  1  0.77730000  0.59910000  0.03340000  1.0 0.0689535263
C  C29  1  0.83130000  0.92160000  0.62500000  1.0 -0.3281183694
C  C30  1  0.16870000  0.42160000  0.87500000  1.0 -0.3281183694
C  C31  1  0.16870000  0.07840000  0.37500000  1.0 -0.3281183694
C  C32  1  0.83130000  0.57840000  0.12500000  1.0 -0.3281183694
C  C33  1  0.94030000  0.88970000  0.65390000  1.0 0.240837833
C  C34  1  0.05970000  0.38970000  0.84610000  1.0 0.240837833
C  C35  1  0.05970000  0.11030000  0.34610000  1.0 0.240837833
C  C36  1  0.94030000  0.61030000  0.15390000  1.0 0.240837833
C  C37  1  0.93640000  0.80450000  0.64540000  1.0 -0.3530756585
C  C38  1  0.06360000  0.30450000  0.85460000  1.0 -0.3530756585
C  C39  1  0.06360000  0.19550000  0.35460000  1.0 -0.3530756585
C  C40  1  0.93640000  0.69550000  0.14540000  1.0 -0.3530756585
C  C41  1  0.94010000  0.81780000  0.50050000  1.0 -0.3197198522
C  C42  1  0.05990000  0.31780000  0.99950000  1.0 -0.3197198522
C  C43  1  0.05990000  0.18220000  0.49950000  1.0 -0.3281183694
C  C44  1  0.94010000  0.68220000  0.00050000  1.0 -0.3281183694
C  C45  1  0.94290000  0.90410000  0.51200000  1.0 0.0689535263
C  C46  1  0.05710000  0.40410000  0.98800000  1.0 0.0689535263
C  C47  1  0.05710000  0.09590000  0.48800000  1.0 0.0689535263
C  C48  1  0.94290000  0.59590000  0.01200000  1.0 0.0689535263
C  C49  1  0.99840000  0.92300000  0.60280000  1.0 -0.3405908979
C  C50  1  0.00160000  0.42300000  0.89720000  1.0 -0.3405908979
C  C51  1  0.00160000  0.07700000  0.39720000  1.0 -0.3405908979
C  C52  1  0.99840000  0.57700000  0.10280000  1.0 -0.3405908979
C  C53  1  0.83430000  0.93560000  0.48190000  1.0 -0.2880329005
C  C54  1  0.16570000  0.43560000  0.01810000  1.0 -0.2880329005
C  C55  1  0.16570000  0.06440000  0.51810000  1.0 -0.2880329005
C  C56  1  0.83430000  0.56440000  0.98190000  1.0 -0.2880329005
C  C57  1  0.28870000  0.91280000  0.11060000  1.0 0.0794094035
C  C58  1  0.71130000  0.41280000  0.38940000  1.0 0.0794094035
C  C59  1  0.71130000  0.08720000  0.88940000  1.0 0.0794094035
C  C60  1  0.28870000  0.58720000  0.61060000  1.0 0.0794094035
C  C61  1  0.16090000  0.92670000  0.15220000  1.0 0.0442669131
C  C62  1  0.83910000  0.42670000  0.34780000  1.0 0.0442669131
C  C63  1  0.83910000  0.07330000  0.84780000  1.0 0.0442669131
C  C64  1  0.16090000  0.57330000  0.65220000  1.0 0.0442669131
C  C65  1  0.46040000  0.65110000  0.41300000  1.0 0.0794094035
C  C66  1  0.53960000  0.15110000  0.08700000  1.0 0.0794094035
C  C67  1  0.53960000  0.34890000  0.58700000  1.0 0.0794094035
C  C68  1  0.46040000  0.84890000  0.91300000  1.0 0.0794094035
C  C69  1  0.29950000  0.66540000  0.38790000  1.0 0.0874829368
C  C70  1  0.70050000  0.16540000  0.11210000  1.0 0.0874829368
C  C71  1  0.70050000  0.33460000  0.61210000  1.0 0.0874829368
C  C72  1  0.29950000  0.83460000  0.88790000  1.0 0.0874829368
C  C73  1  0.32990000  0.88410000  0.26320000  1.0 0.240837833
C  C74  1  0.67010000  0.38410000  0.23680000  1.0 0.240837833
C  C75  1  0.67010000  0.11590000  0.73680000  1.0 0.240837833
C  C76  1  0.32990000  0.61590000  0.76320000  1.0 0.240837833
C  C77  1  0.29850000  0.93030000  0.32460000  1.0 -0.3281183694
C  C78  1  0.70150000  0.43030000  0.17540000  1.0 -0.3281183694
C  C79  1  0.70150000  0.06970000  0.67540000  1.0 -0.3281183694
C  C80  1  0.29850000  0.56970000  0.82460000  1.0 -0.3281183694
C  C81  1  0.36980000  0.91240000  0.41250000  1.0 0.0689535263
C  C82  1  0.63020000  0.41240000  0.08750000  1.0 0.0689535263
C  C83  1  0.63020000  0.08760000  0.58750000  1.0 0.0689535263
C  C84  1  0.36980000  0.58760000  0.91250000  1.0 0.0689535263
C  C85  1  0.35930000  0.82870000  0.43040000  1.0 -0.3134106136
C  C86  1  0.64070000  0.32870000  0.06960000  1.0 -0.3134106136
C  C87  1  0.64070000  0.17130000  0.56960000  1.0 -0.3134106136
C  C88  1  0.35930000  0.67130000  0.93040000  1.0 -0.3134106136
C  C89  1  0.39100000  0.78280000  0.36840000  1.0 0.240837833
C  C90  1  0.60900000  0.28280000  0.13160000  1.0 0.240837833
C  C91  1  0.60900000  0.21720000  0.63160000  1.0 0.240837833
C  C92  1  0.39100000  0.71720000  0.86840000  1.0 0.240837833
C  C93  1  0.31970000  0.80000000  0.27940000  1.0 -0.3565109483
C  C94  1  0.68030000  0.30000000  0.22060000  1.0 -0.3565109483
C  C95  1  0.68030000  0.20000000  0.72060000  1.0 -0.3530756585
C  C96  1  0.31970000  0.70000000  0.77940000  1.0 -0.3565109483
C  C97  1  0.44070000  0.90220000  0.27290000  1.0 -0.3197198522
C  C98  1  0.55930000  0.40220000  0.22710000  1.0 -0.3197198522
C  C99  1  0.55930000  0.09780000  0.72710000  1.0 -0.3197198522
C  C100  1  0.44070000  0.59780000  0.77290000  1.0 -0.3197198522
C  C101  1  0.51040000  0.88420000  0.35960000  1.0 0.0794094035
C  C102  1  0.48960000  0.38420000  0.14040000  1.0 0.0794094035
C  C103  1  0.48960000  0.11580000  0.64040000  1.0 0.0794094035
C  C104  1  0.51040000  0.61580000  0.85960000  1.0 0.0794094035
C  C105  1  0.50240000  0.80010000  0.37710000  1.0 -0.3134106136
C  C106  1  0.49760000  0.30010000  0.12290000  1.0 -0.3134106136
C  C107  1  0.49760000  0.19990000  0.62290000  1.0 -0.3134106136
C  C108  1  0.50240000  0.69990000  0.87710000  1.0 -0.3134106136
C  C109  1  0.47960000  0.93070000  0.42330000  1.0 -0.2822523601
C  C110  1  0.52040000  0.43070000  0.07670000  1.0 -0.2822523601
C  C111  1  0.52040000  0.06930000  0.57670000  1.0 -0.2822523601
C  C112  1  0.47960000  0.56930000  0.92330000  1.0 -0.2822523601
N  N1  1  0.83620000  0.58360000  0.54830000  1.0 -0.1790352724
N  N2  1  0.16380000  0.08360000  0.95170000  1.0 -0.1790352724
N  N3  1  0.16380000  0.41640000  0.45170000  1.0 -0.1790352724
N  N4  1  0.83620000  0.91640000  0.04830000  1.0 -0.1790352724
N  N5  1  0.91870000  0.58720000  0.52160000  1.0 -0.1790352724
N  N6  1  0.08130000  0.08720000  0.97840000  1.0 -0.1790352724
N  N7  1  0.08130000  0.41280000  0.47840000  1.0 -0.1790352724
N  N8  1  0.91870000  0.91280000  0.02160000  1.0 -0.1790352724
N  N9  1  0.87990000  0.70140000  0.54370000  1.0 -0.0615848469
N  N10  1  0.12010000  0.20140000  0.95630000  1.0 -0.0615848469
N  N11  1  0.12010000  0.29860000  0.45630000  1.0 -0.0615848469
N  N12  1  0.87990000  0.79860000  0.04370000  1.0 -0.0615848469
N  N13  1  0.11000000  0.94800000  0.85780000  1.0 -0.1991030051
N  N14  1  0.89000000  0.44800000  0.64220000  1.0 -0.1991030051
N  N15  1  0.89000000  0.05200000  0.14220000  1.0 -0.1991030051
N  N16  1  0.11000000  0.55200000  0.35780000  1.0 -0.1991030051
N  N17  1  0.02050000  0.93810000  0.87400000  1.0 -0.2471443823
N  N18  1  0.97950000  0.43810000  0.62600000  1.0 -0.2471443823
N  N19  1  0.97950000  0.06190000  0.12600000  1.0 -0.2471443823
N  N20  1  0.02050000  0.56190000  0.37400000  1.0 -0.2471443823
N  N21  1  0.99290000  0.91010000  0.74300000  1.0 -0.0705766993
N  N22  1  0.00710000  0.41010000  0.75700000  1.0 -0.0705766993
N  N23  1  0.00710000  0.08990000  0.25700000  1.0 -0.0705766993
N  N24  1  0.99290000  0.58990000  0.24300000  1.0 -0.0705766993
N  N25  1  0.21310000  0.93970000  0.04700000  1.0 -0.2295357584
N  N26  1  0.78690000  0.43970000  0.45300000  1.0 -0.2295357584
N  N27  1  0.78690000  0.06030000  0.95300000  1.0 -0.2295357584
N  N28  1  0.21310000  0.56030000  0.54700000  1.0 -0.2295357584
N  N29  1  0.13090000  0.94900000  0.07380000  1.0 -0.1790352724
N  N30  1  0.86910000  0.44900000  0.42620000  1.0 -0.1790352724
N  N31  1  0.86910000  0.05100000  0.92620000  1.0 -0.1790352724
N  N32  1  0.13090000  0.55100000  0.57380000  1.0 -0.1790352724
N  N33  1  0.26020000  0.90430000  0.17700000  1.0 -0.044097511
N  N34  1  0.73980000  0.40430000  0.32300000  1.0 -0.044097511
N  N35  1  0.73980000  0.09570000  0.82300000  1.0 -0.044097511
N  N36  1  0.26020000  0.59570000  0.67700000  1.0 -0.044097511
N  N37  1  0.42520000  0.58710000  0.43200000  1.0 -0.1914584896
N  N38  1  0.57480000  0.08710000  0.06800000  1.0 -0.1914584896
N  N39  1  0.57480000  0.41290000  0.56800000  1.0 -0.1914584896
N  N40  1  0.42520000  0.91290000  0.93200000  1.0 -0.1914584896
N  N41  1  0.32180000  0.59620000  0.41550000  1.0 -0.1914584896
N  N42  1  0.67820000  0.09620000  0.08450000  1.0 -0.1914584896
N  N43  1  0.67820000  0.40380000  0.58450000  1.0 -0.1914584896
N  N44  1  0.32180000  0.90380000  0.91550000  1.0 -0.1914584896
N  N45  1  0.38300000  0.70110000  0.38670000  1.0 -0.033595493
N  N46  1  0.61700000  0.20110000  0.11330000  1.0 -0.033595493
N  N47  1  0.61700000  0.29890000  0.61330000  1.0 -0.033595493
N  N48  1  0.38300000  0.79890000  0.88670000  1.0 -0.033595493
N  N49  1  0.53360000  0.82980000  0.10640000  1.0 0.6857585796
N  N50  1  0.46640000  0.32980000  0.39360000  1.0 0.68463986
N  N51  1  0.46640000  0.17020000  0.89360000  1.0 0.68463986
N  N52  1  0.53360000  0.67020000  0.60640000  1.0 0.68463986
O  O1  1  0.63040000  0.53330000  0.49850000  1.0 -0.7951806895
O  O2  1  0.36960000  0.03330000  0.00150000  1.0 -0.7951806895
O  O3  1  0.36960000  0.46670000  0.50150000  1.0 -0.7951806895
O  O4  1  0.63040000  0.96670000  0.99850000  1.0 -0.7948809377
O  O5  1  0.53580000  0.89780000  0.12200000  1.0 -0.4906738661
O  O6  1  0.61460000  0.79530000  0.11250000  1.0 -0.4753361157
O  O7  1  0.45750000  0.79080000  0.10160000  1.0 -0.4615463129
O  O8  1  0.46420000  0.39780000  0.37800000  1.0 -0.4906738661
O  O9  1  0.38540000  0.29530000  0.38750000  1.0 -0.4753361157
O  O10  1  0.54250000  0.29080000  0.39840000  1.0 -0.4615463129
O  O11  1  0.46420000  0.10220000  0.87800000  1.0 -0.4906738661
O  O12  1  0.38540000  0.20470000  0.88750000  1.0 -0.4753361157
O  O13  1  0.54250000  0.20920000  0.89840000  1.0 -0.4615463129
O  O14  1  0.53580000  0.60220000  0.62200000  1.0 -0.4906738661
O  O15  1  0.61460000  0.70470000  0.61250000  1.0 -0.4746182374
O  O16  1  0.45750000  0.70920000  0.60160000  1.0 -0.4615463129
