# DDEC6 charges by PACMAN v1.1 (https://github.com/mtap-research/PACMAN-charge/)
data_TUJFUB_ASR_pacman
_symmetry_space_group_name_H-M   'P 1'
_cell_length_a   13.32970000
_cell_length_b   13.32970000
_cell_length_c   21.65270000
_cell_angle_alpha   77.67670000
_cell_angle_beta   102.32300000
_cell_angle_gamma   137.37100000
_symmetry_Int_Tables_number   1
_chemical_formula_structural   CuH20C28N2(ClO)4
_chemical_formula_sum   'Cu4 H80 C112 N8 Cl16 O16'
_cell_volume   2536.26100222
_cell_formula_units_Z   4
loop_
 _symmetry_equiv_pos_site_id
 _symmetry_equiv_pos_as_xyz
  1  'x, y, z'
loop_
 _atom_site_type_symbol
 _atom_site_label
 _atom_site_symmetry_multiplicity
 _atom_site_fract_x
 _atom_site_fract_y
 _atom_site_fract_z
 _atom_site_occupancy
 _atom_site_charge
Cu  Cu1  1  0.21324000  0.61750000  0.46988000  1.0 0.7898825919
Cu  Cu2  1  0.61750000  0.21324000  0.03012000  1.0 0.7898825919
Cu  Cu3  1  0.78676000  0.38250000  0.53012000  1.0 0.7898825919
Cu  Cu4  1  0.38250000  0.78676000  0.96988000  1.0 0.7898825919
H  H1  1  0.97340000  0.40820000  0.32630000  1.0 0.0724955638
H  H2  1  0.40820000  0.97340000  0.17370000  1.0 0.0724955638
H  H3  1  0.02660000  0.59180000  0.67370000  1.0 0.0724955638
H  H4  1  0.59180000  0.02660000  0.82630000  1.0 0.0724955638
H  H5  1  0.60360000  0.37360000  0.21960000  1.0 0.1030254553
H  H6  1  0.37360000  0.60360000  0.28040000  1.0 0.1030254553
H  H7  1  0.39640000  0.62640000  0.78040000  1.0 0.1030254553
H  H8  1  0.62640000  0.39640000  0.71960000  1.0 0.1030254553
H  H9  1  0.65440000  0.38580000  0.33050000  1.0 0.081535927
H  H10  1  0.38580000  0.65440000  0.16950000  1.0 0.081535927
H  H11  1  0.34560000  0.61420000  0.66950000  1.0 0.081535927
H  H12  1  0.61420000  0.34560000  0.83050000  1.0 0.081535927
H  H13  1  0.36290000  0.54610000  0.55800000  1.0 0.1030254553
H  H14  1  0.54610000  0.36290000  0.94200000  1.0 0.1030254553
H  H15  1  0.63710000  0.45390000  0.44200000  1.0 0.1030254553
H  H16  1  0.45390000  0.63710000  0.05800000  1.0 0.1030254553
H  H17  1  0.39330000  0.39330000  0.56520000  1.0 0.1360680545
H  H18  1  0.39330000  0.39330000  0.93480000  1.0 0.1360680545
H  H19  1  0.60670000  0.60670000  0.43480000  1.0 0.1360680545
H  H20  1  0.60670000  0.60670000  0.06520000  1.0 0.1360680545
H  H21  1  0.09250000  0.19750000  0.41320000  1.0 0.1294216429
H  H22  1  0.19750000  0.09250000  0.08680000  1.0 0.1294216429
H  H23  1  0.90750000  0.80250000  0.58680000  1.0 0.1294216429
H  H24  1  0.80250000  0.90750000  0.91320000  1.0 0.1294216429
H  H25  1  0.07770000  0.36030000  0.40880000  1.0 0.1097678632
H  H26  1  0.36030000  0.07770000  0.09120000  1.0 0.1097678632
H  H27  1  0.92230000  0.63970000  0.59120000  1.0 0.1097678632
H  H28  1  0.63970000  0.92230000  0.90880000  1.0 0.1097678632
H  H29  1  0.33460000  0.19420000  0.52590000  1.0 0.1294216429
H  H30  1  0.19420000  0.33460000  0.97410000  1.0 0.1294216429
H  H31  1  0.66540000  0.80580000  0.47410000  1.0 0.1294216429
H  H32  1  0.80580000  0.66540000  0.02590000  1.0 0.1294216429
H  H33  1  0.12030000  0.06030000  0.42380000  1.0 0.1097678632
H  H34  1  0.06030000  0.12030000  0.07620000  1.0 0.1097678632
H  H35  1  0.87970000  0.93970000  0.57620000  1.0 0.1097678632
H  H36  1  0.93970000  0.87970000  0.92380000  1.0 0.1097678632
H  H37  1  0.05500000  0.86160000  0.38330000  1.0 0.1208265153
H  H38  1  0.86160000  0.05500000  0.11670000  1.0 0.1208265153
H  H39  1  0.94500000  0.13840000  0.61670000  1.0 0.1208265153
H  H40  1  0.13840000  0.94500000  0.88330000  1.0 0.1208265153
H  H41  1  0.08180000  0.70860000  0.38460000  1.0 0.1097678632
H  H42  1  0.70860000  0.08180000  0.11540000  1.0 0.1097678632
H  H43  1  0.91820000  0.29140000  0.61540000  1.0 0.1097678632
H  H44  1  0.29140000  0.91820000  0.88460000  1.0 0.1097678632
H  H45  1  0.37620000  0.88920000  0.53270000  1.0 0.1030254553
H  H46  1  0.88920000  0.37620000  0.96730000  1.0 0.1030254553
H  H47  1  0.62380000  0.11080000  0.46730000  1.0 0.1030254553
H  H48  1  0.11080000  0.62380000  0.03270000  1.0 0.1030254553
H  H49  1  0.37030000  0.05850000  0.53080000  1.0 0.1360680545
H  H50  1  0.05850000  0.37030000  0.96920000  1.0 0.1360680545
H  H51  1  0.62970000  0.94150000  0.46920000  1.0 0.1360680545
H  H52  1  0.94150000  0.62970000  0.03080000  1.0 0.1360680545
H  H53  1  0.01850000  0.47930000  0.32140000  1.0 0.0724955638
H  H54  1  0.47930000  0.01850000  0.17860000  1.0 0.0724955638
H  H55  1  0.98150000  0.52070000  0.67860000  1.0 0.0724955638
H  H56  1  0.52070000  0.98150000  0.82140000  1.0 0.0724955638
H  H57  1  0.56300000  0.30100000  0.22460000  1.0 0.0879505844
H  H58  1  0.30100000  0.56300000  0.27540000  1.0 0.0879505844
H  H59  1  0.43700000  0.69900000  0.77540000  1.0 0.0879505844
H  H60  1  0.69900000  0.43700000  0.72460000  1.0 0.0879505844
H  H61  1  0.61570000  0.31610000  0.33480000  1.0 0.0879505844
H  H62  1  0.31610000  0.61570000  0.16520000  1.0 0.0879505844
H  H63  1  0.38430000  0.68390000  0.66520000  1.0 0.0879505844
H  H64  1  0.68390000  0.38430000  0.83480000  1.0 0.0879505844
H  H65  1  0.96390000  0.46430000  0.21110000  1.0 0.1208265153
H  H66  1  0.46430000  0.96390000  0.28890000  1.0 0.1208265153
H  H67  1  0.03610000  0.53570000  0.78890000  1.0 0.1208265153
H  H68  1  0.53570000  0.03610000  0.71110000  1.0 0.1208265153
H  H69  1  0.03450000  0.56210000  0.31740000  1.0 0.0724955638
H  H70  1  0.56210000  0.03450000  0.18260000  1.0 0.0724955638
H  H71  1  0.96550000  0.43790000  0.68260000  1.0 0.081535927
H  H72  1  0.43790000  0.96550000  0.81740000  1.0 0.081535927
H  H73  1  0.98580000  0.54600000  0.20710000  1.0 0.0879505844
H  H74  1  0.54600000  0.98580000  0.29290000  1.0 0.0879505844
H  H75  1  0.01420000  0.45400000  0.79290000  1.0 0.0879505844
H  H76  1  0.45400000  0.01420000  0.70710000  1.0 0.0879505844
H  H77  1  0.53950000  0.21070000  0.22890000  1.0 0.081535927
H  H78  1  0.21070000  0.53950000  0.27110000  1.0 0.081535927
H  H79  1  0.46050000  0.78930000  0.77110000  1.0 0.081535927
H  H80  1  0.78930000  0.46050000  0.72890000  1.0 0.081535927
C  C1  1  0.85389000  0.40771000  0.40961000  1.0 0.4482785975
C  C2  1  0.40771000  0.85389000  0.09039000  1.0 0.4482785975
C  C3  1  0.14611000  0.59229000  0.59039000  1.0 0.4482785975
C  C4  1  0.59229000  0.14611000  0.90961000  1.0 0.4482785975
C  C5  1  0.82099000  0.39821000  0.33981000  1.0 0.0204061533
C  C6  1  0.39821000  0.82099000  0.16019000  1.0 0.0204061533
C  C7  1  0.17901000  0.60179000  0.66019000  1.0 0.0204061533
C  C8  1  0.60179000  0.17901000  0.83981000  1.0 0.0204061533
C  C9  1  0.75720000  0.37960000  0.20622000  1.0 -0.0188049729
C  C10  1  0.37960000  0.75720000  0.29378000  1.0 -0.0188049729
C  C11  1  0.24280000  0.62040000  0.79378000  1.0 -0.0188049729
C  C12  1  0.62040000  0.24280000  0.70622000  1.0 -0.0188049729
C  C13  1  0.89795000  0.40025000  0.30500000  1.0 -0.0713132257
C  C14  1  0.40025000  0.89795000  0.19500000  1.0 -0.0713132257
C  C15  1  0.10205000  0.59975000  0.69500000  1.0 -0.0713132257
C  C16  1  0.59975000  0.10205000  0.80500000  1.0 -0.0713132257
C  C17  1  0.86820000  0.39100000  0.23890000  1.0 0.0204061533
C  C18  1  0.39100000  0.86820000  0.26110000  1.0 0.0204061533
C  C19  1  0.13180000  0.60900000  0.76110000  1.0 0.0204061533
C  C20  1  0.60900000  0.13180000  0.73890000  1.0 0.0204061533
C  C21  1  0.67750000  0.37930000  0.24100000  1.0 -0.0277832763
C  C22  1  0.37930000  0.67750000  0.25900000  1.0 -0.0277832763
C  C23  1  0.32250000  0.62070000  0.75900000  1.0 -0.0277832763
C  C24  1  0.62070000  0.32250000  0.74100000  1.0 -0.0277832763
C  C25  1  0.70870000  0.38750000  0.30730000  1.0 -0.0769913914
C  C26  1  0.38750000  0.70870000  0.19270000  1.0 -0.0769913914
C  C27  1  0.29130000  0.61250000  0.69270000  1.0 -0.0769913914
C  C28  1  0.61250000  0.29130000  0.80730000  1.0 -0.0769913914
C  C29  1  0.72514000  0.37006000  0.13603000  1.0 0.4084845548
C  C30  1  0.37006000  0.72514000  0.36397000  1.0 0.4084845548
C  C31  1  0.27486000  0.62994000  0.86397000  1.0 0.4084845548
C  C32  1  0.62994000  0.27486000  0.63603000  1.0 0.4084845548
C  C33  1  0.30902000  0.47538000  0.52770000  1.0 0.0879505844
C  C34  1  0.47538000  0.30902000  0.97230000  1.0 0.0879505844
C  C35  1  0.69098000  0.52462000  0.47230000  1.0 0.0879505844
C  C36  1  0.52462000  0.69098000  0.02770000  1.0 0.0879505844
C  C37  1  0.32644000  0.38336000  0.53280000  1.0 -0.1912029271
C  C38  1  0.38336000  0.32644000  0.96720000  1.0 -0.1912029271
C  C39  1  0.67356000  0.61664000  0.46720000  1.0 -0.1912029271
C  C40  1  0.61664000  0.67356000  0.03280000  1.0 -0.1912029271
C  C41  1  0.24495000  0.27625000  0.48996000  1.0 0.1545752203
C  C42  1  0.27625000  0.24495000  0.01004000  1.0 0.1545752203
C  C43  1  0.75505000  0.72375000  0.51004000  1.0 0.1545752203
C  C44  1  0.72375000  0.75505000  0.98996000  1.0 0.1545752203
C  C45  1  0.15086000  0.26934000  0.44340000  1.0 -0.1912029271
C  C46  1  0.26934000  0.15086000  0.05660000  1.0 -0.1912029271
C  C47  1  0.84914000  0.73066000  0.55660000  1.0 -0.1912029271
C  C48  1  0.73066000  0.84914000  0.94340000  1.0 -0.1912029271
C  C49  1  0.14229000  0.36651000  0.44120000  1.0 0.0311826048
C  C50  1  0.36651000  0.14229000  0.05880000  1.0 0.0311826048
C  C51  1  0.85771000  0.63349000  0.55880000  1.0 0.0311826048
C  C52  1  0.63349000  0.85771000  0.94120000  1.0 0.0311826048
C  C53  1  0.26484000  0.17996000  0.49390000  1.0 -0.1397120106
C  C54  1  0.17996000  0.26484000  0.00610000  1.0 -0.1397120106
C  C55  1  0.73516000  0.82004000  0.50610000  1.0 -0.1397120106
C  C56  1  0.82004000  0.73516000  0.99390000  1.0 -0.1397120106
C  C57  1  0.19068000  0.07432000  0.45520000  1.0 -0.1397120106
C  C58  1  0.07432000  0.19068000  0.04480000  1.0 -0.1397120106
C  C59  1  0.80932000  0.92568000  0.54480000  1.0 -0.1397120106
C  C60  1  0.92568000  0.80932000  0.95520000  1.0 -0.1397120106
C  C61  1  0.20876000  0.97764000  0.45700000  1.0 0.1596896862
C  C62  1  0.97764000  0.20876000  0.04300000  1.0 0.1596896862
C  C63  1  0.79124000  0.02236000  0.54300000  1.0 0.1596896862
C  C64  1  0.02236000  0.79124000  0.95700000  1.0 0.1596896862
C  C65  1  0.12346000  0.87074000  0.41410000  1.0 -0.1769924956
C  C66  1  0.87074000  0.12346000  0.08590000  1.0 -0.1769924956
C  C67  1  0.87654000  0.12926000  0.58590000  1.0 -0.1769924956
C  C68  1  0.12926000  0.87654000  0.91410000  1.0 -0.1769924956
C  C69  1  0.13773000  0.77767000  0.41588000  1.0 0.0416151322
C  C70  1  0.77767000  0.13773000  0.08412000  1.0 0.0416151322
C  C71  1  0.86227000  0.22233000  0.58412000  1.0 0.0416151322
C  C72  1  0.22233000  0.86227000  0.91588000  1.0 0.0416151322
C  C73  1  0.31111000  0.88469000  0.50159000  1.0 0.0090015279
C  C74  1  0.88469000  0.31111000  0.99841000  1.0 0.0090015279
C  C75  1  0.68889000  0.11531000  0.49841000  1.0 0.0090015279
C  C76  1  0.11531000  0.68889000  0.00159000  1.0 0.0090015279
C  C77  1  0.30701000  0.98499000  0.50127000  1.0 -0.1912029271
C  C78  1  0.98499000  0.30701000  0.99873000  1.0 -0.1912029271
C  C79  1  0.69299000  0.01501000  0.49873000  1.0 -0.1912029271
C  C80  1  0.01501000  0.69299000  0.00127000  1.0 -0.1912029271
C  C81  1  0.92689000  0.44331000  0.30205000  1.0 -0.0713132257
C  C82  1  0.44331000  0.92689000  0.19795000  1.0 -0.0713132257
C  C83  1  0.07311000  0.55669000  0.69795000  1.0 -0.0713132257
C  C84  1  0.55669000  0.07311000  0.80205000  1.0 -0.0713132257
C  C85  1  0.89347000  0.43373000  0.23617000  1.0 0.0204061533
C  C86  1  0.43373000  0.89347000  0.26383000  1.0 0.0204061533
C  C87  1  0.10653000  0.56627000  0.76383000  1.0 0.0204061533
C  C88  1  0.56627000  0.10653000  0.73617000  1.0 0.0204061533
C  C89  1  0.65434000  0.33646000  0.24399000  1.0 0.002107679
C  C90  1  0.33646000  0.65434000  0.25601000  1.0 0.002107679
C  C91  1  0.34566000  0.66354000  0.75601000  1.0 0.002107679
C  C92  1  0.66354000  0.34566000  0.74399000  1.0 0.002107679
C  C93  1  0.68611000  0.34569000  0.31001000  1.0 -0.0129129831
C  C94  1  0.34569000  0.68611000  0.18999000  1.0 -0.0129129831
C  C95  1  0.31389000  0.65431000  0.68999000  1.0 -0.0129129831
C  C96  1  0.65431000  0.31389000  0.81001000  1.0 -0.0129129831
C  C97  1  0.93440000  0.49080000  0.29970000  1.0 -0.0277832763
C  C98  1  0.49080000  0.93440000  0.20030000  1.0 -0.0277832763
C  C99  1  0.06560000  0.50920000  0.70030000  1.0 -0.0277832763
C  C100  1  0.50920000  0.06560000  0.79970000  1.0 -0.0277832763
C  C101  1  0.90570000  0.48270000  0.23340000  1.0 -0.0129129831
C  C102  1  0.48270000  0.90570000  0.26660000  1.0 -0.0129129831
C  C103  1  0.09430000  0.51730000  0.76660000  1.0 -0.0188049729
C  C104  1  0.51730000  0.09430000  0.73340000  1.0 -0.0129129831
C  C105  1  0.63950000  0.28290000  0.24650000  1.0 -0.0464051888
C  C106  1  0.28290000  0.63950000  0.25350000  1.0 -0.0464051888
C  C107  1  0.36050000  0.71710000  0.75350000  1.0 -0.0464051888
C  C108  1  0.71710000  0.36050000  0.74650000  1.0 -0.0464051888
C  C109  1  0.67080000  0.29360000  0.31250000  1.0 0.0090015279
C  C110  1  0.29360000  0.67080000  0.18750000  1.0 0.0090015279
C  C111  1  0.32920000  0.70640000  0.68750000  1.0 0.0090015279
C  C112  1  0.70640000  0.32920000  0.81250000  1.0 0.0090015279
N  N1  1  0.22003000  0.46917000  0.48226000  1.0 -0.2319049398
N  N2  1  0.46917000  0.22003000  0.01774000  1.0 -0.2319049398
N  N3  1  0.77997000  0.53083000  0.51774000  1.0 -0.2319049398
N  N4  1  0.53083000  0.77997000  0.98226000  1.0 -0.2319049398
N  N5  1  0.22700000  0.78040000  0.45981000  1.0 -0.246428282
N  N6  1  0.78040000  0.22700000  0.04019000  1.0 -0.246428282
N  N7  1  0.77300000  0.21960000  0.54019000  1.0 -0.246428282
N  N8  1  0.21960000  0.77300000  0.95981000  1.0 -0.246428282
Cl  Cl1  1  0.96740000  0.39560000  0.19850000  1.0 -0.0361100687
Cl  Cl2  1  0.39560000  0.96740000  0.30150000  1.0 -0.0361100687
Cl  Cl3  1  0.03260000  0.60440000  0.80150000  1.0 -0.0361100687
Cl  Cl4  1  0.60440000  0.03260000  0.69850000  1.0 -0.0361100687
Cl  Cl5  1  0.01610000  0.48530000  0.19040000  1.0 -0.0129129831
Cl  Cl6  1  0.48530000  0.01610000  0.30960000  1.0 -0.0129129831
Cl  Cl7  1  0.98390000  0.51470000  0.80960000  1.0 -0.0129129831
Cl  Cl8  1  0.51470000  0.98390000  0.69040000  1.0 -0.0129129831
Cl  Cl9  1  0.48620000  0.26960000  0.20640000  1.0 -0.1397120106
Cl  Cl10  1  0.26960000  0.48620000  0.29360000  1.0 -0.1397120106
Cl  Cl11  1  0.51380000  0.73040000  0.79360000  1.0 -0.1397120106
Cl  Cl12  1  0.73040000  0.51380000  0.70640000  1.0 -0.1397120106
Cl  Cl13  1  0.51790000  0.16990000  0.35190000  1.0 -0.1114470428
Cl  Cl14  1  0.16990000  0.51790000  0.14810000  1.0 -0.1114470428
Cl  Cl15  1  0.48210000  0.83010000  0.64810000  1.0 -0.1114470428
Cl  Cl16  1  0.83010000  0.48210000  0.85190000  1.0 -0.1114470428
O  O1  1  0.96474000  0.43546000  0.43465000  1.0 -0.5044463808
O  O2  1  0.43546000  0.96474000  0.06535000  1.0 -0.5044463808
O  O3  1  0.03526000  0.56454000  0.56535000  1.0 -0.5044463808
O  O4  1  0.56454000  0.03526000  0.93465000  1.0 -0.5044463808
O  O5  1  0.76519000  0.38521000  0.43814000  1.0 -0.5086874152
O  O6  1  0.38521000  0.76519000  0.06186000  1.0 -0.5086874152
O  O7  1  0.23481000  0.61479000  0.56186000  1.0 -0.5086874152
O  O8  1  0.61479000  0.23481000  0.93814000  1.0 -0.5086874152
O  O9  1  0.65519000  0.24301000  0.11990000  1.0 -0.5648756708
O  O10  1  0.24301000  0.65519000  0.38010000  1.0 -0.5648756708
O  O11  1  0.34481000  0.75699000  0.88010000  1.0 -0.5648756708
O  O12  1  0.75699000  0.34481000  0.61990000  1.0 -0.5648756708
O  O13  1  0.76030000  0.47510000  0.10059000  1.0 -0.5086874152
O  O14  1  0.47510000  0.76030000  0.39941000  1.0 -0.5086874152
O  O15  1  0.23970000  0.52490000  0.89941000  1.0 -0.5086874152
O  O16  1  0.52490000  0.23970000  0.60059000  1.0 -0.5086874152
