# DDEC6 charges by PACMAN v1.1 (https://github.com/mtap-research/PACMAN-charge/)
data_TUJGAI_FSR_pacman
_symmetry_space_group_name_H-M   'P 1'
_cell_length_a   13.31670000
_cell_length_b   13.31670000
_cell_length_c   21.49140000
_cell_angle_alpha   76.66260000
_cell_angle_beta   103.33700000
_cell_angle_gamma   135.66600000
_symmetry_Int_Tables_number   1
_chemical_formula_structural   CuH19C28Br3(NO2)2
_chemical_formula_sum   'Cu4 H76 C112 Br12 N8 O16'
_cell_volume   2579.44419789
_cell_formula_units_Z   4
loop_
 _symmetry_equiv_pos_site_id
 _symmetry_equiv_pos_as_xyz
  1  'x, y, z'
loop_
 _atom_site_type_symbol
 _atom_site_label
 _atom_site_symmetry_multiplicity
 _atom_site_fract_x
 _atom_site_fract_y
 _atom_site_fract_z
 _atom_site_occupancy
 _atom_site_charge
Cu  Cu1  1  0.20620000  0.60636000  0.47033000  1.0 0.7859483294
Cu  Cu2  1  0.60636000  0.20620000  0.02967000  1.0 0.7859483294
Cu  Cu3  1  0.79380000  0.39364000  0.52967000  1.0 0.7859483294
Cu  Cu4  1  0.39364000  0.79380000  0.97033000  1.0 0.7859483294
H  H1  1  0.01270000  0.46750000  0.32150000  1.0 0.0694179641
H  H2  1  0.46750000  0.01270000  0.17850000  1.0 0.0694179641
H  H3  1  0.98730000  0.53250000  0.67850000  1.0 0.0694179641
H  H4  1  0.53250000  0.98730000  0.82150000  1.0 0.0694179641
H  H5  1  0.57160000  0.31520000  0.22050000  1.0 0.0801864751
H  H6  1  0.31520000  0.57160000  0.27950000  1.0 0.0801864751
H  H7  1  0.42840000  0.68480000  0.77950000  1.0 0.0801864751
H  H8  1  0.68480000  0.42840000  0.72050000  1.0 0.0801864751
H  H9  1  0.62740000  0.33640000  0.33130000  1.0 0.0801864751
H  H10  1  0.33640000  0.62740000  0.16870000  1.0 0.0801864751
H  H11  1  0.37260000  0.66360000  0.66870000  1.0 0.0801864751
H  H12  1  0.66360000  0.37260000  0.83130000  1.0 0.0801864751
H  H13  1  0.36130000  0.53470000  0.55800000  1.0 0.0991765445
H  H14  1  0.53470000  0.36130000  0.94200000  1.0 0.0991765445
H  H15  1  0.63870000  0.46530000  0.44200000  1.0 0.0991765445
H  H16  1  0.46530000  0.63870000  0.05800000  1.0 0.0991765445
H  H17  1  0.39710000  0.38650000  0.56360000  1.0 0.1362715619
H  H18  1  0.38650000  0.39710000  0.93640000  1.0 0.1362715619
H  H19  1  0.60290000  0.61350000  0.43640000  1.0 0.1362715619
H  H20  1  0.61350000  0.60290000  0.06360000  1.0 0.1362715619
H  H21  1  0.09390000  0.19430000  0.41400000  1.0 0.1294696412
H  H22  1  0.19430000  0.09390000  0.08600000  1.0 0.1294696412
H  H23  1  0.90610000  0.80570000  0.58600000  1.0 0.1294696412
H  H24  1  0.80570000  0.90610000  0.91400000  1.0 0.1294696412
H  H25  1  0.06640000  0.34740000  0.41240000  1.0 0.1096689807
H  H26  1  0.34740000  0.06640000  0.08760000  1.0 0.1096689807
H  H27  1  0.93360000  0.65260000  0.58760000  1.0 0.1096689807
H  H28  1  0.65260000  0.93360000  0.91240000  1.0 0.1096689807
H  H29  1  0.33930000  0.18890000  0.52430000  1.0 0.1362715619
H  H30  1  0.18890000  0.33930000  0.97570000  1.0 0.1362715619
H  H31  1  0.66070000  0.81110000  0.47570000  1.0 0.1362715619
H  H32  1  0.81110000  0.66070000  0.02430000  1.0 0.1362715619
H  H33  1  0.12140000  0.05820000  0.42450000  1.0 0.1096689807
H  H34  1  0.05820000  0.12140000  0.07550000  1.0 0.1096689807
H  H35  1  0.87860000  0.94180000  0.57550000  1.0 0.1096689807
H  H36  1  0.94180000  0.87860000  0.92450000  1.0 0.1096689807
H  H37  1  0.04870000  0.85730000  0.38530000  1.0 0.123649352
H  H38  1  0.85730000  0.04870000  0.11470000  1.0 0.123649352
H  H39  1  0.95130000  0.14270000  0.61470000  1.0 0.123649352
H  H40  1  0.14270000  0.95130000  0.88530000  1.0 0.123649352
H  H41  1  0.06960000  0.69820000  0.38680000  1.0 0.1096689807
H  H42  1  0.69820000  0.06960000  0.11320000  1.0 0.1096689807
H  H43  1  0.93040000  0.30180000  0.61320000  1.0 0.1096689807
H  H44  1  0.30180000  0.93040000  0.88680000  1.0 0.1096689807
H  H45  1  0.37670000  0.87790000  0.52950000  1.0 0.0991765445
H  H46  1  0.87790000  0.37670000  0.97050000  1.0 0.0991765445
H  H47  1  0.62330000  0.12210000  0.47050000  1.0 0.0991765445
H  H48  1  0.12210000  0.62330000  0.02950000  1.0 0.0991765445
H  H49  1  0.37490000  0.05030000  0.52820000  1.0 0.1362715619
H  H50  1  0.05030000  0.37490000  0.97180000  1.0 0.1362715619
H  H51  1  0.62510000  0.94970000  0.47180000  1.0 0.1362715619
H  H52  1  0.94970000  0.62510000  0.02820000  1.0 0.1362715619
H  H53  1  0.96360000  0.39320000  0.32830000  1.0 0.0801864751
H  H54  1  0.39320000  0.96360000  0.17170000  1.0 0.0801864751
H  H55  1  0.03640000  0.60680000  0.67170000  1.0 0.0801864751
H  H56  1  0.60680000  0.03640000  0.82830000  1.0 0.0801864751
H  H57  1  0.61470000  0.38990000  0.21390000  1.0 0.0890391271
H  H58  1  0.38990000  0.61470000  0.28610000  1.0 0.0890391271
H  H59  1  0.38530000  0.61010000  0.78610000  1.0 0.0890391271
H  H60  1  0.61010000  0.38530000  0.71390000  1.0 0.0890391271
H  H61  1  0.66870000  0.40790000  0.32560000  1.0 0.0801864751
H  H62  1  0.40790000  0.66870000  0.17440000  1.0 0.0801864751
H  H63  1  0.33130000  0.59210000  0.67440000  1.0 0.0801864751
H  H64  1  0.59210000  0.33130000  0.82560000  1.0 0.0801864751
H  H65  1  0.02980000  0.55200000  0.31570000  1.0 0.0801864751
H  H66  1  0.55200000  0.02980000  0.18430000  1.0 0.0801864751
H  H67  1  0.97020000  0.44800000  0.68430000  1.0 0.0801864751
H  H68  1  0.44800000  0.97020000  0.81570000  1.0 0.0801864751
H  H69  1  0.97840000  0.53220000  0.20460000  1.0 0.0694179641
H  H70  1  0.53220000  0.97840000  0.29540000  1.0 0.0694179641
H  H71  1  0.02160000  0.46780000  0.79540000  1.0 0.0694179641
H  H72  1  0.46780000  0.02160000  0.70460000  1.0 0.0694179641
H  H73  1  0.54620000  0.22480000  0.22690000  1.0 0.0694179641
H  H74  1  0.22480000  0.54620000  0.27310000  1.0 0.0694179641
H  H75  1  0.45380000  0.77520000  0.77310000  1.0 0.0694179641
H  H76  1  0.77520000  0.45380000  0.72690000  1.0 0.0694179641
C  C1  1  0.85795000  0.41565000  0.40840000  1.0 0.4508998475
C  C2  1  0.41565000  0.85795000  0.09160000  1.0 0.4508998475
C  C3  1  0.14205000  0.58435000  0.59160000  1.0 0.4508998475
C  C4  1  0.58435000  0.14205000  0.90840000  1.0 0.4508998475
C  C5  1  0.82327000  0.40273000  0.33834000  1.0 0.0113146099
C  C6  1  0.40273000  0.82327000  0.16166000  1.0 0.0113146099
C  C7  1  0.17673000  0.59727000  0.66166000  1.0 0.0113146099
C  C8  1  0.59727000  0.17673000  0.83834000  1.0 0.0113146099
C  C9  1  0.92428000  0.43712000  0.30135000  1.0 -0.0566667731
C  C10  1  0.43712000  0.92428000  0.19865000  1.0 -0.0566667731
C  C11  1  0.07572000  0.56288000  0.69865000  1.0 -0.0566667731
C  C12  1  0.56288000  0.07572000  0.80135000  1.0 -0.0566667731
C  C13  1  0.88853000  0.42467000  0.23514000  1.0 0.0272404223
C  C14  1  0.42467000  0.88853000  0.26486000  1.0 0.0272404223
C  C15  1  0.11147000  0.57533000  0.76486000  1.0 0.0272404223
C  C16  1  0.57533000  0.11147000  0.73514000  1.0 0.0272404223
C  C17  1  0.75686000  0.37814000  0.20385000  1.0 0.0113146099
C  C18  1  0.37814000  0.75686000  0.29615000  1.0 0.0113146099
C  C19  1  0.24314000  0.62186000  0.79615000  1.0 0.0113146099
C  C20  1  0.62186000  0.24314000  0.70385000  1.0 0.0113146099
C  C21  1  0.66010000  0.34570000  0.24080000  1.0 -0.0290018537
C  C22  1  0.34570000  0.66010000  0.25920000  1.0 -0.0290018537
C  C23  1  0.33990000  0.65430000  0.75920000  1.0 -0.0290018537
C  C24  1  0.65430000  0.33990000  0.74080000  1.0 -0.0290018537
C  C25  1  0.69350000  0.35830000  0.30720000  1.0 -0.0067377094
C  C26  1  0.35830000  0.69350000  0.19280000  1.0 -0.0067377094
C  C27  1  0.30650000  0.64170000  0.69280000  1.0 -0.0067377094
C  C28  1  0.64170000  0.30650000  0.80720000  1.0 -0.0067377094
C  C29  1  0.72270000  0.36430000  0.13350000  1.0 0.4285734004
C  C30  1  0.36430000  0.72270000  0.36650000  1.0 0.4285734004
C  C31  1  0.27730000  0.63570000  0.86650000  1.0 0.4285734004
C  C32  1  0.63570000  0.27730000  0.63350000  1.0 0.4285734004
C  C33  1  0.30740000  0.46560000  0.52760000  1.0 0.0801864751
C  C34  1  0.46560000  0.30740000  0.97240000  1.0 0.0801864751
C  C35  1  0.69260000  0.53440000  0.47240000  1.0 0.0801864751
C  C36  1  0.53440000  0.69260000  0.02760000  1.0 0.0801864751
C  C37  1  0.32790000  0.37590000  0.53190000  1.0 -0.2016250428
C  C38  1  0.37590000  0.32790000  0.96810000  1.0 -0.2016250428
C  C39  1  0.67210000  0.62410000  0.46810000  1.0 -0.2016250428
C  C40  1  0.62410000  0.67210000  0.03190000  1.0 -0.2016250428
C  C41  1  0.24700000  0.27040000  0.48980000  1.0 0.1499316327
C  C42  1  0.27040000  0.24700000  0.01020000  1.0 0.1499316327
C  C43  1  0.75300000  0.72960000  0.51020000  1.0 0.1499316327
C  C44  1  0.72960000  0.75300000  0.98980000  1.0 0.1499316327
C  C45  1  0.15060000  0.26360000  0.44440000  1.0 -0.1927501627
C  C46  1  0.26360000  0.15060000  0.05560000  1.0 -0.1927501627
C  C47  1  0.84940000  0.73640000  0.55560000  1.0 -0.1927501627
C  C48  1  0.73640000  0.84940000  0.94440000  1.0 -0.1927501627
C  C49  1  0.13610000  0.35670000  0.44310000  1.0 0.0409682232
C  C50  1  0.35670000  0.13610000  0.05690000  1.0 0.0409682232
C  C51  1  0.86390000  0.64330000  0.55690000  1.0 0.0409682232
C  C52  1  0.64330000  0.86390000  0.94310000  1.0 0.0409682232
C  C53  1  0.26770000  0.17490000  0.49320000  1.0 -0.1491144479
C  C54  1  0.17490000  0.26770000  0.00680000  1.0 -0.1491144479
C  C55  1  0.73230000  0.82510000  0.50680000  1.0 -0.1491144479
C  C56  1  0.82510000  0.73230000  0.99320000  1.0 -0.1491144479
C  C57  1  0.19240000  0.07040000  0.45550000  1.0 -0.1491144479
C  C58  1  0.07040000  0.19240000  0.04450000  1.0 -0.1491144479
C  C59  1  0.80760000  0.92960000  0.54450000  1.0 -0.1491144479
C  C60  1  0.92960000  0.80760000  0.95550000  1.0 -0.1491144479
C  C61  1  0.20810000  0.97170000  0.45700000  1.0 0.1565662778
C  C62  1  0.97170000  0.20810000  0.04300000  1.0 0.1565662778
C  C63  1  0.79190000  0.02830000  0.54300000  1.0 0.1565662778
C  C64  1  0.02830000  0.79190000  0.95700000  1.0 0.1565662778
C  C65  1  0.11810000  0.86450000  0.41520000  1.0 -0.178437169
C  C66  1  0.86450000  0.11810000  0.08480000  1.0 -0.178437169
C  C67  1  0.88190000  0.13550000  0.58480000  1.0 -0.178437169
C  C68  1  0.13550000  0.88190000  0.91520000  1.0 -0.178437169
C  C69  1  0.12920000  0.76820000  0.41690000  1.0 0.0409682232
C  C70  1  0.76820000  0.12920000  0.08310000  1.0 0.0409682232
C  C71  1  0.87080000  0.23180000  0.58310000  1.0 0.0409682232
C  C72  1  0.23180000  0.87080000  0.91690000  1.0 0.0409682232
C  C73  1  0.30970000  0.87470000  0.49960000  1.0 0.0179809034
C  C74  1  0.87470000  0.30970000  0.00040000  1.0 0.0179809034
C  C75  1  0.69030000  0.12530000  0.50040000  1.0 0.0179809034
C  C76  1  0.12530000  0.69030000  0.99960000  1.0 0.0113146099
C  C77  1  0.30860000  0.97700000  0.49960000  1.0 -0.2016250428
C  C78  1  0.97700000  0.30860000  0.00040000  1.0 -0.2016250428
C  C79  1  0.69140000  0.02300000  0.50040000  1.0 -0.2016250428
C  C80  1  0.02300000  0.69140000  0.99960000  1.0 -0.2016250428
C  C81  1  0.89268000  0.39212000  0.30540000  1.0 -0.0694641408
C  C82  1  0.39212000  0.89268000  0.19460000  1.0 -0.0694641408
C  C83  1  0.10732000  0.60788000  0.69460000  1.0 -0.0694641408
C  C84  1  0.60788000  0.10732000  0.80540000  1.0 -0.0694641408
C  C85  1  0.86150000  0.37970000  0.23880000  1.0 0.0113146099
C  C86  1  0.37970000  0.86150000  0.26120000  1.0 0.0113146099
C  C87  1  0.13850000  0.62030000  0.76120000  1.0 0.0113146099
C  C88  1  0.62030000  0.13850000  0.73880000  1.0 0.0113146099
C  C89  1  0.68480000  0.38980000  0.23680000  1.0 -0.0497758815
C  C90  1  0.38980000  0.68480000  0.26320000  1.0 -0.0497758815
C  C91  1  0.31520000  0.61020000  0.76320000  1.0 -0.0497758815
C  C92  1  0.61020000  0.31520000  0.73680000  1.0 -0.0497758815
C  C93  1  0.71770000  0.40130000  0.30360000  1.0 -0.0497758815
C  C94  1  0.40130000  0.71770000  0.19640000  1.0 -0.0497758815
C  C95  1  0.28230000  0.59870000  0.69640000  1.0 -0.0497758815
C  C96  1  0.59870000  0.28230000  0.80360000  1.0 -0.0497758815
C  C97  1  0.93200000  0.48580000  0.29790000  1.0 -0.022826411
C  C98  1  0.48580000  0.93200000  0.20210000  1.0 -0.022826411
C  C99  1  0.06800000  0.51420000  0.70210000  1.0 -0.022826411
C  C100  1  0.51420000  0.06800000  0.79790000  1.0 -0.022826411
C  C101  1  0.90170000  0.47490000  0.23110000  1.0 -0.0067377094
C  C102  1  0.47490000  0.90170000  0.26890000  1.0 -0.0067377094
C  C103  1  0.09830000  0.52510000  0.76890000  1.0 -0.0067377094
C  C104  1  0.52510000  0.09830000  0.73110000  1.0 -0.0067377094
C  C105  1  0.64400000  0.29180000  0.24460000  1.0 -0.0290018537
C  C106  1  0.29180000  0.64400000  0.25540000  1.0 -0.0290018537
C  C107  1  0.35600000  0.70820000  0.75540000  1.0 -0.0290018537
C  C108  1  0.70820000  0.35600000  0.74460000  1.0 -0.0290018537
C  C109  1  0.67660000  0.30500000  0.31120000  1.0 0.0113146099
C  C110  1  0.30500000  0.67660000  0.18880000  1.0 0.0113146099
C  C111  1  0.32340000  0.69500000  0.68880000  1.0 0.0113146099
C  C112  1  0.69500000  0.32340000  0.81120000  1.0 0.0113146099
Br  Br1  1  0.95985000  0.36655000  0.19874000  1.0 -0.0414192036
Br  Br2  1  0.36655000  0.95985000  0.30126000  1.0 -0.0414192036
Br  Br3  1  0.04015000  0.63345000  0.80126000  1.0 -0.0414192036
Br  Br4  1  0.63345000  0.04015000  0.69874000  1.0 -0.0414192036
Br  Br5  1  0.50779000  0.17741000  0.35424000  1.0 -0.097761377
Br  Br6  1  0.17741000  0.50779000  0.14576000  1.0 -0.097761377
Br  Br7  1  0.49221000  0.82259000  0.64576000  1.0 -0.097761377
Br  Br8  1  0.82259000  0.49221000  0.85424000  1.0 -0.097761377
Br  Br9  1  0.01791000  0.46729000  0.18779000  1.0 -0.022826411
Br  Br10  1  0.46729000  0.01791000  0.31221000  1.0 -0.022826411
Br  Br11  1  0.98209000  0.53271000  0.81221000  1.0 -0.022826411
Br  Br12  1  0.53271000  0.98209000  0.68779000  1.0 -0.022826411
N  N1  1  0.21618000  0.45982000  0.48308000  1.0 -0.2294812307
N  N2  1  0.45982000  0.21618000  0.01692000  1.0 -0.2294812307
N  N3  1  0.78382000  0.54018000  0.51692000  1.0 -0.2294812307
N  N4  1  0.54018000  0.78382000  0.98308000  1.0 -0.2294812307
N  N5  1  0.22158000  0.77082000  0.45970000  1.0 -0.2453805127
N  N6  1  0.77082000  0.22158000  0.04030000  1.0 -0.2453805127
N  N7  1  0.77842000  0.22918000  0.54030000  1.0 -0.2453805127
N  N8  1  0.22918000  0.77842000  0.95970000  1.0 -0.2439262041
O  O1  1  0.96431000  0.43469000  0.43501000  1.0 -0.5231384703
O  O2  1  0.43469000  0.96431000  0.06499000  1.0 -0.5231384703
O  O3  1  0.03569000  0.56531000  0.56499000  1.0 -0.5231384703
O  O4  1  0.56531000  0.03569000  0.93501000  1.0 -0.5231384703
O  O5  1  0.77244000  0.39836000  0.43655000  1.0 -0.5126692869
O  O6  1  0.39836000  0.77244000  0.06345000  1.0 -0.5126692869
O  O7  1  0.22756000  0.60164000  0.56345000  1.0 -0.5126692869
O  O8  1  0.60164000  0.22756000  0.93655000  1.0 -0.5126692869
O  O9  1  0.64363000  0.23397000  0.12054000  1.0 -0.5557993718
O  O10  1  0.23397000  0.64363000  0.37946000  1.0 -0.5557993718
O  O11  1  0.35637000  0.76603000  0.87946000  1.0 -0.5557993718
O  O12  1  0.76603000  0.35637000  0.62054000  1.0 -0.5557993718
O  O13  1  0.76510000  0.46590000  0.09380000  1.0 -0.4896078923
O  O14  1  0.46590000  0.76510000  0.40620000  1.0 -0.4896078923
O  O15  1  0.23490000  0.53410000  0.90620000  1.0 -0.4896078923
O  O16  1  0.53410000  0.23490000  0.59380000  1.0 -0.4896078923
