# DDEC6 charges by PACMAN v1.1 (https://github.com/mtap-research/PACMAN-charge/)
data_TUMTOK_ASR_pacman
_symmetry_space_group_name_H-M   'P 1'
_cell_length_a   10.05000000
_cell_length_b   10.54000000
_cell_length_c   14.37000000
_cell_angle_alpha   90.00000000
_cell_angle_beta   90.00000000
_cell_angle_gamma   90.00000000
_symmetry_Int_Tables_number   1
_chemical_formula_structural   Zn2(PO4)3
_chemical_formula_sum   'Zn8 P12 O48'
_cell_volume   1522.17099000
_cell_formula_units_Z   4
loop_
 _symmetry_equiv_pos_site_id
 _symmetry_equiv_pos_as_xyz
  1  'x, y, z'
loop_
 _atom_site_type_symbol
 _atom_site_label
 _atom_site_symmetry_multiplicity
 _atom_site_fract_x
 _atom_site_fract_y
 _atom_site_fract_z
 _atom_site_occupancy
 _atom_site_charge
Zn  Zn1  1  0.62734000  0.40961000  0.55240000  1.0 1.1818129004
Zn  Zn2  1  0.37266000  0.59039000  0.05240000  1.0 1.1818129004
Zn  Zn3  1  0.12734000  0.09039000  0.05240000  1.0 1.1818129004
Zn  Zn4  1  0.87266000  0.90961000  0.55240000  1.0 1.1818129004
Zn  Zn5  1  0.13170000  0.15272000  0.46357000  1.0 1.1818129004
Zn  Zn6  1  0.86830000  0.84728000  0.96357000  1.0 1.1818129004
Zn  Zn7  1  0.63170000  0.34728000  0.96357000  1.0 1.1818129004
Zn  Zn8  1  0.36830000  0.65272000  0.46357000  1.0 1.1818129004
P  P1  1  0.81290000  0.18500000  0.49620000  1.0 1.3818876029
P  P2  1  0.18710000  0.81500000  0.99620000  1.0 1.3871097446
P  P3  1  0.31290000  0.31500000  0.99620000  1.0 1.3871097446
P  P4  1  0.68710000  0.68500000  0.49620000  1.0 1.3818876029
P  P5  1  0.32290000  0.37520000  0.51120000  1.0 1.3712261797
P  P6  1  0.67710000  0.62480000  0.01120000  1.0 1.3712261797
P  P7  1  0.82290000  0.12480000  0.01120000  1.0 1.3712261797
P  P8  1  0.17710000  0.87520000  0.51120000  1.0 1.3712261797
P  P9  1  0.02200000  0.04820000  0.26640000  1.0 1.3053378344
P  P10  1  0.97800000  0.95180000  0.76640000  1.0 1.3030828318
P  P11  1  0.52200000  0.45180000  0.76640000  1.0 1.3030828318
P  P12  1  0.47800000  0.54820000  0.26640000  1.0 1.3030828318
O  O1  1  0.46810000  0.36880000  0.48160000  1.0 -0.6402373432
O  O2  1  0.53190000  0.63120000  0.98160000  1.0 -0.6402373432
O  O3  1  0.96810000  0.13120000  0.98160000  1.0 -0.6402373432
O  O4  1  0.03190000  0.86880000  0.48160000  1.0 -0.6402373432
O  O5  1  0.73600000  0.26080000  0.56710000  1.0 -0.5802893161
O  O6  1  0.26400000  0.73920000  0.06710000  1.0 -0.5802893161
O  O7  1  0.23600000  0.23920000  0.06710000  1.0 -0.5802893161
O  O8  1  0.76400000  0.76080000  0.56710000  1.0 -0.5802893161
O  O9  1  0.12880000  0.08720000  0.33590000  1.0 -0.6023670926
O  O10  1  0.87120000  0.91280000  0.83590000  1.0 -0.6023670926
O  O11  1  0.62880000  0.41280000  0.83590000  1.0 -0.6023670926
O  O12  1  0.37120000  0.58720000  0.33590000  1.0 -0.6023670926
O  O13  1  0.96050000  0.20520000  0.50910000  1.0 -0.6466493129
O  O14  1  0.03950000  0.79480000  0.00910000  1.0 -0.6466493129
O  O15  1  0.46050000  0.29480000  0.00910000  1.0 -0.6466493129
O  O16  1  0.53950000  0.70520000  0.50910000  1.0 -0.6466493129
O  O17  1  0.23420000  0.30610000  0.44230000  1.0 -0.5802893161
O  O18  1  0.76580000  0.69390000  0.94230000  1.0 -0.5802893161
O  O19  1  0.73420000  0.19390000  0.94230000  1.0 -0.5802893161
O  O20  1  0.26580000  0.80610000  0.44230000  1.0 -0.5802893161
O  O21  1  0.77510000  0.04510000  0.49570000  1.0 -0.6173397123
O  O22  1  0.22490000  0.95490000  0.99570000  1.0 -0.6173397123
O  O23  1  0.27510000  0.45490000  0.99570000  1.0 -0.6173397123
O  O24  1  0.72490000  0.54510000  0.49570000  1.0 -0.6173397123
O  O25  1  0.27870000  0.51150000  0.52790000  1.0 -0.6023670926
O  O26  1  0.72130000  0.48850000  0.02790000  1.0 -0.6023670926
O  O27  1  0.77870000  0.98850000  0.02790000  1.0 -0.6023670926
O  O28  1  0.22130000  0.01150000  0.52790000  1.0 -0.6023670926
O  O29  1  0.08060000  0.02320000  0.17210000  1.0 -0.5883431851
O  O30  1  0.91940000  0.97680000  0.67210000  1.0 -0.5883431851
O  O31  1  0.58060000  0.47680000  0.67210000  1.0 -0.5883431851
O  O32  1  0.41940000  0.52320000  0.17210000  1.0 -0.5883431851
O  O33  1  0.90770000  0.14390000  0.25980000  1.0 -0.335553643
O  O34  1  0.09230000  0.85610000  0.75980000  1.0 -0.335553643
O  O35  1  0.40770000  0.35610000  0.75980000  1.0 -0.335553643
O  O36  1  0.59230000  0.64390000  0.25980000  1.0 -0.335553643
O  O37  1  0.77160000  0.23920000  0.39770000  1.0 -0.4200630567
O  O38  1  0.22840000  0.76080000  0.89770000  1.0 -0.4200630567
O  O39  1  0.27160000  0.26080000  0.89770000  1.0 -0.4200630567
O  O40  1  0.72840000  0.73920000  0.39770000  1.0 -0.4200630567
O  O41  1  0.96250000  0.91880000  0.30230000  1.0 -0.3894351095
O  O42  1  0.03750000  0.08120000  0.80230000  1.0 -0.3894351095
O  O43  1  0.46250000  0.58120000  0.80230000  1.0 -0.3894351095
O  O44  1  0.53750000  0.41880000  0.30230000  1.0 -0.3894351095
O  O45  1  0.30370000  0.30120000  0.60690000  1.0 -0.4200630567
O  O46  1  0.69630000  0.69880000  0.10690000  1.0 -0.4200630567
O  O47  1  0.80370000  0.19880000  0.10690000  1.0 -0.4200630567
O  O48  1  0.19630000  0.80120000  0.60690000  1.0 -0.4200630567
