# DDEC6 charges by PACMAN v1.1 (https://github.com/mtap-research/PACMAN-charge/)
data_TUNRUS_ASR_pacman
_symmetry_space_group_name_H-M   'P 1'
_cell_length_a   17.59500000
_cell_length_b   17.59500000
_cell_length_c   17.59500000
_cell_angle_alpha   60.00000000
_cell_angle_beta   60.00000000
_cell_angle_gamma   60.00000000
_symmetry_Int_Tables_number   1
_chemical_formula_structural   Th3H36(C18O5)4
_chemical_formula_sum   'Th6 H72 C144 O40'
_cell_volume   3851.70321145
_cell_formula_units_Z   2
loop_
 _symmetry_equiv_pos_site_id
 _symmetry_equiv_pos_as_xyz
  1  'x, y, z'
loop_
 _atom_site_type_symbol
 _atom_site_label
 _atom_site_symmetry_multiplicity
 _atom_site_fract_x
 _atom_site_fract_y
 _atom_site_fract_z
 _atom_site_occupancy
 _atom_site_charge
Th  Th1  1  0.11162000  0.11162000  0.88838000  1.0 1.622210845
Th  Th2  1  0.88838000  0.88838000  0.11162000  1.0 1.622210845
Th  Th3  1  0.88838000  0.11162000  0.11162000  1.0 1.622210845
Th  Th4  1  0.11162000  0.88838000  0.88838000  1.0 1.622210845
Th  Th5  1  0.11162000  0.88838000  0.11162000  1.0 1.622210845
Th  Th6  1  0.88838000  0.11162000  0.88838000  1.0 1.6268315401
H  H1  1  0.14910000  0.49610000  0.50390000  1.0 0.0852088641
H  H2  1  0.13910000  0.36350000  0.63650000  1.0 0.0517818771
H  H3  1  0.90940000  0.38080000  0.61920000  1.0 0.0355824728
H  H4  1  0.49610000  0.14910000  0.85090000  1.0 0.0852088641
H  H5  1  0.36350000  0.13910000  0.86090000  1.0 0.0517818771
H  H6  1  0.38080000  0.90940000  0.09060000  1.0 0.0355824728
H  H7  1  0.50390000  0.85090000  0.14910000  1.0 0.0848219033
H  H8  1  0.63650000  0.86090000  0.13910000  1.0 0.0517818771
H  H9  1  0.61920000  0.09060000  0.90940000  1.0 0.0355824728
H  H10  1  0.85090000  0.50390000  0.49610000  1.0 0.0852088641
H  H11  1  0.86090000  0.63650000  0.36350000  1.0 0.0517818771
H  H12  1  0.09060000  0.61920000  0.38080000  1.0 0.0355824728
H  H13  1  0.50390000  0.14910000  0.49610000  1.0 0.0852088641
H  H14  1  0.63650000  0.13910000  0.36350000  1.0 0.0517818771
H  H15  1  0.61920000  0.90940000  0.38080000  1.0 0.0355824728
H  H16  1  0.85090000  0.49610000  0.14910000  1.0 0.0852088641
H  H17  1  0.86090000  0.36350000  0.13910000  1.0 0.0517818771
H  H18  1  0.09060000  0.38080000  0.90940000  1.0 0.0355824728
H  H19  1  0.14910000  0.50390000  0.85090000  1.0 0.0852088641
H  H20  1  0.13910000  0.63650000  0.86090000  1.0 0.0517818771
H  H21  1  0.90940000  0.61920000  0.09060000  1.0 0.0355824728
H  H22  1  0.49610000  0.85090000  0.50390000  1.0 0.0848219033
H  H23  1  0.36350000  0.86090000  0.63650000  1.0 0.0517818771
H  H24  1  0.38080000  0.09060000  0.61920000  1.0 0.0355824728
H  H25  1  0.49610000  0.50390000  0.14910000  1.0 0.0852088641
H  H26  1  0.36350000  0.63650000  0.13910000  1.0 0.0517818771
H  H27  1  0.38080000  0.61920000  0.90940000  1.0 0.0355824728
H  H28  1  0.14910000  0.85090000  0.49610000  1.0 0.0848219033
H  H29  1  0.13910000  0.86090000  0.36350000  1.0 0.0517818771
H  H30  1  0.90940000  0.09060000  0.38080000  1.0 0.0355824728
H  H31  1  0.85090000  0.14910000  0.50390000  1.0 0.0852088641
H  H32  1  0.86090000  0.13910000  0.63650000  1.0 0.0517818771
H  H33  1  0.09060000  0.90940000  0.61920000  1.0 0.0355824728
H  H34  1  0.50390000  0.49610000  0.85090000  1.0 0.0852088641
H  H35  1  0.63650000  0.36350000  0.86090000  1.0 0.0517818771
H  H36  1  0.61920000  0.38080000  0.09060000  1.0 0.0355824728
H  H37  1  0.85090000  0.50390000  0.14910000  1.0 0.0852088641
H  H38  1  0.86090000  0.63650000  0.13910000  1.0 0.0517818771
H  H39  1  0.09060000  0.61920000  0.90940000  1.0 0.0355824728
H  H40  1  0.50390000  0.85090000  0.49610000  1.0 0.0848219033
H  H41  1  0.63650000  0.86090000  0.36350000  1.0 0.0517818771
H  H42  1  0.61920000  0.09060000  0.38080000  1.0 0.0355824728
H  H43  1  0.49610000  0.14910000  0.50390000  1.0 0.0852088641
H  H44  1  0.36350000  0.13910000  0.63650000  1.0 0.0517818771
H  H45  1  0.38080000  0.90940000  0.61920000  1.0 0.0355824728
H  H46  1  0.14910000  0.49610000  0.85090000  1.0 0.0852088641
H  H47  1  0.13910000  0.36350000  0.86090000  1.0 0.0517818771
H  H48  1  0.90940000  0.38080000  0.09060000  1.0 0.0355824728
H  H49  1  0.49610000  0.85090000  0.14910000  1.0 0.0848219033
H  H50  1  0.36350000  0.86090000  0.13910000  1.0 0.0517818771
H  H51  1  0.38080000  0.09060000  0.90940000  1.0 0.0355824728
H  H52  1  0.14910000  0.50390000  0.49610000  1.0 0.0852088641
H  H53  1  0.13910000  0.63650000  0.36350000  1.0 0.0517818771
H  H54  1  0.90940000  0.61920000  0.38080000  1.0 0.0355824728
H  H55  1  0.85090000  0.49610000  0.50390000  1.0 0.0852088641
H  H56  1  0.86090000  0.36350000  0.63650000  1.0 0.0517818771
H  H57  1  0.09060000  0.38080000  0.61920000  1.0 0.0355824728
H  H58  1  0.50390000  0.14910000  0.85090000  1.0 0.0852088641
H  H59  1  0.63650000  0.13910000  0.86090000  1.0 0.0517818771
H  H60  1  0.61920000  0.90940000  0.09060000  1.0 0.0355824728
H  H61  1  0.50390000  0.49610000  0.14910000  1.0 0.0852088641
H  H62  1  0.63650000  0.36350000  0.13910000  1.0 0.0517818771
H  H63  1  0.61920000  0.38080000  0.90940000  1.0 0.0355824728
H  H64  1  0.85090000  0.14910000  0.49610000  1.0 0.0852088641
H  H65  1  0.86090000  0.13910000  0.36350000  1.0 0.0517818771
H  H66  1  0.09060000  0.90940000  0.38080000  1.0 0.0355824728
H  H67  1  0.14910000  0.85090000  0.50390000  1.0 0.0848219033
H  H68  1  0.13910000  0.86090000  0.63650000  1.0 0.0517818771
H  H69  1  0.90940000  0.09060000  0.61920000  1.0 0.0355824728
H  H70  1  0.49610000  0.50390000  0.85090000  1.0 0.0852088641
H  H71  1  0.36350000  0.63650000  0.86090000  1.0 0.0517818771
H  H72  1  0.38080000  0.61920000  0.09060000  1.0 0.0355824728
C  C1  1  0.01700000  0.27100000  0.72900000  1.0 0.2496691183
C  C2  1  0.10100000  0.47300000  0.52700000  1.0 -0.0565297141
C  C3  1  0.09400000  0.39400000  0.60600000  1.0 -0.1863552395
C  C4  1  0.02400000  0.36000000  0.64000000  1.0 -0.0104057013
C  C5  1  0.95800000  0.40400000  0.59600000  1.0 -0.0104057013
C  C6  1  0.96400000  0.48200000  0.51800000  1.0 -0.0027606875
C  C7  1  0.27100000  0.01700000  0.98300000  1.0 0.2496691183
C  C8  1  0.47300000  0.10100000  0.89900000  1.0 -0.0565297141
C  C9  1  0.39400000  0.09400000  0.90600000  1.0 -0.1824806777
C  C10  1  0.36000000  0.02400000  0.97600000  1.0 -0.0104057013
C  C11  1  0.40400000  0.95800000  0.04200000  1.0 -0.0104057013
C  C12  1  0.48200000  0.96400000  0.03600000  1.0 -0.0027606875
C  C13  1  0.72900000  0.98300000  0.01700000  1.0 0.2496691183
C  C14  1  0.52700000  0.89900000  0.10100000  1.0 -0.0565297141
C  C15  1  0.60600000  0.90600000  0.09400000  1.0 -0.1824806777
C  C16  1  0.64000000  0.97600000  0.02400000  1.0 -0.0104057013
C  C17  1  0.59600000  0.04200000  0.95800000  1.0 -0.0104057013
C  C18  1  0.51800000  0.03600000  0.96400000  1.0 -0.0104057013
C  C19  1  0.98300000  0.72900000  0.27100000  1.0 0.2496691183
C  C20  1  0.89900000  0.52700000  0.47300000  1.0 -0.0565297141
C  C21  1  0.90600000  0.60600000  0.39400000  1.0 -0.1863552395
C  C22  1  0.97600000  0.64000000  0.36000000  1.0 -0.0104057013
C  C23  1  0.04200000  0.59600000  0.40400000  1.0 -0.0104057013
C  C24  1  0.03600000  0.51800000  0.48200000  1.0 -0.0027606875
C  C25  1  0.72900000  0.01700000  0.27100000  1.0 0.2496691183
C  C26  1  0.52700000  0.10100000  0.47300000  1.0 -0.0565297141
C  C27  1  0.60600000  0.09400000  0.39400000  1.0 -0.1824806777
C  C28  1  0.64000000  0.02400000  0.36000000  1.0 -0.0104057013
C  C29  1  0.59600000  0.95800000  0.40400000  1.0 -0.0104057013
C  C30  1  0.51800000  0.96400000  0.48200000  1.0 -0.0027606875
C  C31  1  0.98300000  0.27100000  0.01700000  1.0 0.2496691183
C  C32  1  0.89900000  0.47300000  0.10100000  1.0 -0.0565297141
C  C33  1  0.90600000  0.39400000  0.09400000  1.0 -0.1824806777
C  C34  1  0.97600000  0.36000000  0.02400000  1.0 -0.0104057013
C  C35  1  0.04200000  0.40400000  0.95800000  1.0 -0.0104057013
C  C36  1  0.03600000  0.48200000  0.96400000  1.0 -0.0027606875
C  C37  1  0.01700000  0.72900000  0.98300000  1.0 0.2496691183
C  C38  1  0.10100000  0.52700000  0.89900000  1.0 -0.0565297141
C  C39  1  0.09400000  0.60600000  0.90600000  1.0 -0.1863552395
C  C40  1  0.02400000  0.64000000  0.97600000  1.0 -0.0104057013
C  C41  1  0.95800000  0.59600000  0.04200000  1.0 -0.0104057013
C  C42  1  0.96400000  0.51800000  0.03600000  1.0 -0.0027606875
C  C43  1  0.27100000  0.98300000  0.72900000  1.0 0.2496691183
C  C44  1  0.47300000  0.89900000  0.52700000  1.0 -0.0565297141
C  C45  1  0.39400000  0.90600000  0.60600000  1.0 -0.1863552395
C  C46  1  0.36000000  0.97600000  0.64000000  1.0 -0.0104057013
C  C47  1  0.40400000  0.04200000  0.59600000  1.0 -0.0104057013
C  C48  1  0.48200000  0.03600000  0.51800000  1.0 -0.0027606875
C  C49  1  0.27100000  0.72900000  0.01700000  1.0 0.2496691183
C  C50  1  0.47300000  0.52700000  0.10100000  1.0 -0.0565297141
C  C51  1  0.39400000  0.60600000  0.09400000  1.0 -0.1824806777
C  C52  1  0.36000000  0.64000000  0.02400000  1.0 -0.0104057013
C  C53  1  0.40400000  0.59600000  0.95800000  1.0 -0.0104057013
C  C54  1  0.48200000  0.51800000  0.96400000  1.0 -0.0027606875
C  C55  1  0.01700000  0.98300000  0.27100000  1.0 0.2496691183
C  C56  1  0.10100000  0.89900000  0.47300000  1.0 -0.0542341869
C  C57  1  0.09400000  0.90600000  0.39400000  1.0 -0.1863552395
C  C58  1  0.02400000  0.97600000  0.36000000  1.0 -0.0104057013
C  C59  1  0.95800000  0.04200000  0.40400000  1.0 -0.0104057013
C  C60  1  0.96400000  0.03600000  0.48200000  1.0 -0.0104057013
C  C61  1  0.98300000  0.01700000  0.72900000  1.0 0.2496691183
C  C62  1  0.89900000  0.10100000  0.52700000  1.0 -0.0565297141
C  C63  1  0.90600000  0.09400000  0.60600000  1.0 -0.1824806777
C  C64  1  0.97600000  0.02400000  0.64000000  1.0 -0.0104057013
C  C65  1  0.04200000  0.95800000  0.59600000  1.0 -0.0104057013
C  C66  1  0.03600000  0.96400000  0.51800000  1.0 -0.0027606875
C  C67  1  0.72900000  0.27100000  0.98300000  1.0 0.2496691183
C  C68  1  0.52700000  0.47300000  0.89900000  1.0 -0.0565297141
C  C69  1  0.60600000  0.39400000  0.90600000  1.0 -0.1863552395
C  C70  1  0.64000000  0.36000000  0.97600000  1.0 -0.0104057013
C  C71  1  0.59600000  0.40400000  0.04200000  1.0 -0.0104057013
C  C72  1  0.51800000  0.48200000  0.03600000  1.0 -0.0027606875
C  C73  1  0.98300000  0.72900000  0.01700000  1.0 0.2496691183
C  C74  1  0.89900000  0.52700000  0.10100000  1.0 -0.0565297141
C  C75  1  0.90600000  0.60600000  0.09400000  1.0 -0.1863552395
C  C76  1  0.97600000  0.64000000  0.02400000  1.0 -0.0104057013
C  C77  1  0.04200000  0.59600000  0.95800000  1.0 -0.0104057013
C  C78  1  0.03600000  0.51800000  0.96400000  1.0 -0.0027606875
C  C79  1  0.72900000  0.98300000  0.27100000  1.0 0.2496691183
C  C80  1  0.52700000  0.89900000  0.47300000  1.0 -0.0542341869
C  C81  1  0.60600000  0.90600000  0.39400000  1.0 -0.1863552395
C  C82  1  0.64000000  0.97600000  0.36000000  1.0 -0.0104057013
C  C83  1  0.59600000  0.04200000  0.40400000  1.0 -0.0104057013
C  C84  1  0.51800000  0.03600000  0.48200000  1.0 -0.0104057013
C  C85  1  0.27100000  0.01700000  0.72900000  1.0 0.2496691183
C  C86  1  0.47300000  0.10100000  0.52700000  1.0 -0.0565297141
C  C87  1  0.39400000  0.09400000  0.60600000  1.0 -0.1824806777
C  C88  1  0.36000000  0.02400000  0.64000000  1.0 -0.0104057013
C  C89  1  0.40400000  0.95800000  0.59600000  1.0 -0.0104057013
C  C90  1  0.48200000  0.96400000  0.51800000  1.0 -0.0027606875
C  C91  1  0.01700000  0.27100000  0.98300000  1.0 0.2496691183
C  C92  1  0.10100000  0.47300000  0.89900000  1.0 -0.0565297141
C  C93  1  0.09400000  0.39400000  0.90600000  1.0 -0.1863552395
C  C94  1  0.02400000  0.36000000  0.97600000  1.0 -0.0104057013
C  C95  1  0.95800000  0.40400000  0.04200000  1.0 -0.0104057013
C  C96  1  0.96400000  0.48200000  0.03600000  1.0 -0.0027606875
C  C97  1  0.27100000  0.98300000  0.01700000  1.0 0.2496691183
C  C98  1  0.47300000  0.89900000  0.10100000  1.0 -0.0565297141
C  C99  1  0.39400000  0.90600000  0.09400000  1.0 -0.1824806777
C  C100  1  0.36000000  0.97600000  0.02400000  1.0 -0.0104057013
C  C101  1  0.40400000  0.04200000  0.95800000  1.0 -0.0104057013
C  C102  1  0.48200000  0.03600000  0.96400000  1.0 -0.0104057013
C  C103  1  0.01700000  0.72900000  0.27100000  1.0 0.2496691183
C  C104  1  0.10100000  0.52700000  0.47300000  1.0 -0.0565297141
C  C105  1  0.09400000  0.60600000  0.39400000  1.0 -0.1863552395
C  C106  1  0.02400000  0.64000000  0.36000000  1.0 -0.0104057013
C  C107  1  0.95800000  0.59600000  0.40400000  1.0 -0.0104057013
C  C108  1  0.96400000  0.51800000  0.48200000  1.0 -0.0027606875
C  C109  1  0.98300000  0.27100000  0.72900000  1.0 0.2496691183
C  C110  1  0.89900000  0.47300000  0.52700000  1.0 -0.0565297141
C  C111  1  0.90600000  0.39400000  0.60600000  1.0 -0.1863552395
C  C112  1  0.97600000  0.36000000  0.64000000  1.0 -0.0104057013
C  C113  1  0.04200000  0.40400000  0.59600000  1.0 -0.0104057013
C  C114  1  0.03600000  0.48200000  0.51800000  1.0 -0.0027606875
C  C115  1  0.72900000  0.01700000  0.98300000  1.0 0.2496691183
C  C116  1  0.52700000  0.10100000  0.89900000  1.0 -0.0565297141
C  C117  1  0.60600000  0.09400000  0.90600000  1.0 -0.1824806777
C  C118  1  0.64000000  0.02400000  0.97600000  1.0 -0.0104057013
C  C119  1  0.59600000  0.95800000  0.04200000  1.0 -0.0104057013
C  C120  1  0.51800000  0.96400000  0.03600000  1.0 -0.0027606875
C  C121  1  0.72900000  0.27100000  0.01700000  1.0 0.2496691183
C  C122  1  0.52700000  0.47300000  0.10100000  1.0 -0.0565297141
C  C123  1  0.60600000  0.39400000  0.09400000  1.0 -0.1863552395
C  C124  1  0.64000000  0.36000000  0.02400000  1.0 -0.0104057013
C  C125  1  0.59600000  0.40400000  0.95800000  1.0 -0.0104057013
C  C126  1  0.51800000  0.48200000  0.96400000  1.0 -0.0027606875
C  C127  1  0.98300000  0.01700000  0.27100000  1.0 0.2496691183
C  C128  1  0.89900000  0.10100000  0.47300000  1.0 -0.0565297141
C  C129  1  0.90600000  0.09400000  0.39400000  1.0 -0.1863552395
C  C130  1  0.97600000  0.02400000  0.36000000  1.0 -0.0104057013
C  C131  1  0.04200000  0.95800000  0.40400000  1.0 -0.0104057013
C  C132  1  0.03600000  0.96400000  0.48200000  1.0 -0.0027606875
C  C133  1  0.01700000  0.98300000  0.72900000  1.0 0.2496691183
C  C134  1  0.10100000  0.89900000  0.52700000  1.0 -0.0565297141
C  C135  1  0.09400000  0.90600000  0.60600000  1.0 -0.1863552395
C  C136  1  0.02400000  0.97600000  0.64000000  1.0 -0.0104057013
C  C137  1  0.95800000  0.04200000  0.59600000  1.0 -0.0104057013
C  C138  1  0.96400000  0.03600000  0.51800000  1.0 -0.0104057013
C  C139  1  0.27100000  0.72900000  0.98300000  1.0 0.2496691183
C  C140  1  0.47300000  0.52700000  0.89900000  1.0 -0.0565297141
C  C141  1  0.39400000  0.60600000  0.90600000  1.0 -0.1863552395
C  C142  1  0.36000000  0.64000000  0.97600000  1.0 -0.0104057013
C  C143  1  0.40400000  0.59600000  0.04200000  1.0 -0.0104057013
C  C144  1  0.48200000  0.51800000  0.03600000  1.0 -0.0027606875
O  O1  1  0.06380000  0.24280000  0.75720000  1.0 -0.3619858462
O  O2  1  0.24280000  0.06380000  0.93620000  1.0 -0.3619858462
O  O3  1  0.75720000  0.93620000  0.06380000  1.0 -0.3619858462
O  O4  1  0.93620000  0.75720000  0.24280000  1.0 -0.3619858462
O  O5  1  0.75720000  0.06380000  0.24280000  1.0 -0.3619858462
O  O6  1  0.93620000  0.24280000  0.06380000  1.0 -0.3619858462
O  O7  1  0.06380000  0.75720000  0.93620000  1.0 -0.3619858462
O  O8  1  0.24280000  0.93620000  0.75720000  1.0 -0.3619858462
O  O9  1  0.24280000  0.75720000  0.06380000  1.0 -0.3619858462
O  O10  1  0.06380000  0.93620000  0.24280000  1.0 -0.3619858462
O  O11  1  0.93620000  0.06380000  0.75720000  1.0 -0.3619858462
O  O12  1  0.75720000  0.24280000  0.93620000  1.0 -0.3619858462
O  O13  1  0.93620000  0.75720000  0.06380000  1.0 -0.3619858462
O  O14  1  0.75720000  0.93620000  0.24280000  1.0 -0.3619858462
O  O15  1  0.24280000  0.06380000  0.75720000  1.0 -0.3619858462
O  O16  1  0.06380000  0.24280000  0.93620000  1.0 -0.3619858462
O  O17  1  0.24280000  0.93620000  0.06380000  1.0 -0.3619858462
O  O18  1  0.06380000  0.75720000  0.24280000  1.0 -0.3619858462
O  O19  1  0.93620000  0.24280000  0.75720000  1.0 -0.3619858462
O  O20  1  0.75720000  0.06380000  0.93620000  1.0 -0.3619858462
O  O21  1  0.75720000  0.24280000  0.06380000  1.0 -0.3619858462
O  O22  1  0.93620000  0.06380000  0.24280000  1.0 -0.3619858462
O  O23  1  0.06380000  0.93620000  0.75720000  1.0 -0.3619858462
O  O24  1  0.24280000  0.75720000  0.93620000  1.0 -0.3619858462
O  O25  1  0.05790000  0.05790000  0.82630000  1.0 -0.2504487026
O  O26  1  0.04340000  0.04340000  0.86980000  1.0 -0.348049755
O  O27  1  0.05790000  0.05790000  0.05790000  1.0 -0.2504487026
O  O28  1  0.04340000  0.04340000  0.04340000  1.0 -0.348049755
O  O29  1  0.82630000  0.05790000  0.05790000  1.0 -0.2504487026
O  O30  1  0.86980000  0.04340000  0.04340000  1.0 -0.348049755
O  O31  1  0.05790000  0.82630000  0.05790000  1.0 -0.2504487026
O  O32  1  0.04340000  0.86980000  0.04340000  1.0 -0.348049755
O  O33  1  0.94210000  0.94210000  0.94210000  1.0 -0.2504487026
O  O34  1  0.95660000  0.95660000  0.95660000  1.0 -0.348049755
O  O35  1  0.94210000  0.94210000  0.17370000  1.0 -0.2504487026
O  O36  1  0.95660000  0.95660000  0.13020000  1.0 -0.348049755
O  O37  1  0.17370000  0.94210000  0.94210000  1.0 -0.2504487026
O  O38  1  0.13020000  0.95660000  0.95660000  1.0 -0.348049755
O  O39  1  0.94210000  0.17370000  0.94210000  1.0 -0.2504487026
O  O40  1  0.95660000  0.13020000  0.95660000  1.0 -0.348049755
