# DDEC6 charges by PACMAN v1.1 (https://github.com/mtap-research/PACMAN-charge/)
data_TUNSED_ASR_pacman
_symmetry_space_group_name_H-M   'P 1'
_cell_length_a   17.64550000
_cell_length_b   17.64550000
_cell_length_c   17.64550000
_cell_angle_alpha   60.00000000
_cell_angle_beta   60.00000000
_cell_angle_gamma   60.00000000
_symmetry_Int_Tables_number   1
_chemical_formula_structural   Th3H36(C33O8)2
_chemical_formula_sum   'Th6 H72 C132 O32'
_cell_volume   3884.96319762
_cell_formula_units_Z   2
loop_
 _symmetry_equiv_pos_site_id
 _symmetry_equiv_pos_as_xyz
  1  'x, y, z'
loop_
 _atom_site_type_symbol
 _atom_site_label
 _atom_site_symmetry_multiplicity
 _atom_site_fract_x
 _atom_site_fract_y
 _atom_site_fract_z
 _atom_site_occupancy
 _atom_site_charge
Th  Th1  1  0.88541000  0.11459000  0.88541000  1.0 2.3007673466
Th  Th2  1  0.11459000  0.88541000  0.11459000  1.0 2.3007673466
Th  Th3  1  0.88541000  0.88541000  0.11459000  1.0 2.3007673466
Th  Th4  1  0.11459000  0.11459000  0.88541000  1.0 2.3007673466
Th  Th5  1  0.11459000  0.88541000  0.88541000  1.0 2.3007673466
Th  Th6  1  0.88541000  0.11459000  0.11459000  1.0 2.3007673466
H  H1  1  0.14830000  0.85170000  0.51430000  1.0 0.0706768738
H  H2  1  0.12930000  0.87070000  0.64550000  1.0 0.0803788398
H  H3  1  0.90200000  0.09800000  0.61240000  1.0 0.0706768738
H  H4  1  0.85170000  0.14830000  0.48570000  1.0 0.0706768738
H  H5  1  0.87070000  0.12930000  0.35450000  1.0 0.0803788398
H  H6  1  0.09800000  0.90200000  0.38760000  1.0 0.0706768738
H  H7  1  0.51430000  0.48570000  0.14830000  1.0 0.0706768738
H  H8  1  0.64550000  0.35450000  0.12930000  1.0 0.0803788398
H  H9  1  0.61240000  0.38760000  0.90200000  1.0 0.0706768738
H  H10  1  0.48570000  0.51430000  0.85170000  1.0 0.0706768738
H  H11  1  0.35450000  0.64550000  0.87070000  1.0 0.0803788398
H  H12  1  0.38760000  0.61240000  0.09800000  1.0 0.0706768738
H  H13  1  0.51430000  0.14830000  0.85170000  1.0 0.0706768738
H  H14  1  0.64550000  0.12930000  0.87070000  1.0 0.0803788398
H  H15  1  0.61240000  0.90200000  0.09800000  1.0 0.0706768738
H  H16  1  0.48570000  0.85170000  0.14830000  1.0 0.0706768738
H  H17  1  0.35450000  0.87070000  0.12930000  1.0 0.0803788398
H  H18  1  0.38760000  0.09800000  0.90200000  1.0 0.0706768738
H  H19  1  0.14830000  0.51430000  0.48570000  1.0 0.0706768738
H  H20  1  0.12930000  0.64550000  0.35450000  1.0 0.0803788398
H  H21  1  0.90200000  0.61240000  0.38760000  1.0 0.0706768738
H  H22  1  0.85170000  0.48570000  0.51430000  1.0 0.0706768738
H  H23  1  0.87070000  0.35450000  0.64550000  1.0 0.0803788398
H  H24  1  0.09800000  0.38760000  0.61240000  1.0 0.0706768738
H  H25  1  0.85170000  0.51430000  0.14830000  1.0 0.0706768738
H  H26  1  0.87070000  0.64550000  0.12930000  1.0 0.0803788398
H  H27  1  0.09800000  0.61240000  0.90200000  1.0 0.0706768738
H  H28  1  0.14830000  0.48570000  0.85170000  1.0 0.0706768738
H  H29  1  0.12930000  0.35450000  0.87070000  1.0 0.0803788398
H  H30  1  0.90200000  0.38760000  0.09800000  1.0 0.0706768738
H  H31  1  0.48570000  0.14830000  0.51430000  1.0 0.0706768738
H  H32  1  0.35450000  0.12930000  0.64550000  1.0 0.0803788398
H  H33  1  0.38760000  0.90200000  0.61240000  1.0 0.0706768738
H  H34  1  0.51430000  0.85170000  0.48570000  1.0 0.0706768738
H  H35  1  0.64550000  0.87070000  0.35450000  1.0 0.0803788398
H  H36  1  0.61240000  0.09800000  0.38760000  1.0 0.0706768738
H  H37  1  0.85170000  0.14830000  0.51430000  1.0 0.0706768738
H  H38  1  0.87070000  0.12930000  0.64550000  1.0 0.0803788398
H  H39  1  0.09800000  0.90200000  0.61240000  1.0 0.0706768738
H  H40  1  0.14830000  0.85170000  0.48570000  1.0 0.0706768738
H  H41  1  0.12930000  0.87070000  0.35450000  1.0 0.0803788398
H  H42  1  0.90200000  0.09800000  0.38760000  1.0 0.0706768738
H  H43  1  0.48570000  0.51430000  0.14830000  1.0 0.0706768738
H  H44  1  0.35450000  0.64550000  0.12930000  1.0 0.0803788398
H  H45  1  0.38760000  0.61240000  0.90200000  1.0 0.0706768738
H  H46  1  0.51430000  0.48570000  0.85170000  1.0 0.0706768738
H  H47  1  0.64550000  0.35450000  0.87070000  1.0 0.0803788398
H  H48  1  0.61240000  0.38760000  0.09800000  1.0 0.0706768738
H  H49  1  0.48570000  0.85170000  0.51430000  1.0 0.0706768738
H  H50  1  0.35450000  0.87070000  0.64550000  1.0 0.0803788398
H  H51  1  0.38760000  0.09800000  0.61240000  1.0 0.0706768738
H  H52  1  0.51430000  0.14830000  0.48570000  1.0 0.0706768738
H  H53  1  0.64550000  0.12930000  0.35450000  1.0 0.0803788398
H  H54  1  0.61240000  0.90200000  0.38760000  1.0 0.0706768738
H  H55  1  0.85170000  0.48570000  0.14830000  1.0 0.0706768738
H  H56  1  0.87070000  0.35450000  0.12930000  1.0 0.0803788398
H  H57  1  0.09800000  0.38760000  0.90200000  1.0 0.0706768738
H  H58  1  0.14830000  0.51430000  0.85170000  1.0 0.0706768738
H  H59  1  0.12930000  0.64550000  0.87070000  1.0 0.0803788398
H  H60  1  0.90200000  0.61240000  0.09800000  1.0 0.0706768738
H  H61  1  0.14830000  0.48570000  0.51430000  1.0 0.0706768738
H  H62  1  0.12930000  0.35450000  0.64550000  1.0 0.0803788398
H  H63  1  0.90200000  0.38760000  0.61240000  1.0 0.0706768738
H  H64  1  0.85170000  0.51430000  0.48570000  1.0 0.0706768738
H  H65  1  0.87070000  0.64550000  0.35450000  1.0 0.0803788398
H  H66  1  0.09800000  0.61240000  0.38760000  1.0 0.0706768738
H  H67  1  0.51430000  0.85170000  0.14830000  1.0 0.0706768738
H  H68  1  0.64550000  0.87070000  0.12930000  1.0 0.0803788398
H  H69  1  0.61240000  0.09800000  0.90200000  1.0 0.0706768738
H  H70  1  0.48570000  0.14830000  0.85170000  1.0 0.0706768738
H  H71  1  0.35450000  0.12930000  0.87070000  1.0 0.0803788398
H  H72  1  0.38760000  0.90200000  0.09800000  1.0 0.0706768738
C  C1  1  0.00000000  0.00000000  0.72420000  1.0 0.4446012819
C  C2  1  0.00000000  0.00000000  0.27580000  1.0 0.4455312733
C  C3  1  0.72420000  0.27580000  0.00000000  1.0 0.4455312733
C  C4  1  0.27580000  0.72420000  0.00000000  1.0 0.4455312733
C  C5  1  0.72420000  0.00000000  0.00000000  1.0 0.4446012819
C  C6  1  0.27580000  0.00000000  0.00000000  1.0 0.4446012819
C  C7  1  0.00000000  0.72420000  0.27580000  1.0 0.4455312733
C  C8  1  0.00000000  0.27580000  0.72420000  1.0 0.4446012819
C  C9  1  0.00000000  0.72420000  0.00000000  1.0 0.4455312733
C  C10  1  0.00000000  0.27580000  0.00000000  1.0 0.4455312733
C  C11  1  0.27580000  0.00000000  0.72420000  1.0 0.4446012819
C  C12  1  0.72420000  0.00000000  0.27580000  1.0 0.4446012819
C  C13  1  0.09840000  0.90160000  0.53420000  1.0 -0.0779133618
C  C14  1  0.08700000  0.91300000  0.61220000  1.0 -0.0779133618
C  C15  1  0.01390000  0.98610000  0.64130000  1.0 0.001320686
C  C16  1  0.95200000  0.04800000  0.59260000  1.0 -0.0263056627
C  C17  1  0.96340000  0.03660000  0.51460000  1.0 0.0243946832
C  C18  1  0.90160000  0.09840000  0.46580000  1.0 -0.0878334552
C  C19  1  0.91300000  0.08700000  0.38780000  1.0 -0.0779133618
C  C20  1  0.98610000  0.01390000  0.35870000  1.0 0.001320686
C  C21  1  0.04800000  0.95200000  0.40740000  1.0 -0.0219898831
C  C22  1  0.03660000  0.96340000  0.48540000  1.0 0.0243946832
C  C23  1  0.53420000  0.46580000  0.09840000  1.0 -0.0878334552
C  C24  1  0.61220000  0.38780000  0.08700000  1.0 -0.0779133618
C  C25  1  0.64130000  0.35870000  0.01390000  1.0 0.001320686
C  C26  1  0.59260000  0.40740000  0.95200000  1.0 -0.0263056627
C  C27  1  0.51460000  0.48540000  0.96340000  1.0 0.0243946832
C  C28  1  0.46580000  0.53420000  0.90160000  1.0 -0.0878334552
C  C29  1  0.38780000  0.61220000  0.91300000  1.0 -0.0779133618
C  C30  1  0.35870000  0.64130000  0.98610000  1.0 0.001320686
C  C31  1  0.40740000  0.59260000  0.04800000  1.0 -0.0263056627
C  C32  1  0.48540000  0.51460000  0.03660000  1.0 0.0264776575
C  C33  1  0.53420000  0.09840000  0.90160000  1.0 -0.0779133618
C  C34  1  0.61220000  0.08700000  0.91300000  1.0 -0.0779133618
C  C35  1  0.64130000  0.01390000  0.98610000  1.0 0.001320686
C  C36  1  0.59260000  0.95200000  0.04800000  1.0 -0.0263056627
C  C37  1  0.51460000  0.96340000  0.03660000  1.0 0.0264776575
C  C38  1  0.46580000  0.90160000  0.09840000  1.0 -0.0878334552
C  C39  1  0.38780000  0.91300000  0.08700000  1.0 -0.0779133618
C  C40  1  0.35870000  0.98610000  0.01390000  1.0 0.001320686
C  C41  1  0.40740000  0.04800000  0.95200000  1.0 -0.0263056627
C  C42  1  0.48540000  0.03660000  0.96340000  1.0 0.0243946832
C  C43  1  0.09840000  0.53420000  0.46580000  1.0 -0.0878334552
C  C44  1  0.08700000  0.61220000  0.38780000  1.0 -0.0779133618
C  C45  1  0.01390000  0.64130000  0.35870000  1.0 0.001320686
C  C46  1  0.95200000  0.59260000  0.40740000  1.0 -0.0263056627
C  C47  1  0.96340000  0.51460000  0.48540000  1.0 0.0243946832
C  C48  1  0.90160000  0.46580000  0.53420000  1.0 -0.0779133618
C  C49  1  0.91300000  0.38780000  0.61220000  1.0 -0.0779133618
C  C50  1  0.98610000  0.35870000  0.64130000  1.0 0.001320686
C  C51  1  0.04800000  0.40740000  0.59260000  1.0 -0.0263056627
C  C52  1  0.03660000  0.48540000  0.51460000  1.0 0.0264776575
C  C53  1  0.90160000  0.53420000  0.09840000  1.0 -0.0878334552
C  C54  1  0.91300000  0.61220000  0.08700000  1.0 -0.0779133618
C  C55  1  0.98610000  0.64130000  0.01390000  1.0 0.001320686
C  C56  1  0.04800000  0.59260000  0.95200000  1.0 -0.0219898831
C  C57  1  0.03660000  0.51460000  0.96340000  1.0 0.0243946832
C  C58  1  0.09840000  0.46580000  0.90160000  1.0 -0.0878334552
C  C59  1  0.08700000  0.38780000  0.91300000  1.0 -0.0779133618
C  C60  1  0.01390000  0.35870000  0.98610000  1.0 0.001320686
C  C61  1  0.95200000  0.40740000  0.04800000  1.0 -0.0219898831
C  C62  1  0.96340000  0.48540000  0.03660000  1.0 0.0243946832
C  C63  1  0.46580000  0.09840000  0.53420000  1.0 -0.0878334552
C  C64  1  0.38780000  0.08700000  0.61220000  1.0 -0.0779133618
C  C65  1  0.35870000  0.01390000  0.64130000  1.0 0.001320686
C  C66  1  0.40740000  0.95200000  0.59260000  1.0 -0.0263056627
C  C67  1  0.48540000  0.96340000  0.51460000  1.0 0.0264776575
C  C68  1  0.53420000  0.90160000  0.46580000  1.0 -0.0878334552
C  C69  1  0.61220000  0.91300000  0.38780000  1.0 -0.0779133618
C  C70  1  0.64130000  0.98610000  0.35870000  1.0 0.001320686
C  C71  1  0.59260000  0.04800000  0.40740000  1.0 -0.0219898831
C  C72  1  0.51460000  0.03660000  0.48540000  1.0 0.0264776575
C  C73  1  0.90160000  0.09840000  0.53420000  1.0 -0.0878334552
C  C74  1  0.91300000  0.08700000  0.61220000  1.0 -0.0779133618
C  C75  1  0.98610000  0.01390000  0.64130000  1.0 0.001320686
C  C76  1  0.04800000  0.95200000  0.59260000  1.0 -0.0263056627
C  C77  1  0.03660000  0.96340000  0.51460000  1.0 0.0264776575
C  C78  1  0.09840000  0.90160000  0.46580000  1.0 -0.0878334552
C  C79  1  0.08700000  0.91300000  0.38780000  1.0 -0.0779133618
C  C80  1  0.01390000  0.98610000  0.35870000  1.0 0.001320686
C  C81  1  0.95200000  0.04800000  0.40740000  1.0 -0.0263056627
C  C82  1  0.96340000  0.03660000  0.48540000  1.0 0.0243946832
C  C83  1  0.46580000  0.53420000  0.09840000  1.0 -0.0878334552
C  C84  1  0.38780000  0.61220000  0.08700000  1.0 -0.0779133618
C  C85  1  0.35870000  0.64130000  0.01390000  1.0 0.001320686
C  C86  1  0.40740000  0.59260000  0.95200000  1.0 -0.0219898831
C  C87  1  0.48540000  0.51460000  0.96340000  1.0 0.0243946832
C  C88  1  0.53420000  0.46580000  0.90160000  1.0 -0.0878334552
C  C89  1  0.61220000  0.38780000  0.91300000  1.0 -0.0779133618
C  C90  1  0.64130000  0.35870000  0.98610000  1.0 0.001320686
C  C91  1  0.59260000  0.40740000  0.04800000  1.0 -0.0219898831
C  C92  1  0.51460000  0.48540000  0.03660000  1.0 0.0264776575
C  C93  1  0.46580000  0.90160000  0.53420000  1.0 -0.0878334552
C  C94  1  0.38780000  0.91300000  0.61220000  1.0 -0.0779133618
C  C95  1  0.35870000  0.98610000  0.64130000  1.0 0.001320686
C  C96  1  0.40740000  0.04800000  0.59260000  1.0 -0.0263056627
C  C97  1  0.48540000  0.03660000  0.51460000  1.0 0.0243946832
C  C98  1  0.53420000  0.09840000  0.46580000  1.0 -0.0878334552
C  C99  1  0.61220000  0.08700000  0.38780000  1.0 -0.0779133618
C  C100  1  0.64130000  0.01390000  0.35870000  1.0 0.001320686
C  C101  1  0.59260000  0.95200000  0.40740000  1.0 -0.0219898831
C  C102  1  0.51460000  0.96340000  0.48540000  1.0 0.0243946832
C  C103  1  0.90160000  0.46580000  0.09840000  1.0 -0.0878334552
C  C104  1  0.91300000  0.38780000  0.08700000  1.0 -0.0779133618
C  C105  1  0.98610000  0.35870000  0.01390000  1.0 0.001320686
C  C106  1  0.04800000  0.40740000  0.95200000  1.0 -0.0263056627
C  C107  1  0.03660000  0.48540000  0.96340000  1.0 0.0243946832
C  C108  1  0.09840000  0.53420000  0.90160000  1.0 -0.0878334552
C  C109  1  0.08700000  0.61220000  0.91300000  1.0 -0.0779133618
C  C110  1  0.01390000  0.64130000  0.98610000  1.0 0.001320686
C  C111  1  0.95200000  0.59260000  0.04800000  1.0 -0.0263056627
C  C112  1  0.96340000  0.51460000  0.03660000  1.0 0.0264776575
C  C113  1  0.09840000  0.46580000  0.53420000  1.0 -0.0779133618
C  C114  1  0.08700000  0.38780000  0.61220000  1.0 -0.0779133618
C  C115  1  0.01390000  0.35870000  0.64130000  1.0 0.001320686
C  C116  1  0.95200000  0.40740000  0.59260000  1.0 -0.0263056627
C  C117  1  0.96340000  0.48540000  0.51460000  1.0 0.0264776575
C  C118  1  0.90160000  0.53420000  0.46580000  1.0 -0.0878334552
C  C119  1  0.91300000  0.61220000  0.38780000  1.0 -0.0779133618
C  C120  1  0.98610000  0.64130000  0.35870000  1.0 0.001320686
C  C121  1  0.04800000  0.59260000  0.40740000  1.0 -0.0219898831
C  C122  1  0.03660000  0.51460000  0.48540000  1.0 0.0243946832
C  C123  1  0.53420000  0.90160000  0.09840000  1.0 -0.0878334552
C  C124  1  0.61220000  0.91300000  0.08700000  1.0 -0.0779133618
C  C125  1  0.64130000  0.98610000  0.01390000  1.0 0.001320686
C  C126  1  0.59260000  0.04800000  0.95200000  1.0 -0.0263056627
C  C127  1  0.51460000  0.03660000  0.96340000  1.0 0.0243946832
C  C128  1  0.46580000  0.09840000  0.90160000  1.0 -0.0779133618
C  C129  1  0.38780000  0.08700000  0.91300000  1.0 -0.0779133618
C  C130  1  0.35870000  0.01390000  0.98610000  1.0 0.001320686
C  C131  1  0.40740000  0.95200000  0.04800000  1.0 -0.0263056627
C  C132  1  0.48540000  0.96340000  0.03660000  1.0 0.0243946832
O  O1  1  0.93480000  0.06520000  0.75740000  1.0 -0.5227585962
O  O2  1  0.06520000  0.93480000  0.24260000  1.0 -0.5227585962
O  O3  1  0.75740000  0.24260000  0.93480000  1.0 -0.5227585962
O  O4  1  0.24260000  0.75740000  0.06520000  1.0 -0.5227585962
O  O5  1  0.75740000  0.93480000  0.06520000  1.0 -0.5227585962
O  O6  1  0.24260000  0.06520000  0.93480000  1.0 -0.5227585962
O  O7  1  0.93480000  0.75740000  0.24260000  1.0 -0.5227585962
O  O8  1  0.06520000  0.24260000  0.75740000  1.0 -0.5227585962
O  O9  1  0.06520000  0.75740000  0.93480000  1.0 -0.5227585962
O  O10  1  0.93480000  0.24260000  0.06520000  1.0 -0.5227585962
O  O11  1  0.24260000  0.93480000  0.75740000  1.0 -0.5227585962
O  O12  1  0.75740000  0.06520000  0.24260000  1.0 -0.5227585962
O  O13  1  0.06520000  0.93480000  0.75740000  1.0 -0.5227585962
O  O14  1  0.93480000  0.06520000  0.24260000  1.0 -0.5227585962
O  O15  1  0.24260000  0.75740000  0.93480000  1.0 -0.5227585962
O  O16  1  0.75740000  0.24260000  0.06520000  1.0 -0.5227585962
O  O17  1  0.24260000  0.06520000  0.75740000  1.0 -0.5227585962
O  O18  1  0.75740000  0.93480000  0.24260000  1.0 -0.5227585962
O  O19  1  0.06520000  0.24260000  0.93480000  1.0 -0.5227585962
O  O20  1  0.93480000  0.75740000  0.06520000  1.0 -0.5227585962
O  O21  1  0.93480000  0.24260000  0.75740000  1.0 -0.5227585962
O  O22  1  0.06520000  0.75740000  0.24260000  1.0 -0.5227585962
O  O23  1  0.75740000  0.06520000  0.93480000  1.0 -0.5227585962
O  O24  1  0.24260000  0.93480000  0.06520000  1.0 -0.5227585962
O  O25  1  0.83800000  0.05400000  0.05400000  1.0 -1.0066379066
O  O26  1  0.05400000  0.83800000  0.05400000  1.0 -1.0023288603
O  O27  1  0.05400000  0.05400000  0.83800000  1.0 -1.0066379066
O  O28  1  0.05400000  0.05400000  0.05400000  1.0 -1.0023288603
O  O29  1  0.16200000  0.94600000  0.94600000  1.0 -1.0023288603
O  O30  1  0.94600000  0.16200000  0.94600000  1.0 -1.0023288603
O  O31  1  0.94600000  0.94600000  0.94600000  1.0 -1.0023288603
O  O32  1  0.94600000  0.94600000  0.16200000  1.0 -1.0066379066
