# DDEC6 charges by PACMAN v1.1 (https://github.com/mtap-research/PACMAN-charge/)
data_TUNSAZ_ASR_pacman
_symmetry_space_group_name_H-M   'P 1'
_cell_length_a   17.67300000
_cell_length_b   17.67300000
_cell_length_c   17.67300000
_cell_angle_alpha   60.00000000
_cell_angle_beta   60.00000000
_cell_angle_gamma   60.00000000
_symmetry_Int_Tables_number   1
_chemical_formula_structural   Th3H36C66O31
_chemical_formula_sum   'Th6 H72 C132 O62'
_cell_volume   3903.15532751
_cell_formula_units_Z   2
loop_
 _symmetry_equiv_pos_site_id
 _symmetry_equiv_pos_as_xyz
  1  'x, y, z'
loop_
 _atom_site_type_symbol
 _atom_site_label
 _atom_site_symmetry_multiplicity
 _atom_site_fract_x
 _atom_site_fract_y
 _atom_site_fract_z
 _atom_site_occupancy
 _atom_site_charge
Th  Th1  1  0.88625000  0.11375000  0.88625000  1.0 1.8763472519
Th  Th2  1  0.11375000  0.88625000  0.11375000  1.0 1.8763472519
Th  Th3  1  0.88625000  0.88625000  0.11375000  1.0 1.8763472519
Th  Th4  1  0.11375000  0.11375000  0.88625000  1.0 1.8763472519
Th  Th5  1  0.11375000  0.88625000  0.88625000  1.0 1.8763472519
Th  Th6  1  0.88625000  0.11375000  0.11375000  1.0 1.8763472519
H  H1  1  0.14820000  0.85180000  0.51340000  1.0 0.0778898869
H  H2  1  0.12990000  0.87010000  0.64450000  1.0 0.0126061909
H  H3  1  0.90270000  0.09730000  0.61290000  1.0 0.048169217
H  H4  1  0.85180000  0.14820000  0.48660000  1.0 0.0778898869
H  H5  1  0.87010000  0.12990000  0.35550000  1.0 0.0126061909
H  H6  1  0.09730000  0.90270000  0.38710000  1.0 0.048169217
H  H7  1  0.51340000  0.48660000  0.14820000  1.0 0.0778898869
H  H8  1  0.64450000  0.35550000  0.12990000  1.0 0.0126061909
H  H9  1  0.61290000  0.38710000  0.90270000  1.0 0.048169217
H  H10  1  0.48660000  0.51340000  0.85180000  1.0 0.0778898869
H  H11  1  0.35550000  0.64450000  0.87010000  1.0 0.0126061909
H  H12  1  0.38710000  0.61290000  0.09730000  1.0 0.048169217
H  H13  1  0.51340000  0.14820000  0.85180000  1.0 0.0778898869
H  H14  1  0.64450000  0.12990000  0.87010000  1.0 0.0126061909
H  H15  1  0.61290000  0.90270000  0.09730000  1.0 0.048169217
H  H16  1  0.48660000  0.85180000  0.14820000  1.0 0.0778898869
H  H17  1  0.35550000  0.87010000  0.12990000  1.0 0.0126061909
H  H18  1  0.38710000  0.09730000  0.90270000  1.0 0.048169217
H  H19  1  0.14820000  0.51340000  0.48660000  1.0 0.0778898869
H  H20  1  0.12990000  0.64450000  0.35550000  1.0 0.0126061909
H  H21  1  0.90270000  0.61290000  0.38710000  1.0 0.048169217
H  H22  1  0.85180000  0.48660000  0.51340000  1.0 0.0778898869
H  H23  1  0.87010000  0.35550000  0.64450000  1.0 0.0126061909
H  H24  1  0.09730000  0.38710000  0.61290000  1.0 0.048169217
H  H25  1  0.85180000  0.51340000  0.14820000  1.0 0.0778898869
H  H26  1  0.87010000  0.64450000  0.12990000  1.0 0.0126061909
H  H27  1  0.09730000  0.61290000  0.90270000  1.0 0.048169217
H  H28  1  0.14820000  0.48660000  0.85180000  1.0 0.0778898869
H  H29  1  0.12990000  0.35550000  0.87010000  1.0 0.0126061909
H  H30  1  0.90270000  0.38710000  0.09730000  1.0 0.048169217
H  H31  1  0.48660000  0.14820000  0.51340000  1.0 0.0778898869
H  H32  1  0.35550000  0.12990000  0.64450000  1.0 0.0126061909
H  H33  1  0.38710000  0.90270000  0.61290000  1.0 0.048169217
H  H34  1  0.51340000  0.85180000  0.48660000  1.0 0.0778898869
H  H35  1  0.64450000  0.87010000  0.35550000  1.0 0.0126061909
H  H36  1  0.61290000  0.09730000  0.38710000  1.0 0.048169217
H  H37  1  0.85180000  0.14820000  0.51340000  1.0 0.0778898869
H  H38  1  0.87010000  0.12990000  0.64450000  1.0 0.0126061909
H  H39  1  0.09730000  0.90270000  0.61290000  1.0 0.048169217
H  H40  1  0.14820000  0.85180000  0.48660000  1.0 0.0778898869
H  H41  1  0.12990000  0.87010000  0.35550000  1.0 0.0126061909
H  H42  1  0.90270000  0.09730000  0.38710000  1.0 0.048169217
H  H43  1  0.48660000  0.51340000  0.14820000  1.0 0.0778898869
H  H44  1  0.35550000  0.64450000  0.12990000  1.0 0.0126061909
H  H45  1  0.38710000  0.61290000  0.90270000  1.0 0.048169217
H  H46  1  0.51340000  0.48660000  0.85180000  1.0 0.0778898869
H  H47  1  0.64450000  0.35550000  0.87010000  1.0 0.0126061909
H  H48  1  0.61290000  0.38710000  0.09730000  1.0 0.048169217
H  H49  1  0.48660000  0.85180000  0.51340000  1.0 0.0778898869
H  H50  1  0.35550000  0.87010000  0.64450000  1.0 0.0126061909
H  H51  1  0.38710000  0.09730000  0.61290000  1.0 0.048169217
H  H52  1  0.51340000  0.14820000  0.48660000  1.0 0.0778898869
H  H53  1  0.64450000  0.12990000  0.35550000  1.0 0.0126061909
H  H54  1  0.61290000  0.90270000  0.38710000  1.0 0.048169217
H  H55  1  0.85180000  0.48660000  0.14820000  1.0 0.0778898869
H  H56  1  0.87010000  0.35550000  0.12990000  1.0 0.0126061909
H  H57  1  0.09730000  0.38710000  0.90270000  1.0 0.048169217
H  H58  1  0.14820000  0.51340000  0.85180000  1.0 0.0778898869
H  H59  1  0.12990000  0.64450000  0.87010000  1.0 0.0126061909
H  H60  1  0.90270000  0.61290000  0.09730000  1.0 0.048169217
H  H61  1  0.14820000  0.48660000  0.51340000  1.0 0.0778898869
H  H62  1  0.12990000  0.35550000  0.64450000  1.0 0.0126061909
H  H63  1  0.90270000  0.38710000  0.61290000  1.0 0.048169217
H  H64  1  0.85180000  0.51340000  0.48660000  1.0 0.0778898869
H  H65  1  0.87010000  0.64450000  0.35550000  1.0 0.0126061909
H  H66  1  0.09730000  0.61290000  0.38710000  1.0 0.048169217
H  H67  1  0.51340000  0.85180000  0.14820000  1.0 0.0778898869
H  H68  1  0.64450000  0.87010000  0.12990000  1.0 0.0126061909
H  H69  1  0.61290000  0.09730000  0.90270000  1.0 0.048169217
H  H70  1  0.48660000  0.14820000  0.85180000  1.0 0.0778898869
H  H71  1  0.35550000  0.12990000  0.87010000  1.0 0.0126061909
H  H72  1  0.38710000  0.90270000  0.09730000  1.0 0.048169217
C  C1  1  0.00000000  0.00000000  0.72540000  1.0 0.3236447777
C  C2  1  0.00000000  0.00000000  0.27460000  1.0 0.3236447777
C  C3  1  0.72540000  0.27460000  0.00000000  1.0 0.3236447777
C  C4  1  0.27460000  0.72540000  0.00000000  1.0 0.3236447777
C  C5  1  0.72540000  0.00000000  0.00000000  1.0 0.3236447777
C  C6  1  0.27460000  0.00000000  0.00000000  1.0 0.3236447777
C  C7  1  0.00000000  0.72540000  0.27460000  1.0 0.3236447777
C  C8  1  0.00000000  0.27460000  0.72540000  1.0 0.3236447777
C  C9  1  0.00000000  0.72540000  0.00000000  1.0 0.3236447777
C  C10  1  0.00000000  0.27460000  0.00000000  1.0 0.3236447777
C  C11  1  0.27460000  0.00000000  0.72540000  1.0 0.3236447777
C  C12  1  0.72540000  0.00000000  0.27460000  1.0 0.3236447777
C  C13  1  0.09840000  0.90160000  0.53360000  1.0 -0.0844750546
C  C14  1  0.08750000  0.91250000  0.61150000  1.0 -0.1537743733
C  C15  1  0.01460000  0.98540000  0.64100000  1.0 -0.0053481681
C  C16  1  0.95250000  0.04750000  0.59270000  1.0 -0.001523024
C  C17  1  0.96340000  0.03660000  0.51480000  1.0 0.0154737274
C  C18  1  0.90160000  0.09840000  0.46640000  1.0 -0.0844750546
C  C19  1  0.91250000  0.08750000  0.38850000  1.0 -0.1537743733
C  C20  1  0.98540000  0.01460000  0.35900000  1.0 -0.001523024
C  C21  1  0.04750000  0.95250000  0.40730000  1.0 -0.001523024
C  C22  1  0.03660000  0.96340000  0.48520000  1.0 0.0154737274
C  C23  1  0.53360000  0.46640000  0.09840000  1.0 -0.0844750546
C  C24  1  0.61150000  0.38850000  0.08750000  1.0 -0.1537743733
C  C25  1  0.64100000  0.35900000  0.01460000  1.0 -0.001523024
C  C26  1  0.59270000  0.40730000  0.95250000  1.0 -0.001523024
C  C27  1  0.51480000  0.48520000  0.96340000  1.0 0.0154737274
C  C28  1  0.46640000  0.53360000  0.90160000  1.0 -0.0844750546
C  C29  1  0.38850000  0.61150000  0.91250000  1.0 -0.1537743733
C  C30  1  0.35900000  0.64100000  0.98540000  1.0 -0.0053481681
C  C31  1  0.40730000  0.59270000  0.04750000  1.0 -0.001523024
C  C32  1  0.48520000  0.51480000  0.03660000  1.0 0.0154737274
C  C33  1  0.53360000  0.09840000  0.90160000  1.0 -0.0844750546
C  C34  1  0.61150000  0.08750000  0.91250000  1.0 -0.1537743733
C  C35  1  0.64100000  0.01460000  0.98540000  1.0 -0.0053481681
C  C36  1  0.59270000  0.95250000  0.04750000  1.0 0.0009289587
C  C37  1  0.51480000  0.96340000  0.03660000  1.0 0.0154737274
C  C38  1  0.46640000  0.90160000  0.09840000  1.0 -0.0844750546
C  C39  1  0.38850000  0.91250000  0.08750000  1.0 -0.1537743733
C  C40  1  0.35900000  0.98540000  0.01460000  1.0 -0.0053481681
C  C41  1  0.40730000  0.04750000  0.95250000  1.0 -0.001523024
C  C42  1  0.48520000  0.03660000  0.96340000  1.0 0.0154737274
C  C43  1  0.09840000  0.53360000  0.46640000  1.0 -0.0844750546
C  C44  1  0.08750000  0.61150000  0.38850000  1.0 -0.1537743733
C  C45  1  0.01460000  0.64100000  0.35900000  1.0 -0.0053481681
C  C46  1  0.95250000  0.59270000  0.40730000  1.0 -0.001523024
C  C47  1  0.96340000  0.51480000  0.48520000  1.0 0.0154737274
C  C48  1  0.90160000  0.46640000  0.53360000  1.0 -0.0844750546
C  C49  1  0.91250000  0.38850000  0.61150000  1.0 -0.1537743733
C  C50  1  0.98540000  0.35900000  0.64100000  1.0 -0.001523024
C  C51  1  0.04750000  0.40730000  0.59270000  1.0 -0.001523024
C  C52  1  0.03660000  0.48520000  0.51480000  1.0 0.0154737274
C  C53  1  0.90160000  0.53360000  0.09840000  1.0 -0.0844750546
C  C54  1  0.91250000  0.61150000  0.08750000  1.0 -0.1537743733
C  C55  1  0.98540000  0.64100000  0.01460000  1.0 -0.001523024
C  C56  1  0.04750000  0.59270000  0.95250000  1.0 -0.001523024
C  C57  1  0.03660000  0.51480000  0.96340000  1.0 0.0154737274
C  C58  1  0.09840000  0.46640000  0.90160000  1.0 -0.0844750546
C  C59  1  0.08750000  0.38850000  0.91250000  1.0 -0.1537743733
C  C60  1  0.01460000  0.35900000  0.98540000  1.0 -0.0053481681
C  C61  1  0.95250000  0.40730000  0.04750000  1.0 0.0009289587
C  C62  1  0.96340000  0.48520000  0.03660000  1.0 0.0154737274
C  C63  1  0.46640000  0.09840000  0.53360000  1.0 -0.0844750546
C  C64  1  0.38850000  0.08750000  0.61150000  1.0 -0.1537743733
C  C65  1  0.35900000  0.01460000  0.64100000  1.0 -0.0053481681
C  C66  1  0.40730000  0.95250000  0.59270000  1.0 0.0009289587
C  C67  1  0.48520000  0.96340000  0.51480000  1.0 0.0154737274
C  C68  1  0.53360000  0.90160000  0.46640000  1.0 -0.0844750546
C  C69  1  0.61150000  0.91250000  0.38850000  1.0 -0.1537743733
C  C70  1  0.64100000  0.98540000  0.35900000  1.0 -0.0053481681
C  C71  1  0.59270000  0.04750000  0.40730000  1.0 0.0009289587
C  C72  1  0.51480000  0.03660000  0.48520000  1.0 0.0154737274
C  C73  1  0.90160000  0.09840000  0.53360000  1.0 -0.0844750546
C  C74  1  0.91250000  0.08750000  0.61150000  1.0 -0.1537743733
C  C75  1  0.98540000  0.01460000  0.64100000  1.0 -0.0053481681
C  C76  1  0.04750000  0.95250000  0.59270000  1.0 -0.001523024
C  C77  1  0.03660000  0.96340000  0.51480000  1.0 0.0154737274
C  C78  1  0.09840000  0.90160000  0.46640000  1.0 -0.0857141832
C  C79  1  0.08750000  0.91250000  0.38850000  1.0 -0.1537743733
C  C80  1  0.01460000  0.98540000  0.35900000  1.0 -0.0053481681
C  C81  1  0.95250000  0.04750000  0.40730000  1.0 -0.001523024
C  C82  1  0.96340000  0.03660000  0.48520000  1.0 0.0154737274
C  C83  1  0.46640000  0.53360000  0.09840000  1.0 -0.0844750546
C  C84  1  0.38850000  0.61150000  0.08750000  1.0 -0.1537743733
C  C85  1  0.35900000  0.64100000  0.01460000  1.0 -0.0053481681
C  C86  1  0.40730000  0.59270000  0.95250000  1.0 -0.001523024
C  C87  1  0.48520000  0.51480000  0.96340000  1.0 0.0154737274
C  C88  1  0.53360000  0.46640000  0.90160000  1.0 -0.0844750546
C  C89  1  0.61150000  0.38850000  0.91250000  1.0 -0.1537743733
C  C90  1  0.64100000  0.35900000  0.98540000  1.0 -0.0053481681
C  C91  1  0.59270000  0.40730000  0.04750000  1.0 -0.001523024
C  C92  1  0.51480000  0.48520000  0.03660000  1.0 0.0154737274
C  C93  1  0.46640000  0.90160000  0.53360000  1.0 -0.0844750546
C  C94  1  0.38850000  0.91250000  0.61150000  1.0 -0.1537743733
C  C95  1  0.35900000  0.98540000  0.64100000  1.0 -0.0053481681
C  C96  1  0.40730000  0.04750000  0.59270000  1.0 -0.001523024
C  C97  1  0.48520000  0.03660000  0.51480000  1.0 0.0154737274
C  C98  1  0.53360000  0.09840000  0.46640000  1.0 -0.0844750546
C  C99  1  0.61150000  0.08750000  0.38850000  1.0 -0.1537743733
C  C100  1  0.64100000  0.01460000  0.35900000  1.0 -0.0053481681
C  C101  1  0.59270000  0.95250000  0.40730000  1.0 -0.001523024
C  C102  1  0.51480000  0.96340000  0.48520000  1.0 0.0154737274
C  C103  1  0.90160000  0.46640000  0.09840000  1.0 -0.0844750546
C  C104  1  0.91250000  0.38850000  0.08750000  1.0 -0.1537743733
C  C105  1  0.98540000  0.35900000  0.01460000  1.0 -0.001523024
C  C106  1  0.04750000  0.40730000  0.95250000  1.0 -0.001523024
C  C107  1  0.03660000  0.48520000  0.96340000  1.0 0.0154737274
C  C108  1  0.09840000  0.53360000  0.90160000  1.0 -0.0844750546
C  C109  1  0.08750000  0.61150000  0.91250000  1.0 -0.1537743733
C  C110  1  0.01460000  0.64100000  0.98540000  1.0 -0.0053481681
C  C111  1  0.95250000  0.59270000  0.04750000  1.0 0.0009289587
C  C112  1  0.96340000  0.51480000  0.03660000  1.0 0.0154737274
C  C113  1  0.09840000  0.46640000  0.53360000  1.0 -0.0844750546
C  C114  1  0.08750000  0.38850000  0.61150000  1.0 -0.1537743733
C  C115  1  0.01460000  0.35900000  0.64100000  1.0 -0.0053481681
C  C116  1  0.95250000  0.40730000  0.59270000  1.0 -0.001523024
C  C117  1  0.96340000  0.48520000  0.51480000  1.0 0.0154737274
C  C118  1  0.90160000  0.53360000  0.46640000  1.0 -0.0844750546
C  C119  1  0.91250000  0.61150000  0.38850000  1.0 -0.1537743733
C  C120  1  0.98540000  0.64100000  0.35900000  1.0 -0.001523024
C  C121  1  0.04750000  0.59270000  0.40730000  1.0 -0.001523024
C  C122  1  0.03660000  0.51480000  0.48520000  1.0 0.0154737274
C  C123  1  0.53360000  0.90160000  0.09840000  1.0 -0.0844750546
C  C124  1  0.61150000  0.91250000  0.08750000  1.0 -0.1537743733
C  C125  1  0.64100000  0.98540000  0.01460000  1.0 -0.0053481681
C  C126  1  0.59270000  0.04750000  0.95250000  1.0 -0.001523024
C  C127  1  0.51480000  0.03660000  0.96340000  1.0 0.0154737274
C  C128  1  0.46640000  0.09840000  0.90160000  1.0 -0.0844750546
C  C129  1  0.38850000  0.08750000  0.91250000  1.0 -0.1537743733
C  C130  1  0.35900000  0.01460000  0.98540000  1.0 -0.0053481681
C  C131  1  0.40730000  0.95250000  0.04750000  1.0 -0.001523024
C  C132  1  0.48520000  0.96340000  0.03660000  1.0 0.0154737274
O  O1  1  0.77800000  0.22200000  0.77800000  1.0 0.2170875594
O  O2  1  0.22200000  0.77800000  0.22200000  1.0 0.2144971272
O  O3  1  0.77800000  0.77800000  0.22200000  1.0 0.2170875594
O  O4  1  0.22200000  0.22200000  0.77800000  1.0 0.2144971272
O  O5  1  0.22200000  0.77800000  0.77800000  1.0 0.2170875594
O  O6  1  0.77800000  0.22200000  0.22200000  1.0 0.2170875594
O  O7  1  0.93820000  0.06180000  0.75740000  1.0 -0.5484834506
O  O8  1  0.06180000  0.93820000  0.24260000  1.0 -0.5484834506
O  O9  1  0.75740000  0.24260000  0.93820000  1.0 -0.5484834506
O  O10  1  0.24260000  0.75740000  0.06180000  1.0 -0.5484834506
O  O11  1  0.75740000  0.93820000  0.06180000  1.0 -0.5484834506
O  O12  1  0.24260000  0.06180000  0.93820000  1.0 -0.5484834506
O  O13  1  0.93820000  0.75740000  0.24260000  1.0 -0.5484834506
O  O14  1  0.06180000  0.24260000  0.75740000  1.0 -0.5484834506
O  O15  1  0.06180000  0.75740000  0.93820000  1.0 -0.5484834506
O  O16  1  0.93820000  0.24260000  0.06180000  1.0 -0.5484834506
O  O17  1  0.24260000  0.93820000  0.75740000  1.0 -0.5484834506
O  O18  1  0.75740000  0.06180000  0.24260000  1.0 -0.5484834506
O  O19  1  0.06180000  0.93820000  0.75740000  1.0 -0.5484834506
O  O20  1  0.93820000  0.06180000  0.24260000  1.0 -0.5484834506
O  O21  1  0.24260000  0.75740000  0.93820000  1.0 -0.5484834506
O  O22  1  0.75740000  0.24260000  0.06180000  1.0 -0.5484834506
O  O23  1  0.24260000  0.06180000  0.75740000  1.0 -0.5484834506
O  O24  1  0.75740000  0.93820000  0.24260000  1.0 -0.5484834506
O  O25  1  0.06180000  0.24260000  0.93820000  1.0 -0.5484834506
O  O26  1  0.93820000  0.75740000  0.06180000  1.0 -0.5484834506
O  O27  1  0.93820000  0.24260000  0.75740000  1.0 -0.5484834506
O  O28  1  0.06180000  0.75740000  0.24260000  1.0 -0.5484834506
O  O29  1  0.75740000  0.06180000  0.93820000  1.0 -0.5484834506
O  O30  1  0.24260000  0.93820000  0.06180000  1.0 -0.5484834506
O  O31  1  0.83800000  0.05400000  0.05400000  1.0 -0.7910382444
O  O32  1  0.05400000  0.83800000  0.05400000  1.0 -0.7910382444
O  O33  1  0.05400000  0.05400000  0.83800000  1.0 -0.7910382444
O  O34  1  0.05400000  0.05400000  0.05400000  1.0 -0.7910382444
O  O35  1  0.16200000  0.94600000  0.94600000  1.0 -0.7910382444
O  O36  1  0.94600000  0.16200000  0.94600000  1.0 -0.7910382444
O  O37  1  0.94600000  0.94600000  0.94600000  1.0 -0.7910382444
O  O38  1  0.94600000  0.94600000  0.16200000  1.0 -0.7910382444
O  O39  1  0.78430000  0.24770000  0.78430000  1.0 0.2170875594
O  O40  1  0.24770000  0.78430000  0.18370000  1.0 0.2170875594
O  O41  1  0.78430000  0.18370000  0.78430000  1.0 0.2170875594
O  O42  1  0.18370000  0.78430000  0.24770000  1.0 0.2144971272
O  O43  1  0.78430000  0.78430000  0.24770000  1.0 0.2170875594
O  O44  1  0.18370000  0.24770000  0.78430000  1.0 0.2170875594
O  O45  1  0.78430000  0.78430000  0.18370000  1.0 0.2170875594
O  O46  1  0.24770000  0.18370000  0.78430000  1.0 0.2170875594
O  O47  1  0.24770000  0.78430000  0.78430000  1.0 0.2144971272
O  O48  1  0.78430000  0.18370000  0.24770000  1.0 0.2170875594
O  O49  1  0.18370000  0.78430000  0.78430000  1.0 0.2144971272
O  O50  1  0.78430000  0.24770000  0.18370000  1.0 0.2170875594
O  O51  1  0.21570000  0.75230000  0.81630000  1.0 0.2170875594
O  O52  1  0.75230000  0.21570000  0.21570000  1.0 0.2170875594
O  O53  1  0.21570000  0.81630000  0.75230000  1.0 0.2170875594
O  O54  1  0.81630000  0.21570000  0.21570000  1.0 0.2170875594
O  O55  1  0.21570000  0.21570000  0.81630000  1.0 0.2170875594
O  O56  1  0.81630000  0.75230000  0.21570000  1.0 0.2170875594
O  O57  1  0.21570000  0.21570000  0.75230000  1.0 0.2170875594
O  O58  1  0.75230000  0.81630000  0.21570000  1.0 0.2170875594
O  O59  1  0.75230000  0.21570000  0.81630000  1.0 0.2170875594
O  O60  1  0.21570000  0.81630000  0.21570000  1.0 0.2170875594
O  O61  1  0.81630000  0.21570000  0.75230000  1.0 0.2170875594
O  O62  1  0.21570000  0.75230000  0.21570000  1.0 0.2170875594
