# DDEC6 charges by PACMAN v1.1 (https://github.com/mtap-research/PACMAN-charge/)
data_TUQWIL_FSR_pacman
_symmetry_space_group_name_H-M   'P 1'
_cell_length_a   11.00920000
_cell_length_b   9.38594000
_cell_length_c   9.04134000
_cell_angle_alpha   73.34660000
_cell_angle_beta   54.76530000
_cell_angle_gamma   51.88810000
_symmetry_Int_Tables_number   1
_chemical_formula_structural   Zn(PO4)2
_chemical_formula_sum   'Zn2 P4 O16'
_cell_volume   596.88892181
_cell_formula_units_Z   2
loop_
 _symmetry_equiv_pos_site_id
 _symmetry_equiv_pos_as_xyz
  1  'x, y, z'
loop_
 _atom_site_type_symbol
 _atom_site_label
 _atom_site_symmetry_multiplicity
 _atom_site_fract_x
 _atom_site_fract_y
 _atom_site_fract_z
 _atom_site_occupancy
 _atom_site_charge
Zn  Zn1  1  0.50070000  0.99930000  0.50070000  1.0 1.1462445083
Zn  Zn2  1  0.25070000  0.74930000  0.25070000  1.0 1.1462445083
P  P1  1  0.49390000  0.74730000  0.81950000  1.0 1.2352203551
P  P2  1  0.81950000  0.93930000  0.49390000  1.0 1.232863945
P  P3  1  0.50270000  0.75610000  0.31070000  1.0 1.2352203551
P  P4  1  0.31070000  0.43050000  0.50270000  1.0 1.2352203551
O  O1  1  0.40530000  0.92310000  0.74010000  1.0 -0.6224571792
O  O2  1  0.74010000  0.93150000  0.40530000  1.0 -0.6224571792
O  O3  1  0.32690000  0.84470000  0.31850000  1.0 -0.6224571792
O  O4  1  0.31850000  0.50990000  0.32690000  1.0 -0.6224571792
O  O5  1  0.35870000  0.72390000  0.99070000  1.0 -0.5483656702
O  O6  1  0.99070000  0.92670000  0.35870000  1.0 -0.5483656702
O  O7  1  0.52610000  0.89130000  0.32330000  1.0 -0.5483656702
O  O8  1  0.32330000  0.25930000  0.52610000  1.0 -0.5483656702
O  O9  1  0.62520000  0.73280000  0.85000000  1.0 -0.2758455155
O  O10  1  0.85000000  0.79200000  0.62520000  1.0 -0.2758455155
O  O11  1  0.51720000  0.62480000  0.45800000  1.0 -0.2758455155
O  O12  1  0.45800000  0.40000000  0.51720000  1.0 -0.2758455155
O  O13  1  0.62100000  0.58060000  0.67420000  1.0 -0.3610851419
O  O14  1  0.67420000  0.12420000  0.62100000  1.0 -0.3610851419
O  O15  1  0.66940000  0.62900000  0.12580000  1.0 -0.3610851419
O  O16  1  0.12580000  0.57580000  0.66940000  1.0 -0.3610851419
