# DDEC6 charges by PACMAN v1.1 (https://github.com/mtap-research/PACMAN-charge/)
data_TUQWIL01_FSR_pacman
_symmetry_space_group_name_H-M   'P 1'
_cell_length_a   11.03600000
_cell_length_b   9.40303000
_cell_length_c   9.06167000
_cell_angle_alpha   73.38150000
_cell_angle_beta   54.73050000
_cell_angle_gamma   51.88800000
_symmetry_Int_Tables_number   1
_chemical_formula_structural   ZnP2H3O8
_chemical_formula_sum   'Zn2 P4 H6 O16'
_cell_volume   600.42581236
_cell_formula_units_Z   2
loop_
 _symmetry_equiv_pos_site_id
 _symmetry_equiv_pos_as_xyz
  1  'x, y, z'
loop_
 _atom_site_type_symbol
 _atom_site_label
 _atom_site_symmetry_multiplicity
 _atom_site_fract_x
 _atom_site_fract_y
 _atom_site_fract_z
 _atom_site_occupancy
 _atom_site_charge
Zn  Zn1  1  0.76319000  0.73681000  0.76319000  1.0 1.1614321928
Zn  Zn2  1  0.51319000  0.48681000  0.51319000  1.0 1.1614321928
P  P1  1  0.70336000  0.05528000  0.51196000  1.0 1.5239058595
P  P2  1  0.51196000  0.72940000  0.70336000  1.0 1.5239058595
P  P3  1  0.19472000  0.54664000  0.52060000  1.0 1.5297235112
P  P4  1  0.52060000  0.73804000  0.19472000  1.0 1.5239058595
H  H1  1  0.51100000  0.98900000  0.51100000  1.0 0.4882258783
H  H2  1  0.26100000  0.73900000  0.26100000  1.0 0.4882258783
H  H3  1  0.97620000  0.83780000  0.37020000  1.0 0.431964622
H  H4  1  0.37020000  0.81580000  0.97620000  1.0 0.431964622
H  H5  1  0.41220000  0.27380000  0.43420000  1.0 0.431964622
H  H6  1  0.43420000  0.87980000  0.41220000  1.0 0.431964622
O  O1  1  0.69597000  0.97705000  0.68455000  1.0 -0.7673299749
O  O2  1  0.68455000  0.64243000  0.69597000  1.0 -0.7673299749
O  O3  1  0.27295000  0.55403000  0.60757000  1.0 -0.7673299749
O  O4  1  0.60757000  0.56545000  0.27295000  1.0 -0.7673299749
O  O5  1  0.68888000  0.22856000  0.48964000  1.0 -0.7374313165
O  O6  1  0.48964000  0.59292000  0.68888000  1.0 -0.7374313165
O  O7  1  0.02144000  0.56112000  0.65708000  1.0 -0.7374313165
O  O8  1  0.65708000  0.76036000  0.02144000  1.0 -0.7374313165
O  O9  1  0.55649000  0.08625000  0.49815000  1.0 -0.6799457957
O  O10  1  0.49815000  0.85911000  0.55649000  1.0 -0.6799457957
O  O11  1  0.16375000  0.69351000  0.39089000  1.0 -0.6799457957
O  O12  1  0.39089000  0.75185000  0.16375000  1.0 -0.6799457957
O  O13  1  0.88682000  0.91018000  0.34682000  1.0 -0.597446843
O  O14  1  0.34682000  0.85618000  0.88682000  1.0 -0.597446843
O  O15  1  0.33982000  0.36318000  0.39382000  1.0 -0.597446843
O  O16  1  0.39382000  0.90318000  0.33982000  1.0 -0.597446843
