# DDEC6 charges by PACMAN v1.1 (https://github.com/mtap-research/PACMAN-charge/)
data_TUSKOK_FSR_pacman
_symmetry_space_group_name_H-M   'P 1'
_cell_length_a   11.03100000
_cell_length_b   13.84000000
_cell_length_c   15.30100000
_cell_angle_alpha   64.53400000
_cell_angle_beta   70.62400000
_cell_angle_gamma   71.02300000
_symmetry_Int_Tables_number   1
_chemical_formula_structural   CdSiH48W12C30(N9O22)2
_chemical_formula_sum   'Cd1 Si1 H48 W12 C30 N18 O44'
_cell_volume   1943.34340405
_cell_formula_units_Z   1
loop_
 _symmetry_equiv_pos_site_id
 _symmetry_equiv_pos_as_xyz
  1  'x, y, z'
loop_
 _atom_site_type_symbol
 _atom_site_label
 _atom_site_symmetry_multiplicity
 _atom_site_fract_x
 _atom_site_fract_y
 _atom_site_fract_z
 _atom_site_occupancy
 _atom_site_charge
Cd  Cd1  1  0.00000000  0.50000000  0.50000000  1.0 0.8710565119
Si  Si1  1  0.50000000  0.00000000  0.50000000  1.0 1.448080018
H  H1  1  0.85350000  0.65870000  0.29540000  1.0 0.1308645351
H  H2  1  0.99910000  0.34260000  0.38680000  1.0 0.1394662856
H  H3  1  0.83780000  0.39590000  0.19880000  1.0 0.1110619938
H  H4  1  0.92820000  0.30070000  0.26570000  1.0 0.1394662856
H  H5  1  0.04510000  0.31530000  0.11150000  1.0 0.1190766467
H  H6  1  0.10940000  0.38360000  0.13810000  1.0 0.1110619938
H  H7  1  0.87190000  0.48790000  0.05630000  1.0 0.0869699939
H  H8  1  0.95380000  0.55290000  0.06930000  1.0 0.0831115021
H  H9  1  0.26420000  0.57250000  0.33090000  1.0 0.1190766467
H  H10  1  0.98340000  0.79320000  0.40310000  1.0 0.1506434081
H  H11  1  0.05850000  0.96970000  0.22050000  1.0 0.1190766467
H  H12  1  0.11170000  0.95860000  0.30840000  1.0 0.1308645351
H  H13  1  0.27990000  0.92370000  0.13630000  1.0 0.0869699939
H  H14  1  0.32450000  0.93040000  0.22070000  1.0 0.1110619938
H  H15  1  0.15720000  0.11570000  0.10420000  1.0 0.0997335155
H  H16  1  0.22370000  0.12020000  0.17840000  1.0 0.0997335155
H  H17  1  0.42970000  0.10030000  0.07550000  1.0 0.1110619938
H  H18  1  0.38050000  0.06590000  0.01000000  1.0 0.0997335155
H  H19  1  0.29900000  0.28130000  0.01380000  1.0 0.0997335155
H  H20  1  0.26500000  0.24510000  0.94190000  1.0 0.1110619938
H  H21  1  0.52420000  0.25730000  0.93330000  1.0 0.1110619938
H  H22  1  0.50310000  0.20160000  0.87100000  1.0 0.1110619938
H  H23  1  0.41810000  0.47610000  0.88050000  1.0 0.1308645351
H  H24  1  0.46670000  0.49770000  0.60910000  1.0 0.1110619938
H  H25  1  0.14650000  0.34130000  0.70460000  1.0 0.1308645351
H  H26  1  0.00090000  0.65740000  0.61320000  1.0 0.1394662856
H  H27  1  0.16220000  0.60410000  0.80120000  1.0 0.1110619938
H  H28  1  0.07180000  0.69930000  0.73430000  1.0 0.1394662856
H  H29  1  0.95490000  0.68470000  0.88850000  1.0 0.1190766467
H  H30  1  0.89060000  0.61640000  0.86190000  1.0 0.1110619938
H  H31  1  0.12810000  0.51210000  0.94370000  1.0 0.0869699939
H  H32  1  0.04620000  0.44710000  0.93070000  1.0 0.0831115021
H  H33  1  0.73580000  0.42750000  0.66910000  1.0 0.1190766467
H  H34  1  0.01660000  0.20680000  0.59690000  1.0 0.1506434081
H  H35  1  0.94150000  0.03030000  0.77950000  1.0 0.1190766467
H  H36  1  0.88830000  0.04140000  0.69160000  1.0 0.1308645351
H  H37  1  0.72010000  0.07630000  0.86370000  1.0 0.0869699939
H  H38  1  0.67550000  0.06960000  0.77930000  1.0 0.1110619938
H  H39  1  0.84280000  0.88430000  0.89580000  1.0 0.0997335155
H  H40  1  0.77630000  0.87980000  0.82160000  1.0 0.0997335155
H  H41  1  0.57030000  0.89970000  0.92450000  1.0 0.1110619938
H  H42  1  0.61950000  0.93410000  0.99000000  1.0 0.0997335155
H  H43  1  0.70100000  0.71870000  0.98620000  1.0 0.0997335155
H  H44  1  0.73500000  0.75490000  0.05810000  1.0 0.1110619938
H  H45  1  0.47580000  0.74270000  0.06670000  1.0 0.1110619938
H  H46  1  0.49690000  0.79840000  0.12900000  1.0 0.1110619938
H  H47  1  0.58190000  0.52390000  0.11950000  1.0 0.1308645351
H  H48  1  0.53330000  0.50230000  0.39090000  1.0 0.1110619938
W  W1  1  0.18829000  0.07789000  0.44383000  1.0 2.3054897337
W  W2  1  0.31572000  0.26837000  0.46531000  1.0 2.3568287639
W  W3  1  0.36391000  0.08763000  0.70473000  1.0 2.3445679693
W  W4  1  0.76746000  0.10003000  0.31623000  1.0 2.3476302175
W  W5  1  0.45488000  0.18181000  0.26130000  1.0 2.3476302175
W  W6  1  0.62960000  0.19186000  0.51711000  1.0 2.3054897337
W  W7  1  0.81171000  0.92211000  0.55617000  1.0 2.3054897337
W  W8  1  0.68428000  0.73163000  0.53469000  1.0 2.3568287639
W  W9  1  0.63609000  0.91237000  0.29527000  1.0 2.3476302175
W  W10  1  0.23254000  0.89997000  0.68377000  1.0 2.3476302175
W  W11  1  0.54512000  0.81819000  0.73870000  1.0 2.3476302175
W  W12  1  0.37040000  0.80814000  0.48289000  1.0 2.3054897337
C  C1  1  0.88000000  0.58600000  0.29900000  1.0 0.1308645351
C  C2  1  0.95900000  0.41300000  0.35200000  1.0 0.1190766467
C  C3  1  0.92000000  0.37600000  0.21900000  1.0 -0.1393939109
C  C4  1  0.02900000  0.37800000  0.13000000  1.0 -0.1907104069
C  C5  1  0.96000000  0.49100000  0.05200000  1.0 -0.1667445154
C  C6  1  0.21000000  0.64000000  0.32900000  1.0 0.1308645351
C  C7  1  0.05800000  0.75900000  0.36700000  1.0 0.1506434081
C  C8  1  0.13000000  0.93200000  0.25500000  1.0 -0.1328506024
C  C9  1  0.25500000  0.95800000  0.18500000  1.0 -0.1805607604
C  C10  1  0.23500000  0.08700000  0.13100000  1.0 -0.1615765543
C  C11  1  0.35600000  0.11400000  0.04700000  1.0 -0.1805607604
C  C12  1  0.33100000  0.23300000  0.97600000  1.0 -0.1907104069
C  C13  1  0.46400000  0.25900000  0.89900000  1.0 -0.0965604635
C  C14  1  0.42800000  0.46000000  0.82500000  1.0 0.059001114
C  C15  1  0.45400000  0.46800000  0.67800000  1.0 0.1394662856
C  C16  1  0.12000000  0.41400000  0.70100000  1.0 0.1308645351
C  C17  1  0.04100000  0.58700000  0.64800000  1.0 0.1190766467
C  C18  1  0.08000000  0.62400000  0.78100000  1.0 -0.1393939109
C  C19  1  0.97100000  0.62200000  0.87000000  1.0 -0.1907104069
C  C20  1  0.04000000  0.50900000  0.94800000  1.0 -0.1667445154
C  C21  1  0.79000000  0.36000000  0.67100000  1.0 0.1308645351
C  C22  1  0.94200000  0.24100000  0.63300000  1.0 0.1506434081
C  C23  1  0.87000000  0.06800000  0.74500000  1.0 -0.1328506024
C  C24  1  0.74500000  0.04200000  0.81500000  1.0 -0.1805607604
C  C25  1  0.76500000  0.91300000  0.86900000  1.0 -0.1615765543
C  C26  1  0.64400000  0.88600000  0.95300000  1.0 -0.1805607604
C  C27  1  0.66900000  0.76700000  0.02400000  1.0 -0.1907104069
C  C28  1  0.53600000  0.74100000  0.10100000  1.0 -0.0965604635
C  C29  1  0.57200000  0.54000000  0.17500000  1.0 0.059001114
C  C30  1  0.54600000  0.53200000  0.32200000  1.0 0.1394662856
N  N1  1  0.42500000  0.53100000  0.73400000  1.0 -0.2892607899
N  N2  1  0.46000000  0.37000000  0.72400000  1.0 -0.2569912301
N  N3  1  0.93800000  0.49700000  0.37100000  1.0 -0.2892607899
N  N4  1  0.86900000  0.55000000  0.23900000  1.0 -0.1975625904
N  N5  1  0.91200000  0.44400000  0.26900000  1.0 0.1912428884
N  N6  1  0.08400000  0.65800000  0.38600000  1.0 -0.3286315353
N  N7  1  0.24000000  0.73500000  0.27200000  1.0 -0.2192955019
N  N8  1  0.13700000  0.81200000  0.29700000  1.0 0.1617055087
N  N9  1  0.44800000  0.35900000  0.82200000  1.0 0.1110619938
N  N10  1  0.57500000  0.46900000  0.26600000  1.0 -0.2892607899
N  N11  1  0.54000000  0.63000000  0.27600000  1.0 -0.2569912301
N  N12  1  0.06200000  0.50300000  0.62900000  1.0 -0.2892607899
N  N13  1  0.13100000  0.45000000  0.76100000  1.0 -0.1975625904
N  N14  1  0.08800000  0.55600000  0.73100000  1.0 0.1912428884
N  N15  1  0.91600000  0.34200000  0.61400000  1.0 -0.3286315353
N  N16  1  0.76000000  0.26500000  0.72800000  1.0 -0.2192955019
N  N17  1  0.86300000  0.18800000  0.70300000  1.0 0.1617055087
N  N18  1  0.55200000  0.64100000  0.17800000  1.0 0.1110619938
O  O1  1  0.39400000  0.10300000  0.44300000  1.0 -0.6222942622
O  O2  1  0.52800000  0.89900000  0.46200000  1.0 -0.4388646038
O  O3  1  0.57600000  0.03200000  0.38100000  1.0 -0.5611556621
O  O4  1  0.62800000  0.04400000  0.48100000  1.0 -0.4677164407
O  O5  1  0.71700000  0.19810000  0.38830000  1.0 -0.8275505753
O  O6  1  0.37500000  0.29350000  0.32570000  1.0 -0.8636501085
O  O7  1  0.29800000  0.13300000  0.31900000  1.0 -0.8080867381
O  O8  1  0.51570000  0.14930000  0.63980000  1.0 -0.7783483119
O  O9  1  0.47500000  0.95560000  0.75600000  1.0 -0.816056356
O  O10  1  0.17900000  0.21100000  0.46360000  1.0 -0.8878050299
O  O11  1  0.76900000  0.98510000  0.27780000  1.0 -0.8678960295
O  O12  1  0.63000000  0.19040000  0.25010000  1.0 -0.8678960295
O  O13  1  0.28440000  0.20650000  0.60660000  1.0 -0.8678960295
O  O14  1  0.85000000  0.99220000  0.41750000  1.0 -0.8395952882
O  O15  1  0.74800000  0.05880000  0.56600000  1.0 -0.7983659954
O  O16  1  0.47980000  0.28240000  0.46830000  1.0 -0.8395952882
O  O17  1  0.89550000  0.14960000  0.22800000  1.0 -0.6526813211
O  O18  1  0.29800000  0.13800000  0.79850000  1.0 -0.6817385854
O  O19  1  0.22540000  0.39510000  0.45020000  1.0 -0.6817385854
O  O20  1  0.04010000  0.12250000  0.41860000  1.0 -0.6526813211
O  O21  1  0.68500000  0.28080000  0.53160000  1.0 -0.6280740948
O  O22  1  0.42900000  0.26830000  0.15240000  1.0 -0.6222942622
O  O23  1  0.60600000  0.89700000  0.55700000  1.0 -0.6222942622
O  O24  1  0.47200000  0.10100000  0.53800000  1.0 -0.4388646038
O  O25  1  0.42400000  0.96800000  0.61900000  1.0 -0.5611556621
O  O26  1  0.37200000  0.95600000  0.51900000  1.0 -0.4677164407
O  O27  1  0.28300000  0.80190000  0.61170000  1.0 -0.8275505753
O  O28  1  0.62500000  0.70650000  0.67430000  1.0 -0.8636501085
O  O29  1  0.70200000  0.86700000  0.68100000  1.0 -0.8080867381
O  O30  1  0.48430000  0.85070000  0.36020000  1.0 -0.7783483119
O  O31  1  0.52500000  0.04440000  0.24400000  1.0 -0.8080867381
O  O32  1  0.82100000  0.78900000  0.53640000  1.0 -0.8878050299
O  O33  1  0.23100000  0.01490000  0.72220000  1.0 -0.8678960295
O  O34  1  0.37000000  0.80960000  0.74990000  1.0 -0.8636501085
O  O35  1  0.71560000  0.79350000  0.39340000  1.0 -0.8678960295
O  O36  1  0.15000000  0.00780000  0.58250000  1.0 -0.8395952882
O  O37  1  0.25200000  0.94120000  0.43400000  1.0 -0.7983659954
O  O38  1  0.52020000  0.71760000  0.53170000  1.0 -0.8395952882
O  O39  1  0.10450000  0.85040000  0.77200000  1.0 -0.6526813211
O  O40  1  0.70200000  0.86200000  0.20150000  1.0 -0.6817385854
O  O41  1  0.77460000  0.60490000  0.54980000  1.0 -0.6817385854
O  O42  1  0.95990000  0.87750000  0.58140000  1.0 -0.6526813211
O  O43  1  0.31500000  0.71920000  0.46840000  1.0 -0.6280740948
O  O44  1  0.57100000  0.73170000  0.84760000  1.0 -0.6222942622
