# DDEC6 charges by PACMAN v1.1 (https://github.com/mtap-research/PACMAN-charge/)
data_TUTFOG_ASR_pacman
_symmetry_space_group_name_H-M   'P 1'
_cell_length_a   13.37610000
_cell_length_b   13.37610000
_cell_length_c   23.32240000
_cell_angle_alpha   88.10290000
_cell_angle_beta   91.89710000
_cell_angle_gamma   146.53800000
_symmetry_Int_Tables_number   1
_chemical_formula_structural   AgH7C10NO2F3
_chemical_formula_sum   'Ag4 H28 C40 N4 O8 F12'
_cell_volume   2299.46407784
_cell_formula_units_Z   4
loop_
 _symmetry_equiv_pos_site_id
 _symmetry_equiv_pos_as_xyz
  1  'x, y, z'
loop_
 _atom_site_type_symbol
 _atom_site_label
 _atom_site_symmetry_multiplicity
 _atom_site_fract_x
 _atom_site_fract_y
 _atom_site_fract_z
 _atom_site_occupancy
 _atom_site_charge
Ag  Ag1  1  0.35386000  0.27342000  0.25733000  1.0 0.5653180427
Ag  Ag2  1  0.62292000  0.73578000  0.25361000  1.0 0.5753222353
Ag  Ag3  1  0.27342000  0.35386000  0.74267000  1.0 0.5653180427
Ag  Ag4  1  0.73578000  0.62292000  0.74639000  1.0 0.5753222353
H  H1  1  0.20370000  0.67950000  0.33510000  1.0 0.1286626014
H  H2  1  0.94190000  0.55910000  0.33910000  1.0 0.1413281537
H  H3  1  0.80950000  0.37530000  0.17610000  1.0 0.1286626014
H  H4  1  0.07060000  0.49400000  0.17230000  1.0 0.1413281537
H  H5  1  0.90590000  0.14610000  0.22800000  1.0 0.1413281537
H  H6  1  0.01540000  0.23220000  0.28760000  1.0 0.1502166859
H  H7  1  0.12190000  0.31470000  0.22840000  1.0 0.1602378696
H  H8  1  0.11060000  0.15180000  0.32960000  1.0 0.1502166859
H  H9  1  0.09660000  0.96480000  0.33100000  1.0 0.1286626014
H  H10  1  0.96670000  0.77370000  0.25430000  1.0 0.1286626014
H  H11  1  0.91840000  0.99660000  0.16690000  1.0 0.1602378696
H  H12  1  0.77940000  0.73720000  0.12670000  1.0 0.1502166859
H  H13  1  0.91210000  0.75530000  0.14010000  1.0 0.1413281537
H  H14  1  0.71640000  0.59520000  0.16910000  1.0 0.1413281537
H  H15  1  0.67950000  0.20370000  0.66490000  1.0 0.1286626014
H  H16  1  0.55910000  0.94190000  0.66090000  1.0 0.1413281537
H  H17  1  0.37530000  0.80950000  0.82390000  1.0 0.1286626014
H  H18  1  0.49400000  0.07060000  0.82770000  1.0 0.1413281537
H  H19  1  0.14610000  0.90590000  0.77200000  1.0 0.1413281537
H  H20  1  0.23220000  0.01540000  0.71240000  1.0 0.1502166859
H  H21  1  0.31470000  0.12190000  0.77160000  1.0 0.1602378696
H  H22  1  0.15180000  0.11060000  0.67040000  1.0 0.1502166859
H  H23  1  0.96480000  0.09660000  0.66900000  1.0 0.1286626014
H  H24  1  0.77370000  0.96670000  0.74570000  1.0 0.1286626014
H  H25  1  0.99660000  0.91840000  0.83310000  1.0 0.1602378696
H  H26  1  0.73720000  0.77940000  0.87330000  1.0 0.1502166859
H  H27  1  0.75530000  0.91210000  0.85990000  1.0 0.1413281537
H  H28  1  0.59520000  0.71640000  0.83090000  1.0 0.1413281537
C  C1  1  0.60427000  0.58573000  0.36854000  1.0 0.4383506275
C  C2  1  0.55932000  0.44948000  0.40254000  1.0 0.5394583888
C  C3  1  0.35851000  0.41869000  0.14023000  1.0 0.4239528126
C  C4  1  0.38146000  0.54094000  0.10939000  1.0 0.5394583888
C  C5  1  0.31829000  0.66691000  0.25147000  1.0 0.2773216016
C  C6  1  0.15767000  0.59493000  0.25375000  1.0 0.0403273649
C  C7  1  0.12261000  0.61679000  0.30320000  1.0 -0.1209725716
C  C8  1  0.96844000  0.54616000  0.30548000  1.0 -0.1209725716
C  C9  1  0.85142000  0.45538000  0.25801000  1.0 0.0403273649
C  C10  1  0.88935000  0.43625000  0.20828000  1.0 -0.1209725716
C  C11  1  0.04325000  0.50615000  0.20593000  1.0 -0.1209725716
C  C12  1  0.69138000  0.38442000  0.25993000  1.0 0.2773216016
C  C13  1  0.01014000  0.20306000  0.24856000  1.0 -0.462471257
C  C14  1  0.99055000  0.07425000  0.25102000  1.0 0.1741123668
C  C15  1  0.05810000  0.07490000  0.29804000  1.0 -0.1913407274
C  C16  1  0.04901000  0.96259000  0.29890000  1.0 -0.0850561165
C  C17  1  0.97114000  0.84846000  0.25330000  1.0 -0.1795321756
C  C18  1  0.89993000  0.84247000  0.20636000  1.0 0.1877886004
C  C19  1  0.90933000  0.95547000  0.20573000  1.0 -0.2881123178
C  C20  1  0.82000000  0.72200000  0.15616000  1.0 -0.4388527923
C  C21  1  0.58573000  0.60427000  0.63146000  1.0 0.4383506275
C  C22  1  0.44948000  0.55932000  0.59746000  1.0 0.5394583888
C  C23  1  0.41869000  0.35851000  0.85977000  1.0 0.4239528126
C  C24  1  0.54094000  0.38146000  0.89061000  1.0 0.5394583888
C  C25  1  0.66691000  0.31829000  0.74853000  1.0 0.2773216016
C  C26  1  0.59493000  0.15767000  0.74625000  1.0 0.0403273649
C  C27  1  0.61679000  0.12261000  0.69680000  1.0 -0.1209725716
C  C28  1  0.54616000  0.96844000  0.69452000  1.0 -0.1209725716
C  C29  1  0.45538000  0.85142000  0.74199000  1.0 0.0403273649
C  C30  1  0.43625000  0.88935000  0.79172000  1.0 -0.1209725716
C  C31  1  0.50615000  0.04325000  0.79407000  1.0 -0.1209725716
C  C32  1  0.38442000  0.69138000  0.74007000  1.0 0.2773216016
C  C33  1  0.20306000  0.01014000  0.75144000  1.0 -0.462471257
C  C34  1  0.07425000  0.99055000  0.74898000  1.0 0.1741123668
C  C35  1  0.07490000  0.05810000  0.70196000  1.0 -0.1913407274
C  C36  1  0.96259000  0.04901000  0.70110000  1.0 -0.0850561165
C  C37  1  0.84846000  0.97114000  0.74670000  1.0 -0.1795321756
C  C38  1  0.84247000  0.89993000  0.79364000  1.0 0.1877886004
C  C39  1  0.95547000  0.90933000  0.79427000  1.0 -0.2881123178
C  C40  1  0.72200000  0.82000000  0.84384000  1.0 -0.4388527923
N  N1  1  0.44239000  0.72021000  0.25045000  1.0 -0.3679131919
N  N2  1  0.56741000  0.33119000  0.26150000  1.0 -0.3641535693
N  N3  1  0.72021000  0.44239000  0.74955000  1.0 -0.3679131919
N  N4  1  0.33119000  0.56741000  0.73850000  1.0 -0.3641535693
O  O1  1  0.53774000  0.53966000  0.31955000  1.0 -0.5110556536
O  O2  1  0.70610000  0.72850000  0.39450000  1.0 -0.462471257
O  O3  1  0.40566000  0.45414000  0.19158000  1.0 -0.5110556536
O  O4  1  0.29205000  0.29615000  0.11056000  1.0 -0.462471257
O  O5  1  0.53966000  0.53774000  0.68045000  1.0 -0.5110556536
O  O6  1  0.72850000  0.70610000  0.60550000  1.0 -0.462471257
O  O7  1  0.45414000  0.40566000  0.80842000  1.0 -0.5110556536
O  O8  1  0.29615000  0.29205000  0.88944000  1.0 -0.462471257
F  F1  1  0.69519000  0.49801000  0.39859000  1.0 -0.2189669141
F  F2  1  0.53367000  0.44353000  0.45779000  1.0 -0.1795321756
F  F3  1  0.41133000  0.28147000  0.38249000  1.0 -0.2189669141
F  F4  1  0.54265000  0.71615000  0.12024000  1.0 -0.2271466904
F  F5  1  0.25819000  0.50381000  0.12759000  1.0 -0.2271466904
F  F6  1  0.35955000  0.51885000  0.05330000  1.0 -0.1913407274
F  F7  1  0.49801000  0.69519000  0.60141000  1.0 -0.2189669141
F  F8  1  0.44353000  0.53367000  0.54221000  1.0 -0.1795321756
F  F9  1  0.28147000  0.41133000  0.61751000  1.0 -0.2189669141
F  F10  1  0.71615000  0.54265000  0.87976000  1.0 -0.2271466904
F  F11  1  0.50381000  0.25819000  0.87241000  1.0 -0.2271466904
F  F12  1  0.51885000  0.35955000  0.94670000  1.0 -0.1913407274
