# DDEC6 charges by PACMAN v1.1 (https://github.com/mtap-research/PACMAN-charge/)
data_TUVDOD_FSR_pacman
_symmetry_space_group_name_H-M   'P 1'
_cell_length_a   15.30700000
_cell_length_b   15.30700000
_cell_length_c   15.69500000
_cell_angle_alpha   90.00000000
_cell_angle_beta   90.00000000
_cell_angle_gamma   120.00000000
_symmetry_Int_Tables_number   1
_chemical_formula_structural   Gd2Mn3H18C42(NO5)6
_chemical_formula_sum   'Gd4 Mn6 H36 C84 N12 O60'
_cell_volume   3184.72631286
_cell_formula_units_Z   2
loop_
 _symmetry_equiv_pos_site_id
 _symmetry_equiv_pos_as_xyz
  1  'x, y, z'
loop_
 _atom_site_type_symbol
 _atom_site_label
 _atom_site_symmetry_multiplicity
 _atom_site_fract_x
 _atom_site_fract_y
 _atom_site_fract_z
 _atom_site_occupancy
 _atom_site_charge
Gd  Gd1  1  0.66666667  0.33333333  0.25000000  1.0 1.7441823539
Gd  Gd2  1  0.33333333  0.66666667  0.25000000  1.0 1.7441823539
Gd  Gd3  1  0.66666667  0.33333333  0.75000000  1.0 1.7441823539
Gd  Gd4  1  0.33333333  0.66666667  0.75000000  1.0 1.7441823539
Mn  Mn1  1  0.50000000  0.00000000  0.00000000  1.0 1.1283816036
Mn  Mn2  1  0.00000000  0.50000000  0.00000000  1.0 1.1239612755
Mn  Mn3  1  0.50000000  0.50000000  0.00000000  1.0 1.1283816036
Mn  Mn4  1  0.00000000  0.50000000  0.50000000  1.0 1.1283816036
Mn  Mn5  1  0.50000000  0.00000000  0.50000000  1.0 1.1283816036
Mn  Mn6  1  0.50000000  0.50000000  0.50000000  1.0 1.1283816036
H  H1  1  0.76550000  0.05490000  0.15720000  1.0 0.1300517526
H  H2  1  0.94510000  0.71060000  0.15720000  1.0 0.1300517526
H  H3  1  0.28940000  0.23450000  0.15720000  1.0 0.1300517526
H  H4  1  0.05490000  0.28940000  0.15720000  1.0 0.1300517526
H  H5  1  0.71060000  0.76550000  0.15720000  1.0 0.1300517526
H  H6  1  0.05490000  0.76550000  0.34280000  1.0 0.1300517526
H  H7  1  0.28940000  0.05490000  0.34280000  1.0 0.1300517526
H  H8  1  0.76550000  0.71060000  0.34280000  1.0 0.1300517526
H  H9  1  0.76550000  0.05490000  0.84280000  1.0 0.1300517526
H  H10  1  0.28940000  0.05490000  0.65720000  1.0 0.1300517526
H  H11  1  0.76550000  0.71060000  0.65720000  1.0 0.1300517526
H  H12  1  0.05490000  0.76550000  0.65720000  1.0 0.1300517526
H  H13  1  0.23450000  0.94510000  0.84280000  1.0 0.1300517526
H  H14  1  0.05490000  0.28940000  0.84280000  1.0 0.1300517526
H  H15  1  0.71060000  0.76550000  0.84280000  1.0 0.1300517526
H  H16  1  0.94510000  0.71060000  0.84280000  1.0 0.1300517526
H  H17  1  0.28940000  0.23450000  0.84280000  1.0 0.1300517526
H  H18  1  0.94510000  0.23450000  0.65720000  1.0 0.1300517526
H  H19  1  0.71060000  0.94510000  0.65720000  1.0 0.1300517526
H  H20  1  0.23450000  0.28940000  0.65720000  1.0 0.1300517526
H  H21  1  0.23450000  0.94510000  0.15720000  1.0 0.1300517526
H  H22  1  0.71060000  0.94510000  0.34280000  1.0 0.1300517526
H  H23  1  0.23450000  0.28940000  0.34280000  1.0 0.1300517526
H  H24  1  0.94510000  0.23450000  0.34280000  1.0 0.1300517526
H  H25  1  0.89950000  0.10050000  0.25000000  1.0 0.0998804278
H  H26  1  0.89950000  0.79900000  0.25000000  1.0 0.0998804278
H  H27  1  0.20100000  0.10050000  0.25000000  1.0 0.0998804278
H  H28  1  0.10050000  0.20100000  0.25000000  1.0 0.0998804278
H  H29  1  0.79900000  0.89950000  0.25000000  1.0 0.0998804278
H  H30  1  0.10050000  0.89950000  0.25000000  1.0 0.1052365657
H  H31  1  0.89950000  0.10050000  0.75000000  1.0 0.0998804278
H  H32  1  0.20100000  0.10050000  0.75000000  1.0 0.0998804278
H  H33  1  0.89950000  0.79900000  0.75000000  1.0 0.0998804278
H  H34  1  0.10050000  0.89950000  0.75000000  1.0 0.1052365657
H  H35  1  0.10050000  0.20100000  0.75000000  1.0 0.0998804278
H  H36  1  0.79900000  0.89950000  0.75000000  1.0 0.0998804278
C  C1  1  0.64750000  0.14000000  0.14040000  1.0 0.528207268
C  C2  1  0.86000000  0.50750000  0.14040000  1.0 0.528207268
C  C3  1  0.49250000  0.35250000  0.14040000  1.0 0.528207268
C  C4  1  0.14000000  0.49250000  0.14040000  1.0 0.528207268
C  C5  1  0.50750000  0.64750000  0.14040000  1.0 0.528207268
C  C6  1  0.14000000  0.64750000  0.35960000  1.0 0.528207268
C  C7  1  0.49250000  0.14000000  0.35960000  1.0 0.528207268
C  C8  1  0.64750000  0.50750000  0.35960000  1.0 0.528207268
C  C9  1  0.64750000  0.14000000  0.85960000  1.0 0.528207268
C  C10  1  0.49250000  0.14000000  0.64040000  1.0 0.528207268
C  C11  1  0.64750000  0.50750000  0.64040000  1.0 0.528207268
C  C12  1  0.14000000  0.64750000  0.64040000  1.0 0.528207268
C  C13  1  0.35250000  0.86000000  0.85960000  1.0 0.528207268
C  C14  1  0.14000000  0.49250000  0.85960000  1.0 0.528207268
C  C15  1  0.50750000  0.64750000  0.85960000  1.0 0.528207268
C  C16  1  0.86000000  0.50750000  0.85960000  1.0 0.528207268
C  C17  1  0.49250000  0.35250000  0.85960000  1.0 0.528207268
C  C18  1  0.86000000  0.35250000  0.64040000  1.0 0.528207268
C  C19  1  0.50750000  0.86000000  0.64040000  1.0 0.528207268
C  C20  1  0.35250000  0.49250000  0.64040000  1.0 0.528207268
C  C21  1  0.35250000  0.86000000  0.14040000  1.0 0.528207268
C  C22  1  0.50750000  0.86000000  0.35960000  1.0 0.528207268
C  C23  1  0.35250000  0.49250000  0.35960000  1.0 0.528207268
C  C24  1  0.86000000  0.35250000  0.35960000  1.0 0.528207268
C  C25  1  0.73480000  0.16170000  0.19660000  1.0 0.0948704761
C  C26  1  0.83830000  0.57310000  0.19660000  1.0 0.0948704761
C  C27  1  0.42690000  0.26520000  0.19660000  1.0 0.0948704761
C  C28  1  0.16170000  0.42690000  0.19660000  1.0 0.0998804278
C  C29  1  0.57310000  0.73480000  0.19660000  1.0 0.0998804278
C  C30  1  0.16170000  0.73480000  0.30340000  1.0 0.0998804278
C  C31  1  0.42690000  0.16170000  0.30340000  1.0 0.0948704761
C  C32  1  0.73480000  0.57310000  0.30340000  1.0 0.0948704761
C  C33  1  0.73480000  0.16170000  0.80340000  1.0 0.0948704761
C  C34  1  0.42690000  0.16170000  0.69660000  1.0 0.0948704761
C  C35  1  0.73480000  0.57310000  0.69660000  1.0 0.0948704761
C  C36  1  0.16170000  0.73480000  0.69660000  1.0 0.0998804278
C  C37  1  0.26520000  0.83830000  0.80340000  1.0 0.0998804278
C  C38  1  0.16170000  0.42690000  0.80340000  1.0 0.0998804278
C  C39  1  0.57310000  0.73480000  0.80340000  1.0 0.0998804278
C  C40  1  0.83830000  0.57310000  0.80340000  1.0 0.0948704761
C  C41  1  0.42690000  0.26520000  0.80340000  1.0 0.0948704761
C  C42  1  0.83830000  0.26520000  0.69660000  1.0 0.0948704761
C  C43  1  0.57310000  0.83830000  0.69660000  1.0 0.0998804278
C  C44  1  0.26520000  0.42690000  0.69660000  1.0 0.0998804278
C  C45  1  0.26520000  0.83830000  0.19660000  1.0 0.0948704761
C  C46  1  0.57310000  0.83830000  0.30340000  1.0 0.0998804278
C  C47  1  0.26520000  0.42690000  0.30340000  1.0 0.0998804278
C  C48  1  0.83830000  0.26520000  0.30340000  1.0 0.0948704761
C  C49  1  0.78490000  0.10840000  0.19490000  1.0 -0.1484814006
C  C50  1  0.89160000  0.67650000  0.19490000  1.0 -0.1484814006
C  C51  1  0.32350000  0.21510000  0.19490000  1.0 -0.1484814006
C  C52  1  0.10840000  0.32350000  0.19490000  1.0 -0.1484814006
C  C53  1  0.67650000  0.78490000  0.19490000  1.0 -0.1484814006
C  C54  1  0.10840000  0.78490000  0.30510000  1.0 -0.1484814006
C  C55  1  0.32350000  0.10840000  0.30510000  1.0 -0.1484814006
C  C56  1  0.78490000  0.67650000  0.30510000  1.0 -0.1484814006
C  C57  1  0.78490000  0.10840000  0.80510000  1.0 -0.1484814006
C  C58  1  0.32350000  0.10840000  0.69490000  1.0 -0.1484814006
C  C59  1  0.78490000  0.67650000  0.69490000  1.0 -0.1484814006
C  C60  1  0.10840000  0.78490000  0.69490000  1.0 -0.1484814006
C  C61  1  0.21510000  0.89160000  0.80510000  1.0 -0.1484814006
C  C62  1  0.10840000  0.32350000  0.80510000  1.0 -0.1484814006
C  C63  1  0.67650000  0.78490000  0.80510000  1.0 -0.1484814006
C  C64  1  0.89160000  0.67650000  0.80510000  1.0 -0.1484814006
C  C65  1  0.32350000  0.21510000  0.80510000  1.0 -0.1484814006
C  C66  1  0.89160000  0.21510000  0.69490000  1.0 -0.1484814006
C  C67  1  0.67650000  0.89160000  0.69490000  1.0 -0.1484814006
C  C68  1  0.21510000  0.32350000  0.69490000  1.0 -0.1484814006
C  C69  1  0.21510000  0.89160000  0.19490000  1.0 -0.1484814006
C  C70  1  0.67650000  0.89160000  0.30510000  1.0 -0.1484814006
C  C71  1  0.21510000  0.32350000  0.30510000  1.0 -0.1484814006
C  C72  1  0.89160000  0.21510000  0.30510000  1.0 -0.1484814006
C  C73  1  0.86445000  0.13555000  0.25000000  1.0 -0.067165954
C  C74  1  0.86445000  0.72890000  0.25000000  1.0 -0.067165954
C  C75  1  0.27110000  0.13555000  0.25000000  1.0 -0.067165954
C  C76  1  0.13555000  0.27110000  0.25000000  1.0 -0.067165954
C  C77  1  0.72890000  0.86445000  0.25000000  1.0 -0.067165954
C  C78  1  0.13555000  0.86445000  0.25000000  1.0 -0.067165954
C  C79  1  0.86445000  0.13555000  0.75000000  1.0 -0.067165954
C  C80  1  0.27110000  0.13555000  0.75000000  1.0 -0.067165954
C  C81  1  0.86445000  0.72890000  0.75000000  1.0 -0.067165954
C  C82  1  0.13555000  0.86445000  0.75000000  1.0 -0.067165954
C  C83  1  0.13555000  0.27110000  0.75000000  1.0 -0.067165954
C  C84  1  0.72890000  0.86445000  0.75000000  1.0 -0.067165954
N  N1  1  0.76063000  0.23937000  0.25000000  1.0 -0.3425984748
N  N2  1  0.76063000  0.52126000  0.25000000  1.0 -0.3425984748
N  N3  1  0.47874000  0.23937000  0.25000000  1.0 -0.3425984748
N  N4  1  0.23937000  0.47874000  0.25000000  1.0 -0.3425984748
N  N5  1  0.52126000  0.76063000  0.25000000  1.0 -0.3425984748
N  N6  1  0.23937000  0.76063000  0.25000000  1.0 -0.3425984748
N  N7  1  0.76063000  0.23937000  0.75000000  1.0 -0.3425984748
N  N8  1  0.47874000  0.23937000  0.75000000  1.0 -0.3425984748
N  N9  1  0.76063000  0.52126000  0.75000000  1.0 -0.3425984748
N  N10  1  0.23937000  0.76063000  0.75000000  1.0 -0.3425984748
N  N11  1  0.23937000  0.47874000  0.75000000  1.0 -0.3425984748
N  N12  1  0.52126000  0.76063000  0.75000000  1.0 -0.3425984748
O  O1  1  0.61325000  0.19918000  0.14419000  1.0 -0.5516997842
O  O2  1  0.80082000  0.41407000  0.14419000  1.0 -0.5516997842
O  O3  1  0.58593000  0.38675000  0.14419000  1.0 -0.5516997842
O  O4  1  0.19918000  0.58593000  0.14419000  1.0 -0.5516997842
O  O5  1  0.41407000  0.61325000  0.14419000  1.0 -0.5516997842
O  O6  1  0.19918000  0.61325000  0.35581000  1.0 -0.5516997842
O  O7  1  0.58593000  0.19918000  0.35581000  1.0 -0.5516997842
O  O8  1  0.61325000  0.41407000  0.35581000  1.0 -0.5516997842
O  O9  1  0.61325000  0.19918000  0.85581000  1.0 -0.5516997842
O  O10  1  0.58593000  0.19918000  0.64419000  1.0 -0.5516997842
O  O11  1  0.61325000  0.41407000  0.64419000  1.0 -0.5516997842
O  O12  1  0.19918000  0.61325000  0.64419000  1.0 -0.5516997842
O  O13  1  0.38675000  0.80082000  0.85581000  1.0 -0.5516997842
O  O14  1  0.19918000  0.58593000  0.85581000  1.0 -0.5516997842
O  O15  1  0.41407000  0.61325000  0.85581000  1.0 -0.5516997842
O  O16  1  0.80082000  0.41407000  0.85581000  1.0 -0.5516997842
O  O17  1  0.58593000  0.38675000  0.85581000  1.0 -0.5516997842
O  O18  1  0.80082000  0.38675000  0.64419000  1.0 -0.5516997842
O  O19  1  0.41407000  0.80082000  0.64419000  1.0 -0.5516997842
O  O20  1  0.38675000  0.58593000  0.64419000  1.0 -0.5516997842
O  O21  1  0.38675000  0.80082000  0.14419000  1.0 -0.5516997842
O  O22  1  0.41407000  0.80082000  0.35581000  1.0 -0.5516997842
O  O23  1  0.38675000  0.58593000  0.35581000  1.0 -0.5516997842
O  O24  1  0.80082000  0.38675000  0.35581000  1.0 -0.5516997842
O  O25  1  0.61590000  0.06456000  0.09343000  1.0 -0.5516997842
O  O26  1  0.93544000  0.55134000  0.09343000  1.0 -0.5516997842
O  O27  1  0.44866000  0.38410000  0.09343000  1.0 -0.5516997842
O  O28  1  0.06456000  0.44866000  0.09343000  1.0 -0.5516997842
O  O29  1  0.55134000  0.61590000  0.09343000  1.0 -0.5516997842
O  O30  1  0.06456000  0.61590000  0.40657000  1.0 -0.5516997842
O  O31  1  0.44866000  0.06456000  0.40657000  1.0 -0.5516997842
O  O32  1  0.61590000  0.55134000  0.40657000  1.0 -0.5516997842
O  O33  1  0.61590000  0.06456000  0.90657000  1.0 -0.5516997842
O  O34  1  0.44866000  0.06456000  0.59343000  1.0 -0.5516997842
O  O35  1  0.61590000  0.55134000  0.59343000  1.0 -0.5516997842
O  O36  1  0.06456000  0.61590000  0.59343000  1.0 -0.5516997842
O  O37  1  0.38410000  0.93544000  0.90657000  1.0 -0.5516997842
O  O38  1  0.06456000  0.44866000  0.90657000  1.0 -0.5516997842
O  O39  1  0.55134000  0.61590000  0.90657000  1.0 -0.5516997842
O  O40  1  0.93544000  0.55134000  0.90657000  1.0 -0.5516997842
O  O41  1  0.44866000  0.38410000  0.90657000  1.0 -0.5516997842
O  O42  1  0.93544000  0.38410000  0.59343000  1.0 -0.5516997842
O  O43  1  0.55134000  0.93544000  0.59343000  1.0 -0.5516997842
O  O44  1  0.38410000  0.44866000  0.59343000  1.0 -0.5516997842
O  O45  1  0.38410000  0.93544000  0.09343000  1.0 -0.5516997842
O  O46  1  0.55134000  0.93544000  0.40657000  1.0 -0.5516997842
O  O47  1  0.38410000  0.44866000  0.40657000  1.0 -0.5516997842
O  O48  1  0.93544000  0.38410000  0.40657000  1.0 -0.5516997842
O  O49  1  0.49090000  0.14240000  0.00000000  1.0 0.1602987703
O  O50  1  0.85760000  0.34850000  0.00000000  1.0 0.1602987703
O  O51  1  0.65150000  0.50910000  0.00000000  1.0 0.1602987703
O  O52  1  0.14240000  0.65150000  0.00000000  1.0 0.1602987703
O  O53  1  0.34850000  0.49090000  0.00000000  1.0 0.1516263005
O  O54  1  0.14240000  0.49090000  0.50000000  1.0 0.1516263005
O  O55  1  0.65150000  0.14240000  0.50000000  1.0 0.1602987703
O  O56  1  0.49090000  0.34850000  0.50000000  1.0 0.1602987703
O  O57  1  0.50910000  0.85760000  0.00000000  1.0 0.1516263005
O  O58  1  0.85760000  0.50910000  0.50000000  1.0 0.1602987703
O  O59  1  0.34850000  0.85760000  0.50000000  1.0 0.1516263005
O  O60  1  0.50910000  0.65150000  0.50000000  1.0 0.1516263005
