# DDEC6 charges by PACMAN v1.1 (https://github.com/mtap-research/PACMAN-charge/)
data_TUWFUN_ion_pacman
_symmetry_space_group_name_H-M   'P 1'
_cell_length_a   10.25750000
_cell_length_b   18.45800000
_cell_length_c   24.81400000
_cell_angle_alpha   90.00000000
_cell_angle_beta   90.00000000
_cell_angle_gamma   90.00000000
_symmetry_Int_Tables_number   1
_chemical_formula_structural   Ga18P16H36C12N4O66F7
_chemical_formula_sum   'Ga36 P32 H72 C24 N8 O132 F14'
_cell_volume   4698.10744909
_cell_formula_units_Z   2
loop_
 _symmetry_equiv_pos_site_id
 _symmetry_equiv_pos_as_xyz
  1  'x, y, z'
loop_
 _atom_site_type_symbol
 _atom_site_label
 _atom_site_symmetry_multiplicity
 _atom_site_fract_x
 _atom_site_fract_y
 _atom_site_fract_z
 _atom_site_occupancy
 _atom_site_charge
Ga  Ga1  1  0.88599000  0.91761000  0.43770000  1.0 1.5796967535
Ga  Ga2  1  0.88599000  0.08239000  0.56230000  1.0 1.5796967535
Ga  Ga3  1  0.11401000  0.41761000  0.06230000  1.0 1.5796967535
Ga  Ga4  1  0.11401000  0.58239000  0.93770000  1.0 1.5796967535
Ga  Ga5  1  0.10200000  0.15390000  0.34273000  1.0 0.7784172137
Ga  Ga6  1  0.10200000  0.84610000  0.65727000  1.0 0.7784172137
Ga  Ga7  1  0.89800000  0.65390000  0.15727000  1.0 0.7784172137
Ga  Ga8  1  0.89800000  0.34610000  0.84273000  1.0 0.7784172137
Ga  Ga9  1  0.61915000  0.92899000  0.55938000  1.0 1.5488548963
Ga  Ga10  1  0.61915000  0.07101000  0.44062000  1.0 1.5488548963
Ga  Ga11  1  0.38085000  0.42899000  0.94062000  1.0 1.5488548963
Ga  Ga12  1  0.38085000  0.57101000  0.05938000  1.0 1.5488548963
Ga  Ga13  1  0.39838000  0.08636000  0.23680000  1.0 1.5384477217
Ga  Ga14  1  0.39838000  0.91364000  0.76320000  1.0 1.5384477217
Ga  Ga15  1  0.60162000  0.58636000  0.26320000  1.0 1.5384477217
Ga  Ga16  1  0.60162000  0.41364000  0.73680000  1.0 1.5384477217
Ga  Ga17  1  0.40809000  0.82949000  0.34554000  1.0 1.5488548963
Ga  Ga18  1  0.40809000  0.17051000  0.65446000  1.0 1.5488548963
Ga  Ga19  1  0.59191000  0.32949000  0.15446000  1.0 1.5488548963
Ga  Ga20  1  0.59191000  0.67051000  0.84554000  1.0 1.5488548963
Ga  Ga21  1  0.10200000  0.89540000  0.24100000  1.0 1.5335063029
Ga  Ga22  1  0.10200000  0.10460000  0.75900000  1.0 1.5384477217
Ga  Ga23  1  0.89800000  0.39540000  0.25900000  1.0 1.5384477217
Ga  Ga24  1  0.89800000  0.60460000  0.74100000  1.0 1.5335063029
Ga  Ga25  1  0.07966000  0.70562000  0.27488000  1.0 1.4897178102
Ga  Ga26  1  0.07966000  0.29438000  0.72512000  1.0 1.4897178102
Ga  Ga27  1  0.92034000  0.20562000  0.22512000  1.0 1.4897178102
Ga  Ga28  1  0.92034000  0.79438000  0.77488000  1.0 1.4897178102
Ga  Ga29  1  0.57705000  0.77514000  0.23092000  1.0 1.5384477217
Ga  Ga30  1  0.57705000  0.22486000  0.76908000  1.0 1.5335063029
Ga  Ga31  1  0.42295000  0.27514000  0.26908000  1.0 1.5335063029
Ga  Ga32  1  0.42295000  0.72486000  0.73092000  1.0 1.5384477217
Ga  Ga33  1  0.95400000  0.65642000  0.16309000  1.0 0.7671023894
Ga  Ga34  1  0.95400000  0.34358000  0.83691000  1.0 0.754117756
Ga  Ga35  1  0.04600000  0.15642000  0.33691000  1.0 0.7563000608
Ga  Ga36  1  0.04600000  0.84358000  0.66309000  1.0 0.7671023894
P  P1  1  0.10470000  0.06748000  0.23320000  1.0 1.5605623264
P  P2  1  0.10470000  0.93252000  0.76680000  1.0 1.5605623264
P  P3  1  0.89530000  0.56748000  0.26680000  1.0 1.5605623264
P  P4  1  0.89530000  0.43252000  0.73320000  1.0 1.5605623264
P  P5  1  0.58375000  0.90546000  0.43742000  1.0 1.5796967535
P  P6  1  0.58375000  0.09454000  0.56258000  1.0 1.5796967535
P  P7  1  0.41625000  0.40546000  0.06258000  1.0 1.5796967535
P  P8  1  0.41625000  0.59454000  0.93742000  1.0 1.5796967535
P  P9  1  0.91837000  0.08568000  0.43598000  1.0 1.5488548963
P  P10  1  0.91837000  0.91432000  0.56402000  1.0 1.5488548963
P  P11  1  0.08163000  0.58568000  0.06402000  1.0 1.5488548963
P  P12  1  0.08163000  0.41432000  0.93598000  1.0 1.5488548963
P  P13  1  0.39445000  0.91363000  0.23474000  1.0 1.5796967535
P  P14  1  0.39445000  0.08637000  0.76526000  1.0 1.5796967535
P  P15  1  0.60555000  0.41363000  0.26526000  1.0 1.5796967535
P  P16  1  0.60555000  0.58637000  0.73474000  1.0 1.5796967535
P  P17  1  0.09212000  0.83409000  0.35993000  1.0 1.5726096619
P  P18  1  0.09212000  0.16591000  0.64007000  1.0 1.5726096619
P  P19  1  0.90788000  0.33409000  0.14007000  1.0 1.5726096619
P  P20  1  0.90788000  0.66591000  0.85993000  1.0 1.5726096619
P  P21  1  0.41824000  0.14817000  0.35558000  1.0 1.5605623264
P  P22  1  0.41824000  0.85183000  0.64442000  1.0 1.5605623264
P  P23  1  0.58176000  0.64817000  0.14442000  1.0 1.5605623264
P  P24  1  0.58176000  0.35183000  0.85558000  1.0 1.5605623264
P  P25  1  0.37653000  0.68301000  0.29866000  1.0 1.5225138355
P  P26  1  0.37653000  0.31699000  0.70134000  1.0 1.5225138355
P  P27  1  0.62347000  0.18301000  0.20134000  1.0 1.5225138355
P  P28  1  0.62347000  0.81699000  0.79866000  1.0 1.5225138355
P  P29  1  0.12466000  0.29777000  0.29261000  1.0 1.4805493344
P  P30  1  0.12466000  0.70223000  0.70739000  1.0 1.4805493344
P  P31  1  0.87534000  0.79777000  0.20739000  1.0 1.4805493344
P  P32  1  0.87534000  0.20223000  0.79261000  1.0 1.4805493344
H  H1  1  0.19690000  0.49670000  0.71210000  1.0 0.2611504707
H  H2  1  0.26660000  0.56150000  0.69560000  1.0 0.2765523482
H  H3  1  0.33290000  0.49190000  0.69620000  1.0 0.2716811706
H  H4  1  0.17110000  0.86290000  0.49470000  1.0 0.2716811706
H  H5  1  0.30240000  0.84510000  0.47710000  1.0 0.2611504707
H  H6  1  0.27280000  0.84990000  0.53430000  1.0 0.2874893684
H  H7  1  0.20130000  0.45060000  0.63410000  1.0 0.0994345022
H  H8  1  0.13550000  0.52600000  0.63270000  1.0 0.0932259131
H  H9  1  0.25720000  0.48690000  0.56010000  1.0 0.0994345022
H  H10  1  0.37910000  0.51040000  0.59410000  1.0 0.1266166557
H  H11  1  0.31930000  0.62780000  0.59550000  1.0 0.0994345022
H  H12  1  0.17490000  0.61040000  0.58280000  1.0 0.0932259131
H  H13  1  0.19850000  0.63110000  0.49430000  1.0 0.0932259131
H  H14  1  0.34780000  0.61090000  0.49440000  1.0 0.0932259131
H  H15  1  0.32630000  0.72760000  0.56240000  1.0 0.1156106803
H  H16  1  0.39580000  0.73030000  0.50580000  1.0 0.1072914217
H  H17  1  0.13130000  0.75130000  0.52490000  1.0 0.0994345022
H  H18  1  0.18880000  0.74270000  0.46650000  1.0 0.0932259131
H  H19  1  0.19690000  0.50330000  0.28790000  1.0 0.2611504707
H  H20  1  0.26660000  0.43850000  0.30440000  1.0 0.2716811706
H  H21  1  0.33290000  0.50810000  0.30380000  1.0 0.2716811706
H  H22  1  0.17110000  0.13710000  0.50530000  1.0 0.2716811706
H  H23  1  0.30240000  0.15490000  0.52290000  1.0 0.2611504707
H  H24  1  0.27280000  0.15010000  0.46570000  1.0 0.2874893684
H  H25  1  0.20130000  0.54940000  0.36590000  1.0 0.0994345022
H  H26  1  0.13550000  0.47400000  0.36730000  1.0 0.0932259131
H  H27  1  0.25720000  0.51310000  0.43990000  1.0 0.0994345022
H  H28  1  0.37910000  0.48960000  0.40590000  1.0 0.1266166557
H  H29  1  0.31930000  0.37220000  0.40450000  1.0 0.0994345022
H  H30  1  0.17490000  0.38960000  0.41720000  1.0 0.0932259131
H  H31  1  0.19850000  0.36890000  0.50570000  1.0 0.0932259131
H  H32  1  0.34780000  0.38910000  0.50560000  1.0 0.0932259131
H  H33  1  0.32630000  0.27240000  0.43760000  1.0 0.1156106803
H  H34  1  0.39580000  0.26970000  0.49420000  1.0 0.1072914217
H  H35  1  0.13130000  0.24870000  0.47510000  1.0 0.0994345022
H  H36  1  0.18880000  0.25730000  0.53350000  1.0 0.0932259131
H  H37  1  0.80310000  0.99670000  0.78790000  1.0 0.2611504707
H  H38  1  0.73340000  0.06150000  0.80440000  1.0 0.2716811706
H  H39  1  0.66710000  0.99190000  0.80380000  1.0 0.2716811706
H  H40  1  0.82890000  0.36290000  0.00530000  1.0 0.2716811706
H  H41  1  0.69760000  0.34510000  0.02290000  1.0 0.2611504707
H  H42  1  0.72720000  0.34990000  0.96570000  1.0 0.2874893684
H  H43  1  0.79870000  0.95060000  0.86590000  1.0 0.0994345022
H  H44  1  0.86450000  0.02600000  0.86730000  1.0 0.0932259131
H  H45  1  0.74280000  0.98690000  0.93990000  1.0 0.0994345022
H  H46  1  0.62090000  0.01040000  0.90590000  1.0 0.1266166557
H  H47  1  0.68070000  0.12780000  0.90450000  1.0 0.0994345022
H  H48  1  0.82510000  0.11040000  0.91720000  1.0 0.0932259131
H  H49  1  0.80150000  0.13110000  0.00570000  1.0 0.0932259131
H  H50  1  0.65220000  0.11090000  0.00560000  1.0 0.0932259131
H  H51  1  0.67370000  0.22760000  0.93760000  1.0 0.1156106803
H  H52  1  0.60420000  0.23030000  0.99420000  1.0 0.1072914217
H  H53  1  0.86870000  0.25130000  0.97510000  1.0 0.0994345022
H  H54  1  0.81120000  0.24270000  0.03350000  1.0 0.0932259131
H  H55  1  0.80310000  0.00330000  0.21210000  1.0 0.2611504707
H  H56  1  0.73340000  0.93850000  0.19560000  1.0 0.2765523482
H  H57  1  0.66710000  0.00810000  0.19620000  1.0 0.2716811706
H  H58  1  0.82890000  0.63710000  0.99470000  1.0 0.2716811706
H  H59  1  0.69760000  0.65490000  0.97710000  1.0 0.2611504707
H  H60  1  0.72720000  0.65010000  0.03430000  1.0 0.2874893684
H  H61  1  0.79870000  0.04940000  0.13410000  1.0 0.0994345022
H  H62  1  0.86450000  0.97400000  0.13270000  1.0 0.0932259131
H  H63  1  0.74280000  0.01310000  0.06010000  1.0 0.0994345022
H  H64  1  0.62090000  0.98960000  0.09410000  1.0 0.1266166557
H  H65  1  0.68070000  0.87220000  0.09550000  1.0 0.0994345022
H  H66  1  0.82510000  0.88960000  0.08280000  1.0 0.0932259131
H  H67  1  0.80150000  0.86890000  0.99430000  1.0 0.0932259131
H  H68  1  0.65220000  0.88910000  0.99440000  1.0 0.0932259131
H  H69  1  0.67370000  0.77240000  0.06240000  1.0 0.1156106803
H  H70  1  0.60420000  0.76970000  0.00580000  1.0 0.1072914217
H  H71  1  0.86870000  0.74870000  0.02490000  1.0 0.0994345022
H  H72  1  0.81120000  0.75730000  0.96650000  1.0 0.0932259131
C  C1  1  0.21920000  0.50210000  0.63630000  1.0 -0.0122498737
C  C2  1  0.28700000  0.51870000  0.58880000  1.0 -0.2024761002
C  C3  1  0.26400000  0.59960000  0.57190000  1.0 -0.1302199859
C  C4  1  0.27900000  0.63500000  0.51450000  1.0 -0.1363657165
C  C5  1  0.31600000  0.71790000  0.52430000  1.0 -0.1778532613
C  C6  1  0.20800000  0.75890000  0.50280000  1.0 -0.0122498737
C  C7  1  0.21920000  0.49790000  0.36370000  1.0 -0.0122498737
C  C8  1  0.28700000  0.48130000  0.41120000  1.0 -0.2024761002
C  C9  1  0.26400000  0.40040000  0.42810000  1.0 -0.1302199859
C  C10  1  0.27900000  0.36500000  0.48550000  1.0 -0.1363657165
C  C11  1  0.31600000  0.28210000  0.47570000  1.0 -0.1778532613
C  C12  1  0.20800000  0.24110000  0.49720000  1.0 -0.0122498737
C  C13  1  0.78080000  0.00210000  0.86370000  1.0 -0.0122498737
C  C14  1  0.71300000  0.01870000  0.91120000  1.0 -0.2024761002
C  C15  1  0.73600000  0.09960000  0.92810000  1.0 -0.1302199859
C  C16  1  0.72100000  0.13500000  0.98550000  1.0 -0.1363657165
C  C17  1  0.68400000  0.21790000  0.97570000  1.0 -0.1778532613
C  C18  1  0.79200000  0.25890000  0.99720000  1.0 -0.0122498737
C  C19  1  0.78080000  0.99790000  0.13630000  1.0 -0.0122498737
C  C20  1  0.71300000  0.98130000  0.08880000  1.0 -0.2024761002
C  C21  1  0.73600000  0.90040000  0.07190000  1.0 -0.1302199859
C  C22  1  0.72100000  0.86500000  0.01450000  1.0 -0.1363657165
C  C23  1  0.68400000  0.78210000  0.02430000  1.0 -0.1778532613
C  C24  1  0.79200000  0.74110000  0.00280000  1.0 -0.0122498737
N  N1  1  0.25740000  0.51420000  0.69000000  1.0 -0.411219136
N  N2  1  0.24200000  0.83700000  0.50220000  1.0 -0.411219136
N  N3  1  0.25740000  0.48580000  0.31000000  1.0 -0.411219136
N  N4  1  0.24200000  0.16300000  0.49780000  1.0 -0.411219136
N  N5  1  0.74260000  0.01420000  0.81000000  1.0 -0.411219136
N  N6  1  0.75800000  0.33700000  0.99780000  1.0 -0.411219136
N  N7  1  0.74260000  0.98580000  0.19000000  1.0 -0.411219136
N  N8  1  0.75800000  0.66300000  0.00220000  1.0 -0.411219136
O  O1  1  0.13250000  0.08750000  0.29264000  1.0 -0.6491429817
O  O2  1  0.13250000  0.91250000  0.70736000  1.0 -0.6491429817
O  O3  1  0.86750000  0.58750000  0.20736000  1.0 -0.6491429817
O  O4  1  0.86750000  0.41250000  0.79264000  1.0 -0.6491429817
O  O5  1  0.23850000  0.06720000  0.20459000  1.0 -0.7196684852
O  O6  1  0.23850000  0.93280000  0.79541000  1.0 -0.7196684852
O  O7  1  0.76150000  0.56720000  0.29541000  1.0 -0.7196684852
O  O8  1  0.76150000  0.43280000  0.70459000  1.0 -0.7196684852
O  O9  1  0.04090000  0.99250000  0.23190000  1.0 -0.7279152633
O  O10  1  0.04090000  0.00750000  0.76810000  1.0 -0.7279152633
O  O11  1  0.95910000  0.49250000  0.26810000  1.0 -0.7279152633
O  O12  1  0.95910000  0.50750000  0.73190000  1.0 -0.7279152633
O  O13  1  0.01740000  0.12130000  0.20348000  1.0 -0.7144690465
O  O14  1  0.01740000  0.87870000  0.79652000  1.0 -0.7196684852
O  O15  1  0.98260000  0.62130000  0.29652000  1.0 -0.7196684852
O  O16  1  0.98260000  0.37870000  0.70348000  1.0 -0.7196684852
O  O17  1  0.53450000  0.90600000  0.49610000  1.0 -0.7801702265
O  O18  1  0.53450000  0.09400000  0.50390000  1.0 -0.7801702265
O  O19  1  0.46550000  0.40600000  0.00390000  1.0 -0.7801702265
O  O20  1  0.46550000  0.59400000  0.99610000  1.0 -0.7691465896
O  O21  1  0.58010000  0.98160000  0.41230000  1.0 -0.7801702265
O  O22  1  0.58010000  0.01840000  0.58770000  1.0 -0.7801702265
O  O23  1  0.41990000  0.48160000  0.08770000  1.0 -0.7801702265
O  O24  1  0.41990000  0.51840000  0.91230000  1.0 -0.7801702265
O  O25  1  0.72310000  0.87400000  0.43475000  1.0 -0.7801702265
O  O26  1  0.72310000  0.12600000  0.56525000  1.0 -0.7801702265
O  O27  1  0.27690000  0.37400000  0.06525000  1.0 -0.7801702265
O  O28  1  0.27690000  0.62600000  0.93475000  1.0 -0.7801702265
O  O29  1  0.49260000  0.85540000  0.40774000  1.0 -0.7196684852
O  O30  1  0.49260000  0.14460000  0.59226000  1.0 -0.7196684852
O  O31  1  0.50740000  0.35540000  0.09226000  1.0 -0.7196684852
O  O32  1  0.50740000  0.64460000  0.90774000  1.0 -0.7196684852
O  O33  1  0.01210000  0.13360000  0.40472000  1.0 -0.6005180191
O  O34  1  0.01210000  0.86640000  0.59528000  1.0 -0.6005180191
O  O35  1  0.98790000  0.63360000  0.09528000  1.0 -0.6005180191
O  O36  1  0.98790000  0.36640000  0.90472000  1.0 -0.6005180191
O  O37  1  0.77920000  0.11570000  0.42887000  1.0 -0.7422139755
O  O38  1  0.77920000  0.88430000  0.57113000  1.0 -0.7422139755
O  O39  1  0.22080000  0.61570000  0.07113000  1.0 -0.7422139755
O  O40  1  0.22080000  0.38430000  0.92887000  1.0 -0.7422139755
O  O41  1  0.92610000  0.00790000  0.41383000  1.0 -0.7691465896
O  O42  1  0.92610000  0.99210000  0.58617000  1.0 -0.7691465896
O  O43  1  0.07390000  0.50790000  0.08617000  1.0 -0.7691465896
O  O44  1  0.07390000  0.49210000  0.91383000  1.0 -0.7691465896
O  O45  1  0.96250000  0.09110000  0.49497000  1.0 -0.7607525729
O  O46  1  0.96250000  0.90890000  0.50503000  1.0 -0.7607525729
O  O47  1  0.03750000  0.59110000  0.00503000  1.0 -0.7607525729
O  O48  1  0.03750000  0.40890000  0.99497000  1.0 -0.7607525729
O  O49  1  0.48080000  0.85840000  0.20666000  1.0 -0.7422139755
O  O50  1  0.48080000  0.14160000  0.79334000  1.0 -0.7422139755
O  O51  1  0.51920000  0.35840000  0.29334000  1.0 -0.7422139755
O  O52  1  0.51920000  0.64160000  0.70666000  1.0 -0.7422139755
O  O53  1  0.36820000  0.89750000  0.29493000  1.0 -0.790573747
O  O54  1  0.36820000  0.10250000  0.70507000  1.0 -0.7801702265
O  O55  1  0.63180000  0.39750000  0.20507000  1.0 -0.7801702265
O  O56  1  0.63180000  0.60250000  0.79493000  1.0 -0.7801702265
O  O57  1  0.45840000  0.98830000  0.22914000  1.0 -0.7607525729
O  O58  1  0.45840000  0.01170000  0.77086000  1.0 -0.7607525729
O  O59  1  0.54160000  0.48830000  0.27086000  1.0 -0.7607525729
O  O60  1  0.54160000  0.51170000  0.72914000  1.0 -0.7607525729
O  O61  1  0.25860000  0.91220000  0.20673000  1.0 -0.7422139755
O  O62  1  0.25860000  0.08780000  0.79327000  1.0 -0.7422139755
O  O63  1  0.74140000  0.41220000  0.29327000  1.0 -0.7422139755
O  O64  1  0.74140000  0.58780000  0.70673000  1.0 -0.7422139755
O  O65  1  0.06860000  0.75530000  0.34360000  1.0 -0.7607525729
O  O66  1  0.06860000  0.24470000  0.65640000  1.0 -0.7607525729
O  O67  1  0.93140000  0.25530000  0.15640000  1.0 -0.7607525729
O  O68  1  0.93140000  0.74470000  0.84360000  1.0 -0.7607525729
O  O69  1  0.99740000  0.85040000  0.40612000  1.0 -0.7607525729
O  O70  1  0.99740000  0.14960000  0.59388000  1.0 -0.7607525729
O  O71  1  0.00260000  0.35040000  0.09388000  1.0 -0.7607525729
O  O72  1  0.00260000  0.64960000  0.90612000  1.0 -0.7607525729
O  O73  1  0.23320000  0.84540000  0.37986000  1.0 -0.7691465896
O  O74  1  0.23320000  0.15460000  0.62014000  1.0 -0.7691465896
O  O75  1  0.76680000  0.34540000  0.12014000  1.0 -0.7691465896
O  O76  1  0.76680000  0.65460000  0.87986000  1.0 -0.7691465896
O  O77  1  0.06220000  0.88880000  0.31410000  1.0 -0.790573747
O  O78  1  0.06220000  0.11120000  0.68590000  1.0 -0.790573747
O  O79  1  0.93780000  0.38880000  0.18590000  1.0 -0.790573747
O  O80  1  0.93780000  0.61120000  0.81410000  1.0 -0.790573747
O  O81  1  0.44100000  0.09360000  0.30957000  1.0 -0.7801702265
O  O82  1  0.44100000  0.90640000  0.69043000  1.0 -0.7801702265
O  O83  1  0.55900000  0.59360000  0.19043000  1.0 -0.7801702265
O  O84  1  0.55900000  0.40640000  0.80957000  1.0 -0.7801702265
O  O85  1  0.42820000  0.22740000  0.33869000  1.0 -0.7691465896
O  O86  1  0.42820000  0.77260000  0.66131000  1.0 -0.7691465896
O  O87  1  0.57180000  0.72740000  0.16131000  1.0 -0.7691465896
O  O88  1  0.57180000  0.27260000  0.83869000  1.0 -0.7691465896
O  O89  1  0.27920000  0.13530000  0.37920000  1.0 -0.7607525729
O  O90  1  0.27920000  0.86470000  0.62080000  1.0 -0.7607525729
O  O91  1  0.72080000  0.63530000  0.12080000  1.0 -0.7607525729
O  O92  1  0.72080000  0.36470000  0.87920000  1.0 -0.7607525729
O  O93  1  0.52300000  0.13530000  0.39840000  1.0 -0.7279152633
O  O94  1  0.52300000  0.86470000  0.60160000  1.0 -0.7279152633
O  O95  1  0.47700000  0.63530000  0.10160000  1.0 -0.7279152633
O  O96  1  0.47700000  0.36470000  0.89840000  1.0 -0.7279152633
O  O97  1  0.38900000  0.73060000  0.34919000  1.0 -0.7607525729
O  O98  1  0.38900000  0.26940000  0.65081000  1.0 -0.7607525729
O  O99  1  0.61100000  0.23060000  0.15081000  1.0 -0.7607525729
O  O100  1  0.61100000  0.76940000  0.84919000  1.0 -0.7607525729
O  O101  1  0.41600000  0.72570000  0.24858000  1.0 -0.7691465896
O  O102  1  0.41600000  0.27430000  0.75142000  1.0 -0.7691465896
O  O103  1  0.58400000  0.22570000  0.25142000  1.0 -0.7691465896
O  O104  1  0.58400000  0.77430000  0.74858000  1.0 -0.7691465896
O  O105  1  0.46420000  0.61570000  0.30702000  1.0 -0.7546916019
O  O106  1  0.46420000  0.38430000  0.69298000  1.0 -0.7546916019
O  O107  1  0.53580000  0.11570000  0.19298000  1.0 -0.7546916019
O  O108  1  0.53580000  0.88430000  0.80702000  1.0 -0.7546916019
O  O109  1  0.23630000  0.65600000  0.29240000  1.0 -0.7196684852
O  O110  1  0.23630000  0.34400000  0.70760000  1.0 -0.7196684852
O  O111  1  0.76370000  0.15600000  0.20760000  1.0 -0.7196684852
O  O112  1  0.76370000  0.84400000  0.79240000  1.0 -0.7196684852
O  O113  1  0.26440000  0.32580000  0.28435000  1.0 -0.7196684852
O  O114  1  0.26440000  0.67420000  0.71565000  1.0 -0.7279152633
O  O115  1  0.73560000  0.82580000  0.21565000  1.0 -0.7279152633
O  O116  1  0.73560000  0.17420000  0.78435000  1.0 -0.7279152633
O  O117  1  0.11650000  0.25140000  0.34378000  1.0 -0.6232922982
O  O118  1  0.11650000  0.74860000  0.65622000  1.0 -0.627005012
O  O119  1  0.88350000  0.75140000  0.15622000  1.0 -0.627005012
O  O120  1  0.88350000  0.24860000  0.84378000  1.0 -0.6232922982
O  O121  1  0.03680000  0.36420000  0.30132000  1.0 -0.7196684852
O  O122  1  0.03680000  0.63580000  0.69868000  1.0 -0.7196684852
O  O123  1  0.96320000  0.86420000  0.19868000  1.0 -0.7279152633
O  O124  1  0.96320000  0.13580000  0.80132000  1.0 -0.7196684852
O  O125  1  0.08190000  0.25320000  0.24364000  1.0 -0.7691465896
O  O126  1  0.08190000  0.74680000  0.75636000  1.0 -0.7691465896
O  O127  1  0.91810000  0.75320000  0.25636000  1.0 -0.7691465896
O  O128  1  0.91810000  0.24680000  0.74364000  1.0 -0.7607525729
O  O129  1  0.91000000  0.16840000  0.30167000  1.0 -0.5834084462
O  O130  1  0.91000000  0.83160000  0.69833000  1.0 -0.5834084462
O  O131  1  0.09000000  0.66840000  0.19833000  1.0 -0.5834084462
O  O132  1  0.09000000  0.33160000  0.80167000  1.0 -0.5834084462
F  F1  1  0.16630000  0.79102000  0.24538000  1.0 -0.469524325
F  F2  1  0.16630000  0.20898000  0.75462000  1.0 -0.469524325
F  F3  1  0.83370000  0.29102000  0.25462000  1.0 -0.469524325
F  F4  1  0.83370000  0.70898000  0.74538000  1.0 -0.469524325
F  F5  1  0.33440000  0.19063000  0.23872000  1.0 -0.5052968573
F  F6  1  0.33440000  0.80937000  0.76128000  1.0 -0.5052968573
F  F7  1  0.66560000  0.69063000  0.26128000  1.0 -0.5011190982
F  F8  1  0.66560000  0.30937000  0.73872000  1.0 -0.5052968573
F  F9  1  0.58020000  0.81480000  0.30635000  1.0 -0.5243293952
F  F10  1  0.58020000  0.18520000  0.69365000  1.0 -0.525373609
F  F11  1  0.41980000  0.31480000  0.19365000  1.0 -0.5243293952
F  F12  1  0.41980000  0.68520000  0.80635000  1.0 -0.525373609
F  F13  1  0.74050000  0.00000000  0.50000000  1.0 -0.5011190982
F  F14  1  0.25950000  0.50000000  0.00000000  1.0 -0.5011190982
