# DDEC6 charges by PACMAN v1.1 (https://github.com/mtap-research/PACMAN-charge/)
data_TUXBUL_ion_pacman
_symmetry_space_group_name_H-M   'P 1'
_cell_length_a   14.55430000
_cell_length_b   13.79320000
_cell_length_c   19.31890000
_cell_angle_alpha   90.00000000
_cell_angle_beta   106.46300000
_cell_angle_gamma   90.00000000
_symmetry_Int_Tables_number   1
_chemical_formula_structural   CdH28C20N9O5
_chemical_formula_sum   'Cd4 H112 C80 N36 O20'
_cell_volume   3719.27842562
_cell_formula_units_Z   4
loop_
 _symmetry_equiv_pos_site_id
 _symmetry_equiv_pos_as_xyz
  1  'x, y, z'
loop_
 _atom_site_type_symbol
 _atom_site_label
 _atom_site_symmetry_multiplicity
 _atom_site_fract_x
 _atom_site_fract_y
 _atom_site_fract_z
 _atom_site_occupancy
 _atom_site_charge
Cd  Cd1  1  0.73605000  0.98233000  0.21900000  1.0 0.7582567005
Cd  Cd2  1  0.26395000  0.48233000  0.28100000  1.0 0.7582567005
Cd  Cd3  1  0.26395000  0.01767000  0.78100000  1.0 0.7582567005
Cd  Cd4  1  0.73605000  0.51767000  0.71900000  1.0 0.7582567005
H  H1  1  0.48990000  0.46670000  0.36450000  1.0 0.2914286914
H  H2  1  0.51010000  0.96670000  0.13550000  1.0 0.2914286914
H  H3  1  0.35340000  0.75150000  0.24320000  1.0 0.141415805
H  H4  1  0.64660000  0.25150000  0.25680000  1.0 0.141415805
H  H5  1  0.31220000  0.66640000  0.18960000  1.0 0.1490561806
H  H6  1  0.68780000  0.16640000  0.31040000  1.0 0.1490561806
H  H7  1  0.39830000  0.72820000  0.18030000  1.0 0.1490561806
H  H8  1  0.60170000  0.22820000  0.31970000  1.0 0.1490561806
H  H9  1  0.66960000  0.45400000  0.36230000  1.0 0.1586206778
H  H10  1  0.33040000  0.95400000  0.13770000  1.0 0.1586206778
H  H11  1  0.68270000  0.54090000  0.41660000  1.0 0.1696324653
H  H12  1  0.31730000  0.04090000  0.08340000  1.0 0.1696324653
H  H13  1  0.71250000  0.55240000  0.34510000  1.0 0.1490561806
H  H14  1  0.28750000  0.05240000  0.15490000  1.0 0.1490561806
H  H15  1  0.72260000  0.37530000  0.11960000  1.0 0.1490561806
H  H16  1  0.27740000  0.87530000  0.38040000  1.0 0.1490561806
H  H17  1  0.80450000  0.35880000  0.08280000  1.0 0.1696324653
H  H18  1  0.19550000  0.85880000  0.41720000  1.0 0.1696324653
H  H19  1  0.82410000  0.42090000  0.15350000  1.0 0.1490561806
H  H20  1  0.17590000  0.92090000  0.34650000  1.0 0.1490561806
H  H21  1  0.02650000  0.10060000  0.28850000  1.0 0.141415805
H  H22  1  0.97350000  0.60060000  0.21150000  1.0 0.141415805
H  H23  1  0.94460000  0.04410000  0.30910000  1.0 0.1490561806
H  H24  1  0.05540000  0.54410000  0.19090000  1.0 0.1490561806
H  H25  1  0.98380000  0.14120000  0.34860000  1.0 0.1490561806
H  H26  1  0.01620000  0.64120000  0.15140000  1.0 0.1490561806
H  H27  1  0.60700000  0.91440000  0.32620000  1.0 0.1586206778
H  H28  1  0.39300000  0.41440000  0.17380000  1.0 0.1586206778
H  H29  1  0.54680000  0.82650000  0.34080000  1.0 0.1490561806
H  H30  1  0.45320000  0.32650000  0.15920000  1.0 0.1490561806
H  H31  1  0.50530000  0.89350000  0.27360000  1.0 0.141415805
H  H32  1  0.49470000  0.39350000  0.22640000  1.0 0.141415805
H  H33  1  0.72550000  0.76150000  0.16090000  1.0 0.2914286914
H  H34  1  0.27450000  0.26150000  0.33910000  1.0 0.2914286914
H  H35  1  0.09370000  0.47940000  0.35900000  1.0 0.2914286914
H  H36  1  0.90630000  0.97940000  0.14100000  1.0 0.2914286914
H  H37  1  0.71360000  0.18830000  0.13230000  1.0 0.2914286914
H  H38  1  0.28640000  0.68830000  0.36770000  1.0 0.2914286914
H  H39  1  0.89920000  0.48670000  0.34250000  1.0 0.1586206778
H  H40  1  0.10080000  0.98670000  0.15750000  1.0 0.1586206778
H  H41  1  0.94420000  0.41030000  0.40270000  1.0 0.1490561806
H  H42  1  0.05580000  0.91030000  0.09730000  1.0 0.1490561806
H  H43  1  0.86060000  0.37990000  0.33510000  1.0 0.1490561806
H  H44  1  0.13940000  0.87990000  0.16490000  1.0 0.1490561806
H  H45  1  0.09530000  0.21070000  0.19470000  1.0 0.1490561806
H  H46  1  0.90470000  0.71070000  0.30530000  1.0 0.1490561806
H  H47  1  0.16490000  0.29500000  0.18880000  1.0 0.141415805
H  H48  1  0.83510000  0.79500000  0.31120000  1.0 0.141415805
H  H49  1  0.05900000  0.29500000  0.13930000  1.0 0.1696324653
H  H50  1  0.94100000  0.79500000  0.36070000  1.0 0.1696324653
H  H51  1  0.69260000  0.58890000  0.13460000  1.0 0.1586206778
H  H52  1  0.30740000  0.08890000  0.36540000  1.0 0.1586206778
H  H53  1  0.61140000  0.54250000  0.16250000  1.0 0.1696324653
H  H54  1  0.38860000  0.04250000  0.33750000  1.0 0.1696324653
H  H55  1  0.71710000  0.54500000  0.21250000  1.0 0.1586206778
H  H56  1  0.28290000  0.04500000  0.28750000  1.0 0.1586206778
H  H57  1  0.51010000  0.53330000  0.63550000  1.0 0.2914286914
H  H58  1  0.48990000  0.03330000  0.86450000  1.0 0.2914286914
H  H59  1  0.64660000  0.24850000  0.75680000  1.0 0.141415805
H  H60  1  0.35340000  0.74850000  0.74320000  1.0 0.141415805
H  H61  1  0.68780000  0.33360000  0.81040000  1.0 0.1490561806
H  H62  1  0.31220000  0.83360000  0.68960000  1.0 0.1490561806
H  H63  1  0.60170000  0.27180000  0.81970000  1.0 0.1490561806
H  H64  1  0.39830000  0.77180000  0.68030000  1.0 0.1490561806
H  H65  1  0.33040000  0.54600000  0.63770000  1.0 0.1586206778
H  H66  1  0.66960000  0.04600000  0.86230000  1.0 0.1586206778
H  H67  1  0.31730000  0.45910000  0.58340000  1.0 0.1696324653
H  H68  1  0.68270000  0.95910000  0.91660000  1.0 0.1696324653
H  H69  1  0.28750000  0.44760000  0.65490000  1.0 0.1490561806
H  H70  1  0.71250000  0.94760000  0.84510000  1.0 0.1490561806
H  H71  1  0.27740000  0.62470000  0.88040000  1.0 0.1490561806
H  H72  1  0.72260000  0.12470000  0.61960000  1.0 0.1490561806
H  H73  1  0.19550000  0.64120000  0.91720000  1.0 0.1696324653
H  H74  1  0.80450000  0.14120000  0.58280000  1.0 0.1696324653
H  H75  1  0.17590000  0.57910000  0.84650000  1.0 0.1490561806
H  H76  1  0.82410000  0.07910000  0.65350000  1.0 0.1490561806
H  H77  1  0.97350000  0.89940000  0.71150000  1.0 0.141415805
H  H78  1  0.02650000  0.39940000  0.78850000  1.0 0.141415805
H  H79  1  0.05540000  0.95590000  0.69090000  1.0 0.1490561806
H  H80  1  0.94460000  0.45590000  0.80910000  1.0 0.1490561806
H  H81  1  0.01620000  0.85880000  0.65140000  1.0 0.1490561806
H  H82  1  0.98380000  0.35880000  0.84860000  1.0 0.1490561806
H  H83  1  0.39300000  0.08560000  0.67380000  1.0 0.1586206778
H  H84  1  0.60700000  0.58560000  0.82620000  1.0 0.1586206778
H  H85  1  0.45320000  0.17350000  0.65920000  1.0 0.1490561806
H  H86  1  0.54680000  0.67350000  0.84080000  1.0 0.1490561806
H  H87  1  0.49470000  0.10650000  0.72640000  1.0 0.141415805
H  H88  1  0.50530000  0.60650000  0.77360000  1.0 0.141415805
H  H89  1  0.27450000  0.23850000  0.83910000  1.0 0.2914286914
H  H90  1  0.72550000  0.73850000  0.66090000  1.0 0.2914286914
H  H91  1  0.90630000  0.52060000  0.64100000  1.0 0.2914286914
H  H92  1  0.09370000  0.02060000  0.85900000  1.0 0.2914286914
H  H93  1  0.28640000  0.81170000  0.86770000  1.0 0.2914286914
H  H94  1  0.71360000  0.31170000  0.63230000  1.0 0.2914286914
H  H95  1  0.10080000  0.51330000  0.65750000  1.0 0.1586206778
H  H96  1  0.89920000  0.01330000  0.84250000  1.0 0.1586206778
H  H97  1  0.05580000  0.58970000  0.59730000  1.0 0.1490561806
H  H98  1  0.94420000  0.08970000  0.90270000  1.0 0.1490561806
H  H99  1  0.13940000  0.62010000  0.66490000  1.0 0.1490561806
H  H100  1  0.86060000  0.12010000  0.83510000  1.0 0.1490561806
H  H101  1  0.90470000  0.78930000  0.80530000  1.0 0.141415805
H  H102  1  0.09530000  0.28930000  0.69470000  1.0 0.1490561806
H  H103  1  0.83510000  0.70500000  0.81120000  1.0 0.141415805
H  H104  1  0.16490000  0.20500000  0.68880000  1.0 0.141415805
H  H105  1  0.94100000  0.70500000  0.86070000  1.0 0.1696324653
H  H106  1  0.05900000  0.20500000  0.63930000  1.0 0.1696324653
H  H107  1  0.30740000  0.41110000  0.86540000  1.0 0.1586206778
H  H108  1  0.69260000  0.91110000  0.63460000  1.0 0.1586206778
H  H109  1  0.38860000  0.45750000  0.83750000  1.0 0.1696324653
H  H110  1  0.61140000  0.95750000  0.66250000  1.0 0.1696324653
H  H111  1  0.28290000  0.45500000  0.78750000  1.0 0.1586206778
H  H112  1  0.71710000  0.95500000  0.71250000  1.0 0.1586206778
C  C1  1  0.89624000  0.16255000  0.24787000  1.0 0.2097814698
C  C2  1  0.10376000  0.66255000  0.25213000  1.0 0.2097814698
C  C3  1  0.60670000  0.80034000  0.25950000  1.0 0.2097814698
C  C4  1  0.39330000  0.30034000  0.24050000  1.0 0.2097814698
C  C5  1  0.90350000  0.25951000  0.22689000  1.0 -0.1229631669
C  C6  1  0.09650000  0.75951000  0.27311000  1.0 -0.1229631669
C  C7  1  0.59717000  0.69946000  0.25021000  1.0 -0.1229631669
C  C8  1  0.40283000  0.19946000  0.24979000  1.0 -0.1229631669
C  C9  1  0.56840000  0.55843000  0.32828000  1.0 0.192059484
C  C10  1  0.43160000  0.05843000  0.17172000  1.0 0.192059484
C  C11  1  0.06979000  0.33413000  0.24184000  1.0 0.2097814698
C  C12  1  0.93021000  0.83413000  0.25816000  1.0 0.2097814698
C  C13  1  0.43769000  0.63255000  0.26248000  1.0 0.2000219629
C  C14  1  0.56231000  0.13255000  0.23752000  1.0 0.2000219629
C  C15  1  0.65131000  0.67495000  0.20481000  1.0 0.1818569272
C  C16  1  0.34869000  0.17495000  0.29519000  1.0 0.1818569272
C  C17  1  0.36937000  0.70068000  0.21464000  1.0 -0.4801102684
C  C18  1  0.63063000  0.20068000  0.28536000  1.0 -0.4801102684
C  C19  1  0.53733000  0.63354000  0.27985000  1.0 -0.1122615163
C  C20  1  0.46267000  0.13354000  0.22015000  1.0 -0.1122615163
C  C21  1  0.82043000  0.27766000  0.17200000  1.0 0.2000219629
C  C22  1  0.17957000  0.77766000  0.32800000  1.0 0.2000219629
C  C23  1  0.66717000  0.52326000  0.36649000  1.0 -0.471500144
C  C24  1  0.33283000  0.02326000  0.13351000  1.0 -0.471500144
C  C25  1  0.98769000  0.39269000  0.31309000  1.0 0.2000219629
C  C26  1  0.01231000  0.89269000  0.18691000  1.0 0.2000219629
C  C27  1  0.79028000  0.36585000  0.12814000  1.0 -0.471500144
C  C28  1  0.20972000  0.86585000  0.37186000  1.0 -0.471500144
C  C29  1  0.96927000  0.10721000  0.30346000  1.0 -0.4801102684
C  C30  1  0.03073000  0.60721000  0.19654000  1.0 -0.4801102684
C  C31  1  0.56246000  0.86448000  0.30405000  1.0 -0.4801102684
C  C32  1  0.43754000  0.36448000  0.19595000  1.0 -0.4801102684
C  C33  1  0.98274000  0.32647000  0.25846000  1.0 -0.1229631669
C  C34  1  0.01726000  0.82647000  0.24154000  1.0 -0.1229631669
C  C35  1  0.91664000  0.41978000  0.35178000  1.0 -0.4865347103
C  C36  1  0.08336000  0.91978000  0.14822000  1.0 -0.4865347103
C  C37  1  0.09991000  0.27885000  0.18628000  1.0 -0.4801102684
C  C38  1  0.90009000  0.77885000  0.31372000  1.0 -0.4801102684
C  C39  1  0.66973000  0.57941000  0.17605000  1.0 -0.471500144
C  C40  1  0.33027000  0.07941000  0.32395000  1.0 -0.471500144
C  C41  1  0.10376000  0.83745000  0.75213000  1.0 0.2097814698
C  C42  1  0.89624000  0.33745000  0.74787000  1.0 0.2097814698
C  C43  1  0.39330000  0.19966000  0.74050000  1.0 0.2097814698
C  C44  1  0.60670000  0.69966000  0.75950000  1.0 0.2097814698
C  C45  1  0.09650000  0.74049000  0.77311000  1.0 -0.1229631669
C  C46  1  0.90350000  0.24049000  0.72689000  1.0 -0.1229631669
C  C47  1  0.40283000  0.30054000  0.74979000  1.0 -0.1229631669
C  C48  1  0.59717000  0.80054000  0.75021000  1.0 -0.1229631669
C  C49  1  0.43160000  0.44157000  0.67172000  1.0 0.192059484
C  C50  1  0.56840000  0.94157000  0.82828000  1.0 0.192059484
C  C51  1  0.93021000  0.66587000  0.75816000  1.0 0.2097814698
C  C52  1  0.06979000  0.16587000  0.74184000  1.0 0.2097814698
C  C53  1  0.56231000  0.36745000  0.73752000  1.0 0.2000219629
C  C54  1  0.43769000  0.86745000  0.76248000  1.0 0.2000219629
C  C55  1  0.34869000  0.32505000  0.79519000  1.0 0.1818569272
C  C56  1  0.65131000  0.82505000  0.70481000  1.0 0.1818569272
C  C57  1  0.63063000  0.29932000  0.78536000  1.0 -0.4801102684
C  C58  1  0.36937000  0.79932000  0.71464000  1.0 -0.4801102684
C  C59  1  0.46267000  0.36646000  0.72015000  1.0 -0.1122615163
C  C60  1  0.53733000  0.86646000  0.77985000  1.0 -0.1122615163
C  C61  1  0.17957000  0.72234000  0.82800000  1.0 0.2000219629
C  C62  1  0.82043000  0.22234000  0.67200000  1.0 0.2000219629
C  C63  1  0.33283000  0.47674000  0.63351000  1.0 -0.471500144
C  C64  1  0.66717000  0.97674000  0.86649000  1.0 -0.471500144
C  C65  1  0.01231000  0.60731000  0.68691000  1.0 0.2000219629
C  C66  1  0.98769000  0.10731000  0.81309000  1.0 0.2000219629
C  C67  1  0.20972000  0.63415000  0.87186000  1.0 -0.471500144
C  C68  1  0.79028000  0.13415000  0.62814000  1.0 -0.471500144
C  C69  1  0.03073000  0.89279000  0.69654000  1.0 -0.4801102684
C  C70  1  0.96927000  0.39279000  0.80346000  1.0 -0.4801102684
C  C71  1  0.43754000  0.13552000  0.69595000  1.0 -0.4801102684
C  C72  1  0.56246000  0.63552000  0.80405000  1.0 -0.4801102684
C  C73  1  0.01726000  0.67353000  0.74154000  1.0 -0.1229631669
C  C74  1  0.98274000  0.17353000  0.75846000  1.0 -0.1229631669
C  C75  1  0.08336000  0.58022000  0.64822000  1.0 -0.4865347103
C  C76  1  0.91664000  0.08022000  0.85178000  1.0 -0.4865347103
C  C77  1  0.90009000  0.72115000  0.81372000  1.0 -0.4801102684
C  C78  1  0.09991000  0.22115000  0.68628000  1.0 -0.4801102684
C  C79  1  0.33027000  0.42059000  0.82395000  1.0 -0.471500144
C  C80  1  0.66973000  0.92059000  0.67605000  1.0 -0.471500144
N  N1  1  0.48921000  0.51592000  0.33701000  1.0 -0.1229631669
N  N2  1  0.51079000  0.01592000  0.16299000  1.0 -0.1229631669
N  N3  1  0.66289000  0.83549000  0.22158000  1.0 -0.2491226078
N  N4  1  0.33711000  0.33549000  0.27842000  1.0 -0.2491226078
N  N5  1  0.68895000  0.75806000  0.18881000  1.0 -0.1277881702
N  N6  1  0.31105000  0.25806000  0.31119000  1.0 -0.1277881702
N  N7  1  0.12684000  0.40012000  0.28431000  1.0 -0.2681058676
N  N8  1  0.87316000  0.90012000  0.21569000  1.0 -0.2681058676
N  N9  1  0.07392000  0.43511000  0.32693000  1.0 -0.1277881702
N  N10  1  0.92608000  0.93511000  0.17307000  1.0 -0.1277881702
N  N11  1  0.40825000  0.56007000  0.29723000  1.0 -0.2491226078
N  N12  1  0.59175000  0.06007000  0.20277000  1.0 -0.2491226078
N  N13  1  0.81415000  0.12406000  0.20848000  1.0 -0.2577332587
N  N14  1  0.18585000  0.62406000  0.29152000  1.0 -0.2577332587
N  N15  1  0.76889000  0.19509000  0.16319000  1.0 -0.1277881702
N  N16  1  0.23111000  0.69509000  0.33681000  1.0 -0.1229631669
N  N17  1  0.51079000  0.48408000  0.66299000  1.0 -0.1229631669
N  N18  1  0.48921000  0.98408000  0.83701000  1.0 -0.1277881702
N  N19  1  0.33711000  0.16451000  0.77842000  1.0 -0.2491226078
N  N20  1  0.66289000  0.66451000  0.72158000  1.0 -0.2491226078
N  N21  1  0.31105000  0.24194000  0.81119000  1.0 -0.1277881702
N  N22  1  0.68895000  0.74194000  0.68881000  1.0 -0.1277881702
N  N23  1  0.87316000  0.59988000  0.71569000  1.0 -0.2681058676
N  N24  1  0.12684000  0.09988000  0.78431000  1.0 -0.2681058676
N  N25  1  0.92608000  0.56489000  0.67307000  1.0 -0.1277881702
N  N26  1  0.07392000  0.06489000  0.82693000  1.0 -0.1277881702
N  N27  1  0.59175000  0.43993000  0.70277000  1.0 -0.2491226078
N  N28  1  0.40825000  0.93993000  0.79723000  1.0 -0.2491226078
N  N29  1  0.18585000  0.87594000  0.79152000  1.0 -0.2577332587
N  N30  1  0.81415000  0.37594000  0.70848000  1.0 -0.2577332587
N  N31  1  0.23111000  0.80491000  0.83681000  1.0 -0.1277881702
N  N32  1  0.76889000  0.30491000  0.66319000  1.0 -0.1229631669
N  N33  1  0.85910000  0.25190000  0.93788000  1.0 0.6141528009
N  N34  1  0.14090000  0.75190000  0.56212000  1.0 0.6141528009
N  N35  1  0.14090000  0.74810000  0.06212000  1.0 0.6141528009
N  N36  1  0.85910000  0.24810000  0.43788000  1.0 0.6141528009
O  O1  1  0.77846000  0.99738000  0.34723000  1.0 -0.2854355009
O  O2  1  0.22154000  0.49738000  0.15277000  1.0 -0.2818623216
O  O3  1  0.68443000  0.98360000  0.08413000  1.0 -0.5458010466
O  O4  1  0.31557000  0.48360000  0.41587000  1.0 -0.5429360898
O  O5  1  0.22154000  0.00262000  0.65277000  1.0 -0.2818623216
O  O6  1  0.77846000  0.50262000  0.84723000  1.0 -0.2818623216
O  O7  1  0.31557000  0.01640000  0.91587000  1.0 -0.5429360898
O  O8  1  0.68443000  0.51640000  0.58413000  1.0 -0.5458010466
O  O9  1  0.92936000  0.23670000  0.00216000  1.0 -0.349472198
O  O10  1  0.85634000  0.35318000  0.94803000  1.0 -0.3840949864
O  O11  1  0.78694000  0.20755000  0.96467000  1.0 -0.4223223136
O  O12  1  0.07064000  0.73670000  0.49784000  1.0 -0.349472198
O  O13  1  0.14366000  0.85318000  0.55197000  1.0 -0.3873122962
O  O14  1  0.21306000  0.70755000  0.53533000  1.0 -0.4223223136
O  O15  1  0.07064000  0.76330000  0.99784000  1.0 -0.349472198
O  O16  1  0.14366000  0.64682000  0.05197000  1.0 -0.3873122962
O  O17  1  0.21306000  0.79245000  0.03533000  1.0 -0.4223223136
O  O18  1  0.92936000  0.26330000  0.50216000  1.0 -0.349472198
O  O19  1  0.85634000  0.14682000  0.44803000  1.0 -0.3840949864
O  O20  1  0.78694000  0.29245000  0.46467000  1.0 -0.4223223136
