# DDEC6 charges by PACMAN v1.1 (https://github.com/mtap-research/PACMAN-charge/)
data_TUXVUG_ASR_pacman
_symmetry_space_group_name_H-M   'P 1'
_cell_length_a   7.26740000
_cell_length_b   23.65710000
_cell_length_c   10.22090000
_cell_angle_alpha   90.00000000
_cell_angle_beta   133.43100000
_cell_angle_gamma   90.00000000
_symmetry_Int_Tables_number   1
_chemical_formula_structural   MnH6C8(NO2)2
_chemical_formula_sum   'Mn4 H24 C32 N8 O16'
_cell_volume   1276.10860506
_cell_formula_units_Z   4
loop_
 _symmetry_equiv_pos_site_id
 _symmetry_equiv_pos_as_xyz
  1  'x, y, z'
loop_
 _atom_site_type_symbol
 _atom_site_label
 _atom_site_symmetry_multiplicity
 _atom_site_fract_x
 _atom_site_fract_y
 _atom_site_fract_z
 _atom_site_occupancy
 _atom_site_charge
Mn  Mn1  1  0.52600000  0.71435000  0.14032000  1.0 0.9563056584
Mn  Mn2  1  0.47400000  0.21435000  0.35968000  1.0 0.9563056584
Mn  Mn3  1  0.47400000  0.28565000  0.85968000  1.0 0.9563056584
Mn  Mn4  1  0.52600000  0.78565000  0.64032000  1.0 0.9563056584
H  H1  1  0.40700000  0.59300000  0.96000000  1.0 0.1136599238
H  H2  1  0.57170000  0.52290000  0.90720000  1.0 0.1271844189
H  H3  1  0.19930000  0.61370000  0.17950000  1.0 0.1489167268
H  H4  1  0.01690000  0.68110000  0.22050000  1.0 0.1271844189
H  H5  1  0.81970000  0.62590000  0.65080000  1.0 0.1615781318
H  H6  1  0.62050000  0.64830000  0.65470000  1.0 0.1615781318
H  H7  1  0.59300000  0.09300000  0.54000000  1.0 0.1136599238
H  H8  1  0.42830000  0.02290000  0.59280000  1.0 0.1271844189
H  H9  1  0.80070000  0.11370000  0.32050000  1.0 0.1489167268
H  H10  1  0.98310000  0.18110000  0.27950000  1.0 0.1271844189
H  H11  1  0.18030000  0.12590000  0.84920000  1.0 0.1615781318
H  H12  1  0.37950000  0.14830000  0.84530000  1.0 0.1615781318
H  H13  1  0.59300000  0.40700000  0.04000000  1.0 0.1136599238
H  H14  1  0.42830000  0.47710000  0.09280000  1.0 0.1271844189
H  H15  1  0.80070000  0.38630000  0.82050000  1.0 0.1489167268
H  H16  1  0.98310000  0.31890000  0.77950000  1.0 0.1271844189
H  H17  1  0.18030000  0.37410000  0.34920000  1.0 0.1615781318
H  H18  1  0.37950000  0.35170000  0.34530000  1.0 0.1615781318
H  H19  1  0.40700000  0.90700000  0.46000000  1.0 0.1136599238
H  H20  1  0.57170000  0.97710000  0.40720000  1.0 0.1271844189
H  H21  1  0.19930000  0.88630000  0.67950000  1.0 0.1489167268
H  H22  1  0.01690000  0.81890000  0.72050000  1.0 0.1271844189
H  H23  1  0.81970000  0.87410000  0.15080000  1.0 0.1615781318
H  H24  1  0.62050000  0.85170000  0.15470000  1.0 0.1615781318
C  C1  1  0.56960000  0.59740000  0.00590000  1.0 0.0915189543
C  C2  1  0.66710000  0.55490000  0.97330000  1.0 -0.2083087993
C  C3  1  0.90790000  0.56140000  0.04120000  1.0 0.1662154402
C  C4  1  0.03680000  0.60821000  0.13290000  1.0 -0.1714279001
C  C5  1  0.92540000  0.64838000  0.15780000  1.0 0.0915189543
C  C6  1  0.94780000  0.69539000  0.81420000  1.0 0.6703691985
C  C7  1  0.74340000  0.65977000  0.64940000  1.0 -0.5148259495
C  C8  1  0.60790000  0.69172000  0.47420000  1.0 0.6703691985
C  C9  1  0.43040000  0.09740000  0.49410000  1.0 0.0915189543
C  C10  1  0.33290000  0.05490000  0.52670000  1.0 -0.2083087993
C  C11  1  0.09210000  0.06140000  0.45880000  1.0 0.1662154402
C  C12  1  0.96320000  0.10821000  0.36710000  1.0 -0.1714279001
C  C13  1  0.07460000  0.14838000  0.34220000  1.0 0.0915189543
C  C14  1  0.05220000  0.19539000  0.68580000  1.0 0.6703691985
C  C15  1  0.25660000  0.15977000  0.85060000  1.0 -0.5148259495
C  C16  1  0.39210000  0.19172000  0.02580000  1.0 0.6703691985
C  C17  1  0.43040000  0.40260000  0.99410000  1.0 0.0915189543
C  C18  1  0.33290000  0.44510000  0.02670000  1.0 -0.2083087993
C  C19  1  0.09210000  0.43860000  0.95880000  1.0 0.1662154402
C  C20  1  0.96320000  0.39179000  0.86710000  1.0 -0.1714279001
C  C21  1  0.07460000  0.35162000  0.84220000  1.0 0.0915189543
C  C22  1  0.05220000  0.30461000  0.18580000  1.0 0.6703691985
C  C23  1  0.25660000  0.34023000  0.35060000  1.0 -0.5148259495
C  C24  1  0.39210000  0.30828000  0.52580000  1.0 0.6703691985
C  C25  1  0.56960000  0.90260000  0.50590000  1.0 0.0915189543
C  C26  1  0.66710000  0.94510000  0.47330000  1.0 -0.2083087993
C  C27  1  0.90790000  0.93860000  0.54120000  1.0 0.1662154402
C  C28  1  0.03680000  0.89179000  0.63290000  1.0 -0.1714279001
C  C29  1  0.92540000  0.85162000  0.65780000  1.0 0.0915189543
C  C30  1  0.94780000  0.80461000  0.31420000  1.0 0.6703691985
C  C31  1  0.74340000  0.84023000  0.14940000  1.0 -0.5148259495
C  C32  1  0.60790000  0.80828000  0.97420000  1.0 0.6703691985
N  N1  1  0.69590000  0.64339000  0.09800000  1.0 -0.2168650535
N  N2  1  0.05290000  0.52155000  0.02070000  1.0 -0.0709682816
N  N3  1  0.30410000  0.14339000  0.40200000  1.0 -0.2168650535
N  N4  1  0.94710000  0.02155000  0.47930000  1.0 -0.0709682816
N  N5  1  0.30410000  0.35661000  0.90200000  1.0 -0.2168650535
N  N6  1  0.94710000  0.47845000  0.97930000  1.0 -0.0709682816
N  N7  1  0.69590000  0.85661000  0.59800000  1.0 -0.2168650535
N  N8  1  0.05290000  0.97845000  0.52070000  1.0 -0.0709682816
O  O1  1  0.61830000  0.67161000  0.36530000  1.0 -0.5696078484
O  O2  1  0.49090000  0.73644000  0.44630000  1.0 -0.5850047116
O  O3  1  0.88610000  0.74285000  0.83210000  1.0 -0.5797827636
O  O4  1  0.16700000  0.67543000  0.92460000  1.0 -0.5696078484
O  O5  1  0.38170000  0.17161000  0.13470000  1.0 -0.5696078484
O  O6  1  0.50910000  0.23644000  0.05370000  1.0 -0.5850047116
O  O7  1  0.11390000  0.24285000  0.66790000  1.0 -0.5797827636
O  O8  1  0.83300000  0.17543000  0.57540000  1.0 -0.5696078484
O  O9  1  0.38170000  0.32839000  0.63470000  1.0 -0.5696078484
O  O10  1  0.50910000  0.26356000  0.55370000  1.0 -0.5850047116
O  O11  1  0.11390000  0.25715000  0.16790000  1.0 -0.5797827636
O  O12  1  0.83300000  0.32457000  0.07540000  1.0 -0.5696078484
O  O13  1  0.61830000  0.82839000  0.86530000  1.0 -0.5696078484
O  O14  1  0.49090000  0.76356000  0.94630000  1.0 -0.5850047116
O  O15  1  0.88610000  0.75715000  0.33210000  1.0 -0.5797827636
O  O16  1  0.16700000  0.82457000  0.42460000  1.0 -0.5696078484
