# DDEC6 charges by PACMAN v1.1 (https://github.com/mtap-research/PACMAN-charge/)
data_TUYLIJ_FSR_pacman
_symmetry_space_group_name_H-M   'P 1'
_cell_length_a   9.99490000
_cell_length_b   15.82290000
_cell_length_c   18.19630000
_cell_angle_alpha   90.00000000
_cell_angle_beta   90.00000000
_cell_angle_gamma   90.00000000
_symmetry_Int_Tables_number   1
_chemical_formula_structural   Al3P3(O6F)2
_chemical_formula_sum   'Al24 P24 O96 F16'
_cell_volume   2877.71396970
_cell_formula_units_Z   8
loop_
 _symmetry_equiv_pos_site_id
 _symmetry_equiv_pos_as_xyz
  1  'x, y, z'
loop_
 _atom_site_type_symbol
 _atom_site_label
 _atom_site_symmetry_multiplicity
 _atom_site_fract_x
 _atom_site_fract_y
 _atom_site_fract_z
 _atom_site_occupancy
 _atom_site_charge
Al  Al1  1  0.68470000  0.03750000  0.71770000  1.0 1.7833263684
Al  Al2  1  0.31530000  0.46250000  0.21770000  1.0 1.7881793786
Al  Al3  1  0.18470000  0.96250000  0.78230000  1.0 1.7833263684
Al  Al4  1  0.81530000  0.53750000  0.28230000  1.0 1.7833263684
Al  Al5  1  0.31530000  0.96250000  0.28230000  1.0 1.7833263684
Al  Al6  1  0.68470000  0.53750000  0.78230000  1.0 1.7833263684
Al  Al7  1  0.81530000  0.03750000  0.21770000  1.0 1.7833263684
Al  Al8  1  0.18470000  0.46250000  0.71770000  1.0 1.7881793786
Al  Al9  1  0.83100000  0.85010000  0.67660000  1.0 1.8038395215
Al  Al10  1  0.16900000  0.64990000  0.17660000  1.0 1.8038395215
Al  Al11  1  0.33100000  0.14990000  0.82340000  1.0 1.8051100779
Al  Al12  1  0.66900000  0.35010000  0.32340000  1.0 1.8038395215
Al  Al13  1  0.16900000  0.14990000  0.32340000  1.0 1.8051100779
Al  Al14  1  0.83100000  0.35010000  0.82340000  1.0 1.8038395215
Al  Al15  1  0.66900000  0.85010000  0.17660000  1.0 1.8038395215
Al  Al16  1  0.33100000  0.64990000  0.67660000  1.0 1.8051100779
Al  Al17  1  0.65770000  0.00970000  0.90600000  1.0 1.7620454687
Al  Al18  1  0.34230000  0.49030000  0.40600000  1.0 1.7620454687
Al  Al19  1  0.15770000  0.99030000  0.59400000  1.0 1.7620454687
Al  Al20  1  0.84230000  0.50970000  0.09400000  1.0 1.7620454687
Al  Al21  1  0.34230000  0.99030000  0.09400000  1.0 1.7620454687
Al  Al22  1  0.65770000  0.50970000  0.59400000  1.0 1.7620454687
Al  Al23  1  0.84230000  0.00970000  0.40600000  1.0 1.7620454687
Al  Al24  1  0.15770000  0.49030000  0.90600000  1.0 1.7620454687
P  P1  1  0.85930000  0.00930000  0.57729000  1.0 1.5704154778
P  P2  1  0.14070000  0.49070000  0.07729000  1.0 1.5704154778
P  P3  1  0.35930000  0.99070000  0.92271000  1.0 1.5704154778
P  P4  1  0.64070000  0.50930000  0.42271000  1.0 1.5704154778
P  P5  1  0.14070000  0.99070000  0.42271000  1.0 1.5704154778
P  P6  1  0.85930000  0.50930000  0.92271000  1.0 1.5704154778
P  P7  1  0.64070000  0.00930000  0.07729000  1.0 1.5704154778
P  P8  1  0.35930000  0.49070000  0.57729000  1.0 1.5704154778
P  P9  1  0.64580000  0.18360000  0.83007000  1.0 1.5791958529
P  P10  1  0.35420000  0.31640000  0.33007000  1.0 1.5791958529
P  P11  1  0.14580000  0.81640000  0.66993000  1.0 1.5791958529
P  P12  1  0.85420000  0.68360000  0.16993000  1.0 1.5791958529
P  P13  1  0.35420000  0.81640000  0.16993000  1.0 1.5791958529
P  P14  1  0.64580000  0.68360000  0.66993000  1.0 1.5791958529
P  P15  1  0.85420000  0.18360000  0.33007000  1.0 1.5791958529
P  P16  1  0.14580000  0.31640000  0.83007000  1.0 1.5791958529
P  P17  1  0.88410000  0.94270000  0.81452000  1.0 1.5577953715
P  P18  1  0.11590000  0.55730000  0.31452000  1.0 1.5577953715
P  P19  1  0.38410000  0.05730000  0.68548000  1.0 1.5577953715
P  P20  1  0.61590000  0.44270000  0.18548000  1.0 1.5577953715
P  P21  1  0.11590000  0.05730000  0.18548000  1.0 1.5577953715
P  P22  1  0.88410000  0.44270000  0.68548000  1.0 1.5577953715
P  P23  1  0.61590000  0.94270000  0.31452000  1.0 1.5577953715
P  P24  1  0.38410000  0.55730000  0.81452000  1.0 1.5577953715
O  O1  1  0.00460000  0.04190000  0.57260000  1.0 -0.7704980787
O  O2  1  0.99540000  0.45810000  0.07260000  1.0 -0.7704980787
O  O3  1  0.50460000  0.95810000  0.92740000  1.0 -0.7704980787
O  O4  1  0.49540000  0.54190000  0.42740000  1.0 -0.7704980787
O  O5  1  0.99540000  0.95810000  0.42740000  1.0 -0.7704980787
O  O6  1  0.00460000  0.54190000  0.92740000  1.0 -0.7704980787
O  O7  1  0.49540000  0.04190000  0.07260000  1.0 -0.7704980787
O  O8  1  0.50460000  0.45810000  0.57260000  1.0 -0.7704980787
O  O9  1  0.79070000  0.01910000  0.50250000  1.0 -0.7313761305
O  O10  1  0.20930000  0.48090000  0.00250000  1.0 -0.7313761305
O  O11  1  0.29070000  0.98090000  0.99750000  1.0 -0.7313761305
O  O12  1  0.70930000  0.51910000  0.49750000  1.0 -0.7313761305
O  O13  1  0.20930000  0.98090000  0.49750000  1.0 -0.7313761305
O  O14  1  0.79070000  0.51910000  0.99750000  1.0 -0.7313761305
O  O15  1  0.70930000  0.01910000  0.00250000  1.0 -0.7313761305
O  O16  1  0.29070000  0.48090000  0.50250000  1.0 -0.7313761305
O  O17  1  0.86370000  0.91600000  0.60020000  1.0 -0.7978215705
O  O18  1  0.13630000  0.58400000  0.10020000  1.0 -0.7978215705
O  O19  1  0.36370000  0.08400000  0.89980000  1.0 -0.7978215705
O  O20  1  0.63630000  0.41600000  0.39980000  1.0 -0.7978215705
O  O21  1  0.13630000  0.08400000  0.39980000  1.0 -0.7978215705
O  O22  1  0.86370000  0.41600000  0.89980000  1.0 -0.7978215705
O  O23  1  0.63630000  0.91600000  0.10020000  1.0 -0.7978215705
O  O24  1  0.36370000  0.58400000  0.60020000  1.0 -0.7978215705
O  O25  1  0.78240000  0.06360000  0.63300000  1.0 -0.7313761305
O  O26  1  0.21760000  0.43640000  0.13300000  1.0 -0.7313761305
O  O27  1  0.28240000  0.93640000  0.86700000  1.0 -0.7313761305
O  O28  1  0.71760000  0.56360000  0.36700000  1.0 -0.7313761305
O  O29  1  0.21760000  0.93640000  0.36700000  1.0 -0.7313761305
O  O30  1  0.78240000  0.56360000  0.86700000  1.0 -0.7313761305
O  O31  1  0.71760000  0.06360000  0.13300000  1.0 -0.7313761305
O  O32  1  0.28240000  0.43640000  0.63300000  1.0 -0.7313761305
O  O33  1  0.72920000  0.26290000  0.84510000  1.0 -0.7421946616
O  O34  1  0.27080000  0.23710000  0.34510000  1.0 -0.7421946616
O  O35  1  0.22920000  0.73710000  0.65490000  1.0 -0.7421946616
O  O36  1  0.77080000  0.76290000  0.15490000  1.0 -0.7421946616
O  O37  1  0.27080000  0.73710000  0.15490000  1.0 -0.7421946616
O  O38  1  0.72920000  0.76290000  0.65490000  1.0 -0.7421946616
O  O39  1  0.77080000  0.26290000  0.34510000  1.0 -0.7421946616
O  O40  1  0.22920000  0.23710000  0.84510000  1.0 -0.7421946616
O  O41  1  0.68400000  0.14850000  0.75390000  1.0 -0.7704980787
O  O42  1  0.31600000  0.35150000  0.25390000  1.0 -0.7704980787
O  O43  1  0.18400000  0.85150000  0.74610000  1.0 -0.7704980787
O  O44  1  0.81600000  0.64850000  0.24610000  1.0 -0.7704980787
O  O45  1  0.31600000  0.85150000  0.24610000  1.0 -0.7704980787
O  O46  1  0.68400000  0.64850000  0.74610000  1.0 -0.7704980787
O  O47  1  0.81600000  0.14850000  0.25390000  1.0 -0.7704980787
O  O48  1  0.18400000  0.35150000  0.75390000  1.0 -0.7704980787
O  O49  1  0.68310000  0.12000000  0.89220000  1.0 -0.7704980787
O  O50  1  0.31690000  0.38000000  0.39220000  1.0 -0.7704980787
O  O51  1  0.18310000  0.88000000  0.60780000  1.0 -0.7704980787
O  O52  1  0.81690000  0.62000000  0.10780000  1.0 -0.7704980787
O  O53  1  0.31690000  0.88000000  0.10780000  1.0 -0.7704980787
O  O54  1  0.68310000  0.62000000  0.60780000  1.0 -0.7704980787
O  O55  1  0.81690000  0.12000000  0.39220000  1.0 -0.7704980787
O  O56  1  0.18310000  0.38000000  0.89220000  1.0 -0.7704980787
O  O57  1  0.49770000  0.20740000  0.83500000  1.0 -0.7421946616
O  O58  1  0.50230000  0.29260000  0.33500000  1.0 -0.7421946616
O  O59  1  0.99770000  0.79260000  0.66500000  1.0 -0.7421946616
O  O60  1  0.00230000  0.70740000  0.16500000  1.0 -0.7421946616
O  O61  1  0.50230000  0.79260000  0.16500000  1.0 -0.7421946616
O  O62  1  0.49770000  0.70740000  0.66500000  1.0 -0.7421946616
O  O63  1  0.00230000  0.20740000  0.33500000  1.0 -0.7421946616
O  O64  1  0.99770000  0.29260000  0.83500000  1.0 -0.7421946616
O  O65  1  0.79780000  0.94330000  0.88480000  1.0 -0.7313761305
O  O66  1  0.20220000  0.55670000  0.38480000  1.0 -0.7313761305
O  O67  1  0.29780000  0.05670000  0.61520000  1.0 -0.7313761305
O  O68  1  0.70220000  0.44330000  0.11520000  1.0 -0.7313761305
O  O69  1  0.20220000  0.05670000  0.11520000  1.0 -0.7313761305
O  O70  1  0.79780000  0.44330000  0.61520000  1.0 -0.7313761305
O  O71  1  0.70220000  0.94330000  0.38480000  1.0 -0.7313761305
O  O72  1  0.29780000  0.55670000  0.88480000  1.0 -0.7313761305
O  O73  1  0.85880000  0.85720000  0.77460000  1.0 -0.7704980787
O  O74  1  0.14120000  0.64280000  0.27460000  1.0 -0.7704980787
O  O75  1  0.35880000  0.14280000  0.72540000  1.0 -0.7704980787
O  O76  1  0.64120000  0.35720000  0.22540000  1.0 -0.7704980787
O  O77  1  0.14120000  0.14280000  0.22540000  1.0 -0.7704980787
O  O78  1  0.85880000  0.35720000  0.72540000  1.0 -0.7704980787
O  O79  1  0.64120000  0.85720000  0.27460000  1.0 -0.7704980787
O  O80  1  0.35880000  0.64280000  0.77460000  1.0 -0.7704980787
O  O81  1  0.84660000  0.01620000  0.76490000  1.0 -0.7421946616
O  O82  1  0.15340000  0.48380000  0.26490000  1.0 -0.7421946616
O  O83  1  0.34660000  0.98380000  0.73510000  1.0 -0.7421946616
O  O84  1  0.65340000  0.51620000  0.23510000  1.0 -0.7421946616
O  O85  1  0.15340000  0.98380000  0.23510000  1.0 -0.7421946616
O  O86  1  0.84660000  0.51620000  0.73510000  1.0 -0.7421946616
O  O87  1  0.65340000  0.01620000  0.26490000  1.0 -0.7421946616
O  O88  1  0.34660000  0.48380000  0.76490000  1.0 -0.7421946616
O  O89  1  0.03110000  0.94820000  0.83650000  1.0 -0.7313761305
O  O90  1  0.96890000  0.55180000  0.33650000  1.0 -0.7247405242
O  O91  1  0.53110000  0.05180000  0.66350000  1.0 -0.7247405242
O  O92  1  0.46890000  0.44820000  0.16350000  1.0 -0.7313761305
O  O93  1  0.96890000  0.05180000  0.16350000  1.0 -0.7247405242
O  O94  1  0.03110000  0.44820000  0.66350000  1.0 -0.7313761305
O  O95  1  0.46890000  0.94820000  0.33650000  1.0 -0.7313761305
O  O96  1  0.53110000  0.55180000  0.83650000  1.0 -0.7247405242
F  F1  1  0.67870000  0.92100000  0.69280000  1.0 -0.4931587171
F  F2  1  0.32130000  0.57900000  0.19280000  1.0 -0.4964117399
F  F3  1  0.17870000  0.07900000  0.80720000  1.0 -0.4964117399
F  F4  1  0.82130000  0.42100000  0.30720000  1.0 -0.4964117399
F  F5  1  0.32130000  0.07900000  0.30720000  1.0 -0.4964117399
F  F6  1  0.67870000  0.42100000  0.80720000  1.0 -0.4964117399
F  F7  1  0.82130000  0.92100000  0.19280000  1.0 -0.4931587171
F  F8  1  0.17870000  0.57900000  0.69280000  1.0 -0.4964117399
F  F9  1  0.60050000  0.00390000  0.80470000  1.0 -0.5339374732
F  F10  1  0.39950000  0.49610000  0.30470000  1.0 -0.5339374732
F  F11  1  0.10050000  0.99610000  0.69530000  1.0 -0.5339374732
F  F12  1  0.89950000  0.50390000  0.19530000  1.0 -0.5339374732
F  F13  1  0.39950000  0.99610000  0.19530000  1.0 -0.5339374732
F  F14  1  0.60050000  0.50390000  0.69530000  1.0 -0.5339374732
F  F15  1  0.89950000  0.00390000  0.30470000  1.0 -0.5339374732
F  F16  1  0.10050000  0.49610000  0.80470000  1.0 -0.5354352783
