# DDEC6 charges by PACMAN v1.1 (https://github.com/mtap-research/PACMAN-charge/)
data_TUYMIM_ASR_pacman
_symmetry_space_group_name_H-M   'P 1'
_cell_length_a   10.76000000
_cell_length_b   17.66700000
_cell_length_c   16.67520000
_cell_angle_alpha   90.00000000
_cell_angle_beta   122.46500000
_cell_angle_gamma   90.00000000
_symmetry_Int_Tables_number   1
_chemical_formula_structural   CuH19C25(NO)4
_chemical_formula_sum   'Cu4 H76 C100 N16 O16'
_cell_volume   2674.50997254
_cell_formula_units_Z   4
loop_
 _symmetry_equiv_pos_site_id
 _symmetry_equiv_pos_as_xyz
  1  'x, y, z'
loop_
 _atom_site_type_symbol
 _atom_site_label
 _atom_site_symmetry_multiplicity
 _atom_site_fract_x
 _atom_site_fract_y
 _atom_site_fract_z
 _atom_site_occupancy
 _atom_site_charge
Cu  Cu1  1  0.00000000  0.00000000  0.00000000  1.0 0.7307960207
Cu  Cu2  1  0.50000000  0.50000000  0.00000000  1.0 0.7518339867
Cu  Cu3  1  0.00000000  0.50000000  0.50000000  1.0 0.7307960207
Cu  Cu4  1  0.50000000  0.00000000  0.50000000  1.0 0.7518339867
H  H1  1  0.84918000  0.67115000  0.13644000  1.0 0.1289358669
H  H2  1  0.98093000  0.78178000  0.19554000  1.0 0.1098406189
H  H3  1  0.86387000  0.89700000  0.14878000  1.0 0.1098406189
H  H4  1  0.48215000  0.79217000  0.97422000  1.0 0.1178635707
H  H5  1  0.60875000  0.10907000  0.99214000  1.0 0.1178635707
H  H6  1  0.13592000  0.83580000  0.02277000  1.0 0.1178635707
H  H7  1  0.15557000  0.96588000  0.21893000  1.0 0.1407203863
H  H8  1  0.30634000  0.85457000  0.29845000  1.0 0.1407203863
H  H9  1  0.28661000  0.71145000  0.21009000  1.0 0.1178635707
H  H10  1  0.28783000  0.72446000  0.11749000  1.0 0.1289358669
H  H11  1  0.49827000  0.85445000  0.19165000  1.0 0.1178635707
H  H12  1  0.74875000  0.86358000  0.27684000  1.0 0.1098406189
H  H13  1  0.89066000  0.76744000  0.37816000  1.0 0.1178635707
H  H14  1  0.77895000  0.66190000  0.39075000  1.0 0.1289358669
H  H15  1  0.41647000  0.63075000  0.30395000  1.0 0.1178635707
H  H16  1  0.57489000  0.59546000  0.36393000  1.0 0.1289358669
H  H17  1  0.57963000  0.61085000  0.16802000  1.0 0.1178635707
H  H18  1  0.33977000  0.48844000  0.23065000  1.0 0.1289358669
H  H19  1  0.34065000  0.42915000  0.09940000  1.0 0.1289358669
H  H20  1  0.15082000  0.32885000  0.86356000  1.0 0.1289358669
H  H21  1  0.01907000  0.21822000  0.80446000  1.0 0.1098406189
H  H22  1  0.13613000  0.10300000  0.85122000  1.0 0.1098406189
H  H23  1  0.51785000  0.20783000  0.02578000  1.0 0.1178635707
H  H24  1  0.39125000  0.89093000  0.00786000  1.0 0.1098406189
H  H25  1  0.86408000  0.16420000  0.97723000  1.0 0.1178635707
H  H26  1  0.84443000  0.03412000  0.78107000  1.0 0.1407203863
H  H27  1  0.69366000  0.14543000  0.70155000  1.0 0.1407203863
H  H28  1  0.71339000  0.28855000  0.78991000  1.0 0.1178635707
H  H29  1  0.71217000  0.27554000  0.88251000  1.0 0.1289358669
H  H30  1  0.50173000  0.14555000  0.80835000  1.0 0.1178635707
H  H31  1  0.25125000  0.13642000  0.72316000  1.0 0.1098406189
H  H32  1  0.10934000  0.23256000  0.62184000  1.0 0.1178635707
H  H33  1  0.22105000  0.33810000  0.60925000  1.0 0.1289358669
H  H34  1  0.58353000  0.36925000  0.69605000  1.0 0.1178635707
H  H35  1  0.42511000  0.40454000  0.63607000  1.0 0.1289358669
H  H36  1  0.42037000  0.38915000  0.83198000  1.0 0.1178635707
H  H37  1  0.66023000  0.51156000  0.76935000  1.0 0.1289358669
H  H38  1  0.65935000  0.57085000  0.90060000  1.0 0.1289358669
H  H39  1  0.15082000  0.17115000  0.36356000  1.0 0.1289358669
H  H40  1  0.01907000  0.28178000  0.30446000  1.0 0.1098406189
H  H41  1  0.13613000  0.39700000  0.35122000  1.0 0.1098406189
H  H42  1  0.51785000  0.29217000  0.52578000  1.0 0.1178635707
H  H43  1  0.39125000  0.60907000  0.50786000  1.0 0.1098406189
H  H44  1  0.86408000  0.33580000  0.47723000  1.0 0.1178635707
H  H45  1  0.84443000  0.46588000  0.28107000  1.0 0.1407203863
H  H46  1  0.69366000  0.35457000  0.20155000  1.0 0.1407203863
H  H47  1  0.71339000  0.21145000  0.28991000  1.0 0.1178635707
H  H48  1  0.71217000  0.22446000  0.38251000  1.0 0.1289358669
H  H49  1  0.50173000  0.35445000  0.30835000  1.0 0.1178635707
H  H50  1  0.25125000  0.36358000  0.22316000  1.0 0.1098406189
H  H51  1  0.10934000  0.26744000  0.12184000  1.0 0.1178635707
H  H52  1  0.22105000  0.16190000  0.10925000  1.0 0.1289358669
H  H53  1  0.58353000  0.13075000  0.19605000  1.0 0.1178635707
H  H54  1  0.42511000  0.09546000  0.13607000  1.0 0.1289358669
H  H55  1  0.42037000  0.11085000  0.33198000  1.0 0.1178635707
H  H56  1  0.66023000  0.98844000  0.26935000  1.0 0.1289358669
H  H57  1  0.65935000  0.92915000  0.40060000  1.0 0.1289358669
H  H58  1  0.84918000  0.82885000  0.63644000  1.0 0.1289358669
H  H59  1  0.98093000  0.71822000  0.69554000  1.0 0.1098406189
H  H60  1  0.86387000  0.60300000  0.64878000  1.0 0.1178635707
H  H61  1  0.48215000  0.70783000  0.47422000  1.0 0.1178635707
H  H62  1  0.60875000  0.39093000  0.49214000  1.0 0.1098406189
H  H63  1  0.13592000  0.66420000  0.52277000  1.0 0.1178635707
H  H64  1  0.15557000  0.53412000  0.71893000  1.0 0.1407203863
H  H65  1  0.30634000  0.64543000  0.79845000  1.0 0.1407203863
H  H66  1  0.28661000  0.78855000  0.71009000  1.0 0.1178635707
H  H67  1  0.28783000  0.77554000  0.61749000  1.0 0.1289358669
H  H68  1  0.49827000  0.64555000  0.69165000  1.0 0.1178635707
H  H69  1  0.74875000  0.63642000  0.77684000  1.0 0.1098406189
H  H70  1  0.89066000  0.73256000  0.87816000  1.0 0.1178635707
H  H71  1  0.77895000  0.83810000  0.89075000  1.0 0.1289358669
H  H72  1  0.41647000  0.86925000  0.80395000  1.0 0.1178635707
H  H73  1  0.57489000  0.90454000  0.86393000  1.0 0.1289358669
H  H74  1  0.57963000  0.88915000  0.66802000  1.0 0.1178635707
H  H75  1  0.33977000  0.01156000  0.73065000  1.0 0.1289358669
H  H76  1  0.34065000  0.07085000  0.59940000  1.0 0.1289358669
C  C1  1  0.56330000  0.64877000  0.01290000  1.0 0.5216705615
C  C2  1  0.65190000  0.72027000  0.04980000  1.0 -0.0144485428
C  C3  1  0.80150000  0.71758000  0.11600000  1.0 -0.1273876463
C  C4  1  0.87990000  0.78372000  0.15170000  1.0 -0.0922060481
C  C5  1  0.81010000  0.85271000  0.12310000  1.0 -0.1365468537
C  C6  1  0.66095000  0.85658000  0.05655000  1.0 0.0713689665
C  C7  1  0.58260000  0.79010000  0.01970000  1.0 -0.162910098
C  C8  1  0.58144000  0.93096000  0.02744000  1.0 0.0393948874
C  C9  1  0.64310000  0.99840000  0.02110000  1.0 -0.0395169107
C  C10  1  0.56390000  0.06504000  0.99500000  1.0 -0.1856134718
C  C11  1  0.79300000  0.00357000  0.03460000  1.0 0.533295315
C  C12  1  0.15900000  0.85463000  0.08130000  1.0 0.0880202691
C  C13  1  0.17060000  0.92560000  0.18920000  1.0 -0.0395169107
C  C14  1  0.25360000  0.86420000  0.23350000  1.0 -0.0922060481
C  C15  1  0.31810000  0.74580000  0.17900000  1.0 -0.1730072906
C  C16  1  0.48370000  0.75224000  0.23800000  1.0 0.0557006004
C  C17  1  0.55440000  0.81497000  0.23180000  1.0 -0.162910098
C  C18  1  0.70410000  0.82070000  0.28280000  1.0 -0.0922060481
C  C19  1  0.78860000  0.76350000  0.34270000  1.0 -0.0922060481
C  C20  1  0.72150000  0.70070000  0.34980000  1.0 -0.1474351806
C  C21  1  0.57030000  0.69354000  0.29740000  1.0 0.0333183895
C  C22  1  0.50530000  0.62030000  0.30440000  1.0 -0.1757201289
C  C23  1  0.51820000  0.57298000  0.16630000  1.0 0.1098406189
C  C24  1  0.38780000  0.50630000  0.20180000  1.0 -0.1061205936
C  C25  1  0.38840000  0.47400000  0.12920000  1.0 -0.0303548898
C  C26  1  0.43670000  0.35123000  0.98710000  1.0 0.5216705615
C  C27  1  0.34810000  0.27973000  0.95020000  1.0 -0.0144485428
C  C28  1  0.19850000  0.28242000  0.88400000  1.0 -0.1273876463
C  C29  1  0.12010000  0.21628000  0.84830000  1.0 -0.0922060481
C  C30  1  0.18990000  0.14729000  0.87690000  1.0 -0.1365468537
C  C31  1  0.33905000  0.14342000  0.94345000  1.0 0.0713689665
C  C32  1  0.41740000  0.20990000  0.98030000  1.0 -0.162910098
C  C33  1  0.41856000  0.06904000  0.97256000  1.0 0.0393948874
C  C34  1  0.35690000  0.00160000  0.97890000  1.0 -0.0395169107
C  C35  1  0.43610000  0.93496000  0.00500000  1.0 -0.1856134718
C  C36  1  0.20700000  0.99643000  0.96540000  1.0 0.533295315
C  C37  1  0.84100000  0.14537000  0.91870000  1.0 0.0880202691
C  C38  1  0.82940000  0.07440000  0.81080000  1.0 -0.0395169107
C  C39  1  0.74640000  0.13580000  0.76650000  1.0 -0.0922060481
C  C40  1  0.68190000  0.25420000  0.82100000  1.0 -0.1730072906
C  C41  1  0.51630000  0.24776000  0.76200000  1.0 0.0557006004
C  C42  1  0.44560000  0.18503000  0.76820000  1.0 -0.162910098
C  C43  1  0.29590000  0.17930000  0.71720000  1.0 -0.0922060481
C  C44  1  0.21140000  0.23650000  0.65730000  1.0 -0.0922060481
C  C45  1  0.27850000  0.29930000  0.65020000  1.0 -0.1474351806
C  C46  1  0.42970000  0.30646000  0.70260000  1.0 0.0333183895
C  C47  1  0.49470000  0.37970000  0.69560000  1.0 -0.1757201289
C  C48  1  0.48180000  0.42702000  0.83370000  1.0 0.1098406189
C  C49  1  0.61220000  0.49370000  0.79820000  1.0 -0.1061205936
C  C50  1  0.61160000  0.52600000  0.87080000  1.0 -0.0303548898
C  C51  1  0.43670000  0.14877000  0.48710000  1.0 0.5216705615
C  C52  1  0.34810000  0.22027000  0.45020000  1.0 -0.0144485428
C  C53  1  0.19850000  0.21758000  0.38400000  1.0 -0.1273876463
C  C54  1  0.12010000  0.28372000  0.34830000  1.0 -0.0922060481
C  C55  1  0.18990000  0.35271000  0.37690000  1.0 -0.1365468537
C  C56  1  0.33905000  0.35658000  0.44345000  1.0 0.0713689665
C  C57  1  0.41740000  0.29010000  0.48030000  1.0 -0.162910098
C  C58  1  0.41856000  0.43096000  0.47256000  1.0 0.0393948874
C  C59  1  0.35690000  0.49840000  0.47890000  1.0 -0.0395169107
C  C60  1  0.43610000  0.56504000  0.50500000  1.0 -0.1856134718
C  C61  1  0.20700000  0.50357000  0.46540000  1.0 0.533295315
C  C62  1  0.84100000  0.35463000  0.41870000  1.0 0.0880202691
C  C63  1  0.82940000  0.42560000  0.31080000  1.0 -0.0395169107
C  C64  1  0.74640000  0.36420000  0.26650000  1.0 -0.0922060481
C  C65  1  0.68190000  0.24580000  0.32100000  1.0 -0.1730072906
C  C66  1  0.51630000  0.25224000  0.26200000  1.0 0.0557006004
C  C67  1  0.44560000  0.31497000  0.26820000  1.0 -0.162910098
C  C68  1  0.29590000  0.32070000  0.21720000  1.0 -0.0922060481
C  C69  1  0.21140000  0.26350000  0.15730000  1.0 -0.0922060481
C  C70  1  0.27850000  0.20070000  0.15020000  1.0 -0.1474351806
C  C71  1  0.42970000  0.19354000  0.20260000  1.0 0.0333183895
C  C72  1  0.49470000  0.12030000  0.19560000  1.0 -0.1757201289
C  C73  1  0.48180000  0.07298000  0.33370000  1.0 0.1098406189
C  C74  1  0.61220000  0.00630000  0.29820000  1.0 -0.1061205936
C  C75  1  0.61160000  0.97400000  0.37080000  1.0 -0.0303548898
C  C76  1  0.56330000  0.85123000  0.51290000  1.0 0.5216705615
C  C77  1  0.65190000  0.77973000  0.54980000  1.0 -0.0144485428
C  C78  1  0.80150000  0.78242000  0.61600000  1.0 -0.1273876463
C  C79  1  0.87990000  0.71628000  0.65170000  1.0 -0.0922060481
C  C80  1  0.81010000  0.64729000  0.62310000  1.0 -0.1365468537
C  C81  1  0.66095000  0.64342000  0.55655000  1.0 0.0713689665
C  C82  1  0.58260000  0.70990000  0.51970000  1.0 -0.162910098
C  C83  1  0.58144000  0.56904000  0.52744000  1.0 0.0393948874
C  C84  1  0.64310000  0.50160000  0.52110000  1.0 -0.0395169107
C  C85  1  0.56390000  0.43496000  0.49500000  1.0 -0.1856134718
C  C86  1  0.79300000  0.49643000  0.53460000  1.0 0.533295315
C  C87  1  0.15900000  0.64537000  0.58130000  1.0 0.0880202691
C  C88  1  0.17060000  0.57440000  0.68920000  1.0 -0.0395169107
C  C89  1  0.25360000  0.63580000  0.73350000  1.0 -0.0922060481
C  C90  1  0.31810000  0.75420000  0.67900000  1.0 -0.1730072906
C  C91  1  0.48370000  0.74776000  0.73800000  1.0 0.0557006004
C  C92  1  0.55440000  0.68503000  0.73180000  1.0 -0.162910098
C  C93  1  0.70410000  0.67930000  0.78280000  1.0 -0.0922060481
C  C94  1  0.78860000  0.73650000  0.84270000  1.0 -0.0922060481
C  C95  1  0.72150000  0.79930000  0.84980000  1.0 -0.1474351806
C  C96  1  0.57030000  0.80646000  0.79740000  1.0 0.0333183895
C  C97  1  0.50530000  0.87970000  0.80440000  1.0 -0.1757201289
C  C98  1  0.51820000  0.92702000  0.66630000  1.0 0.1098406189
C  C99  1  0.38780000  0.99370000  0.70180000  1.0 -0.1061205936
C  C100  1  0.38840000  0.02600000  0.62920000  1.0 -0.0303548898
N  N1  1  0.11216000  0.91942000  0.09386000  1.0 -0.2809034099
N  N2  1  0.24520000  0.81931000  0.16500000  1.0 0.0393948874
N  N3  1  0.47004000  0.56978000  0.22484000  1.0 0.0511484856
N  N4  1  0.46897000  0.51650000  0.10607000  1.0 -0.2885784989
N  N5  1  0.88784000  0.08058000  0.90614000  1.0 -0.2809034099
N  N6  1  0.75480000  0.18069000  0.83500000  1.0 0.0393948874
N  N7  1  0.52996000  0.43022000  0.77516000  1.0 0.0511484856
N  N8  1  0.53103000  0.48350000  0.89393000  1.0 -0.2885784989
N  N9  1  0.88784000  0.41942000  0.40614000  1.0 -0.2809034099
N  N10  1  0.75480000  0.31931000  0.33500000  1.0 0.0393948874
N  N11  1  0.52996000  0.06978000  0.27516000  1.0 0.0511484856
N  N12  1  0.53103000  0.01650000  0.39393000  1.0 -0.2885784989
N  N13  1  0.11216000  0.58058000  0.59386000  1.0 -0.2809034099
N  N14  1  0.24520000  0.68069000  0.66500000  1.0 0.0393948874
N  N15  1  0.47004000  0.93022000  0.72484000  1.0 0.0511484856
N  N16  1  0.46897000  0.98350000  0.60607000  1.0 -0.2885784989
O  O1  1  0.88591000  0.04801000  0.09338000  1.0 -0.5601430123
O  O2  1  0.81259000  0.96342000  0.97964000  1.0 -0.5199068074
O  O3  1  0.42795000  0.65148000  0.95785000  1.0 -0.5681915616
O  O4  1  0.63386000  0.58689000  0.04346000  1.0 -0.5199068074
O  O5  1  0.11409000  0.95199000  0.90662000  1.0 -0.5601430123
O  O6  1  0.18741000  0.03658000  0.02036000  1.0 -0.5199068074
O  O7  1  0.57205000  0.34852000  0.04215000  1.0 -0.5681915616
O  O8  1  0.36614000  0.41311000  0.95654000  1.0 -0.5199068074
O  O9  1  0.11409000  0.54801000  0.40662000  1.0 -0.5601430123
O  O10  1  0.18741000  0.46342000  0.52036000  1.0 -0.5199068074
O  O11  1  0.57205000  0.15148000  0.54215000  1.0 -0.5681915616
O  O12  1  0.36614000  0.08689000  0.45654000  1.0 -0.5199068074
O  O13  1  0.88591000  0.45199000  0.59338000  1.0 -0.5601430123
O  O14  1  0.81259000  0.53658000  0.47964000  1.0 -0.5199068074
O  O15  1  0.42795000  0.84852000  0.45785000  1.0 -0.5681915616
O  O16  1  0.63386000  0.91311000  0.54346000  1.0 -0.5199068074
