# DDEC6 charges by PACMAN v1.1 (https://github.com/mtap-research/PACMAN-charge/)
data_UBACUX_FSR_pacman
_symmetry_space_group_name_H-M   'P 1'
_cell_length_a   16.51040000
_cell_length_b   16.51040000
_cell_length_c   18.99400000
_cell_angle_alpha   66.74610000
_cell_angle_beta   113.25400000
_cell_angle_gamma   130.13100000
_symmetry_Int_Tables_number   1
_chemical_formula_structural   Zn2H16C26N4O9
_chemical_formula_sum   'Zn8 H64 C104 N16 O36'
_cell_volume   3563.77077929
_cell_formula_units_Z   4
loop_
 _symmetry_equiv_pos_site_id
 _symmetry_equiv_pos_as_xyz
  1  'x, y, z'
loop_
 _atom_site_type_symbol
 _atom_site_label
 _atom_site_symmetry_multiplicity
 _atom_site_fract_x
 _atom_site_fract_y
 _atom_site_fract_z
 _atom_site_occupancy
 _atom_site_charge
Zn  Zn1  1  0.38857000  0.91905000  0.89768000  1.0 0.8582483548
Zn  Zn2  1  0.91905000  0.38857000  0.60232000  1.0 0.8582483548
Zn  Zn3  1  0.61143000  0.08095000  0.10232000  1.0 0.8582483548
Zn  Zn4  1  0.08095000  0.61143000  0.39768000  1.0 0.8582483548
Zn  Zn5  1  0.87609000  0.44135000  0.16064000  1.0 0.8758951444
Zn  Zn6  1  0.44135000  0.87609000  0.33936000  1.0 0.8758951444
Zn  Zn7  1  0.12391000  0.55865000  0.83936000  1.0 0.8758951444
Zn  Zn8  1  0.55865000  0.12391000  0.66064000  1.0 0.8758951444
H  H1  1  0.27490000  0.51390000  0.71650000  1.0 0.1092353562
H  H2  1  0.51390000  0.27490000  0.78350000  1.0 0.1092353562
H  H3  1  0.72510000  0.48610000  0.28350000  1.0 0.1092353562
H  H4  1  0.48610000  0.72510000  0.21650000  1.0 0.1092353562
H  H5  1  0.46170000  0.63690000  0.73640000  1.0 0.1092353562
H  H6  1  0.63690000  0.46170000  0.76360000  1.0 0.1092353562
H  H7  1  0.53830000  0.36310000  0.26360000  1.0 0.1092353562
H  H8  1  0.36310000  0.53830000  0.23640000  1.0 0.1092353562
H  H9  1  0.53810000  0.81770000  0.71310000  1.0 0.1201833574
H  H10  1  0.81770000  0.53810000  0.78690000  1.0 0.1201833574
H  H11  1  0.46190000  0.18230000  0.28690000  1.0 0.1201833574
H  H12  1  0.18230000  0.46190000  0.21310000  1.0 0.1201833574
H  H13  1  0.10750000  0.84490000  0.69600000  1.0 0.1201833574
H  H14  1  0.84490000  0.10750000  0.80400000  1.0 0.1201833574
H  H15  1  0.89250000  0.15510000  0.30400000  1.0 0.1201833574
H  H16  1  0.15510000  0.89250000  0.19600000  1.0 0.1201833574
H  H17  1  0.01180000  0.83660000  0.56720000  1.0 0.1092353562
H  H18  1  0.83660000  0.01180000  0.93280000  1.0 0.1092353562
H  H19  1  0.98820000  0.16340000  0.43280000  1.0 0.1092353562
H  H20  1  0.16340000  0.98820000  0.06720000  1.0 0.1092353562
H  H21  1  0.03580000  0.77940000  0.48900000  1.0 0.1201833574
H  H22  1  0.77940000  0.03580000  0.01100000  1.0 0.1201833574
H  H23  1  0.96420000  0.22060000  0.51100000  1.0 0.1201833574
H  H24  1  0.22060000  0.96420000  0.98900000  1.0 0.1201833574
H  H25  1  0.43990000  0.78950000  0.04390000  1.0 0.1201833574
H  H26  1  0.78950000  0.43990000  0.45610000  1.0 0.1201833574
H  H27  1  0.56010000  0.21050000  0.95610000  1.0 0.1201833574
H  H28  1  0.21050000  0.56010000  0.54390000  1.0 0.1201833574
H  H29  1  0.52730000  0.70590000  0.08890000  1.0 0.142886715
H  H30  1  0.70590000  0.52730000  0.41110000  1.0 0.142886715
H  H31  1  0.47270000  0.29410000  0.91110000  1.0 0.142886715
H  H32  1  0.29410000  0.47270000  0.58890000  1.0 0.142886715
H  H33  1  0.59210000  0.80690000  0.87950000  1.0 0.1483256016
H  H34  1  0.80690000  0.59210000  0.62050000  1.0 0.1483256016
H  H35  1  0.40790000  0.19310000  0.12050000  1.0 0.1483256016
H  H36  1  0.19310000  0.40790000  0.37950000  1.0 0.1483256016
H  H37  1  0.51860000  0.90180000  0.84260000  1.0 0.1201833574
H  H38  1  0.90180000  0.51860000  0.65740000  1.0 0.1201833574
H  H39  1  0.48140000  0.09820000  0.15740000  1.0 0.1201833574
H  H40  1  0.09820000  0.48140000  0.34260000  1.0 0.1201833574
H  H41  1  0.94010000  0.66130000  0.15700000  1.0 0.1272931341
H  H42  1  0.66130000  0.94010000  0.34300000  1.0 0.1272931341
H  H43  1  0.05990000  0.33870000  0.84300000  1.0 0.1272931341
H  H44  1  0.33870000  0.05990000  0.65700000  1.0 0.1272931341
H  H45  1  0.86570000  0.75310000  0.12150000  1.0 0.1483256016
H  H46  1  0.75310000  0.86570000  0.37850000  1.0 0.1483256016
H  H47  1  0.13430000  0.24690000  0.87850000  1.0 0.1483256016
H  H48  1  0.24690000  0.13430000  0.62150000  1.0 0.1483256016
H  H49  1  0.57980000  0.49720000  0.05510000  1.0 0.1201833574
H  H50  1  0.49720000  0.57980000  0.44490000  1.0 0.1201833574
H  H51  1  0.42020000  0.50280000  0.94490000  1.0 0.1201833574
H  H52  1  0.50280000  0.42020000  0.55510000  1.0 0.1201833574
H  H53  1  0.65720000  0.40240000  0.09400000  1.0 0.1092353562
H  H54  1  0.40240000  0.65720000  0.40600000  1.0 0.1092353562
H  H55  1  0.34280000  0.59760000  0.90600000  1.0 0.1092353562
H  H56  1  0.59760000  0.34280000  0.59400000  1.0 0.1092353562
H  H57  1  0.86330000  0.48250000  0.00130000  1.0 0.3987270612
H  H58  1  0.48250000  0.86330000  0.49870000  1.0 0.3987270612
H  H59  1  0.13670000  0.51750000  0.99870000  1.0 0.3987270612
H  H60  1  0.51750000  0.13670000  0.50130000  1.0 0.3987270612
H  H61  1  0.79890000  0.36990000  0.03840000  1.0 0.3987270612
H  H62  1  0.36990000  0.79890000  0.46160000  1.0 0.3987270612
H  H63  1  0.20110000  0.63010000  0.96160000  1.0 0.3987270612
H  H64  1  0.63010000  0.20110000  0.53840000  1.0 0.3987270612
C  C1  1  0.12227000  0.54447000  0.68100000  1.0 0.5735633765
C  C2  1  0.54447000  0.12227000  0.81900000  1.0 0.5735633765
C  C3  1  0.87773000  0.45553000  0.31900000  1.0 0.5735633765
C  C4  1  0.45553000  0.87773000  0.18100000  1.0 0.5735633765
C  C5  1  0.24060000  0.62000000  0.69100000  1.0 -0.0960180778
C  C6  1  0.62000000  0.24060000  0.80900000  1.0 -0.0960180778
C  C7  1  0.75940000  0.38000000  0.30900000  1.0 -0.0960180778
C  C8  1  0.38000000  0.75940000  0.19100000  1.0 -0.0960180778
C  C9  1  0.30600000  0.58680000  0.71020000  1.0 -0.117588901
C  C10  1  0.58680000  0.30600000  0.78980000  1.0 -0.117588901
C  C11  1  0.69400000  0.41320000  0.28980000  1.0 -0.117588901
C  C12  1  0.41320000  0.69400000  0.21020000  1.0 -0.117588901
C  C13  1  0.41800000  0.66080000  0.72040000  1.0 -0.117588901
C  C14  1  0.66080000  0.41800000  0.77960000  1.0 -0.117588901
C  C15  1  0.58200000  0.33920000  0.27960000  1.0 -0.117588901
C  C16  1  0.33920000  0.58200000  0.22040000  1.0 -0.117588901
C  C17  1  0.46340000  0.76840000  0.70670000  1.0 -0.1098706244
C  C18  1  0.76840000  0.46340000  0.79330000  1.0 -0.1098706244
C  C19  1  0.53660000  0.23160000  0.29330000  1.0 -0.1098706244
C  C20  1  0.23160000  0.53660000  0.20670000  1.0 -0.1098706244
C  C21  1  0.39950000  0.80570000  0.68340000  1.0 -0.0491895769
C  C22  1  0.80570000  0.39950000  0.81660000  1.0 -0.0491895769
C  C23  1  0.60050000  0.19430000  0.31660000  1.0 -0.0491895769
C  C24  1  0.19430000  0.60050000  0.18340000  1.0 -0.0491895769
C  C25  1  0.28800000  0.73320000  0.67550000  1.0 0.0518909432
C  C26  1  0.73320000  0.28800000  0.82450000  1.0 0.0518909432
C  C27  1  0.71200000  0.26680000  0.32450000  1.0 0.0518909432
C  C28  1  0.26680000  0.71200000  0.17550000  1.0 0.0518909432
C  C29  1  0.45610000  0.92690000  0.66740000  1.0 0.5595928449
C  C30  1  0.92690000  0.45610000  0.83260000  1.0 0.5595928449
C  C31  1  0.54390000  0.07310000  0.33260000  1.0 0.5595928449
C  C32  1  0.07310000  0.54390000  0.16740000  1.0 0.5595928449
C  C33  1  0.24500000  0.79680000  0.77710000  1.0 0.6015356202
C  C34  1  0.79680000  0.24500000  0.72290000  1.0 0.6015356202
C  C35  1  0.75500000  0.20320000  0.22290000  1.0 0.6015356202
C  C36  1  0.20320000  0.75500000  0.27710000  1.0 0.6015356202
C  C37  1  0.18750000  0.79290000  0.69460000  1.0 -0.0703902018
C  C38  1  0.79290000  0.18750000  0.80540000  1.0 -0.0703902018
C  C39  1  0.81250000  0.20710000  0.30540000  1.0 -0.0703902018
C  C40  1  0.20710000  0.81250000  0.19460000  1.0 -0.0703902018
C  C41  1  0.11740000  0.82200000  0.66440000  1.0 -0.0960180778
C  C42  1  0.82200000  0.11740000  0.83560000  1.0 -0.0960180778
C  C43  1  0.88260000  0.17800000  0.33560000  1.0 -0.0960180778
C  C44  1  0.17800000  0.88260000  0.16440000  1.0 -0.0960180778
C  C45  1  0.06020000  0.81800000  0.58670000  1.0 -0.1098706244
C  C46  1  0.81800000  0.06020000  0.91330000  1.0 -0.1098706244
C  C47  1  0.93980000  0.18200000  0.41330000  1.0 -0.1098706244
C  C48  1  0.18200000  0.93980000  0.08670000  1.0 -0.1098706244
C  C49  1  0.07640000  0.78600000  0.53960000  1.0 -0.1098706244
C  C50  1  0.78600000  0.07640000  0.96040000  1.0 -0.1098706244
C  C51  1  0.92360000  0.21400000  0.46040000  1.0 -0.1098706244
C  C52  1  0.21400000  0.92360000  0.03960000  1.0 -0.1098706244
C  C53  1  0.15330000  0.76350000  0.56690000  1.0 -0.0491895769
C  C54  1  0.76350000  0.15330000  0.93310000  1.0 -0.0491895769
C  C55  1  0.84670000  0.23650000  0.43310000  1.0 -0.0491895769
C  C56  1  0.23650000  0.84670000  0.06690000  1.0 -0.0491895769
C  C57  1  0.20910000  0.76530000  0.64580000  1.0 0.0518909432
C  C58  1  0.76530000  0.20910000  0.85420000  1.0 0.0518909432
C  C59  1  0.79090000  0.23470000  0.35420000  1.0 0.0518909432
C  C60  1  0.23470000  0.79090000  0.14580000  1.0 0.0518909432
C  C61  1  0.16730000  0.73170000  0.51040000  1.0 0.5735633765
C  C62  1  0.73170000  0.16730000  0.98960000  1.0 0.5735633765
C  C63  1  0.83270000  0.26830000  0.48960000  1.0 0.5735633765
C  C64  1  0.26830000  0.83270000  0.01040000  1.0 0.5735633765
C  C65  1  0.47270000  0.79530000  0.01040000  1.0 0.1272931341
C  C66  1  0.79530000  0.47270000  0.48960000  1.0 0.1272931341
C  C67  1  0.52730000  0.20470000  0.98960000  1.0 0.1272931341
C  C68  1  0.20470000  0.52730000  0.51040000  1.0 0.1272931341
C  C69  1  0.52480000  0.74440000  0.03770000  1.0 -0.2123424094
C  C70  1  0.74440000  0.52480000  0.46230000  1.0 -0.2123424094
C  C71  1  0.47520000  0.25560000  0.96230000  1.0 -0.2123424094
C  C72  1  0.25560000  0.47520000  0.53770000  1.0 -0.2123424094
C  C73  1  0.57160000  0.75140000  0.98890000  1.0 0.1598800272
C  C74  1  0.75140000  0.57160000  0.51110000  1.0 0.1598800272
C  C75  1  0.42840000  0.24860000  0.01110000  1.0 0.1598800272
C  C76  1  0.24860000  0.42840000  0.48890000  1.0 0.1598800272
C  C77  1  0.56500000  0.80520000  0.91500000  1.0 -0.2019280065
C  C78  1  0.80520000  0.56500000  0.58500000  1.0 -0.2019280065
C  C79  1  0.43500000  0.19480000  0.08500000  1.0 -0.2019280065
C  C80  1  0.19480000  0.43500000  0.41500000  1.0 -0.2019280065
C  C81  1  0.51700000  0.85880000  0.89240000  1.0 0.1092353562
C  C82  1  0.85880000  0.51700000  0.60760000  1.0 0.1092353562
C  C83  1  0.48300000  0.14120000  0.10760000  1.0 0.1092353562
C  C84  1  0.14120000  0.48300000  0.39240000  1.0 0.1092353562
C  C85  1  0.86630000  0.62650000  0.13660000  1.0 0.1092353562
C  C86  1  0.62650000  0.86630000  0.36340000  1.0 0.1092353562
C  C87  1  0.13370000  0.37350000  0.86340000  1.0 0.1092353562
C  C88  1  0.37350000  0.13370000  0.63660000  1.0 0.1092353562
C  C89  1  0.82220000  0.68240000  0.11430000  1.0 -0.2019280065
C  C90  1  0.68240000  0.82220000  0.38570000  1.0 -0.2019280065
C  C91  1  0.17780000  0.31760000  0.88570000  1.0 -0.2019280065
C  C92  1  0.31760000  0.17780000  0.61430000  1.0 -0.2019280065
C  C93  1  0.71600000  0.63560000  0.08200000  1.0 0.1598800272
C  C94  1  0.63560000  0.71600000  0.41800000  1.0 0.1598800272
C  C95  1  0.28400000  0.36440000  0.91800000  1.0 0.1598800272
C  C96  1  0.36440000  0.28400000  0.58200000  1.0 0.1598800272
C  C97  1  0.65360000  0.53160000  0.07540000  1.0 -0.2260173243
C  C98  1  0.53160000  0.65360000  0.42460000  1.0 -0.2260173243
C  C99  1  0.34640000  0.46840000  0.92460000  1.0 -0.2260173243
C  C100  1  0.46840000  0.34640000  0.57540000  1.0 -0.2260173243
C  C101  1  0.70040000  0.47400000  0.09940000  1.0 0.1092353562
C  C102  1  0.47400000  0.70040000  0.40060000  1.0 0.1092353562
C  C103  1  0.29960000  0.52600000  0.90060000  1.0 0.1092353562
C  C104  1  0.52600000  0.29960000  0.59940000  1.0 0.1092353562
N  N1  1  0.46890000  0.85138000  0.93858000  1.0 -0.2260173243
N  N2  1  0.85138000  0.46890000  0.56142000  1.0 -0.2260173243
N  N3  1  0.53110000  0.14862000  0.06142000  1.0 -0.2260173243
N  N4  1  0.14862000  0.53110000  0.43858000  1.0 -0.2260173243
N  N5  1  0.61988000  0.69542000  0.00911000  1.0 -0.0644714031
N  N6  1  0.69542000  0.61988000  0.49089000  1.0 -0.0703902018
N  N7  1  0.38012000  0.30458000  0.99089000  1.0 -0.0703902018
N  N8  1  0.30458000  0.38012000  0.50911000  1.0 -0.0703902018
N  N9  1  0.67466000  0.69960000  0.06067000  1.0 -0.0491895769
N  N10  1  0.69960000  0.67466000  0.43933000  1.0 -0.0491895769
N  N11  1  0.32534000  0.30040000  0.93933000  1.0 -0.0491895769
N  N12  1  0.30040000  0.32534000  0.56067000  1.0 -0.0491895769
N  N13  1  0.80642000  0.52228000  0.12989000  1.0 -0.2372891884
N  N14  1  0.52228000  0.80642000  0.37011000  1.0 -0.2372891884
N  N15  1  0.19358000  0.47772000  0.87011000  1.0 -0.2372891884
N  N16  1  0.47772000  0.19358000  0.62989000  1.0 -0.2372891884
O  O1  1  0.07607000  0.48567000  0.63003000  1.0 -0.532063162
O  O2  1  0.48567000  0.07607000  0.86997000  1.0 -0.532063162
O  O3  1  0.92393000  0.51433000  0.36997000  1.0 -0.532063162
O  O4  1  0.51433000  0.92393000  0.13003000  1.0 -0.532063162
O  O5  1  0.07028000  0.53384000  0.72137000  1.0 -0.5585629176
O  O6  1  0.53384000  0.07028000  0.77863000  1.0 -0.5585629176
O  O7  1  0.92972000  0.46616000  0.27863000  1.0 -0.5585629176
O  O8  1  0.46616000  0.92972000  0.22137000  1.0 -0.5585629176
O  O9  1  0.24753000  0.71779000  0.82271000  1.0 -0.577247439
O  O10  1  0.71779000  0.24753000  0.67729000  1.0 -0.577247439
O  O11  1  0.75247000  0.28221000  0.17729000  1.0 -0.577247439
O  O12  1  0.28221000  0.75247000  0.32271000  1.0 -0.577247439
O  O13  1  0.28596000  0.88158000  0.79958000  1.0 -0.5226643067
O  O14  1  0.88158000  0.28596000  0.70042000  1.0 -0.5226643067
O  O15  1  0.71404000  0.11842000  0.20042000  1.0 -0.5226643067
O  O16  1  0.11842000  0.71404000  0.29958000  1.0 -0.5226643067
O  O17  1  0.55946000  0.98886000  0.68150000  1.0 -0.5511136334
O  O18  1  0.98886000  0.55946000  0.81850000  1.0 -0.5511136334
O  O19  1  0.44054000  0.01114000  0.31850000  1.0 -0.5511136334
O  O20  1  0.01114000  0.44054000  0.18150000  1.0 -0.5511136334
O  O21  1  0.40342000  0.96580000  0.64185000  1.0 -0.532063162
O  O22  1  0.96580000  0.40342000  0.85815000  1.0 -0.532063162
O  O23  1  0.59658000  0.03420000  0.35815000  1.0 -0.532063162
O  O24  1  0.03420000  0.59658000  0.14185000  1.0 -0.532063162
O  O25  1  0.26267000  0.77671000  0.50524000  1.0 -0.5870530587
O  O26  1  0.77671000  0.26267000  0.99476000  1.0 -0.5870530587
O  O27  1  0.73733000  0.22329000  0.49476000  1.0 -0.5870530587
O  O28  1  0.22329000  0.73733000  0.00524000  1.0 -0.5870530587
O  O29  1  0.08103000  0.66547000  0.47097000  1.0 -0.5511136334
O  O30  1  0.66547000  0.08103000  0.02903000  1.0 -0.5511136334
O  O31  1  0.91897000  0.33453000  0.52903000  1.0 -0.5511136334
O  O32  1  0.33453000  0.91897000  0.97097000  1.0 -0.5511136334
O  O33  1  0.83158000  0.43576000  0.03907000  1.0 -0.6821677666
O  O34  1  0.43576000  0.83158000  0.46093000  1.0 -0.6821677666
O  O35  1  0.16842000  0.56424000  0.96093000  1.0 -0.6821677666
O  O36  1  0.56424000  0.16842000  0.53907000  1.0 -0.6821677666
