# DDEC6 charges by PACMAN v1.1 (https://github.com/mtap-research/PACMAN-charge/)
data_UBOGAV_ASR_pacman
_symmetry_space_group_name_H-M   'P 1'
_cell_length_a   9.59500000
_cell_length_b   10.33000000
_cell_length_c   13.67000000
_cell_angle_alpha   104.29800000
_cell_angle_beta   88.85400000
_cell_angle_gamma   114.65500000
_symmetry_Int_Tables_number   1
_chemical_formula_structural   U3Cu2P4H16(C7O5)4
_chemical_formula_sum   'U3 Cu2 P4 H16 C28 O20'
_cell_volume   1187.94323378
_cell_formula_units_Z   1
loop_
 _symmetry_equiv_pos_site_id
 _symmetry_equiv_pos_as_xyz
  1  'x, y, z'
loop_
 _atom_site_type_symbol
 _atom_site_label
 _atom_site_symmetry_multiplicity
 _atom_site_fract_x
 _atom_site_fract_y
 _atom_site_fract_z
 _atom_site_occupancy
 _atom_site_charge
U  U1  1  0.76581000  0.44979000  0.99948000  1.0 2.1396761594
U  U2  1  0.23419000  0.55021000  0.00052000  1.0 2.1396761594
U  U3  1  0.00000000  0.00000000  0.00000000  1.0 2.0871780572
Cu  Cu1  1  0.90208000  0.96519000  0.42043000  1.0 0.840653008
Cu  Cu2  1  0.09792000  0.03481000  0.57957000  1.0 0.840653008
P  P1  1  0.62560000  0.68290000  0.91340000  1.0 1.3513463197
P  P2  1  0.37440000  0.31710000  0.08660000  1.0 1.3513463197
P  P3  1  0.91020000  0.31140000  0.12475000  1.0 1.276281303
P  P4  1  0.08980000  0.68860000  0.87525000  1.0 1.276281303
H  H1  1  0.76830000  0.85170000  0.77260000  1.0 0.1001180666
H  H2  1  0.23170000  0.14830000  0.22740000  1.0 0.1001180666
H  H3  1  0.47980000  0.65430000  0.51480000  1.0 0.1080545409
H  H4  1  0.52020000  0.34570000  0.48520000  1.0 0.1080545409
H  H5  1  0.30350000  0.48370000  0.59660000  1.0 0.1001180666
H  H6  1  0.69650000  0.51630000  0.40340000  1.0 0.1001180666
H  H7  1  0.36860000  0.49380000  0.76180000  1.0 0.1080545409
H  H8  1  0.63140000  0.50620000  0.23820000  1.0 0.1080545409
H  H9  1  0.93940000  0.58400000  0.25560000  1.0 0.1080545409
H  H10  1  0.06060000  0.41600000  0.74440000  1.0 0.1080545409
H  H11  1  0.19970000  0.64580000  0.50560000  1.0 0.1080545409
H  H12  1  0.80030000  0.35420000  0.49440000  1.0 0.1080545409
H  H13  1  0.20160000  0.41620000  0.43780000  1.0 0.1001180666
H  H14  1  0.79840000  0.58380000  0.56220000  1.0 0.1001180666
H  H15  1  0.07450000  0.26910000  0.28080000  1.0 0.1080545409
H  H16  1  0.92550000  0.73090000  0.71920000  1.0 0.1080545409
C  C1  1  0.57260000  0.67710000  0.78600000  1.0 -0.1798326539
C  C2  1  0.42740000  0.32290000  0.21400000  1.0 -0.1798326539
C  C3  1  0.67470000  0.77580000  0.73680000  1.0 -0.1019760114
C  C4  1  0.32530000  0.22420000  0.26320000  1.0 -0.1019760114
C  C5  1  0.64110000  0.76460000  0.63450000  1.0 -0.0419269333
C  C6  1  0.35890000  0.23540000  0.36550000  1.0 -0.0419269333
C  C7  1  0.50420000  0.65910000  0.58300000  1.0 -0.109461714
C  C8  1  0.49580000  0.34090000  0.41700000  1.0 -0.109461714
C  C9  1  0.39900000  0.55720000  0.63170000  1.0 -0.109461714
C  C10  1  0.60100000  0.44280000  0.36830000  1.0 -0.109461714
C  C11  1  0.43680000  0.56570000  0.73050000  1.0 -0.068230028
C  C12  1  0.56320000  0.43430000  0.26950000  1.0 -0.068230028
C  C13  1  0.76470000  0.85630000  0.58180000  1.0 0.5603546558
C  C14  1  0.23530000  0.14370000  0.41820000  1.0 0.5603546558
C  C15  1  0.99160000  0.41290000  0.25280000  1.0 -0.1798326539
C  C16  1  0.00840000  0.58710000  0.74720000  1.0 -0.1798326539
C  C17  1  0.99030000  0.54830000  0.29380000  1.0 -0.109461714
C  C18  1  0.00970000  0.45170000  0.70620000  1.0 -0.109461714
C  C19  1  0.06110000  0.63310000  0.38920000  1.0 -0.0153080563
C  C20  1  0.93890000  0.36690000  0.61080000  1.0 -0.0148317438
C  C21  1  0.14450000  0.58560000  0.44180000  1.0 -0.1019760114
C  C22  1  0.85550000  0.41440000  0.55820000  1.0 -0.1019760114
C  C23  1  0.14680000  0.44950000  0.40060000  1.0 -0.1019760114
C  C24  1  0.85320000  0.55050000  0.59940000  1.0 -0.1019760114
C  C25  1  0.07220000  0.36210000  0.30780000  1.0 -0.068230028
C  C26  1  0.92780000  0.63790000  0.69220000  1.0 -0.068230028
C  C27  1  0.04130000  0.77180000  0.43470000  1.0 0.5603546558
C  C28  1  0.95870000  0.22820000  0.56530000  1.0 0.5603546558
O  O1  1  0.68720000  0.56610000  0.90340000  1.0 -0.8683842959
O  O2  1  0.31280000  0.43390000  0.09660000  1.0 -0.8683842959
O  O3  1  0.74730000  0.83930000  0.95860000  1.0 -0.8952429833
O  O4  1  0.25270000  0.16070000  0.04140000  1.0 -0.8952429833
O  O5  1  0.48840000  0.65410000  0.97490000  1.0 -0.8683842959
O  O6  1  0.51160000  0.34590000  0.02510000  1.0 -0.8683842959
O  O7  1  0.74390000  0.28870000  0.11100000  1.0 -0.8076804818
O  O8  1  0.25610000  0.71130000  0.88900000  1.0 -0.8076804818
O  O9  1  0.99390000  0.41210000  0.05420000  1.0 -1.0154127421
O  O10  1  0.00610000  0.58790000  0.94580000  1.0 -1.0154127421
O  O11  1  0.92870000  0.16740000  0.10270000  1.0 -0.8628834726
O  O12  1  0.07130000  0.83260000  0.89730000  1.0 -0.8628834726
O  O13  1  0.72970000  0.86320000  0.49380000  1.0 -0.5202310474
O  O14  1  0.27030000  0.13680000  0.50620000  1.0 -0.5202310474
O  O15  1  0.90120000  0.92100000  0.62650000  1.0 -0.5598979237
O  O16  1  0.09880000  0.07900000  0.37350000  1.0 -0.5598979237
O  O17  1  0.12250000  0.85400000  0.51730000  1.0 -0.507098371
O  O18  1  0.87750000  0.14600000  0.48270000  1.0 -0.507098371
O  O19  1  0.94630000  0.79350000  0.38830000  1.0 -0.5202310474
O  O20  1  0.05370000  0.20650000  0.61170000  1.0 -0.5202310474
