# DDEC6 charges by PACMAN v1.1 (https://github.com/mtap-research/PACMAN-charge/)
data_UCAVUT_ASR_pacman
_symmetry_space_group_name_H-M   'P 1'
_cell_length_a   17.91730000
_cell_length_b   17.91730000
_cell_length_c   13.14700000
_cell_angle_alpha   69.27490000
_cell_angle_beta   110.72500000
_cell_angle_gamma   74.36980000
_symmetry_Int_Tables_number   1
_chemical_formula_structural   Zr3H22C51O23
_chemical_formula_sum   'Zr6 H44 C102 O46'
_cell_volume   3294.91247893
_cell_formula_units_Z   2
loop_
 _symmetry_equiv_pos_site_id
 _symmetry_equiv_pos_as_xyz
  1  'x, y, z'
loop_
 _atom_site_type_symbol
 _atom_site_label
 _atom_site_symmetry_multiplicity
 _atom_site_fract_x
 _atom_site_fract_y
 _atom_site_fract_z
 _atom_site_occupancy
 _atom_site_charge
Zr  Zr1  1  0.86236000  0.13764000  0.81866000  1.0 2.1426989708
Zr  Zr2  1  0.03811000  0.96189000  0.85595000  1.0 2.1890283499
Zr  Zr3  1  0.13764000  0.86236000  0.18134000  1.0 2.1426989708
Zr  Zr4  1  0.96189000  0.03811000  0.14405000  1.0 2.1890283499
Zr  Zr5  1  0.91357000  0.91357000  0.00000000  1.0 2.1890283499
Zr  Zr6  1  0.08643000  0.08643000  0.00000000  1.0 2.1890283499
H  H1  1  0.98670000  0.13590000  0.75700000  1.0 0.3917220805
H  H2  1  0.82000000  0.65874000  0.74126000  1.0 0.1286070083
H  H3  1  0.85386000  0.73836000  0.84227000  1.0 0.1212098954
H  H4  1  0.97432000  0.81654000  0.65033000  1.0 0.1212098954
H  H5  1  0.94131000  0.73537000  0.55139000  1.0 0.1383354204
H  H6  1  0.98892000  0.52070000  0.77647000  1.0 0.1286070083
H  H7  1  0.02564000  0.36998000  0.86147000  1.0 0.1212098954
H  H8  1  0.79643000  0.42649000  0.57972000  1.0 0.1212098954
H  H9  1  0.75975000  0.57701000  0.49306000  1.0 0.1383354204
H  H10  1  0.81966000  0.38610000  0.37083000  1.0 0.1212098954
H  H11  1  0.69792000  0.51756000  0.18886000  1.0 0.1453275357
H  H12  1  0.13590000  0.98670000  0.24300000  1.0 0.3917220805
H  H13  1  0.65874000  0.82000000  0.25874000  1.0 0.1286070083
H  H14  1  0.73836000  0.85386000  0.15773000  1.0 0.1212098954
H  H15  1  0.81654000  0.97432000  0.34967000  1.0 0.1286070083
H  H16  1  0.73537000  0.94131000  0.44861000  1.0 0.1383354204
H  H17  1  0.52070000  0.98892000  0.22353000  1.0 0.1286070083
H  H18  1  0.36998000  0.02564000  0.13853000  1.0 0.1212098954
H  H19  1  0.42649000  0.79643000  0.42028000  1.0 0.1212098954
H  H20  1  0.57701000  0.75975000  0.50694000  1.0 0.1383354204
H  H21  1  0.38610000  0.81966000  0.62917000  1.0 0.1212098954
H  H22  1  0.51756000  0.69792000  0.81114000  1.0 0.1453275357
H  H23  1  0.01330000  0.86410000  0.24300000  1.0 0.3917220805
H  H24  1  0.18000000  0.34126000  0.25874000  1.0 0.1286070083
H  H25  1  0.14614000  0.26164000  0.15773000  1.0 0.1212098954
H  H26  1  0.02568000  0.18346000  0.34967000  1.0 0.1286070083
H  H27  1  0.05869000  0.26463000  0.44861000  1.0 0.1383354204
H  H28  1  0.01108000  0.47930000  0.22353000  1.0 0.1286070083
H  H29  1  0.97436000  0.63002000  0.13853000  1.0 0.1212098954
H  H30  1  0.20357000  0.57351000  0.42028000  1.0 0.1212098954
H  H31  1  0.24025000  0.42299000  0.50694000  1.0 0.1383354204
H  H32  1  0.18034000  0.61390000  0.62917000  1.0 0.1212098954
H  H33  1  0.30208000  0.48244000  0.81114000  1.0 0.1453275357
H  H34  1  0.86410000  0.01330000  0.75700000  1.0 0.3917220805
H  H35  1  0.34126000  0.18000000  0.74126000  1.0 0.1286070083
H  H36  1  0.26164000  0.14614000  0.84227000  1.0 0.1212098954
H  H37  1  0.18346000  0.02568000  0.65033000  1.0 0.1212098954
H  H38  1  0.26463000  0.05869000  0.55139000  1.0 0.1383354204
H  H39  1  0.47930000  0.01108000  0.77647000  1.0 0.1286070083
H  H40  1  0.63002000  0.97436000  0.86147000  1.0 0.1212098954
H  H41  1  0.57351000  0.20357000  0.57972000  1.0 0.1212098954
H  H42  1  0.42299000  0.24025000  0.49306000  1.0 0.1383354204
H  H43  1  0.61390000  0.18034000  0.37083000  1.0 0.1212098954
H  H44  1  0.48244000  0.30208000  0.18886000  1.0 0.1453275357
C  C1  1  0.87594000  0.69194000  0.63610000  1.0 0.2377192315
C  C2  1  0.85070000  0.69110000  0.72270000  1.0 -0.2111168691
C  C3  1  0.87103000  0.73863000  0.78320000  1.0 -0.0801340754
C  C4  1  0.91720000  0.78648000  0.75500000  1.0 -0.05913897
C  C5  1  0.94299000  0.78499000  0.66890000  1.0 -0.0801340754
C  C6  1  0.92301000  0.73681000  0.60890000  1.0 -0.2111168691
C  C7  1  0.93697000  0.84043000  0.81600000  1.0 0.6302389834
C  C8  1  0.87163000  0.56243000  0.62660000  1.0 0.2563376997
C  C9  1  0.95046000  0.50166000  0.73640000  1.0 -0.2266040582
C  C10  1  0.97223000  0.41143000  0.78710000  1.0 -0.0712488319
C  C11  1  0.91608000  0.38248000  0.72920000  1.0 -0.0516362254
C  C12  1  0.83554000  0.44534000  0.61880000  1.0 -0.0801340754
C  C13  1  0.81328000  0.53528000  0.56710000  1.0 -0.2111168691
C  C14  1  0.93851000  0.28573000  0.78440000  1.0 0.6302389834
C  C15  1  0.60560000  0.47660000  0.20760000  1.0 0.2377192315
C  C16  1  0.74720000  0.33060000  0.42420000  1.0 -0.0952198904
C  C17  1  0.76140000  0.39440000  0.34860000  1.0 -0.0801340754
C  C18  1  0.68960000  0.47220000  0.23810000  1.0 -0.1966895226
C  C19  1  0.82620000  0.25160000  0.54520000  1.0 0.482567576
C  C20  1  0.45910000  0.60250000  0.08920000  1.0 0.1383354204
C  C21  1  0.46070000  0.60710000  0.19010000  1.0 -0.1966895226
C  C22  1  0.38210000  0.66470000  0.17610000  1.0 0.0121149525
C  C23  1  0.38260000  0.65380000  0.97140000  1.0 0.0012576717
C  C24  1  0.69194000  0.87594000  0.36390000  1.0 0.2377192315
C  C25  1  0.69110000  0.85070000  0.27730000  1.0 -0.2111168691
C  C26  1  0.73863000  0.87103000  0.21680000  1.0 -0.0801340754
C  C27  1  0.78648000  0.91720000  0.24500000  1.0 -0.05913897
C  C28  1  0.78499000  0.94299000  0.33110000  1.0 -0.0801340754
C  C29  1  0.73681000  0.92301000  0.39110000  1.0 -0.2111168691
C  C30  1  0.84043000  0.93697000  0.18400000  1.0 0.6302389834
C  C31  1  0.56243000  0.87163000  0.37340000  1.0 0.2563376997
C  C32  1  0.50166000  0.95046000  0.26360000  1.0 -0.2266040582
C  C33  1  0.41143000  0.97223000  0.21290000  1.0 -0.0712488319
C  C34  1  0.38248000  0.91608000  0.27080000  1.0 -0.0516362254
C  C35  1  0.44534000  0.83554000  0.38120000  1.0 -0.0801340754
C  C36  1  0.53528000  0.81328000  0.43290000  1.0 -0.2111168691
C  C37  1  0.28573000  0.93851000  0.21560000  1.0 0.6302389834
C  C38  1  0.47660000  0.60560000  0.79240000  1.0 0.2377192315
C  C39  1  0.33060000  0.74720000  0.57580000  1.0 -0.0942467328
C  C40  1  0.39440000  0.76140000  0.65140000  1.0 -0.0801340754
C  C41  1  0.47220000  0.68960000  0.76190000  1.0 -0.1966895226
C  C42  1  0.25160000  0.82620000  0.45480000  1.0 0.482567576
C  C43  1  0.60250000  0.45910000  0.91080000  1.0 0.1383354204
C  C44  1  0.60710000  0.46070000  0.80990000  1.0 -0.1966895226
C  C45  1  0.66470000  0.38210000  0.82390000  1.0 0.0121149525
C  C46  1  0.65380000  0.38260000  0.02860000  1.0 0.0012576717
C  C47  1  0.12406000  0.30806000  0.36390000  1.0 0.2377192315
C  C48  1  0.14930000  0.30890000  0.27730000  1.0 -0.2111168691
C  C49  1  0.12897000  0.26137000  0.21680000  1.0 -0.0801340754
C  C50  1  0.08280000  0.21352000  0.24500000  1.0 -0.05913897
C  C51  1  0.05701000  0.21501000  0.33110000  1.0 -0.0801340754
C  C52  1  0.07699000  0.26319000  0.39110000  1.0 -0.2111168691
C  C53  1  0.06303000  0.15957000  0.18400000  1.0 0.6302389834
C  C54  1  0.12837000  0.43757000  0.37340000  1.0 0.2563376997
C  C55  1  0.04954000  0.49834000  0.26360000  1.0 -0.2266040582
C  C56  1  0.02777000  0.58857000  0.21290000  1.0 -0.0712488319
C  C57  1  0.08392000  0.61752000  0.27080000  1.0 -0.0516362254
C  C58  1  0.16446000  0.55466000  0.38120000  1.0 -0.0801340754
C  C59  1  0.18672000  0.46472000  0.43290000  1.0 -0.2111168691
C  C60  1  0.06149000  0.71427000  0.21560000  1.0 0.6302389834
C  C61  1  0.39440000  0.52340000  0.79240000  1.0 0.2377192315
C  C62  1  0.25280000  0.66940000  0.57580000  1.0 -0.0942467328
C  C63  1  0.23860000  0.60560000  0.65140000  1.0 -0.0801340754
C  C64  1  0.31040000  0.52780000  0.76190000  1.0 -0.1966895226
C  C65  1  0.17380000  0.74840000  0.45480000  1.0 0.482567576
C  C66  1  0.54090000  0.39750000  0.91080000  1.0 0.1383354204
C  C67  1  0.53930000  0.39290000  0.80990000  1.0 -0.1966895226
C  C68  1  0.61790000  0.33530000  0.82390000  1.0 0.0121149525
C  C69  1  0.61740000  0.34620000  0.02860000  1.0 0.0012576717
C  C70  1  0.30806000  0.12406000  0.63610000  1.0 0.2377192315
C  C71  1  0.30890000  0.14930000  0.72270000  1.0 -0.2111168691
C  C72  1  0.26137000  0.12897000  0.78320000  1.0 -0.0801340754
C  C73  1  0.21352000  0.08280000  0.75500000  1.0 -0.05913897
C  C74  1  0.21501000  0.05701000  0.66890000  1.0 -0.0801340754
C  C75  1  0.26319000  0.07699000  0.60890000  1.0 -0.2111168691
C  C76  1  0.15957000  0.06303000  0.81600000  1.0 0.6302389834
C  C77  1  0.43757000  0.12837000  0.62660000  1.0 0.2563376997
C  C78  1  0.49834000  0.04954000  0.73640000  1.0 -0.2266040582
C  C79  1  0.58857000  0.02777000  0.78710000  1.0 -0.0712488319
C  C80  1  0.61752000  0.08392000  0.72920000  1.0 -0.0516362254
C  C81  1  0.55466000  0.16446000  0.61880000  1.0 -0.0801340754
C  C82  1  0.46472000  0.18672000  0.56710000  1.0 -0.2111168691
C  C83  1  0.71427000  0.06149000  0.78440000  1.0 0.6302389834
C  C84  1  0.52340000  0.39440000  0.20760000  1.0 0.2377192315
C  C85  1  0.66940000  0.25280000  0.42420000  1.0 -0.0942467328
C  C86  1  0.60560000  0.23860000  0.34860000  1.0 -0.0801340754
C  C87  1  0.52780000  0.31040000  0.23810000  1.0 -0.1966895226
C  C88  1  0.74840000  0.17380000  0.54520000  1.0 0.482567576
C  C89  1  0.39750000  0.54090000  0.08920000  1.0 0.1383354204
C  C90  1  0.39290000  0.53930000  0.19010000  1.0 -0.1966895226
C  C91  1  0.33530000  0.61790000  0.17610000  1.0 0.0121149525
C  C92  1  0.34620000  0.61740000  0.97140000  1.0 0.0012576717
C  C93  1  0.58820000  0.41180000  0.27830000  1.0 -0.0942467328
C  C94  1  0.66200000  0.33800000  0.39040000  1.0 0.0630162966
C  C95  1  0.29340000  0.70660000  0.05810000  1.0 -0.05913897
C  C96  1  0.29730000  0.70270000  0.95680000  1.0 0.0202026956
C  C97  1  0.22060000  0.77940000  0.04320000  1.0 0.6302389834
C  C98  1  0.41180000  0.58820000  0.72170000  1.0 -0.0942467328
C  C99  1  0.33800000  0.66200000  0.60960000  1.0 0.0630162966
C  C100  1  0.70660000  0.29340000  0.94190000  1.0 -0.05913897
C  C101  1  0.70270000  0.29730000  0.04320000  1.0 0.0202026956
C  C102  1  0.77940000  0.22060000  0.95680000  1.0 0.6302389834
O  O1  1  0.84879000  0.65231000  0.56540000  1.0 -0.2266040582
O  O2  1  0.90253000  0.84747000  0.88370000  1.0 -0.6180964138
O  O3  1  0.98576000  0.87580000  0.79420000  1.0 -0.6353396501
O  O4  1  0.02091000  0.23057000  0.86390000  1.0 -0.6315985844
O  O5  1  0.87568000  0.26536000  0.75120000  1.0 -0.6180964138
O  O6  1  0.53530000  0.55090000  0.09150000  1.0 -0.2565782096
O  O7  1  0.90272000  0.24012000  0.56810000  1.0 -0.4579331752
O  O8  1  0.03982000  0.88042000  0.01570000  1.0 -0.4358043994
O  O9  1  0.99115000  0.09317000  0.83330000  1.0 -1.0869950976
O  O10  1  0.05030000  0.84150000  0.01980000  1.0 -0.1663462744
O  O11  1  0.65231000  0.84879000  0.43460000  1.0 -0.2266040582
O  O12  1  0.84747000  0.90253000  0.11630000  1.0 -0.6180964138
O  O13  1  0.87580000  0.98576000  0.20580000  1.0 -0.6315985844
O  O14  1  0.23057000  0.02091000  0.13610000  1.0 -0.6315985844
O  O15  1  0.26536000  0.87568000  0.24880000  1.0 -0.6180964138
O  O16  1  0.55090000  0.53530000  0.90850000  1.0 -0.2565782096
O  O17  1  0.24012000  0.90272000  0.43190000  1.0 -0.4579331752
O  O18  1  0.88042000  0.03982000  0.98430000  1.0 -0.4358043994
O  O19  1  0.09317000  0.99115000  0.16670000  1.0 -1.0869950976
O  O20  1  0.84150000  0.05030000  0.98020000  1.0 -0.1635815974
O  O21  1  0.15121000  0.34769000  0.43460000  1.0 -0.2266040582
O  O22  1  0.09747000  0.15253000  0.11630000  1.0 -0.6180964138
O  O23  1  0.01424000  0.12420000  0.20580000  1.0 -0.6315985844
O  O24  1  0.97909000  0.76943000  0.13610000  1.0 -0.6315985844
O  O25  1  0.12432000  0.73464000  0.24880000  1.0 -0.6180964138
O  O26  1  0.46470000  0.44910000  0.90850000  1.0 -0.2565782096
O  O27  1  0.09728000  0.75988000  0.43190000  1.0 -0.4579331752
O  O28  1  0.96018000  0.11958000  0.98430000  1.0 -0.434434044
O  O29  1  0.00885000  0.90683000  0.16670000  1.0 -1.0869950976
O  O30  1  0.94970000  0.15850000  0.98020000  1.0 -0.1663462744
O  O31  1  0.34769000  0.15121000  0.56540000  1.0 -0.2266040582
O  O32  1  0.15253000  0.09747000  0.88370000  1.0 -0.6180964138
O  O33  1  0.12420000  0.01424000  0.79420000  1.0 -0.6353396501
O  O34  1  0.76943000  0.97909000  0.86390000  1.0 -0.6315985844
O  O35  1  0.73464000  0.12432000  0.75120000  1.0 -0.6180964138
O  O36  1  0.44910000  0.46470000  0.09150000  1.0 -0.247007909
O  O37  1  0.75988000  0.09728000  0.56810000  1.0 -0.4579331752
O  O38  1  0.11958000  0.96018000  0.01570000  1.0 -0.434434044
O  O39  1  0.90683000  0.00885000  0.83330000  1.0 -1.0869950976
O  O40  1  0.15850000  0.94970000  0.01980000  1.0 -0.1663462744
O  O41  1  0.80270000  0.19730000  0.61940000  1.0 -0.5191457297
O  O42  1  0.22448000  0.77552000  0.14250000  1.0 -0.609916481
O  O43  1  0.16086000  0.83914000  0.93270000  1.0 -0.609916481
O  O44  1  0.19730000  0.80270000  0.38060000  1.0 -0.5191457297
O  O45  1  0.77552000  0.22448000  0.85750000  1.0 -0.609916481
O  O46  1  0.83914000  0.16086000  0.06730000  1.0 -0.609916481
