# DDEC6 charges by PACMAN v1.1 (https://github.com/mtap-research/PACMAN-charge/)
data_UCOCUM_FSR_pacman
_symmetry_space_group_name_H-M   'P 1'
_cell_length_a   18.60190000
_cell_length_b   18.60190000
_cell_length_c   18.60190000
_cell_angle_alpha   60.00000000
_cell_angle_beta   60.00000000
_cell_angle_gamma   60.00000000
_symmetry_Int_Tables_number   1
_chemical_formula_structural   Cu24PH24W12(C36O85)2
_chemical_formula_sum   'Cu24 P1 H24 W12 C72 O170'
_cell_volume   4551.52485078
_cell_formula_units_Z   1
loop_
 _symmetry_equiv_pos_site_id
 _symmetry_equiv_pos_as_xyz
  1  'x, y, z'
loop_
 _atom_site_type_symbol
 _atom_site_label
 _atom_site_symmetry_multiplicity
 _atom_site_fract_x
 _atom_site_fract_y
 _atom_site_fract_z
 _atom_site_occupancy
 _atom_site_charge
Cu  Cu1  1  0.50000000  0.92954000  0.50000000  1.0 0.7631194152
Cu  Cu2  1  0.92954000  0.50000000  0.07046000  1.0 0.7631194152
Cu  Cu3  1  0.50000000  0.07046000  0.50000000  1.0 0.7631194152
Cu  Cu4  1  0.07046000  0.50000000  0.92954000  1.0 0.7631194152
Cu  Cu5  1  0.50000000  0.50000000  0.92954000  1.0 0.7631194152
Cu  Cu6  1  0.07046000  0.92954000  0.50000000  1.0 0.7631194152
Cu  Cu7  1  0.50000000  0.50000000  0.07046000  1.0 0.7631194152
Cu  Cu8  1  0.92954000  0.07046000  0.50000000  1.0 0.7631194152
Cu  Cu9  1  0.92954000  0.50000000  0.50000000  1.0 0.7631194152
Cu  Cu10  1  0.50000000  0.07046000  0.92954000  1.0 0.7631194152
Cu  Cu11  1  0.07046000  0.50000000  0.50000000  1.0 0.7631194152
Cu  Cu12  1  0.50000000  0.92954000  0.07046000  1.0 0.7631194152
Cu  Cu13  1  0.20200000  0.00000000  0.00000000  1.0 1.1431891082
Cu  Cu14  1  0.00000000  0.20200000  0.79800000  1.0 1.1431891082
Cu  Cu15  1  0.00000000  0.79800000  0.20200000  1.0 1.1431891082
Cu  Cu16  1  0.79800000  0.00000000  0.00000000  1.0 1.1431891082
Cu  Cu17  1  0.00000000  0.20200000  0.00000000  1.0 1.1431891082
Cu  Cu18  1  0.79800000  0.00000000  0.20200000  1.0 1.1431891082
Cu  Cu19  1  0.20200000  0.00000000  0.79800000  1.0 1.1431891082
Cu  Cu20  1  0.00000000  0.79800000  0.00000000  1.0 1.1431891082
Cu  Cu21  1  0.00000000  0.00000000  0.20200000  1.0 1.1431891082
Cu  Cu22  1  0.20200000  0.79800000  0.00000000  1.0 1.1431891082
Cu  Cu23  1  0.79800000  0.20200000  0.00000000  1.0 1.1431891082
Cu  Cu24  1  0.00000000  0.00000000  0.79800000  1.0 1.1431891082
P  P1  1  0.00000000  0.00000000  0.00000000  1.0 0.9717981376
H  H1  1  0.77180000  0.99140000  0.46500000  1.0 0.0848900013
H  H2  1  0.99140000  0.77180000  0.77180000  1.0 0.0848900013
H  H3  1  0.46500000  0.77180000  0.77180000  1.0 0.0848900013
H  H4  1  0.77180000  0.46500000  0.99140000  1.0 0.0848900013
H  H5  1  0.46500000  0.77180000  0.99140000  1.0 0.0848900013
H  H6  1  0.77180000  0.99140000  0.77180000  1.0 0.0848900013
H  H7  1  0.77180000  0.46500000  0.77180000  1.0 0.0848900013
H  H8  1  0.99140000  0.77180000  0.46500000  1.0 0.0848900013
H  H9  1  0.99140000  0.46500000  0.77180000  1.0 0.0848900013
H  H10  1  0.77180000  0.77180000  0.99140000  1.0 0.0848900013
H  H11  1  0.77180000  0.77180000  0.46500000  1.0 0.0848900013
H  H12  1  0.46500000  0.99140000  0.77180000  1.0 0.0848900013
H  H13  1  0.22820000  0.00860000  0.22820000  1.0 0.0848900013
H  H14  1  0.00860000  0.22820000  0.53500000  1.0 0.0848900013
H  H15  1  0.53500000  0.22820000  0.00860000  1.0 0.0848900013
H  H16  1  0.22820000  0.53500000  0.22820000  1.0 0.0848900013
H  H17  1  0.53500000  0.22820000  0.22820000  1.0 0.0848900013
H  H18  1  0.22820000  0.00860000  0.53500000  1.0 0.0848900013
H  H19  1  0.22820000  0.53500000  0.00860000  1.0 0.0848900013
H  H20  1  0.00860000  0.22820000  0.22820000  1.0 0.0848900013
H  H21  1  0.00860000  0.53500000  0.22820000  1.0 0.0848900013
H  H22  1  0.22820000  0.22820000  0.53500000  1.0 0.0848900013
H  H23  1  0.22820000  0.22820000  0.00860000  1.0 0.0848900013
H  H24  1  0.53500000  0.00860000  0.22820000  1.0 0.0848900013
W  W1  1  0.00000000  0.80896000  0.00000000  1.0 2.2162475875
W  W2  1  0.80896000  0.00000000  0.19104000  1.0 2.2162475875
W  W3  1  0.00000000  0.19104000  0.00000000  1.0 2.2144578852
W  W4  1  0.19104000  0.00000000  0.80896000  1.0 2.2162475875
W  W5  1  0.00000000  0.00000000  0.80896000  1.0 2.2162475875
W  W6  1  0.19104000  0.80896000  0.00000000  1.0 2.2162475875
W  W7  1  0.00000000  0.00000000  0.19104000  1.0 2.2162475875
W  W8  1  0.80896000  0.19104000  0.00000000  1.0 2.2162475875
W  W9  1  0.80896000  0.00000000  0.00000000  1.0 2.2162475875
W  W10  1  0.00000000  0.19104000  0.80896000  1.0 2.2144578852
W  W11  1  0.19104000  0.00000000  0.00000000  1.0 2.2162475875
W  W12  1  0.00000000  0.80896000  0.19104000  1.0 2.2144578852
C  C1  1  0.80100000  0.93200000  0.46600000  1.0 -0.1049219213
C  C2  1  0.93200000  0.80100000  0.80100000  1.0 -0.1049219213
C  C3  1  0.46600000  0.80100000  0.80100000  1.0 -0.1049219213
C  C4  1  0.80100000  0.46600000  0.93200000  1.0 -0.1049219213
C  C5  1  0.46600000  0.80100000  0.93200000  1.0 -0.1049219213
C  C6  1  0.80100000  0.93200000  0.80100000  1.0 -0.1049219213
C  C7  1  0.80100000  0.46600000  0.80100000  1.0 -0.1049219213
C  C8  1  0.93200000  0.80100000  0.46600000  1.0 -0.1049219213
C  C9  1  0.93200000  0.46600000  0.80100000  1.0 -0.1049219213
C  C10  1  0.80100000  0.80100000  0.93200000  1.0 -0.1049219213
C  C11  1  0.80100000  0.80100000  0.46600000  1.0 -0.1049219213
C  C12  1  0.46600000  0.93200000  0.80100000  1.0 -0.1049219213
C  C13  1  0.19900000  0.06800000  0.19900000  1.0 -0.1049219213
C  C14  1  0.06800000  0.19900000  0.53400000  1.0 -0.1049219213
C  C15  1  0.53400000  0.19900000  0.06800000  1.0 -0.1054523058
C  C16  1  0.19900000  0.53400000  0.19900000  1.0 -0.1049219213
C  C17  1  0.53400000  0.19900000  0.19900000  1.0 -0.1054523058
C  C18  1  0.19900000  0.06800000  0.53400000  1.0 -0.1049219213
C  C19  1  0.19900000  0.53400000  0.06800000  1.0 -0.1049219213
C  C20  1  0.06800000  0.19900000  0.19900000  1.0 -0.1049219213
C  C21  1  0.06800000  0.53400000  0.19900000  1.0 -0.1049219213
C  C22  1  0.19900000  0.19900000  0.53400000  1.0 -0.1054523058
C  C23  1  0.19900000  0.19900000  0.06800000  1.0 -0.1049219213
C  C24  1  0.53400000  0.06800000  0.19900000  1.0 -0.1049219213
C  C25  1  0.75470000  0.88930000  0.46670000  1.0 -0.0664337051
C  C26  1  0.88930000  0.75470000  0.88930000  1.0 -0.0664337051
C  C27  1  0.46670000  0.88930000  0.75470000  1.0 -0.0664337051
C  C28  1  0.88930000  0.46670000  0.88930000  1.0 -0.0664337051
C  C29  1  0.46670000  0.75470000  0.88930000  1.0 -0.0664337051
C  C30  1  0.88930000  0.88930000  0.75470000  1.0 -0.0664337051
C  C31  1  0.75470000  0.46670000  0.88930000  1.0 -0.0664337051
C  C32  1  0.88930000  0.88930000  0.46670000  1.0 -0.0664337051
C  C33  1  0.88930000  0.46670000  0.75470000  1.0 -0.0664337051
C  C34  1  0.75470000  0.88930000  0.88930000  1.0 -0.0664337051
C  C35  1  0.88930000  0.75470000  0.46670000  1.0 -0.0664337051
C  C36  1  0.46670000  0.88930000  0.88930000  1.0 -0.0664337051
C  C37  1  0.24530000  0.11070000  0.11070000  1.0 -0.0664337051
C  C38  1  0.11070000  0.24530000  0.53330000  1.0 -0.0664337051
C  C39  1  0.53330000  0.11070000  0.11070000  1.0 -0.0664337051
C  C40  1  0.11070000  0.53330000  0.24530000  1.0 -0.0664337051
C  C41  1  0.53330000  0.24530000  0.11070000  1.0 -0.0664337051
C  C42  1  0.11070000  0.11070000  0.53330000  1.0 -0.0664337051
C  C43  1  0.24530000  0.53330000  0.11070000  1.0 -0.0664337051
C  C44  1  0.11070000  0.11070000  0.24530000  1.0 -0.0664337051
C  C45  1  0.11070000  0.53330000  0.11070000  1.0 -0.0664337051
C  C46  1  0.24530000  0.11070000  0.53330000  1.0 -0.0664337051
C  C47  1  0.11070000  0.24530000  0.11070000  1.0 -0.0664337051
C  C48  1  0.53330000  0.11070000  0.24530000  1.0 -0.0664337051
C  C49  1  0.66200000  0.93120000  0.47560000  1.0 0.5585183583
C  C50  1  0.93120000  0.66200000  0.93120000  1.0 0.5585183583
C  C51  1  0.47560000  0.93120000  0.66200000  1.0 0.5585183583
C  C52  1  0.93120000  0.47560000  0.93120000  1.0 0.5585183583
C  C53  1  0.47560000  0.66200000  0.93120000  1.0 0.5585183583
C  C54  1  0.93120000  0.93120000  0.66200000  1.0 0.5585183583
C  C55  1  0.66200000  0.47560000  0.93120000  1.0 0.5585183583
C  C56  1  0.93120000  0.93120000  0.47560000  1.0 0.5585183583
C  C57  1  0.93120000  0.47560000  0.66200000  1.0 0.5585183583
C  C58  1  0.66200000  0.93120000  0.93120000  1.0 0.5585183583
C  C59  1  0.93120000  0.66200000  0.47560000  1.0 0.5585183583
C  C60  1  0.47560000  0.93120000  0.93120000  1.0 0.5585183583
C  C61  1  0.33800000  0.06880000  0.06880000  1.0 0.5585183583
C  C62  1  0.06880000  0.33800000  0.52440000  1.0 0.5585183583
C  C63  1  0.52440000  0.06880000  0.06880000  1.0 0.5585183583
C  C64  1  0.06880000  0.52440000  0.33800000  1.0 0.5585183583
C  C65  1  0.52440000  0.33800000  0.06880000  1.0 0.5585183583
C  C66  1  0.06880000  0.06880000  0.52440000  1.0 0.5585183583
C  C67  1  0.33800000  0.52440000  0.06880000  1.0 0.5585183583
C  C68  1  0.06880000  0.06880000  0.33800000  1.0 0.5585183583
C  C69  1  0.06880000  0.52440000  0.06880000  1.0 0.5585183583
C  C70  1  0.33800000  0.06880000  0.52440000  1.0 0.5585183583
C  C71  1  0.06880000  0.33800000  0.06880000  1.0 0.5585183583
C  C72  1  0.52440000  0.06880000  0.33800000  1.0 0.5585183583
O  O1  1  0.62630000  0.88610000  0.47870000  1.0 -0.5306218868
O  O2  1  0.88610000  0.62630000  0.00890000  1.0 -0.5306218868
O  O3  1  0.47870000  0.00890000  0.62630000  1.0 -0.5306218868
O  O4  1  0.00890000  0.47870000  0.88610000  1.0 -0.5306218868
O  O5  1  0.47870000  0.62630000  0.88610000  1.0 -0.5306218868
O  O6  1  0.00890000  0.88610000  0.62630000  1.0 -0.5306218868
O  O7  1  0.62630000  0.47870000  0.00890000  1.0 -0.5306218868
O  O8  1  0.88610000  0.00890000  0.47870000  1.0 -0.5306218868
O  O9  1  0.88610000  0.47870000  0.62630000  1.0 -0.5306218868
O  O10  1  0.62630000  0.00890000  0.88610000  1.0 -0.5306218868
O  O11  1  0.00890000  0.62630000  0.47870000  1.0 -0.5306218868
O  O12  1  0.47870000  0.88610000  0.00890000  1.0 -0.5306218868
O  O13  1  0.37370000  0.11390000  0.99110000  1.0 -0.5306218868
O  O14  1  0.11390000  0.37370000  0.52130000  1.0 -0.5306218868
O  O15  1  0.52130000  0.99110000  0.11390000  1.0 -0.5306218868
O  O16  1  0.99110000  0.52130000  0.37370000  1.0 -0.5306218868
O  O17  1  0.52130000  0.37370000  0.99110000  1.0 -0.5306218868
O  O18  1  0.99110000  0.11390000  0.52130000  1.0 -0.5306218868
O  O19  1  0.37370000  0.52130000  0.11390000  1.0 -0.5306218868
O  O20  1  0.11390000  0.99110000  0.37370000  1.0 -0.5306218868
O  O21  1  0.11390000  0.52130000  0.99110000  1.0 -0.5306218868
O  O22  1  0.37370000  0.99110000  0.52130000  1.0 -0.5306218868
O  O23  1  0.99110000  0.37370000  0.11390000  1.0 -0.5306218868
O  O24  1  0.52130000  0.11390000  0.37370000  1.0 -0.5306218868
O  O25  1  0.37370000  0.11390000  0.52130000  1.0 -0.5306218868
O  O26  1  0.11390000  0.37370000  0.99110000  1.0 -0.5306218868
O  O27  1  0.52130000  0.99110000  0.37370000  1.0 -0.5306218868
O  O28  1  0.99110000  0.52130000  0.11390000  1.0 -0.5306218868
O  O29  1  0.52130000  0.37370000  0.11390000  1.0 -0.5306218868
O  O30  1  0.99110000  0.11390000  0.37370000  1.0 -0.5306218868
O  O31  1  0.37370000  0.52130000  0.99110000  1.0 -0.5306218868
O  O32  1  0.11390000  0.99110000  0.52130000  1.0 -0.5306218868
O  O33  1  0.11390000  0.52130000  0.37370000  1.0 -0.5306218868
O  O34  1  0.37370000  0.99110000  0.11390000  1.0 -0.5306218868
O  O35  1  0.99110000  0.37370000  0.52130000  1.0 -0.5306218868
O  O36  1  0.52130000  0.11390000  0.99110000  1.0 -0.5306218868
O  O37  1  0.62630000  0.88610000  0.00890000  1.0 -0.5306218868
O  O38  1  0.88610000  0.62630000  0.47870000  1.0 -0.5306218868
O  O39  1  0.47870000  0.00890000  0.88610000  1.0 -0.5306218868
O  O40  1  0.00890000  0.47870000  0.62630000  1.0 -0.5306218868
O  O41  1  0.47870000  0.62630000  0.00890000  1.0 -0.5306218868
O  O42  1  0.00890000  0.88610000  0.47870000  1.0 -0.5306218868
O  O43  1  0.62630000  0.47870000  0.88610000  1.0 -0.5306218868
O  O44  1  0.88610000  0.00890000  0.62630000  1.0 -0.5306218868
O  O45  1  0.88610000  0.47870000  0.00890000  1.0 -0.5306218868
O  O46  1  0.62630000  0.00890000  0.47870000  1.0 -0.5306218868
O  O47  1  0.00890000  0.62630000  0.88610000  1.0 -0.5306218868
O  O48  1  0.47870000  0.88610000  0.62630000  1.0 -0.5306218868
O  O49  1  0.52390000  0.81270000  0.47610000  1.0 0.158318118
O  O50  1  0.81270000  0.52390000  0.18730000  1.0 0.158318118
O  O51  1  0.47610000  0.18730000  0.52390000  1.0 0.158318118
O  O52  1  0.18730000  0.47610000  0.81270000  1.0 0.158318118
O  O53  1  0.47610000  0.52390000  0.81270000  1.0 0.158318118
O  O54  1  0.18730000  0.81270000  0.52390000  1.0 0.158318118
O  O55  1  0.52390000  0.47610000  0.18730000  1.0 0.158318118
O  O56  1  0.81270000  0.18730000  0.47610000  1.0 0.158318118
O  O57  1  0.81270000  0.47610000  0.52390000  1.0 0.158318118
O  O58  1  0.52390000  0.18730000  0.81270000  1.0 0.158318118
O  O59  1  0.18730000  0.52390000  0.47610000  1.0 0.158318118
O  O60  1  0.47610000  0.81270000  0.18730000  1.0 0.158318118
O  O61  1  0.47610000  0.18730000  0.81270000  1.0 0.158318118
O  O62  1  0.18730000  0.47610000  0.52390000  1.0 0.158318118
O  O63  1  0.52390000  0.81270000  0.18730000  1.0 0.158318118
O  O64  1  0.81270000  0.52390000  0.47610000  1.0 0.158318118
O  O65  1  0.52390000  0.47610000  0.81270000  1.0 0.158318118
O  O66  1  0.81270000  0.18730000  0.52390000  1.0 0.158318118
O  O67  1  0.47610000  0.52390000  0.18730000  1.0 0.158318118
O  O68  1  0.18730000  0.81270000  0.47610000  1.0 0.158318118
O  O69  1  0.18730000  0.52390000  0.81270000  1.0 0.158318118
O  O70  1  0.47610000  0.81270000  0.52390000  1.0 0.158318118
O  O71  1  0.81270000  0.47610000  0.18730000  1.0 0.158318118
O  O72  1  0.52390000  0.18730000  0.47610000  1.0 0.158318118
O  O73  1  0.12080000  0.77840000  0.98000000  1.0 -0.9826866009
O  O74  1  0.77840000  0.12080000  0.12080000  1.0 -0.9826866009
O  O75  1  0.98000000  0.12080000  0.12080000  1.0 -0.9826866009
O  O76  1  0.12080000  0.98000000  0.77840000  1.0 -0.9826866009
O  O77  1  0.98000000  0.12080000  0.77840000  1.0 -0.9826866009
O  O78  1  0.12080000  0.77840000  0.12080000  1.0 -0.9826866009
O  O79  1  0.12080000  0.98000000  0.12080000  1.0 -0.9826866009
O  O80  1  0.77840000  0.12080000  0.98000000  1.0 -0.9826866009
O  O81  1  0.77840000  0.98000000  0.12080000  1.0 -0.9826866009
O  O82  1  0.12080000  0.12080000  0.77840000  1.0 -0.9826866009
O  O83  1  0.12080000  0.12080000  0.98000000  1.0 -0.9826866009
O  O84  1  0.98000000  0.77840000  0.12080000  1.0 -0.9826866009
O  O85  1  0.87920000  0.22160000  0.87920000  1.0 -0.9826866009
O  O86  1  0.22160000  0.87920000  0.02000000  1.0 -0.9826866009
O  O87  1  0.02000000  0.87920000  0.22160000  1.0 -0.9826866009
O  O88  1  0.87920000  0.02000000  0.87920000  1.0 -0.9826866009
O  O89  1  0.02000000  0.87920000  0.87920000  1.0 -0.9826866009
O  O90  1  0.87920000  0.22160000  0.02000000  1.0 -0.9826866009
O  O91  1  0.87920000  0.02000000  0.22160000  1.0 -0.9826866009
O  O92  1  0.22160000  0.87920000  0.87920000  1.0 -0.9826866009
O  O93  1  0.22160000  0.02000000  0.87920000  1.0 -0.9826866009
O  O94  1  0.87920000  0.87920000  0.02000000  1.0 -0.9826866009
O  O95  1  0.87920000  0.87920000  0.22160000  1.0 -0.9826866009
O  O96  1  0.02000000  0.22160000  0.87920000  1.0 -0.9826866009
O  O97  1  0.00000000  0.72040000  0.00000000  1.0 -0.6033481799
O  O98  1  0.72040000  0.00000000  0.27960000  1.0 -0.6059078418
O  O99  1  0.00000000  0.27960000  0.00000000  1.0 -0.6059078418
O  O100  1  0.27960000  0.00000000  0.72040000  1.0 -0.6059078418
O  O101  1  0.00000000  0.00000000  0.72040000  1.0 -0.6059078418
O  O102  1  0.27960000  0.72040000  0.00000000  1.0 -0.6033481799
O  O103  1  0.00000000  0.00000000  0.27960000  1.0 -0.6059078418
O  O104  1  0.72040000  0.27960000  0.00000000  1.0 -0.6033481799
O  O105  1  0.72040000  0.00000000  0.00000000  1.0 -0.6059078418
O  O106  1  0.00000000  0.27960000  0.72040000  1.0 -0.6059078418
O  O107  1  0.27960000  0.00000000  0.00000000  1.0 -0.6059078418
O  O108  1  0.00000000  0.72040000  0.27960000  1.0 -0.6059078418
O  O109  1  0.96730000  0.96730000  0.96730000  1.0 -0.4633303351
O  O110  1  0.96730000  0.96730000  0.09810000  1.0 -0.4633303351
O  O111  1  0.96730000  0.09810000  0.96730000  1.0 -0.4633303351
O  O112  1  0.09810000  0.96730000  0.96730000  1.0 -0.4633303351
O  O113  1  0.03270000  0.03270000  0.90190000  1.0 -0.4633303351
O  O114  1  0.03270000  0.03270000  0.03270000  1.0 -0.4633303351
O  O115  1  0.03270000  0.90190000  0.03270000  1.0 -0.4633303351
O  O116  1  0.90190000  0.03270000  0.03270000  1.0 -0.4633303351
O  O117  1  0.19100000  0.80900000  0.19100000  1.0 0.2129177906
O  O118  1  0.80900000  0.19100000  0.80900000  1.0 0.2014120179
O  O119  1  0.19100000  0.19100000  0.80900000  1.0 0.2014120179
O  O120  1  0.80900000  0.80900000  0.19100000  1.0 0.2129177906
O  O121  1  0.80900000  0.19100000  0.19100000  1.0 0.2129177906
O  O122  1  0.19100000  0.80900000  0.80900000  1.0 0.2014120179
O  O123  1  0.32790000  0.81910000  0.16450000  1.0 -0.1413169642
O  O124  1  0.81910000  0.32790000  0.68850000  1.0 -0.1413169642
O  O125  1  0.16450000  0.68850000  0.32790000  1.0 -0.1413169642
O  O126  1  0.68850000  0.16450000  0.81910000  1.0 -0.1413169642
O  O127  1  0.16450000  0.32790000  0.81910000  1.0 -0.1413169642
O  O128  1  0.68850000  0.81910000  0.32790000  1.0 -0.1413169642
O  O129  1  0.32790000  0.16450000  0.68850000  1.0 -0.1413169642
O  O130  1  0.81910000  0.68850000  0.16450000  1.0 -0.1413169642
O  O131  1  0.81910000  0.16450000  0.32790000  1.0 -0.1413169642
O  O132  1  0.32790000  0.68850000  0.81910000  1.0 -0.1413169642
O  O133  1  0.68850000  0.32790000  0.16450000  1.0 -0.1413169642
O  O134  1  0.16450000  0.81910000  0.68850000  1.0 -0.1413169642
O  O135  1  0.67210000  0.18090000  0.31150000  1.0 -0.1413169642
O  O136  1  0.18090000  0.67210000  0.83550000  1.0 -0.1413169642
O  O137  1  0.83550000  0.31150000  0.18090000  1.0 -0.1413169642
O  O138  1  0.31150000  0.83550000  0.67210000  1.0 -0.1413169642
O  O139  1  0.83550000  0.67210000  0.31150000  1.0 -0.1413169642
O  O140  1  0.31150000  0.18090000  0.83550000  1.0 -0.1413169642
O  O141  1  0.67210000  0.83550000  0.18090000  1.0 -0.1413169642
O  O142  1  0.18090000  0.31150000  0.67210000  1.0 -0.1413169642
O  O143  1  0.18090000  0.83550000  0.31150000  1.0 -0.1413169642
O  O144  1  0.67210000  0.31150000  0.83550000  1.0 -0.1413169642
O  O145  1  0.31150000  0.67210000  0.18090000  1.0 -0.1413169642
O  O146  1  0.83550000  0.18090000  0.67210000  1.0 -0.1413169642
O  O147  1  0.67210000  0.18090000  0.83550000  1.0 -0.1413169642
O  O148  1  0.18090000  0.67210000  0.31150000  1.0 -0.1413169642
O  O149  1  0.83550000  0.31150000  0.67210000  1.0 -0.1413169642
O  O150  1  0.31150000  0.83550000  0.18090000  1.0 -0.1413169642
O  O151  1  0.83550000  0.67210000  0.18090000  1.0 -0.1413169642
O  O152  1  0.31150000  0.18090000  0.67210000  1.0 -0.1413169642
O  O153  1  0.67210000  0.83550000  0.31150000  1.0 -0.1413169642
O  O154  1  0.18090000  0.31150000  0.83550000  1.0 -0.1413169642
O  O155  1  0.18090000  0.83550000  0.67210000  1.0 -0.1413169642
O  O156  1  0.67210000  0.31150000  0.18090000  1.0 -0.1413169642
O  O157  1  0.31150000  0.67210000  0.83550000  1.0 -0.1413169642
O  O158  1  0.83550000  0.18090000  0.31150000  1.0 -0.1413169642
O  O159  1  0.32790000  0.81910000  0.68850000  1.0 -0.1413169642
O  O160  1  0.81910000  0.32790000  0.16450000  1.0 -0.1413169642
O  O161  1  0.16450000  0.68850000  0.81910000  1.0 -0.1413169642
O  O162  1  0.68850000  0.16450000  0.32790000  1.0 -0.1413169642
O  O163  1  0.16450000  0.32790000  0.68850000  1.0 -0.1413169642
O  O164  1  0.68850000  0.81910000  0.16450000  1.0 -0.1413169642
O  O165  1  0.32790000  0.16450000  0.81910000  1.0 -0.1413169642
O  O166  1  0.81910000  0.68850000  0.32790000  1.0 -0.1413169642
O  O167  1  0.81910000  0.16450000  0.68850000  1.0 -0.1413169642
O  O168  1  0.32790000  0.68850000  0.16450000  1.0 -0.1413169642
O  O169  1  0.68850000  0.32790000  0.81910000  1.0 -0.1413169642
O  O170  1  0.16450000  0.81910000  0.32790000  1.0 -0.1413169642
