# DDEC6 charges by PACMAN v1.1 (https://github.com/mtap-research/PACMAN-charge/)
data_UDAWUU_FSR_pacman
_symmetry_space_group_name_H-M   'P 1'
_cell_length_a   14.96580000
_cell_length_b   18.57460000
_cell_length_c   32.52370000
_cell_angle_alpha   98.63140000
_cell_angle_beta   89.52490000
_cell_angle_gamma   111.03300000
_symmetry_Int_Tables_number   1
_chemical_formula_structural   Zn3H24C36I7N12
_chemical_formula_sum   'Zn12 H96 C144 I28 N48'
_cell_volume   8332.93529204
_cell_formula_units_Z   4
loop_
 _symmetry_equiv_pos_site_id
 _symmetry_equiv_pos_as_xyz
  1  'x, y, z'
loop_
 _atom_site_type_symbol
 _atom_site_label
 _atom_site_symmetry_multiplicity
 _atom_site_fract_x
 _atom_site_fract_y
 _atom_site_fract_z
 _atom_site_occupancy
 _atom_site_charge
Zn  Zn1  1  0.18473000  0.64657000  0.09111000  1.0 0.4710934806
Zn  Zn2  1  0.29307000  0.25502000  0.93217000  1.0 0.4710934806
Zn  Zn3  1  0.85671000  0.87087000  0.78341000  1.0 0.3351864962
Zn  Zn4  1  0.37117000  0.17171000  0.42928000  1.0 0.4710934806
Zn  Zn5  1  0.47778000  0.80421000  0.25879000  1.0 0.4531738608
Zn  Zn6  1  0.02543000  0.71100000  0.59819000  1.0 0.3954180924
Zn  Zn7  1  0.81527000  0.35343000  0.90889000  1.0 0.4710934806
Zn  Zn8  1  0.70693000  0.74498000  0.06783000  1.0 0.4710934806
Zn  Zn9  1  0.14329000  0.12913000  0.21659000  1.0 0.334190294
Zn  Zn10  1  0.62883000  0.82829000  0.57072000  1.0 0.4710934806
Zn  Zn11  1  0.52222000  0.19579000  0.74121000  1.0 0.4531738608
Zn  Zn12  1  0.97457000  0.28900000  0.40181000  1.0 0.3954180924
H  H1  1  0.98830000  0.52100000  0.06040000  1.0 0.1014290905
H  H2  1  0.85430000  0.50880000  0.01950000  1.0 0.1370486444
H  H3  1  0.99780000  0.72390000  0.99150000  1.0 0.1370486444
H  H4  1  0.12710000  0.73150000  0.03280000  1.0 0.1077507304
H  H5  1  0.59980000  0.45310000  0.00270000  1.0 0.1370486444
H  H6  1  0.45620000  0.34630000  0.99650000  1.0 0.1014290905
H  H7  1  0.40970000  0.36880000  0.88110000  1.0 0.1014290905
H  H8  1  0.54860000  0.47830000  0.88510000  1.0 0.1370486444
H  H9  1  0.19430000  0.13510000  0.85740000  1.0 0.0884780311
H  H10  1  0.22030000  0.03880000  0.80950000  1.0 0.1077507304
H  H11  1  0.48680000  0.10620000  0.86190000  1.0 0.1370486444
H  H12  1  0.45510000  0.20230000  0.90660000  1.0 0.1014290905
H  H13  1  0.33780000  0.80250000  0.68120000  1.0 0.1307671173
H  H14  1  0.22920000  0.73590000  0.62660000  1.0 0.1014290905
H  H15  1  0.05490000  0.84300000  0.66666667  1.0 0.0884780311
H  H16  1  0.15590000  0.91080000  0.72370000  1.0 0.1243577549
H  H17  1  0.62350000  0.00150000  0.83090000  1.0 0.1370486444
H  H18  1  0.76820000  0.97960000  0.82950000  1.0 0.0796573207
H  H19  1  0.66550000  0.80430000  0.73740000  1.0 0.1014290905
H  H20  1  0.51910000  0.82100000  0.73540000  1.0 0.1370486444
H  H21  1  0.70390000  0.72630000  0.80320000  1.0 0.1014290905
H  H22  1  0.66980000  0.64440000  0.85310000  1.0 0.1307671173
H  H23  1  0.92700000  0.77440000  0.91110000  1.0 0.1307671173
H  H24  1  0.94990000  0.85870000  0.86310000  1.0 0.0796573207
H  H25  1  0.04730000  0.55550000  0.56480000  1.0 0.1014290905
H  H26  1  0.16940000  0.76540000  0.53670000  1.0 0.0884780311
H  H27  1  0.25020000  0.72030000  0.48370000  1.0 0.1307671173
H  H28  1  0.12490000  0.50400000  0.51260000  1.0 0.1307671173
H  H29  1  0.38890000  0.56160000  0.32390000  1.0 0.1370486444
H  H30  1  0.44820000  0.64220000  0.27480000  1.0 0.1014290905
H  H31  1  0.40630000  0.81770000  0.34620000  1.0 0.1014290905
H  H32  1  0.34040000  0.74090000  0.39530000  1.0 0.1307671173
H  H33  1  0.66090000  0.92490000  0.30320000  1.0 0.1014290905
H  H34  1  0.82290000  0.94780000  0.30890000  1.0 0.1370486444
H  H35  1  0.77770000  0.75450000  0.22370000  1.0 0.1370486444
H  H36  1  0.61630000  0.73390000  0.22100000  1.0 0.1014290905
H  H37  1  0.95330000  0.71010000  0.18650000  1.0 0.1307671173
H  H38  1  0.01010000  0.64190000  0.13330000  1.0 0.1014290905
H  H39  1  0.27060000  0.80050000  0.15270000  1.0 0.1077507304
H  H40  1  0.22160000  0.87230000  0.20710000  1.0 0.1243577549
H  H41  1  0.26400000  0.98980000  0.29360000  1.0 0.1243577549
H  H42  1  0.37380000  0.07860000  0.34350000  1.0 0.1014290905
H  H43  1  0.05100000  0.03090000  0.35760000  1.0 0.1307671173
H  H44  1  0.16480000  0.11480000  0.40760000  1.0 0.0796573207
H  H45  1  0.28520000  0.27510000  0.48220000  1.0 0.1014290905
H  H46  1  0.25380000  0.38850000  0.48140000  1.0 0.1307671173
H  H47  1  0.37790000  0.40810000  0.37110000  1.0 0.1307671173
H  H48  1  0.40470000  0.29430000  0.37440000  1.0 0.1077507304
H  H49  1  0.01170000  0.47900000  0.93960000  1.0 0.1014290905
H  H50  1  0.14570000  0.49120000  0.98050000  1.0 0.1370486444
H  H51  1  0.00220000  0.27610000  0.00850000  1.0 0.1370486444
H  H52  1  0.87290000  0.26850000  0.96720000  1.0 0.1077507304
H  H53  1  0.40020000  0.54690000  0.99730000  1.0 0.1370486444
H  H54  1  0.54380000  0.65370000  0.00350000  1.0 0.1014290905
H  H55  1  0.59030000  0.63120000  0.11890000  1.0 0.1014290905
H  H56  1  0.45140000  0.52170000  0.11490000  1.0 0.1370486444
H  H57  1  0.80570000  0.86490000  0.14260000  1.0 0.0884780311
H  H58  1  0.77970000  0.96120000  0.19050000  1.0 0.1077507304
H  H59  1  0.51320000  0.89380000  0.13810000  1.0 0.1370486444
H  H60  1  0.54490000  0.79770000  0.09340000  1.0 0.1014290905
H  H61  1  0.66220000  0.19750000  0.31880000  1.0 0.1307671173
H  H62  1  0.77080000  0.26410000  0.37340000  1.0 0.1014290905
H  H63  1  0.94510000  0.15700000  0.33333333  1.0 0.0884780311
H  H64  1  0.84410000  0.08920000  0.27630000  1.0 0.1243577549
H  H65  1  0.37650000  0.99850000  0.16910000  1.0 0.1370486444
H  H66  1  0.23180000  0.02040000  0.17050000  1.0 0.0796573207
H  H67  1  0.33450000  0.19570000  0.26260000  1.0 0.1014290905
H  H68  1  0.48090000  0.17900000  0.26460000  1.0 0.1370486444
H  H69  1  0.29610000  0.27370000  0.19680000  1.0 0.1014290905
H  H70  1  0.33020000  0.35560000  0.14690000  1.0 0.1307671173
H  H71  1  0.07300000  0.22560000  0.08890000  1.0 0.1307671173
H  H72  1  0.05010000  0.14130000  0.13690000  1.0 0.0796573207
H  H73  1  0.95270000  0.44450000  0.43520000  1.0 0.1014290905
H  H74  1  0.83060000  0.23460000  0.46330000  1.0 0.0884780311
H  H75  1  0.74980000  0.27970000  0.51630000  1.0 0.1307671173
H  H76  1  0.87510000  0.49600000  0.48740000  1.0 0.1307671173
H  H77  1  0.61110000  0.43840000  0.67610000  1.0 0.1370486444
H  H78  1  0.55180000  0.35780000  0.72520000  1.0 0.1014290905
H  H79  1  0.59370000  0.18230000  0.65380000  1.0 0.1014290905
H  H80  1  0.65960000  0.25910000  0.60470000  1.0 0.1307671173
H  H81  1  0.33910000  0.07510000  0.69680000  1.0 0.1014290905
H  H82  1  0.17710000  0.05220000  0.69110000  1.0 0.1370486444
H  H83  1  0.22230000  0.24550000  0.77630000  1.0 0.1370486444
H  H84  1  0.38370000  0.26610000  0.77900000  1.0 0.1014290905
H  H85  1  0.04670000  0.28990000  0.81350000  1.0 0.1307671173
H  H86  1  0.98990000  0.35810000  0.86670000  1.0 0.1014290905
H  H87  1  0.72940000  0.19950000  0.84730000  1.0 0.1077507304
H  H88  1  0.77840000  0.12770000  0.79290000  1.0 0.1243577549
H  H89  1  0.73600000  0.01020000  0.70640000  1.0 0.1243577549
H  H90  1  0.62620000  0.92140000  0.65650000  1.0 0.1014290905
H  H91  1  0.94900000  0.96910000  0.64240000  1.0 0.1307671173
H  H92  1  0.83520000  0.88520000  0.59240000  1.0 0.0796573207
H  H93  1  0.71480000  0.72490000  0.51780000  1.0 0.1014290905
H  H94  1  0.74620000  0.61150000  0.51860000  1.0 0.1307671173
H  H95  1  0.62210000  0.59190000  0.62890000  1.0 0.1307671173
H  H96  1  0.59530000  0.70570000  0.62560000  1.0 0.1077507304
C  C1  1  0.99010000  0.56260000  0.04620000  1.0 0.0713510617
C  C2  1  0.91020000  0.55480000  0.02180000  1.0 -0.1483757989
C  C3  1  0.91390000  0.61530000  0.00090000  1.0 0.0607351972
C  C4  1  0.99460000  0.68150000  0.00530000  1.0 -0.1413025774
C  C5  1  0.07110000  0.68560000  0.02990000  1.0 0.0713510617
C  C6  1  0.83240000  0.60900000  0.97280000  1.0 0.3855165987
C  C7  1  0.55650000  0.91430000  0.78280000  1.0 0.0713510617
C  C8  1  0.77750000  0.64780000  0.91920000  1.0 0.3693056477
C  C9  1  0.81860000  0.85370000  0.26590000  1.0 0.0607351972
C  C10  1  0.68080000  0.54500000  0.94630000  1.0 0.3793089338
C  C11  1  0.08100000  0.79870000  0.20180000  1.0 0.0536545709
C  C12  1  0.58910000  0.47730000  0.94440000  1.0 0.0607351972
C  C13  1  0.56130000  0.43720000  0.97750000  1.0 -0.1483757989
C  C14  1  0.47590000  0.37340000  0.97350000  1.0 0.0884780311
C  C15  1  0.44850000  0.38680000  0.90630000  1.0 0.0796573207
C  C16  1  0.53130000  0.45150000  0.90830000  1.0 -0.1413025774
C  C17  1  0.25460000  0.12890000  0.85820000  1.0 0.0713510617
C  C18  1  0.26920000  0.07130000  0.82970000  1.0 -0.1603809567
C  C19  1  0.35760000  0.06260000  0.83140000  1.0 0.0607351972
C  C20  1  0.42590000  0.11110000  0.86020000  1.0 -0.1413025774
C  C21  1  0.40610000  0.16770000  0.88700000  1.0 0.0884780311
C  C22  1  0.37470000  0.99950000  0.80160000  1.0 0.3793089338
C  C23  1  0.32760000  0.90680000  0.74510000  1.0 0.3793089338
C  C24  1  0.25860000  0.86360000  0.70910000  1.0 0.0607351972
C  C25  1  0.27930000  0.81110000  0.67930000  1.0 -0.1483757989
C  C26  1  0.21410000  0.77180000  0.64680000  1.0 0.0713510617
C  C27  1  0.11250000  0.83360000  0.67020000  1.0 0.0713510617
C  C28  1  0.17260000  0.87500000  0.70410000  1.0 -0.1603809567
C  C29  1  0.46610000  0.92980000  0.78050000  1.0 0.363079056
C  C30  1  0.63090000  0.96100000  0.81120000  1.0 -0.1483757989
C  C31  1  0.71660000  0.94730000  0.81040000  1.0 0.0713510617
C  C32  1  0.65630000  0.84480000  0.75640000  1.0 0.0796573207
C  C33  1  0.56900000  0.85430000  0.75490000  1.0 -0.1603809567
C  C34  1  0.74890000  0.73690000  0.82590000  1.0 0.0796573207
C  C35  1  0.72890000  0.68740000  0.85520000  1.0 -0.1413025774
C  C36  1  0.79510000  0.70030000  0.88770000  1.0 0.0713510617
C  C37  1  0.87930000  0.76430000  0.88970000  1.0 -0.1302805172
C  C38  1  0.89330000  0.81330000  0.86060000  1.0 0.0607351972
C  C39  1  0.08860000  0.58940000  0.54780000  1.0 0.0796573207
C  C40  1  0.15970000  0.71140000  0.53140000  1.0 0.0607351972
C  C41  1  0.20780000  0.68510000  0.49970000  1.0 -0.1413025774
C  C42  1  0.19280000  0.60600000  0.49190000  1.0 0.0536545709
C  C43  1  0.13430000  0.55800000  0.51660000  1.0 -0.1603809567
C  C44  1  0.24300000  0.57640000  0.45740000  1.0 0.3793089338
C  C45  1  0.29810000  0.48510000  0.42650000  1.0 0.3793089338
C  C46  1  0.31960000  0.59320000  0.39790000  1.0 0.3793089338
C  C47  1  0.35790000  0.64200000  0.36510000  1.0 0.0607351972
C  C48  1  0.39080000  0.61380000  0.32880000  1.0 -0.1483757989
C  C49  1  0.42630000  0.66230000  0.29990000  1.0 0.0713510617
C  C50  1  0.40090000  0.76450000  0.34140000  1.0 0.0713510617
C  C51  1  0.36320000  0.71980000  0.37080000  1.0 -0.1483757989
C  C52  1  0.68520000  0.88970000  0.28690000  1.0 0.0796573207
C  C53  1  0.78180000  0.90410000  0.29030000  1.0 -0.1603809567
C  C54  1  0.75490000  0.79020000  0.24040000  1.0 -0.1483757989
C  C55  1  0.65880000  0.77820000  0.23870000  1.0 0.0713510617
C  C56  1  0.92310000  0.86900000  0.26640000  1.0 0.3528660087
C  C57  1  0.04540000  0.84420000  0.23500000  1.0 0.3693056477
C  C58  1  0.07450000  0.93990000  0.29010000  1.0 0.363079056
C  C59  1  0.01880000  0.72980000  0.18000000  1.0 -0.1413025774
C  C60  1  0.05310000  0.68960000  0.14830000  1.0 0.0796573207
C  C61  1  0.20540000  0.78220000  0.15980000  1.0 0.0884780311
C  C62  1  0.17690000  0.82560000  0.19210000  1.0 -0.1483757989
C  C63  1  0.14510000  0.99930000  0.32050000  1.0 0.0536545709
C  C64  1  0.24210000  0.01520000  0.31690000  1.0 -0.1413025774
C  C65  1  0.30730000  0.06760000  0.34670000  1.0 0.0796573207
C  C66  1  0.11690000  0.03860000  0.35460000  1.0 -0.1483757989
C  C67  1  0.18510000  0.08920000  0.38400000  1.0 0.0796573207
C  C68  1  0.30370000  0.30230000  0.45910000  1.0 0.0713510617
C  C69  1  0.28550000  0.37030000  0.45910000  1.0 -0.1413025774
C  C70  1  0.31370000  0.41090000  0.42650000  1.0 0.0536545709
C  C71  1  0.35820000  0.38170000  0.39430000  1.0 -0.1483757989
C  C72  1  0.37330000  0.31370000  0.39650000  1.0 0.0713510617
C  C73  1  0.00990000  0.43740000  0.95380000  1.0 0.0713510617
C  C74  1  0.08980000  0.44520000  0.97820000  1.0 -0.1483757989
C  C75  1  0.08610000  0.38470000  0.99910000  1.0 0.0607351972
C  C76  1  0.00540000  0.31850000  0.99470000  1.0 -0.1413025774
C  C77  1  0.92890000  0.31440000  0.97010000  1.0 0.0713510617
C  C78  1  0.16760000  0.39100000  0.02720000  1.0 0.3793089338
C  C79  1  0.44350000  0.08570000  0.21720000  1.0 0.0713510617
C  C80  1  0.22250000  0.35220000  0.08080000  1.0 0.3693056477
C  C81  1  0.18140000  0.14630000  0.73410000  1.0 0.0607351972
C  C82  1  0.31920000  0.45500000  0.05370000  1.0 0.3793089338
C  C83  1  0.91900000  0.20130000  0.79820000  1.0 0.0536545709
C  C84  1  0.41090000  0.52270000  0.05560000  1.0 0.0607351972
C  C85  1  0.43870000  0.56280000  0.02250000  1.0 -0.1483757989
C  C86  1  0.52410000  0.62660000  0.02650000  1.0 0.0884780311
C  C87  1  0.55150000  0.61320000  0.09370000  1.0 0.0796573207
C  C88  1  0.46870000  0.54850000  0.09170000  1.0 -0.1413025774
C  C89  1  0.74540000  0.87110000  0.14180000  1.0 0.0713510617
C  C90  1  0.73080000  0.92870000  0.17030000  1.0 -0.1603809567
C  C91  1  0.64240000  0.93740000  0.16860000  1.0 0.0607351972
C  C92  1  0.57410000  0.88890000  0.13980000  1.0 -0.1413025774
C  C93  1  0.59390000  0.83230000  0.11300000  1.0 0.0884780311
C  C94  1  0.62530000  0.00050000  0.19840000  1.0 0.3793089338
C  C95  1  0.67240000  0.09320000  0.25490000  1.0 0.3793089338
C  C96  1  0.74140000  0.13640000  0.29090000  1.0 0.0607351972
C  C97  1  0.72070000  0.18890000  0.32070000  1.0 -0.1483757989
C  C98  1  0.78590000  0.22820000  0.35320000  1.0 0.0713510617
C  C99  1  0.88750000  0.16640000  0.32980000  1.0 0.0713510617
C  C100  1  0.82740000  0.12500000  0.29590000  1.0 -0.1603809567
C  C101  1  0.53390000  0.07020000  0.21950000  1.0 0.363079056
C  C102  1  0.36910000  0.03900000  0.18880000  1.0 -0.1483757989
C  C103  1  0.28340000  0.05270000  0.18960000  1.0 0.0713510617
C  C104  1  0.34370000  0.15520000  0.24360000  1.0 0.0796573207
C  C105  1  0.43100000  0.14570000  0.24510000  1.0 -0.1603809567
C  C106  1  0.25110000  0.26310000  0.17410000  1.0 0.0713510617
C  C107  1  0.27110000  0.31260000  0.14480000  1.0 -0.1413025774
C  C108  1  0.20490000  0.29970000  0.11230000  1.0 0.0713510617
C  C109  1  0.12070000  0.23570000  0.11030000  1.0 -0.1302805172
C  C110  1  0.10670000  0.18670000  0.13940000  1.0 0.0607351972
C  C111  1  0.91140000  0.41060000  0.45220000  1.0 0.0796573207
C  C112  1  0.84030000  0.28860000  0.46860000  1.0 0.0607351972
C  C113  1  0.79220000  0.31490000  0.50030000  1.0 -0.1413025774
C  C114  1  0.80720000  0.39400000  0.50810000  1.0 0.0536545709
C  C115  1  0.86570000  0.44200000  0.48340000  1.0 -0.1603809567
C  C116  1  0.75700000  0.42360000  0.54260000  1.0 0.3793089338
C  C117  1  0.70190000  0.51490000  0.57350000  1.0 0.3793089338
C  C118  1  0.68040000  0.40680000  0.60210000  1.0 0.3693056477
C  C119  1  0.64210000  0.35800000  0.63490000  1.0 0.0607351972
C  C120  1  0.60920000  0.38620000  0.67120000  1.0 -0.1483757989
C  C121  1  0.57370000  0.33770000  0.70010000  1.0 0.0713510617
C  C122  1  0.59910000  0.23550000  0.65860000  1.0 0.0713510617
C  C123  1  0.63680000  0.28020000  0.62920000  1.0 -0.1483757989
C  C124  1  0.31480000  0.11030000  0.71310000  1.0 0.0796573207
C  C125  1  0.21820000  0.09590000  0.70970000  1.0 -0.1603809567
C  C126  1  0.24510000  0.20980000  0.75960000  1.0 -0.1483757989
C  C127  1  0.34120000  0.22180000  0.76130000  1.0 0.0713510617
C  C128  1  0.07690000  0.13100000  0.73360000  1.0 0.3528660087
C  C129  1  0.95460000  0.15580000  0.76500000  1.0 0.363079056
C  C130  1  0.92550000  0.06010000  0.70990000  1.0 0.363079056
C  C131  1  0.98120000  0.27020000  0.82000000  1.0 -0.1413025774
C  C132  1  0.94690000  0.31040000  0.85170000  1.0 0.0796573207
C  C133  1  0.79460000  0.21780000  0.84020000  1.0 0.0884780311
C  C134  1  0.82310000  0.17440000  0.80790000  1.0 -0.1483757989
C  C135  1  0.85490000  0.00070000  0.67950000  1.0 0.0536545709
C  C136  1  0.75790000  0.98480000  0.68310000  1.0 -0.1413025774
C  C137  1  0.69270000  0.93240000  0.65330000  1.0 0.0796573207
C  C138  1  0.88310000  0.96140000  0.64540000  1.0 -0.1483757989
C  C139  1  0.81490000  0.91080000  0.61600000  1.0 0.0796573207
C  C140  1  0.69630000  0.69770000  0.54090000  1.0 0.0713510617
C  C141  1  0.71450000  0.62970000  0.54090000  1.0 -0.1413025774
C  C142  1  0.68630000  0.58910000  0.57350000  1.0 0.0536545709
C  C143  1  0.64180000  0.61830000  0.60570000  1.0 -0.1483757989
C  C144  1  0.62670000  0.68630000  0.60350000  1.0 0.0713510617
I  I1  1  0.33428000  0.73275000  0.05966000  1.0 -0.4581468454
I  I2  1  0.44371000  0.92896000  0.28353000  1.0 -0.4581468454
I  I3  1  0.16649000  0.29390000  0.90003000  1.0 -0.4675834329
I  I4  1  0.16132000  0.52481000  0.12244000  1.0 -0.438539982
I  I5  1  0.26733000  0.19582000  0.99893000  1.0 -0.4581468454
I  I6  1  0.86324000  0.79649000  0.71203000  1.0 -0.438539982
I  I7  1  0.40768000  0.71712000  0.19027000  1.0 -0.4537491651
I  I8  1  0.54289000  0.18828000  0.41267000  1.0 -0.4898048939
I  I9  1  0.29824000  0.11686000  0.49428000  1.0 -0.438539982
I  I10  1  0.91937000  0.60087000  0.63397000  1.0 -0.4302619697
I  I11  1  0.97540000  0.80410000  0.55802000  1.0 0.020823194
I  I12  1  0.99790000  0.99837000  0.81154000  1.0 0.020823194
I  I13  1  0.95760000  0.78730000  0.56460000  1.0 -0.0311212765
I  I14  1  0.97140000  0.99280000  0.81170000  1.0 -0.0070210668
I  I15  1  0.66572000  0.26725000  0.94034000  1.0 -0.4581468454
I  I16  1  0.55629000  0.07104000  0.71647000  1.0 -0.4581468454
I  I17  1  0.83351000  0.70610000  0.09997000  1.0 -0.4675834329
I  I18  1  0.83868000  0.47519000  0.87756000  1.0 -0.438539982
I  I19  1  0.73267000  0.80418000  0.00107000  1.0 -0.4581468454
I  I20  1  0.13676000  0.20351000  0.28797000  1.0 -0.438539982
I  I21  1  0.59232000  0.28288000  0.80973000  1.0 -0.4537491651
I  I22  1  0.45711000  0.81172000  0.58733000  1.0 -0.4898048939
I  I23  1  0.70176000  0.88314000  0.50572000  1.0 -0.438539982
I  I24  1  0.08063000  0.39913000  0.36603000  1.0 -0.4302619697
I  I25  1  0.02460000  0.19590000  0.44198000  1.0 0.020823194
I  I26  1  0.00210000  0.00163000  0.18846000  1.0 0.020823194
I  I27  1  0.04240000  0.21270000  0.43540000  1.0 -0.0311212765
I  I28  1  0.02860000  0.00720000  0.18830000  1.0 -0.0070210668
N  N1  1  0.69240000  0.59110000  0.91785000  1.0 -0.399892837
N  N2  1  0.85010000  0.65950000  0.94604000  1.0 -0.3938943745
N  N3  1  0.74750000  0.55100000  0.97572000  1.0 -0.399892837
N  N4  1  0.42080000  0.34860000  0.93868000  1.0 -0.1907129159
N  N5  1  0.06960000  0.62700000  0.05026000  1.0 -0.1907129159
N  N6  1  0.83000000  0.79930000  0.82850000  1.0 -0.1821597369
N  N7  1  0.11110000  0.90280000  0.25985000  1.0 -0.399892837
N  N8  1  0.95110000  0.82300000  0.23742000  1.0 -0.399892837
N  N9  1  0.98140000  0.92720000  0.29389000  1.0 -0.399892837
N  N10  1  0.27890000  0.10360000  0.38051000  1.0 -0.1821597369
N  N11  1  0.62330000  0.82780000  0.26165000  1.0 -0.1821597369
N  N12  1  0.14480000  0.71560000  0.13804000  1.0 -0.1821597369
N  N13  1  0.40370000  0.88660000  0.74882000  1.0 -0.399892837
N  N14  1  0.30960000  0.96380000  0.77012000  1.0 -0.399892837
N  N15  1  0.45360000  0.98490000  0.80845000  1.0 -0.399892837
N  N16  1  0.72790000  0.88970000  0.78335000  1.0 -0.1821597369
N  N17  1  0.32160000  0.17610000  0.88675000  1.0 -0.1821597369
N  N18  1  0.12990000  0.78100000  0.64190000  1.0 -0.1821597369
N  N19  1  0.25260000  0.50830000  0.45830000  1.0 -0.4058238866
N  N20  1  0.33240000  0.52500000  0.39536000  1.0 -0.399892837
N  N21  1  0.27590000  0.62190000  0.42849000  1.0 -0.4058238866
N  N22  1  0.09990000  0.66390000  0.55490000  1.0 -0.1821597369
N  N23  1  0.43140000  0.73700000  0.30535000  1.0 -0.1907129159
N  N24  1  0.34610000  0.27320000  0.42810000  1.0 -0.1907129159
N  N25  1  0.30760000  0.40890000  0.08215000  1.0 -0.399892837
N  N26  1  0.14990000  0.34050000  0.05396000  1.0 -0.3938943745
N  N27  1  0.25250000  0.44900000  0.02428000  1.0 -0.399892837
N  N28  1  0.57920000  0.65140000  0.06132000  1.0 -0.1907129159
N  N29  1  0.93040000  0.37300000  0.94974000  1.0 -0.1907129159
N  N30  1  0.17000000  0.20070000  0.17150000  1.0 -0.1821597369
N  N31  1  0.88890000  0.09720000  0.74015000  1.0 -0.399892837
N  N32  1  0.04890000  0.17700000  0.76258000  1.0 -0.399892837
N  N33  1  0.01860000  0.07280000  0.70611000  1.0 -0.399892837
N  N34  1  0.72110000  0.89640000  0.61949000  1.0 -0.1821597369
N  N35  1  0.37670000  0.17220000  0.73835000  1.0 -0.1821597369
N  N36  1  0.85520000  0.28440000  0.86196000  1.0 -0.1821597369
N  N37  1  0.59630000  0.11340000  0.25118000  1.0 -0.399892837
N  N38  1  0.69040000  0.03620000  0.22988000  1.0 -0.399892837
N  N39  1  0.54640000  0.01510000  0.19155000  1.0 -0.399892837
N  N40  1  0.27210000  0.11030000  0.21665000  1.0 -0.1821597369
N  N41  1  0.67840000  0.82390000  0.11325000  1.0 -0.1821597369
N  N42  1  0.87010000  0.21900000  0.35810000  1.0 -0.1821597369
N  N43  1  0.74740000  0.49170000  0.54170000  1.0 -0.4058238866
N  N44  1  0.66760000  0.47500000  0.60464000  1.0 -0.399892837
N  N45  1  0.72410000  0.37810000  0.57151000  1.0 -0.4058238866
N  N46  1  0.90010000  0.33610000  0.44510000  1.0 -0.1821597369
N  N47  1  0.56860000  0.26300000  0.69465000  1.0 -0.1907129159
N  N48  1  0.65390000  0.72680000  0.57190000  1.0 -0.1907129159
