# DDEC6 charges by PACMAN v1.1 (https://github.com/mtap-research/PACMAN-charge/)
data_UDAXIJ_FSR_pacman
_symmetry_space_group_name_H-M   'P 1'
_cell_length_a   19.07240000
_cell_length_b   19.07240000
_cell_length_c   31.37520000
_cell_angle_alpha   78.50010000
_cell_angle_beta   101.50000000
_cell_angle_gamma   133.52300000
_symmetry_Int_Tables_number   1
_chemical_formula_structural   Zn3H24C36I11N12
_chemical_formula_sum   'Zn12 H96 C144 I44 N48'
_cell_volume   8078.35732282
_cell_formula_units_Z   4
loop_
 _symmetry_equiv_pos_site_id
 _symmetry_equiv_pos_as_xyz
  1  'x, y, z'
loop_
 _atom_site_type_symbol
 _atom_site_label
 _atom_site_symmetry_multiplicity
 _atom_site_fract_x
 _atom_site_fract_y
 _atom_site_fract_z
 _atom_site_occupancy
 _atom_site_charge
Zn  Zn1  1  0.52875000  0.17441000  0.77826000  1.0 0.2383999543
Zn  Zn2  1  0.82559000  0.47125000  0.27826000  1.0 0.2383999543
Zn  Zn3  1  0.46064000  0.71290000  0.93790000  1.0 0.3860536159
Zn  Zn4  1  0.28710000  0.53936000  0.43790000  1.0 0.3860536159
Zn  Zn5  1  0.96651000  0.80467000  0.09415000  1.0 0.2792037145
Zn  Zn6  1  0.19533000  0.03349000  0.59415000  1.0 0.2792037145
Zn  Zn7  1  0.17441000  0.52875000  0.72174000  1.0 0.2383999543
Zn  Zn8  1  0.47125000  0.82559000  0.22174000  1.0 0.2383999543
Zn  Zn9  1  0.71290000  0.46064000  0.56210000  1.0 0.3860536159
Zn  Zn10  1  0.53936000  0.28710000  0.06210000  1.0 0.3860536159
Zn  Zn11  1  0.80467000  0.96651000  0.40585000  1.0 0.2792037145
Zn  Zn12  1  0.03349000  0.19533000  0.90585000  1.0 0.2792037145
H  H1  1  0.65620000  0.37560000  0.73650000  1.0 0.0713153237
H  H2  1  0.62440000  0.34380000  0.23650000  1.0 0.0713153237
H  H3  1  0.02360000  0.84400000  0.63180000  1.0 0.0798714676
H  H4  1  0.15600000  0.97640000  0.13180000  1.0 0.0798714676
H  H5  1  0.44720000  0.08540000  0.86630000  1.0 0.0610383267
H  H6  1  0.91460000  0.55280000  0.36630000  1.0 0.0610383267
H  H7  1  0.26090000  0.87070000  0.71990000  1.0 0.1010535077
H  H8  1  0.12930000  0.73910000  0.21990000  1.0 0.1010535077
H  H9  1  0.44070000  0.80410000  0.85120000  1.0 0.0610383267
H  H10  1  0.19590000  0.55930000  0.35120000  1.0 0.0610383267
H  H11  1  0.15720000  0.14020000  0.01780000  1.0 0.1225725811
H  H12  1  0.85980000  0.84280000  0.51780000  1.0 0.1225725811
H  H13  1  0.72370000  0.25030000  0.82450000  1.0 0.0713153237
H  H14  1  0.74970000  0.27630000  0.32450000  1.0 0.0713153237
H  H15  1  0.97840000  0.72400000  0.68680000  1.0 0.1115454339
H  H16  1  0.27600000  0.02160000  0.18680000  1.0 0.1115454339
H  H17  1  0.12220000  0.54360000  0.87610000  1.0 0.1115454339
H  H18  1  0.45640000  0.87780000  0.37610000  1.0 0.1115454339
H  H19  1  0.32130000  0.78470000  0.80240000  1.0 0.1010535077
H  H20  1  0.21530000  0.67870000  0.30240000  1.0 0.1010535077
H  H21  1  0.38990000  0.53570000  0.00000000  1.0 0.0902218611
H  H22  1  0.46430000  0.61010000  0.50000000  1.0 0.0902218611
H  H23  1  0.29720000  0.98460000  0.66330000  1.0 0.0610383267
H  H24  1  0.01540000  0.70280000  0.16330000  1.0 0.0610383267
H  H25  1  0.44800000  0.33000000  0.83980000  1.0 0.1225725811
H  H26  1  0.67000000  0.55200000  0.33980000  1.0 0.1225725811
H  H27  1  0.81620000  0.51940000  0.73590000  1.0 0.1225725811
H  H28  1  0.48060000  0.18380000  0.23590000  1.0 0.1225725811
H  H29  1  0.04320000  0.00620000  0.06200000  1.0 0.0798714676
H  H30  1  0.99380000  0.95680000  0.56200000  1.0 0.0798714676
H  H31  1  0.24660000  0.57200000  0.92330000  1.0 0.0798714676
H  H32  1  0.42800000  0.75340000  0.42330000  1.0 0.0798714676
H  H33  1  0.20230000  0.98390000  0.98200000  1.0 0.125898564
H  H34  1  0.01610000  0.79770000  0.48200000  1.0 0.125898564
H  H35  1  0.38100000  0.09820000  0.91470000  1.0 0.1225725811
H  H36  1  0.90180000  0.61900000  0.41470000  1.0 0.1225725811
H  H37  1  0.88580000  0.38960000  0.82600000  1.0 0.1225725811
H  H38  1  0.61040000  0.11420000  0.32600000  1.0 0.1225725811
H  H39  1  0.08570000  0.85470000  0.02570000  1.0 0.0798714676
H  H40  1  0.14530000  0.91430000  0.52570000  1.0 0.0798714676
H  H41  1  0.50630000  0.30670000  0.79190000  1.0 0.0713153237
H  H42  1  0.69330000  0.49370000  0.29190000  1.0 0.0713153237
H  H43  1  0.34740000  0.39040000  0.00150000  1.0 0.1225725811
H  H44  1  0.60960000  0.65260000  0.50150000  1.0 0.1225725811
H  H45  1  0.44240000  0.59660000  0.87940000  1.0 0.0798714676
H  H46  1  0.40340000  0.55760000  0.37940000  1.0 0.0798714676
H  H47  1  0.39620000  0.44960000  0.87660000  1.0 0.1225725811
H  H48  1  0.55040000  0.60380000  0.37660000  1.0 0.1225725811
H  H49  1  0.37560000  0.65620000  0.76350000  1.0 0.0713153237
H  H50  1  0.34380000  0.62440000  0.26350000  1.0 0.0713153237
H  H51  1  0.84400000  0.02360000  0.86820000  1.0 0.0798714676
H  H52  1  0.97640000  0.15600000  0.36820000  1.0 0.0798714676
H  H53  1  0.08540000  0.44720000  0.63370000  1.0 0.0610383267
H  H54  1  0.55280000  0.91460000  0.13370000  1.0 0.0610383267
H  H55  1  0.87070000  0.26090000  0.78010000  1.0 0.1010535077
H  H56  1  0.73910000  0.12930000  0.28010000  1.0 0.1010535077
H  H57  1  0.80410000  0.44070000  0.64880000  1.0 0.0610383267
H  H58  1  0.55930000  0.19590000  0.14880000  1.0 0.0610383267
H  H59  1  0.14020000  0.15720000  0.48220000  1.0 0.1225725811
H  H60  1  0.84280000  0.85980000  0.98220000  1.0 0.1225725811
H  H61  1  0.25030000  0.72370000  0.67550000  1.0 0.0713153237
H  H62  1  0.27630000  0.74970000  0.17550000  1.0 0.0713153237
H  H63  1  0.72400000  0.97840000  0.81320000  1.0 0.1115454339
H  H64  1  0.02160000  0.27600000  0.31320000  1.0 0.1115454339
H  H65  1  0.54360000  0.12220000  0.62390000  1.0 0.1115454339
H  H66  1  0.87780000  0.45640000  0.12390000  1.0 0.1115454339
H  H67  1  0.78470000  0.32130000  0.69760000  1.0 0.1010535077
H  H68  1  0.67870000  0.21530000  0.19760000  1.0 0.1010535077
H  H69  1  0.53570000  0.38990000  0.50000000  1.0 0.0902218611
H  H70  1  0.61010000  0.46430000  0.00000000  1.0 0.0902218611
H  H71  1  0.98460000  0.29720000  0.83670000  1.0 0.0610383267
H  H72  1  0.70280000  0.01540000  0.33670000  1.0 0.0610383267
H  H73  1  0.33000000  0.44800000  0.66020000  1.0 0.1225725811
H  H74  1  0.55200000  0.67000000  0.16020000  1.0 0.1225725811
H  H75  1  0.51940000  0.81620000  0.76410000  1.0 0.1225725811
H  H76  1  0.18380000  0.48060000  0.26410000  1.0 0.1225725811
H  H77  1  0.00620000  0.04320000  0.43800000  1.0 0.0798714676
H  H78  1  0.95680000  0.99380000  0.93800000  1.0 0.0798714676
H  H79  1  0.57200000  0.24660000  0.57670000  1.0 0.0798714676
H  H80  1  0.75340000  0.42800000  0.07670000  1.0 0.0798714676
H  H81  1  0.98390000  0.20230000  0.51800000  1.0 0.125898564
H  H82  1  0.79770000  0.01610000  0.01800000  1.0 0.125898564
H  H83  1  0.09820000  0.38100000  0.58530000  1.0 0.1225725811
H  H84  1  0.61900000  0.90180000  0.08530000  1.0 0.1225725811
H  H85  1  0.38960000  0.88580000  0.67400000  1.0 0.1225725811
H  H86  1  0.11420000  0.61040000  0.17400000  1.0 0.1225725811
H  H87  1  0.85470000  0.08570000  0.47430000  1.0 0.0798714676
H  H88  1  0.91430000  0.14530000  0.97430000  1.0 0.0798714676
H  H89  1  0.30670000  0.50630000  0.70810000  1.0 0.0713153237
H  H90  1  0.49370000  0.69330000  0.20810000  1.0 0.0713153237
H  H91  1  0.39040000  0.34740000  0.49850000  1.0 0.1225725811
H  H92  1  0.65260000  0.60960000  0.99850000  1.0 0.1225725811
H  H93  1  0.59660000  0.44240000  0.62060000  1.0 0.0798714676
H  H94  1  0.55760000  0.40340000  0.12060000  1.0 0.0798714676
H  H95  1  0.44960000  0.39620000  0.62340000  1.0 0.1225725811
H  H96  1  0.60380000  0.55040000  0.12340000  1.0 0.1225725811
C  C1  1  0.13007000  0.64753000  0.80271000  1.0 0.3544144795
C  C2  1  0.35247000  0.86993000  0.30271000  1.0 0.3556089963
C  C3  1  0.20787000  0.66173000  0.83390000  1.0 0.0478408743
C  C4  1  0.33827000  0.79213000  0.33390000  1.0 0.0478408743
C  C5  1  0.86960000  0.47020000  0.78091000  1.0 0.0478408743
C  C6  1  0.52980000  0.13040000  0.28091000  1.0 0.0478408743
C  C7  1  0.70320000  0.37880000  0.75460000  1.0 0.0413204584
C  C8  1  0.62120000  0.29680000  0.25460000  1.0 0.0413204584
C  C9  1  0.97364000  0.56116000  0.77961000  1.0 0.3319849313
C  C10  1  0.43884000  0.02636000  0.27961000  1.0 0.3319849313
C  C11  1  0.11473000  0.78447000  0.71008000  1.0 0.0478408743
C  C12  1  0.21553000  0.88527000  0.21008000  1.0 0.0478408743
C  C13  1  0.07170000  0.84870000  0.64960000  1.0 0.0478408743
C  C14  1  0.15130000  0.92830000  0.14960000  1.0 0.0478408743
C  C15  1  0.19509000  0.07771000  0.99571000  1.0 0.0323908256
C  C16  1  0.92229000  0.80491000  0.49571000  1.0 0.0323908256
C  C17  1  0.44532000  0.13388000  0.86070000  1.0 0.0478408743
C  C18  1  0.86612000  0.55468000  0.36070000  1.0 0.0478408743
C  C19  1  0.21136000  0.86384000  0.70228000  1.0 -0.1797378927
C  C20  1  0.13616000  0.78864000  0.20228000  1.0 -0.1797378927
C  C21  1  0.26980000  0.16260000  0.96756000  1.0 0.3411369526
C  C22  1  0.83740000  0.73020000  0.46756000  1.0 0.3411369526
C  C23  1  0.36515000  0.22585000  0.91328000  1.0 0.3705421404
C  C24  1  0.77415000  0.63485000  0.41328000  1.0 0.3705421404
C  C25  1  0.35570000  0.31790000  0.94174000  1.0 0.3411369526
C  C26  1  0.68210000  0.64430000  0.44174000  1.0 0.3411369526
C  C27  1  0.37582000  0.75198000  0.85637000  1.0 0.0413204584
C  C28  1  0.24802000  0.62418000  0.35637000  1.0 0.0413204584
C  C29  1  0.14489000  0.08331000  0.01950000  1.0 -0.1797378927
C  C30  1  0.91669000  0.85511000  0.51950000  1.0 -0.1797378927
C  C31  1  0.74280000  0.30480000  0.80630000  1.0 0.0610383267
C  C32  1  0.69520000  0.25720000  0.30630000  1.0 0.0610383267
C  C33  1  0.04373000  0.77667000  0.68280000  1.0 -0.1694266998
C  C34  1  0.22333000  0.95627000  0.18280000  1.0 -0.1694266998
C  C35  1  0.38199000  0.41081000  0.94170000  1.0 0.0413204584
C  C36  1  0.58919000  0.61801000  0.44170000  1.0 0.0413204584
C  C37  1  0.18640000  0.59760000  0.87054000  1.0 -0.1797378927
C  C38  1  0.40240000  0.81360000  0.37054000  1.0 -0.1797378927
C  C39  1  0.40606000  0.21494000  0.88226000  1.0 0.0478408743
C  C40  1  0.78506000  0.59394000  0.38226000  1.0 0.0478408743
C  C41  1  0.30454000  0.74046000  0.82667000  1.0 -0.1694266998
C  C42  1  0.25954000  0.69546000  0.32667000  1.0 -0.1694266998
C  C43  1  0.39540000  0.52060000  0.97520000  1.0 0.0610383267
C  C44  1  0.47940000  0.60460000  0.47520000  1.0 0.0610383267
C  C45  1  0.23252000  0.93168000  0.66823000  1.0 0.0323908256
C  C46  1  0.06832000  0.76748000  0.16823000  1.0 0.0323908256
C  C47  1  0.44550000  0.27850000  0.84540000  1.0 -0.1627058278
C  C48  1  0.72150000  0.55450000  0.34540000  1.0 -0.1627058278
C  C49  1  0.79913000  0.46547000  0.75390000  1.0 -0.1627058278
C  C50  1  0.53453000  0.20087000  0.25390000  1.0 -0.1627058278
C  C51  1  0.07621000  0.00239000  0.04577000  1.0 0.0323908256
C  C52  1  0.99761000  0.92379000  0.54577000  1.0 0.0323908256
C  C53  1  0.26143000  0.61497000  0.89860000  1.0 0.0610383267
C  C54  1  0.38503000  0.73857000  0.39860000  1.0 0.0610383267
C  C55  1  0.17128000  0.99032000  0.99810000  1.0 -0.1694266998
C  C56  1  0.00968000  0.82872000  0.49810000  1.0 -0.1694266998
C  C57  1  0.40650000  0.14170000  0.89000000  1.0 -0.1492110251
C  C58  1  0.85830000  0.59350000  0.39000000  1.0 -0.1492110251
C  C59  1  0.84048000  0.38852000  0.80750000  1.0 -0.1694266998
C  C60  1  0.61148000  0.15952000  0.30750000  1.0 -0.1694266998
C  C61  1  0.10150000  0.91330000  0.02460000  1.0 0.0478408743
C  C62  1  0.08670000  0.89850000  0.52460000  1.0 0.0478408743
C  C63  1  0.48100000  0.26460000  0.81700000  1.0 0.0610383267
C  C64  1  0.73540000  0.51900000  0.31700000  1.0 0.0610383267
C  C65  1  0.37120000  0.43360000  0.97664000  1.0 -0.1797378927
C  C66  1  0.56640000  0.62880000  0.47664000  1.0 -0.1797378927
C  C67  1  0.42510000  0.55510000  0.90480000  1.0 0.0215810151
C  C68  1  0.44490000  0.57490000  0.40480000  1.0 0.0215810151
C  C69  1  0.40040000  0.46840000  0.90280000  1.0 -0.1694266998
C  C70  1  0.53160000  0.59960000  0.40280000  1.0 -0.1694266998
C  C71  1  0.08735000  0.70785000  0.74602000  1.0 0.3556089963
C  C72  1  0.29215000  0.91265000  0.24602000  1.0 0.3556089963
C  C73  1  0.64753000  0.13007000  0.69729000  1.0 0.3544144795
C  C74  1  0.86993000  0.35247000  0.19729000  1.0 0.3556089963
C  C75  1  0.66173000  0.20787000  0.66610000  1.0 0.0478408743
C  C76  1  0.79213000  0.33827000  0.16610000  1.0 0.0478408743
C  C77  1  0.47020000  0.86960000  0.71909000  1.0 0.0478408743
C  C78  1  0.13040000  0.52980000  0.21909000  1.0 0.0478408743
C  C79  1  0.37880000  0.70320000  0.74540000  1.0 0.0413204584
C  C80  1  0.29680000  0.62120000  0.24540000  1.0 0.0413204584
C  C81  1  0.56116000  0.97364000  0.72039000  1.0 0.3319849313
C  C82  1  0.02636000  0.43884000  0.22039000  1.0 0.3319849313
C  C83  1  0.78447000  0.11473000  0.78992000  1.0 0.0478408743
C  C84  1  0.88527000  0.21553000  0.28992000  1.0 0.0478408743
C  C85  1  0.84870000  0.07170000  0.85040000  1.0 0.0478408743
C  C86  1  0.92830000  0.15130000  0.35040000  1.0 0.0478408743
C  C87  1  0.07771000  0.19509000  0.50429000  1.0 0.0323908256
C  C88  1  0.80491000  0.92229000  0.00429000  1.0 0.0323908256
C  C89  1  0.13388000  0.44532000  0.63930000  1.0 0.0478408743
C  C90  1  0.55468000  0.86612000  0.13930000  1.0 0.0478408743
C  C91  1  0.86384000  0.21136000  0.79772000  1.0 -0.1694266998
C  C92  1  0.78864000  0.13616000  0.29772000  1.0 -0.1694266998
C  C93  1  0.16260000  0.26980000  0.53244000  1.0 0.3411369526
C  C94  1  0.73020000  0.83740000  0.03244000  1.0 0.3411369526
C  C95  1  0.22585000  0.36515000  0.58672000  1.0 0.3705421404
C  C96  1  0.63485000  0.77415000  0.08672000  1.0 0.3705421404
C  C97  1  0.31790000  0.35570000  0.55826000  1.0 0.3411369526
C  C98  1  0.64430000  0.68210000  0.05826000  1.0 0.3411369526
C  C99  1  0.75198000  0.37582000  0.64363000  1.0 0.0413204584
C  C100  1  0.62418000  0.24802000  0.14363000  1.0 0.0413204584
C  C101  1  0.08331000  0.14489000  0.48050000  1.0 -0.1694266998
C  C102  1  0.85511000  0.91669000  0.98050000  1.0 -0.1694266998
C  C103  1  0.30480000  0.74280000  0.69370000  1.0 0.0610383267
C  C104  1  0.25720000  0.69520000  0.19370000  1.0 0.0610383267
C  C105  1  0.77667000  0.04373000  0.81720000  1.0 -0.1694266998
C  C106  1  0.95627000  0.22333000  0.31720000  1.0 -0.1694266998
C  C107  1  0.41081000  0.38199000  0.55830000  1.0 0.0413204584
C  C108  1  0.61801000  0.58919000  0.05830000  1.0 0.0413204584
C  C109  1  0.59760000  0.18640000  0.62946000  1.0 -0.1797378927
C  C110  1  0.81360000  0.40240000  0.12946000  1.0 -0.1797378927
C  C111  1  0.21494000  0.40606000  0.61774000  1.0 0.0413204584
C  C112  1  0.59394000  0.78506000  0.11774000  1.0 0.0413204584
C  C113  1  0.74046000  0.30454000  0.67333000  1.0 -0.1694266998
C  C114  1  0.69546000  0.25954000  0.17333000  1.0 -0.1694266998
C  C115  1  0.52060000  0.39540000  0.52480000  1.0 0.0610383267
C  C116  1  0.60460000  0.47940000  0.02480000  1.0 0.0610383267
C  C117  1  0.93168000  0.23252000  0.83177000  1.0 0.0323908256
C  C118  1  0.76748000  0.06832000  0.33177000  1.0 0.0323908256
C  C119  1  0.27850000  0.44550000  0.65460000  1.0 -0.1627058278
C  C120  1  0.55450000  0.72150000  0.15460000  1.0 -0.1627058278
C  C121  1  0.46547000  0.79913000  0.74610000  1.0 -0.1627058278
C  C122  1  0.20087000  0.53453000  0.24610000  1.0 -0.1627058278
C  C123  1  0.00239000  0.07621000  0.45423000  1.0 0.0323908256
C  C124  1  0.92379000  0.99761000  0.95423000  1.0 0.0323908256
C  C125  1  0.61497000  0.26143000  0.60140000  1.0 0.0610383267
C  C126  1  0.73857000  0.38503000  0.10140000  1.0 0.0610383267
C  C127  1  0.99032000  0.17128000  0.50190000  1.0 -0.1694266998
C  C128  1  0.82872000  0.00968000  0.00190000  1.0 -0.1694266998
C  C129  1  0.14170000  0.40650000  0.61000000  1.0 -0.1492110251
C  C130  1  0.59350000  0.85830000  0.11000000  1.0 -0.1492110251
C  C131  1  0.38852000  0.84048000  0.69250000  1.0 -0.1694266998
C  C132  1  0.15952000  0.61148000  0.19250000  1.0 -0.1694266998
C  C133  1  0.91330000  0.10150000  0.47540000  1.0 0.0478408743
C  C134  1  0.89850000  0.08670000  0.97540000  1.0 0.0478408743
C  C135  1  0.26460000  0.48100000  0.68300000  1.0 0.0610383267
C  C136  1  0.51900000  0.73540000  0.18300000  1.0 0.0610383267
C  C137  1  0.43360000  0.37120000  0.52336000  1.0 -0.1797378927
C  C138  1  0.62880000  0.56640000  0.02336000  1.0 -0.1797378927
C  C139  1  0.55510000  0.42510000  0.59520000  1.0 0.0215810151
C  C140  1  0.57490000  0.44490000  0.09520000  1.0 0.0215810151
C  C141  1  0.46840000  0.40040000  0.59720000  1.0 -0.1694266998
C  C142  1  0.59960000  0.53160000  0.09720000  1.0 -0.1694266998
C  C143  1  0.70785000  0.08735000  0.75398000  1.0 0.3556089963
C  C144  1  0.91265000  0.29215000  0.25398000  1.0 0.3556089963
I  I1  1  0.50436000  0.02724000  0.80440000  1.0 0.0323908256
I  I2  1  0.97276000  0.49564000  0.30440000  1.0 0.0323908256
I  I3  1  0.45542000  0.19138000  0.70148000  1.0 0.0413204584
I  I4  1  0.80862000  0.54458000  0.20148000  1.0 0.0478408743
I  I5  1  0.42609000  0.72063000  0.00997000  1.0 -0.4617800995
I  I6  1  0.27937000  0.57391000  0.50997000  1.0 -0.4617800995
I  I7  1  0.88049000  0.65047000  0.06319000  1.0 -0.0314714465
I  I8  1  0.34953000  0.11951000  0.56319000  1.0 -0.0314714465
I  I9  1  0.88318000  0.84256000  0.12901000  1.0 0.0115966151
I  I10  1  0.15744000  0.11682000  0.62901000  1.0 0.0115966151
I  I11  1  0.62307000  0.84483000  0.90531000  1.0 0.0215810151
I  I12  1  0.15517000  0.37693000  0.40531000  1.0 0.0115966151
I  I13  1  0.86384000  0.80496000  0.12076000  1.0 -0.0206814944
I  I14  1  0.19504000  0.13616000  0.62076000  1.0 -0.0206814944
I  I15  1  0.90919000  0.64687000  0.06101000  1.0 0.0115966151
I  I16  1  0.35313000  0.09081000  0.56101000  1.0 0.0115966151
I  I17  1  0.45315000  0.16205000  0.71061000  1.0 0.0215810151
I  I18  1  0.83795000  0.54685000  0.21061000  1.0 0.0215810151
I  I19  1  0.61500000  0.86560000  0.92100000  1.0 -0.0081818586
I  I20  1  0.13440000  0.38500000  0.42100000  1.0 -0.0030019149
I  I21  1  0.51980000  0.02100000  0.81680000  1.0 0.0798714676
I  I22  1  0.97900000  0.48020000  0.31680000  1.0 0.0798714676
I  I23  1  0.02724000  0.50436000  0.69560000  1.0 0.0323908256
I  I24  1  0.49564000  0.97276000  0.19560000  1.0 0.0323908256
I  I25  1  0.19138000  0.45542000  0.79852000  1.0 0.0413204584
I  I26  1  0.54458000  0.80862000  0.29852000  1.0 0.0478408743
I  I27  1  0.72063000  0.42609000  0.49003000  1.0 -0.4617800995
I  I28  1  0.57391000  0.27937000  0.99003000  1.0 -0.4617800995
I  I29  1  0.65047000  0.88049000  0.43681000  1.0 -0.0314714465
I  I30  1  0.11951000  0.34953000  0.93681000  1.0 -0.0417393207
I  I31  1  0.84256000  0.88318000  0.37099000  1.0 0.0115966151
I  I32  1  0.11682000  0.15744000  0.87099000  1.0 0.0026392431
I  I33  1  0.84483000  0.62307000  0.59469000  1.0 0.0215810151
I  I34  1  0.37693000  0.15517000  0.09469000  1.0 0.0115966151
I  I35  1  0.80496000  0.86384000  0.37924000  1.0 -0.0206814944
I  I36  1  0.13616000  0.19504000  0.87924000  1.0 -0.0206814944
I  I37  1  0.64687000  0.90919000  0.43899000  1.0 0.0115966151
I  I38  1  0.09081000  0.35313000  0.93899000  1.0 -0.0030019149
I  I39  1  0.16205000  0.45315000  0.78939000  1.0 0.0215810151
I  I40  1  0.54685000  0.83795000  0.28939000  1.0 0.0215810151
I  I41  1  0.86560000  0.61500000  0.57900000  1.0 -0.0030019149
I  I42  1  0.38500000  0.13440000  0.07900000  1.0 -0.0081818586
I  I43  1  0.02100000  0.51980000  0.68320000  1.0 0.0798714676
I  I44  1  0.48020000  0.97900000  0.18320000  1.0 0.0798714676
N  N1  1  0.67503000  0.29917000  0.78026000  1.0 -0.2106367057
N  N2  1  0.70083000  0.32497000  0.28026000  1.0 -0.2106367057
N  N3  1  0.05527000  0.91853000  0.04874000  1.0 -0.2106367057
N  N4  1  0.08147000  0.94473000  0.54874000  1.0 -0.2106367057
N  N5  1  0.35466000  0.69094000  0.89202000  1.0 -0.1797378927
N  N6  1  0.30906000  0.64534000  0.39202000  1.0 -0.1797378927
N  N7  1  0.15944000  0.71976000  0.77161000  1.0 -0.4286625896
N  N8  1  0.28024000  0.84056000  0.27161000  1.0 -0.4286625896
N  N9  1  0.99299000  0.63121000  0.74916000  1.0 -0.4377936027
N  N10  1  0.36879000  0.00701000  0.24916000  1.0 -0.4377936027
N  N11  1  0.16411000  0.92489000  0.64173000  1.0 -0.1797378927
N  N12  1  0.07511000  0.83589000  0.14173000  1.0 -0.1797378927
N  N13  1  0.03830000  0.56550000  0.80793000  1.0 -0.4286625896
N  N14  1  0.43450000  0.96170000  0.30793000  1.0 -0.4286625896
N  N15  1  0.42599000  0.58321000  0.94085000  1.0 -0.201127112
N  N16  1  0.41679000  0.57401000  0.44085000  1.0 -0.201127112
N  N17  1  0.48039000  0.19361000  0.82423000  1.0 -0.201127112
N  N18  1  0.80639000  0.51961000  0.32423000  1.0 -0.201127112
N  N19  1  0.30343000  0.14857000  0.93997000  1.0 -0.4286625896
N  N20  1  0.85143000  0.69657000  0.43997000  1.0 -0.4286625896
N  N21  1  0.29665000  0.24695000  0.97112000  1.0 -0.4377936027
N  N22  1  0.75305000  0.70335000  0.47112000  1.0 -0.4377936027
N  N23  1  0.39164000  0.31196000  0.91134000  1.0 -0.4286625896
N  N24  1  0.68804000  0.60836000  0.41134000  1.0 -0.4286625896
N  N25  1  0.29917000  0.67503000  0.71974000  1.0 -0.2106367057
N  N26  1  0.32497000  0.70083000  0.21974000  1.0 -0.2106367057
N  N27  1  0.91853000  0.05527000  0.45126000  1.0 -0.2106367057
N  N28  1  0.94473000  0.08147000  0.95126000  1.0 -0.201127112
N  N29  1  0.69094000  0.35466000  0.60798000  1.0 -0.1797378927
N  N30  1  0.64534000  0.30906000  0.10798000  1.0 -0.1797378927
N  N31  1  0.71976000  0.15944000  0.72839000  1.0 -0.4286625896
N  N32  1  0.84056000  0.28024000  0.22839000  1.0 -0.4286625896
N  N33  1  0.63121000  0.99299000  0.75084000  1.0 -0.4377936027
N  N34  1  0.00701000  0.36879000  0.25084000  1.0 -0.4377936027
N  N35  1  0.92489000  0.16411000  0.85827000  1.0 -0.1797378927
N  N36  1  0.83589000  0.07511000  0.35827000  1.0 -0.1797378927
N  N37  1  0.56550000  0.03830000  0.69207000  1.0 -0.4286625896
N  N38  1  0.96170000  0.43450000  0.19207000  1.0 -0.4377936027
N  N39  1  0.58321000  0.42599000  0.55915000  1.0 -0.201127112
N  N40  1  0.57401000  0.41679000  0.05915000  1.0 -0.201127112
N  N41  1  0.19361000  0.48039000  0.67577000  1.0 -0.201127112
N  N42  1  0.51961000  0.80639000  0.17577000  1.0 -0.201127112
N  N43  1  0.14857000  0.30343000  0.56003000  1.0 -0.4286625896
N  N44  1  0.69657000  0.85143000  0.06003000  1.0 -0.4286625896
N  N45  1  0.24695000  0.29665000  0.52888000  1.0 -0.4377936027
N  N46  1  0.70335000  0.75305000  0.02888000  1.0 -0.4377936027
N  N47  1  0.31196000  0.39164000  0.58866000  1.0 -0.4286625896
N  N48  1  0.60836000  0.68804000  0.08866000  1.0 -0.4286625896
