# DDEC6 charges by PACMAN v1.1 (https://github.com/mtap-research/PACMAN-charge/)
data_UDAXAB_ASR_pacman
_symmetry_space_group_name_H-M   'P 1'
_cell_length_a   18.99740000
_cell_length_b   18.99740000
_cell_length_c   31.15470000
_cell_angle_alpha   80.00160000
_cell_angle_beta   99.99840000
_cell_angle_gamma   134.64200000
_symmetry_Int_Tables_number   1
_chemical_formula_structural   Zn3H24C36(I5N6)2
_chemical_formula_sum   'Zn12 H96 C144 I40 N48'
_cell_volume   7857.15733707
_cell_formula_units_Z   4
loop_
 _symmetry_equiv_pos_site_id
 _symmetry_equiv_pos_as_xyz
  1  'x, y, z'
loop_
 _atom_site_type_symbol
 _atom_site_label
 _atom_site_symmetry_multiplicity
 _atom_site_fract_x
 _atom_site_fract_y
 _atom_site_fract_z
 _atom_site_occupancy
 _atom_site_charge
Zn  Zn1  1  0.82226000  0.47484000  0.27399000  1.0 0.4320282168
Zn  Zn2  1  0.52516000  0.17774000  0.77399000  1.0 0.4320282168
Zn  Zn3  1  0.95293000  0.78935000  0.10006000  1.0 0.2987990431
Zn  Zn4  1  0.21065000  0.04707000  0.60006000  1.0 0.2987990431
Zn  Zn5  1  0.48062000  0.72720000  0.93250000  1.0 0.3245533459
Zn  Zn6  1  0.27280000  0.51938000  0.43250000  1.0 0.3245533459
Zn  Zn7  1  0.47484000  0.82226000  0.22601000  1.0 0.4320282168
Zn  Zn8  1  0.17774000  0.52516000  0.72601000  1.0 0.4320282168
Zn  Zn9  1  0.78935000  0.95293000  0.39994000  1.0 0.2987990431
Zn  Zn10  1  0.04707000  0.21065000  0.89994000  1.0 0.2987990431
Zn  Zn11  1  0.72720000  0.48062000  0.56750000  1.0 0.3296449733
Zn  Zn12  1  0.51938000  0.27280000  0.06750000  1.0 0.3296449733
H  H1  1  0.74930000  0.28030000  0.32200000  1.0 0.0996122213
H  H2  1  0.71970000  0.25070000  0.82200000  1.0 0.0996122213
H  H3  1  0.60530000  0.11350000  0.32800000  1.0 0.1278742816
H  H4  1  0.88650000  0.39470000  0.82800000  1.0 0.1278742816
H  H5  1  0.46290000  0.17650000  0.24880000  1.0 0.1196140785
H  H6  1  0.82350000  0.53710000  0.74880000  1.0 0.1196140785
H  H7  1  0.60910000  0.34050000  0.24670000  1.0 0.0911678444
H  H8  1  0.65950000  0.39090000  0.74670000  1.0 0.0911678444
H  H9  1  0.11880000  0.72260000  0.21970000  1.0 0.1196140785
H  H10  1  0.27740000  0.88120000  0.71970000  1.0 0.1196140785
H  H11  1  0.00410000  0.68570000  0.16320000  1.0 0.0788209046
H  H12  1  0.31430000  0.99590000  0.66320000  1.0 0.0788209046
H  H13  1  0.13610000  0.96210000  0.14350000  1.0 0.0702671028
H  H14  1  0.03790000  0.86390000  0.64350000  1.0 0.0702671028
H  H15  1  0.25950000  0.00910000  0.19760000  1.0 0.0996122213
H  H16  1  0.99090000  0.74050000  0.69760000  1.0 0.0996122213
H  H17  1  0.02820000  0.99320000  0.06690000  1.0 0.0788209046
H  H18  1  0.00680000  0.97180000  0.56690000  1.0 0.0788209046
H  H19  1  0.14400000  0.13000000  0.02200000  1.0 0.1196140785
H  H20  1  0.87000000  0.85600000  0.52200000  1.0 0.1196140785
H  H21  1  0.20520000  0.98380000  0.99000000  1.0 0.1278742816
H  H22  1  0.01620000  0.79480000  0.49000000  1.0 0.1278742816
H  H23  1  0.08880000  0.85080000  0.03680000  1.0 0.0788209046
H  H24  1  0.14920000  0.91120000  0.53680000  1.0 0.0788209046
H  H25  1  0.35720000  0.08180000  0.90980000  1.0 0.1196140785
H  H26  1  0.91820000  0.64280000  0.40980000  1.0 0.1196140785
H  H27  1  0.42870000  0.07390000  0.86020000  1.0 0.0996122213
H  H28  1  0.92610000  0.57130000  0.36020000  1.0 0.0996122213
H  H29  1  0.48540000  0.29580000  0.78850000  1.0 0.0911678444
H  H30  1  0.70420000  0.51460000  0.28850000  1.0 0.0911678444
H  H31  1  0.42630000  0.31590000  0.83840000  1.0 0.1278742816
H  H32  1  0.68410000  0.57370000  0.33840000  1.0 0.1278742816
H  H33  1  0.34880000  0.39820000  0.00380000  1.0 0.1278742816
H  H34  1  0.60180000  0.65120000  0.50380000  1.0 0.1278742816
H  H35  1  0.39890000  0.54810000  0.00030000  1.0 0.0788209046
H  H36  1  0.45190000  0.60110000  0.50030000  1.0 0.0788209046
H  H37  1  0.46570000  0.60290000  0.88020000  1.0 0.0788209046
H  H38  1  0.39710000  0.53430000  0.38020000  1.0 0.0788209046
H  H39  1  0.42180000  0.45660000  0.88230000  1.0 0.1278742816
H  H40  1  0.54340000  0.57820000  0.38230000  1.0 0.1278742816
H  H41  1  0.40470000  0.73930000  0.42760000  1.0 0.0702671028
H  H42  1  0.26070000  0.59530000  0.92760000  1.0 0.0702671028
H  H43  1  0.43610000  0.86670000  0.38180000  1.0 0.1196140785
H  H44  1  0.13330000  0.56390000  0.88180000  1.0 0.1196140785
H  H45  1  0.21690000  0.66590000  0.29780000  1.0 0.1113175504
H  H46  1  0.33410000  0.78310000  0.79780000  1.0 0.1113175504
H  H47  1  0.19750000  0.54430000  0.34350000  1.0 0.0616246551
H  H48  1  0.45570000  0.80250000  0.84350000  1.0 0.0616246551
H  H49  1  0.28030000  0.74930000  0.17800000  1.0 0.0996122213
H  H50  1  0.25070000  0.71970000  0.67800000  1.0 0.0996122213
H  H51  1  0.11350000  0.60530000  0.17200000  1.0 0.1278742816
H  H52  1  0.39470000  0.88650000  0.67200000  1.0 0.1278742816
H  H53  1  0.17650000  0.46290000  0.25120000  1.0 0.1196140785
H  H54  1  0.53710000  0.82350000  0.75120000  1.0 0.1196140785
H  H55  1  0.34050000  0.60910000  0.25330000  1.0 0.0911678444
H  H56  1  0.39090000  0.65950000  0.75330000  1.0 0.0911678444
H  H57  1  0.72260000  0.11880000  0.28030000  1.0 0.1196140785
H  H58  1  0.88120000  0.27740000  0.78030000  1.0 0.1196140785
H  H59  1  0.68570000  0.00410000  0.33680000  1.0 0.0788209046
H  H60  1  0.99590000  0.31430000  0.83680000  1.0 0.0788209046
H  H61  1  0.96210000  0.13610000  0.35650000  1.0 0.0702671028
H  H62  1  0.86390000  0.03790000  0.85650000  1.0 0.0702671028
H  H63  1  0.00910000  0.25950000  0.30240000  1.0 0.0996122213
H  H64  1  0.74050000  0.99090000  0.80240000  1.0 0.0996122213
H  H65  1  0.99320000  0.02820000  0.43310000  1.0 0.0788209046
H  H66  1  0.97180000  0.00680000  0.93310000  1.0 0.0788209046
H  H67  1  0.13000000  0.14400000  0.47800000  1.0 0.1278742816
H  H68  1  0.85600000  0.87000000  0.97800000  1.0 0.1196140785
H  H69  1  0.98380000  0.20520000  0.51000000  1.0 0.1278742816
H  H70  1  0.79480000  0.01620000  0.01000000  1.0 0.1278742816
H  H71  1  0.85080000  0.08880000  0.46320000  1.0 0.0788209046
H  H72  1  0.91120000  0.14920000  0.96320000  1.0 0.0788209046
H  H73  1  0.08180000  0.35720000  0.59020000  1.0 0.1196140785
H  H74  1  0.64280000  0.91820000  0.09020000  1.0 0.1196140785
H  H75  1  0.07390000  0.42870000  0.63980000  1.0 0.0996122213
H  H76  1  0.57130000  0.92610000  0.13980000  1.0 0.0996122213
H  H77  1  0.29580000  0.48540000  0.71150000  1.0 0.0911678444
H  H78  1  0.51460000  0.70420000  0.21150000  1.0 0.0911678444
H  H79  1  0.31590000  0.42630000  0.66160000  1.0 0.1278742816
H  H80  1  0.57370000  0.68410000  0.16160000  1.0 0.1278742816
H  H81  1  0.39820000  0.34880000  0.49620000  1.0 0.1278742816
H  H82  1  0.65120000  0.60180000  0.99620000  1.0 0.1278742816
H  H83  1  0.54810000  0.39890000  0.49970000  1.0 0.0788209046
H  H84  1  0.60110000  0.45190000  0.99970000  1.0 0.0788209046
H  H85  1  0.60290000  0.46570000  0.61980000  1.0 0.0788209046
H  H86  1  0.53430000  0.39710000  0.11980000  1.0 0.0788209046
H  H87  1  0.45660000  0.42180000  0.61770000  1.0 0.1278742816
H  H88  1  0.57820000  0.54340000  0.11770000  1.0 0.1278742816
H  H89  1  0.73930000  0.40470000  0.07240000  1.0 0.0702671028
H  H90  1  0.59530000  0.26070000  0.57240000  1.0 0.0702671028
H  H91  1  0.86670000  0.43610000  0.11820000  1.0 0.1196140785
H  H92  1  0.56390000  0.13330000  0.61820000  1.0 0.1196140785
H  H93  1  0.66590000  0.21690000  0.20220000  1.0 0.1113175504
H  H94  1  0.78310000  0.33410000  0.70220000  1.0 0.1113175504
H  H95  1  0.54430000  0.19750000  0.15650000  1.0 0.0616246551
H  H96  1  0.80250000  0.45570000  0.65650000  1.0 0.0616246551
C  C1  1  0.69090000  0.25910000  0.30710000  1.0 0.0788209046
C  C2  1  0.74090000  0.30910000  0.80710000  1.0 0.0788209046
C  C3  1  0.60450000  0.15790000  0.31050000  1.0 -0.1684491985
C  C4  1  0.84210000  0.39550000  0.81050000  1.0 -0.1684491985
C  C5  1  0.51870000  0.12530000  0.28770000  1.0 0.0502987052
C  C6  1  0.87470000  0.48130000  0.78770000  1.0 0.0502987052
C  C7  1  0.52030000  0.19570000  0.26380000  1.0 -0.1684491985
C  C8  1  0.80430000  0.47970000  0.76380000  1.0 -0.1684491985
C  C9  1  0.60850000  0.29390000  0.26270000  1.0 0.0616246551
C  C10  1  0.70610000  0.39150000  0.76270000  1.0 0.0616246551
C  C11  1  0.42760000  0.01880000  0.28570000  1.0 0.3513312392
C  C12  1  0.98120000  0.57240000  0.78570000  1.0 0.3513312392
C  C13  1  0.34050000  0.85770000  0.30490000  1.0 0.3582583941
C  C14  1  0.14230000  0.65950000  0.80490000  1.0 0.3582583941
C  C15  1  0.28050000  0.89990000  0.25030000  1.0 0.3582583941
C  C16  1  0.10010000  0.71950000  0.75030000  1.0 0.3582583941
C  C17  1  0.20270000  0.87030000  0.21490000  1.0 0.0502987052
C  C18  1  0.12970000  0.79730000  0.71490000  1.0 0.0502987052
C  C19  1  0.12460000  0.77280000  0.20420000  1.0 -0.160629719
C  C20  1  0.22720000  0.87540000  0.70420000  1.0 -0.160629719
C  C21  1  0.05570000  0.75110000  0.17040000  1.0 0.0616246551
C  C22  1  0.24890000  0.94430000  0.67040000  1.0 0.0616246551
C  C23  1  0.13390000  0.91390000  0.15860000  1.0 0.0502987052
C  C24  1  0.08610000  0.86610000  0.65860000  1.0 0.0502987052
C  C25  1  0.20790000  0.94290000  0.19150000  1.0 -0.1684491985
C  C26  1  0.05710000  0.79210000  0.69150000  1.0 -0.1684491985
C  C27  1  0.06460000  0.99160000  0.05140000  1.0 0.0395968649
C  C28  1  0.00840000  0.93540000  0.55140000  1.0 0.0395968649
C  C29  1  0.13380000  0.07400000  0.02430000  1.0 -0.1684491985
C  C30  1  0.92600000  0.86620000  0.52430000  1.0 -0.1684491985
C  C31  1  0.18740000  0.07140000  0.00070000  1.0 0.0395968649
C  C32  1  0.92860000  0.81260000  0.50070000  1.0 0.0334733702
C  C33  1  0.17040000  0.98760000  0.00540000  1.0 -0.160629719
C  C34  1  0.01240000  0.82960000  0.50540000  1.0 -0.160629719
C  C35  1  0.09980000  0.90740000  0.03370000  1.0 0.0616246551
C  C36  1  0.09260000  0.90020000  0.53370000  1.0 0.0616246551
C  C37  1  0.26030000  0.15630000  0.97040000  1.0 0.3582583941
C  C38  1  0.84370000  0.73970000  0.47040000  1.0 0.3582583941
C  C39  1  0.35290000  0.31610000  0.94520000  1.0 0.3296449733
C  C40  1  0.68390000  0.64710000  0.44520000  1.0 0.3296449733
C  C41  1  0.35430000  0.21850000  0.91410000  1.0 0.339054694
C  C42  1  0.78150000  0.64570000  0.41410000  1.0 0.339054694
C  C43  1  0.38960000  0.20420000  0.88110000  1.0 0.0395968649
C  C44  1  0.79580000  0.61040000  0.38110000  1.0 0.0395968649
C  C45  1  0.38640000  0.12860000  0.88610000  1.0 -0.160629719
C  C46  1  0.87140000  0.61360000  0.38610000  1.0 -0.160629719
C  C47  1  0.42700000  0.12240000  0.85540000  1.0 0.0702671028
C  C48  1  0.87760000  0.57300000  0.35540000  1.0 0.0702671028
C  C49  1  0.46160000  0.25340000  0.81380000  1.0 0.0702671028
C  C50  1  0.74660000  0.53840000  0.31380000  1.0 0.0702671028
C  C51  1  0.42580000  0.26580000  0.84360000  1.0 -0.160629719
C  C52  1  0.73420000  0.57420000  0.34360000  1.0 -0.160629719
C  C53  1  0.38320000  0.41120000  0.94450000  1.0 0.0395968649
C  C54  1  0.58880000  0.61680000  0.44450000  1.0 0.0334733702
C  C55  1  0.37460000  0.44000000  0.97850000  1.0 -0.1684491985
C  C56  1  0.56000000  0.62540000  0.47850000  1.0 -0.1684491985
C  C57  1  0.40360000  0.52960000  0.97590000  1.0 0.0395968649
C  C58  1  0.47040000  0.59640000  0.47590000  1.0 0.0395968649
C  C59  1  0.44320000  0.56180000  0.90590000  1.0 0.0502987052
C  C60  1  0.43820000  0.55680000  0.40590000  1.0 0.0502987052
C  C61  1  0.41700000  0.47420000  0.90690000  1.0 -0.152884385
C  C62  1  0.52580000  0.58300000  0.40690000  1.0 -0.152884385
C  C63  1  0.36800000  0.72520000  0.40080000  1.0 0.0395968649
C  C64  1  0.27480000  0.63200000  0.90080000  1.0 0.0395968649
C  C65  1  0.38610000  0.80170000  0.37390000  1.0 -0.1437122919
C  C66  1  0.19830000  0.61390000  0.87390000  1.0 -0.1437122919
C  C67  1  0.32780000  0.77920000  0.33480000  1.0 0.0502987052
C  C68  1  0.22080000  0.67220000  0.83480000  1.0 0.0502987052
C  C69  1  0.25680000  0.68240000  0.32380000  1.0 -0.152884385
C  C70  1  0.31760000  0.74320000  0.82380000  1.0 -0.152884385
C  C71  1  0.24460000  0.60920000  0.35160000  1.0 0.0702671028
C  C72  1  0.39080000  0.75540000  0.85160000  1.0 0.0702671028
C  C73  1  0.25910000  0.69090000  0.19290000  1.0 0.0788209046
C  C74  1  0.30910000  0.74090000  0.69290000  1.0 0.0788209046
C  C75  1  0.15790000  0.60450000  0.18950000  1.0 -0.1684491985
C  C76  1  0.39550000  0.84210000  0.68950000  1.0 -0.1684491985
C  C77  1  0.12530000  0.51870000  0.21230000  1.0 0.0502987052
C  C78  1  0.48130000  0.87470000  0.71230000  1.0 0.0502987052
C  C79  1  0.19570000  0.52030000  0.23620000  1.0 -0.1684491985
C  C80  1  0.47970000  0.80430000  0.73620000  1.0 -0.1684491985
C  C81  1  0.29390000  0.60850000  0.23730000  1.0 0.0616246551
C  C82  1  0.39150000  0.70610000  0.73730000  1.0 0.0616246551
C  C83  1  0.01880000  0.42760000  0.21430000  1.0 0.3513312392
C  C84  1  0.57240000  0.98120000  0.71430000  1.0 0.3513312392
C  C85  1  0.85770000  0.34050000  0.19510000  1.0 0.3582583941
C  C86  1  0.65950000  0.14230000  0.69510000  1.0 0.3582583941
C  C87  1  0.89990000  0.28050000  0.24970000  1.0 0.3582583941
C  C88  1  0.71950000  0.10010000  0.74970000  1.0 0.3582583941
C  C89  1  0.87030000  0.20270000  0.28510000  1.0 0.0502987052
C  C90  1  0.79730000  0.12970000  0.78510000  1.0 0.0502987052
C  C91  1  0.77280000  0.12460000  0.29580000  1.0 -0.160629719
C  C92  1  0.87540000  0.22720000  0.79580000  1.0 -0.160629719
C  C93  1  0.75110000  0.05570000  0.32960000  1.0 0.0616246551
C  C94  1  0.94430000  0.24890000  0.82960000  1.0 0.0616246551
C  C95  1  0.91390000  0.13390000  0.34140000  1.0 0.0502987052
C  C96  1  0.86610000  0.08610000  0.84140000  1.0 0.0502987052
C  C97  1  0.94290000  0.20790000  0.30850000  1.0 -0.1684491985
C  C98  1  0.79210000  0.05710000  0.80850000  1.0 -0.1684491985
C  C99  1  0.99160000  0.06460000  0.44860000  1.0 0.0395968649
C  C100  1  0.93540000  0.00840000  0.94860000  1.0 0.0395968649
C  C101  1  0.07400000  0.13380000  0.47570000  1.0 -0.1684491985
C  C102  1  0.86620000  0.92600000  0.97570000  1.0 -0.1684491985
C  C103  1  0.07140000  0.18740000  0.49930000  1.0 0.0395968649
C  C104  1  0.81260000  0.92860000  0.99930000  1.0 0.0395968649
C  C105  1  0.98760000  0.17040000  0.49460000  1.0 -0.160629719
C  C106  1  0.82960000  0.01240000  0.99460000  1.0 -0.160629719
C  C107  1  0.90740000  0.09980000  0.46630000  1.0 0.0616246551
C  C108  1  0.90020000  0.09260000  0.96630000  1.0 0.0616246551
C  C109  1  0.15630000  0.26030000  0.52960000  1.0 0.3582583941
C  C110  1  0.73970000  0.84370000  0.02960000  1.0 0.3582583941
C  C111  1  0.31610000  0.35290000  0.55480000  1.0 0.3296449733
C  C112  1  0.64710000  0.68390000  0.05480000  1.0 0.3296449733
C  C113  1  0.21850000  0.35430000  0.58590000  1.0 0.339054694
C  C114  1  0.64570000  0.78150000  0.08590000  1.0 0.339054694
C  C115  1  0.20420000  0.38960000  0.61890000  1.0 0.0395968649
C  C116  1  0.61040000  0.79580000  0.11890000  1.0 0.0395968649
C  C117  1  0.12860000  0.38640000  0.61390000  1.0 -0.160629719
C  C118  1  0.61360000  0.87140000  0.11390000  1.0 -0.160629719
C  C119  1  0.12240000  0.42700000  0.64460000  1.0 0.0702671028
C  C120  1  0.57300000  0.87760000  0.14460000  1.0 0.0702671028
C  C121  1  0.25340000  0.46160000  0.68620000  1.0 0.0702671028
C  C122  1  0.53840000  0.74660000  0.18620000  1.0 0.0702671028
C  C123  1  0.26580000  0.42580000  0.65640000  1.0 -0.160629719
C  C124  1  0.57420000  0.73420000  0.15640000  1.0 -0.160629719
C  C125  1  0.41120000  0.38320000  0.55550000  1.0 0.0334733702
C  C126  1  0.61680000  0.58880000  0.05550000  1.0 0.0334733702
C  C127  1  0.44000000  0.37460000  0.52150000  1.0 -0.1684491985
C  C128  1  0.62540000  0.56000000  0.02150000  1.0 -0.1684491985
C  C129  1  0.52960000  0.40360000  0.52410000  1.0 0.0395968649
C  C130  1  0.59640000  0.47040000  0.02410000  1.0 0.0395968649
C  C131  1  0.56180000  0.44320000  0.59410000  1.0 0.0502987052
C  C132  1  0.55680000  0.43820000  0.09410000  1.0 0.0502987052
C  C133  1  0.47420000  0.41700000  0.59310000  1.0 -0.152884385
C  C134  1  0.58300000  0.52580000  0.09310000  1.0 -0.152884385
C  C135  1  0.72520000  0.36800000  0.09920000  1.0 0.0395968649
C  C136  1  0.63200000  0.27480000  0.59920000  1.0 0.0502987052
C  C137  1  0.80170000  0.38610000  0.12610000  1.0 -0.1437122919
C  C138  1  0.61390000  0.19830000  0.62610000  1.0 -0.1437122919
C  C139  1  0.77920000  0.32780000  0.16520000  1.0 0.0502987052
C  C140  1  0.67220000  0.22080000  0.66520000  1.0 0.0502987052
C  C141  1  0.68240000  0.25680000  0.17620000  1.0 -0.152884385
C  C142  1  0.74320000  0.31760000  0.67620000  1.0 -0.152884385
C  C143  1  0.60920000  0.24460000  0.14840000  1.0 0.0702671028
C  C144  1  0.75540000  0.39080000  0.64840000  1.0 0.0702671028
I  I1  1  0.97541000  0.50381000  0.29610000  1.0 -0.4454165347
I  I2  1  0.49619000  0.02459000  0.79610000  1.0 -0.4397168541
I  I3  1  0.79239000  0.53081000  0.19850000  1.0 -0.4789425679
I  I4  1  0.46919000  0.20761000  0.69850000  1.0 -0.4789425679
I  I5  1  0.46143000  0.75317000  0.00559000  1.0 0.0159825616
I  I6  1  0.24683000  0.53857000  0.50559000  1.0 0.0159825616
I  I7  1  0.87042000  0.63662000  0.06308000  1.0 -0.0285122669
I  I8  1  0.36338000  0.12958000  0.56308000  1.0 -0.0369768128
I  I9  1  0.86007000  0.81409000  0.13504000  1.0 0.0092140454
I  I10  1  0.18591000  0.13993000  0.63504000  1.0 0.0159825616
I  I11  1  0.64194000  0.85426000  0.89425000  1.0 0.0334733702
I  I12  1  0.14574000  0.35806000  0.39425000  1.0 0.0334733702
I  I13  1  0.47940000  0.77860000  0.99850000  1.0 0.0092140454
I  I14  1  0.22140000  0.52060000  0.49850000  1.0 0.0092140454
I  I15  1  0.90560000  0.63960000  0.05850000  1.0 -0.0037967278
I  I16  1  0.36040000  0.09440000  0.55850000  1.0 -0.0112485327
I  I17  1  0.85530000  0.79390000  0.12180000  1.0 -0.0112485327
I  I18  1  0.20610000  0.14470000  0.62180000  1.0 -0.0154608563
I  I19  1  0.62840000  0.82540000  0.88900000  1.0 0.0395968649
I  I20  1  0.17460000  0.37160000  0.38900000  1.0 0.0334733702
I  I21  1  0.50381000  0.97541000  0.20390000  1.0 -0.4397168541
I  I22  1  0.02459000  0.49619000  0.70390000  1.0 -0.4397168541
I  I23  1  0.53081000  0.79239000  0.30150000  1.0 -0.4789425679
I  I24  1  0.20761000  0.46919000  0.80150000  1.0 -0.4789425679
I  I25  1  0.75317000  0.46143000  0.49441000  1.0 0.0159825616
I  I26  1  0.53857000  0.24683000  0.99441000  1.0 0.0092140454
I  I27  1  0.63662000  0.87042000  0.43692000  1.0 -0.0285122669
I  I28  1  0.12958000  0.36338000  0.93692000  1.0 -0.0285122669
I  I29  1  0.81409000  0.86007000  0.36496000  1.0 0.0159825616
I  I30  1  0.13993000  0.18591000  0.86496000  1.0 0.0159825616
I  I31  1  0.85426000  0.64194000  0.60575000  1.0 0.0334733702
I  I32  1  0.35806000  0.14574000  0.10575000  1.0 0.0334733702
I  I33  1  0.77860000  0.47940000  0.50150000  1.0 0.0092140454
I  I34  1  0.52060000  0.22140000  0.00150000  1.0 0.0027076076
I  I35  1  0.63960000  0.90560000  0.44150000  1.0 -0.0037967278
I  I36  1  0.09440000  0.36040000  0.94150000  1.0 -0.0037967278
I  I37  1  0.79390000  0.85530000  0.37820000  1.0 -0.0112485327
I  I38  1  0.14470000  0.20610000  0.87820000  1.0 -0.0154608563
I  I39  1  0.82540000  0.62840000  0.61100000  1.0 0.0395968649
I  I40  1  0.37160000  0.17460000  0.11100000  1.0 0.0334733702
N  N1  1  0.69360000  0.32600000  0.28380000  1.0 -0.2000570255
N  N2  1  0.67400000  0.30640000  0.78380000  1.0 -0.2000570255
N  N3  1  0.42210000  0.95290000  0.31280000  1.0 -0.4101605662
N  N4  1  0.04710000  0.57790000  0.81280000  1.0 -0.4101605662
N  N5  1  0.35770000  0.99650000  0.25440000  1.0 -0.4101605662
N  N6  1  0.00350000  0.64230000  0.75440000  1.0 -0.4101605662
N  N7  1  0.26950000  0.82730000  0.27400000  1.0 -0.3998320051
N  N8  1  0.17270000  0.73050000  0.77400000  1.0 -0.3998320051
N  N9  1  0.05990000  0.82010000  0.14760000  1.0 -0.2000570255
N  N10  1  0.17990000  0.94010000  0.64760000  1.0 -0.2000570255
N  N11  1  0.04820000  0.90960000  0.05610000  1.0 -0.2166718659
N  N12  1  0.09040000  0.95180000  0.55610000  1.0 -0.2166718659
N  N13  1  0.28890000  0.13830000  0.94170000  1.0 -0.4397168541
N  N14  1  0.86170000  0.71110000  0.44170000  1.0 -0.4397168541
N  N15  1  0.29040000  0.24340000  0.97460000  1.0 -0.4397168541
N  N16  1  0.75660000  0.70960000  0.47460000  1.0 -0.4397168541
N  N17  1  0.38820000  0.30720000  0.91490000  1.0 -0.4101605662
N  N18  1  0.69280000  0.61180000  0.41490000  1.0 -0.4101605662
N  N19  1  0.46350000  0.18390000  0.81930000  1.0 -0.2000570255
N  N20  1  0.81610000  0.53650000  0.31930000  1.0 -0.2000570255
N  N21  1  0.43820000  0.59200000  0.94000000  1.0 -0.2166718659
N  N22  1  0.40800000  0.56180000  0.44000000  1.0 -0.2166718659
N  N23  1  0.29820000  0.62940000  0.38950000  1.0 -0.2000570255
N  N24  1  0.37060000  0.70180000  0.88950000  1.0 -0.2000570255
N  N25  1  0.32600000  0.69360000  0.21620000  1.0 -0.2000570255
N  N26  1  0.30640000  0.67400000  0.71620000  1.0 -0.2000570255
N  N27  1  0.95290000  0.42210000  0.18720000  1.0 -0.4101605662
N  N28  1  0.57790000  0.04710000  0.68720000  1.0 -0.4101605662
N  N29  1  0.99650000  0.35770000  0.24560000  1.0 -0.4101605662
N  N30  1  0.64230000  0.00350000  0.74560000  1.0 -0.4101605662
N  N31  1  0.82730000  0.26950000  0.22600000  1.0 -0.3998320051
N  N32  1  0.73050000  0.17270000  0.72600000  1.0 -0.3998320051
N  N33  1  0.82010000  0.05990000  0.35240000  1.0 -0.2000570255
N  N34  1  0.94010000  0.17990000  0.85240000  1.0 -0.2000570255
N  N35  1  0.90960000  0.04820000  0.44390000  1.0 -0.2166718659
N  N36  1  0.95180000  0.09040000  0.94390000  1.0 -0.2166718659
N  N37  1  0.13830000  0.28890000  0.55830000  1.0 -0.4397168541
N  N38  1  0.71110000  0.86170000  0.05830000  1.0 -0.4397168541
N  N39  1  0.24340000  0.29040000  0.52540000  1.0 -0.4397168541
N  N40  1  0.70960000  0.75660000  0.02540000  1.0 -0.4397168541
N  N41  1  0.30720000  0.38820000  0.58510000  1.0 -0.4101605662
N  N42  1  0.61180000  0.69280000  0.08510000  1.0 -0.4101605662
N  N43  1  0.18390000  0.46350000  0.68070000  1.0 -0.2000570255
N  N44  1  0.53650000  0.81610000  0.18070000  1.0 -0.2000570255
N  N45  1  0.59200000  0.43820000  0.56000000  1.0 -0.2166718659
N  N46  1  0.56180000  0.40800000  0.06000000  1.0 -0.2166718659
N  N47  1  0.62940000  0.29820000  0.11050000  1.0 -0.2000570255
N  N48  1  0.70180000  0.37060000  0.61050000  1.0 -0.2000570255
