# DDEC6 charges by PACMAN v1.1 (https://github.com/mtap-research/PACMAN-charge/)
data_UDIQII_FSR_pacman
_symmetry_space_group_name_H-M   'P 1'
_cell_length_a   7.61010000
_cell_length_b   19.64600000
_cell_length_c   21.86600000
_cell_angle_alpha   90.00000000
_cell_angle_beta   90.00000000
_cell_angle_gamma   90.00000000
_symmetry_Int_Tables_number   1
_chemical_formula_structural   TbH10C11O7
_chemical_formula_sum   'Tb8 H80 C88 O56'
_cell_volume   3269.14246590
_cell_formula_units_Z   8
loop_
 _symmetry_equiv_pos_site_id
 _symmetry_equiv_pos_as_xyz
  1  'x, y, z'
loop_
 _atom_site_type_symbol
 _atom_site_label
 _atom_site_symmetry_multiplicity
 _atom_site_fract_x
 _atom_site_fract_y
 _atom_site_fract_z
 _atom_site_occupancy
 _atom_site_charge
Tb  Tb1  1  0.92517000  0.05315000  0.71955000  1.0 2.0405245933
Tb  Tb2  1  0.57483000  0.55315000  0.78045000  1.0 2.0405245933
Tb  Tb3  1  0.92517000  0.44685000  0.28045000  1.0 2.0405245933
Tb  Tb4  1  0.57483000  0.94685000  0.21955000  1.0 2.0405245933
Tb  Tb5  1  0.07483000  0.94685000  0.28045000  1.0 2.0405245933
Tb  Tb6  1  0.42517000  0.44685000  0.21955000  1.0 2.0405245933
Tb  Tb7  1  0.07483000  0.55315000  0.71955000  1.0 2.0405245933
Tb  Tb8  1  0.42517000  0.05315000  0.78045000  1.0 2.0405245933
H  H1  1  0.38510000  0.08370000  0.56130000  1.0 0.1308757055
H  H2  1  0.11490000  0.58370000  0.93870000  1.0 0.1308757055
H  H3  1  0.38510000  0.41630000  0.43870000  1.0 0.1308757055
H  H4  1  0.11490000  0.91630000  0.06130000  1.0 0.1308757055
H  H5  1  0.61490000  0.91630000  0.43870000  1.0 0.1308757055
H  H6  1  0.88510000  0.41630000  0.06130000  1.0 0.1308757055
H  H7  1  0.61490000  0.58370000  0.56130000  1.0 0.1308757055
H  H8  1  0.88510000  0.08370000  0.93870000  1.0 0.1308757055
H  H9  1  0.57800000  0.10230000  0.54210000  1.0 0.1386822345
H  H10  1  0.92200000  0.60230000  0.95790000  1.0 0.1386822345
H  H11  1  0.57800000  0.39770000  0.45790000  1.0 0.1386822345
H  H12  1  0.92200000  0.89770000  0.04210000  1.0 0.1386822345
H  H13  1  0.42200000  0.89770000  0.45790000  1.0 0.1386822345
H  H14  1  0.07800000  0.39770000  0.04210000  1.0 0.1386822345
H  H15  1  0.42200000  0.60230000  0.54210000  1.0 0.1386822345
H  H16  1  0.07800000  0.10230000  0.95790000  1.0 0.1386822345
H  H17  1  0.45430000  0.96720000  0.55510000  1.0 0.099050435
H  H18  1  0.04570000  0.46720000  0.94490000  1.0 0.099050435
H  H19  1  0.45430000  0.53280000  0.44490000  1.0 0.099050435
H  H20  1  0.04570000  0.03280000  0.05510000  1.0 0.099050435
H  H21  1  0.54570000  0.03280000  0.44490000  1.0 0.099050435
H  H22  1  0.95430000  0.53280000  0.05510000  1.0 0.099050435
H  H23  1  0.54570000  0.46720000  0.55510000  1.0 0.099050435
H  H24  1  0.95430000  0.96720000  0.94490000  1.0 0.099050435
H  H25  1  0.64760000  0.98540000  0.53670000  1.0 0.099050435
H  H26  1  0.85240000  0.48540000  0.96330000  1.0 0.099050435
H  H27  1  0.64760000  0.51460000  0.46330000  1.0 0.099050435
H  H28  1  0.85240000  0.01460000  0.03670000  1.0 0.099050435
H  H29  1  0.35240000  0.01460000  0.46330000  1.0 0.099050435
H  H30  1  0.14760000  0.51460000  0.03670000  1.0 0.099050435
H  H31  1  0.35240000  0.48540000  0.53670000  1.0 0.099050435
H  H32  1  0.14760000  0.98540000  0.96330000  1.0 0.099050435
H  H33  1  0.54080000  0.40700000  0.68310000  1.0 0.1386822345
H  H34  1  0.95920000  0.90700000  0.81690000  1.0 0.1386822345
H  H35  1  0.54080000  0.09300000  0.31690000  1.0 0.1386822345
H  H36  1  0.95920000  0.59300000  0.18310000  1.0 0.1386822345
H  H37  1  0.45920000  0.59300000  0.31690000  1.0 0.1386822345
H  H38  1  0.04080000  0.09300000  0.18310000  1.0 0.1386822345
H  H39  1  0.45920000  0.90700000  0.68310000  1.0 0.1386822345
H  H40  1  0.04080000  0.40700000  0.81690000  1.0 0.1386822345
H  H41  1  0.46200000  0.35990000  0.73370000  1.0 0.1386822345
H  H42  1  0.03800000  0.85990000  0.76630000  1.0 0.1386822345
H  H43  1  0.46200000  0.14010000  0.26630000  1.0 0.1386822345
H  H44  1  0.03800000  0.64010000  0.23370000  1.0 0.1386822345
H  H45  1  0.53800000  0.64010000  0.26630000  1.0 0.1386822345
H  H46  1  0.96200000  0.14010000  0.23370000  1.0 0.1386822345
H  H47  1  0.53800000  0.85990000  0.73370000  1.0 0.1386822345
H  H48  1  0.96200000  0.35990000  0.76630000  1.0 0.1386822345
H  H49  1  0.49300000  0.31060000  0.63040000  1.0 0.0854033105
H  H50  1  0.00700000  0.81060000  0.86960000  1.0 0.0854033105
H  H51  1  0.49300000  0.18940000  0.36960000  1.0 0.0854033105
H  H52  1  0.00700000  0.68940000  0.13040000  1.0 0.0854033105
H  H53  1  0.50700000  0.68940000  0.36960000  1.0 0.0854033105
H  H54  1  0.99300000  0.18940000  0.13040000  1.0 0.0854033105
H  H55  1  0.50700000  0.81060000  0.63040000  1.0 0.0854033105
H  H56  1  0.99300000  0.31060000  0.86960000  1.0 0.0854033105
H  H57  1  0.31440000  0.34960000  0.61640000  1.0 0.1058270025
H  H58  1  0.18560000  0.84960000  0.88360000  1.0 0.1058270025
H  H59  1  0.31440000  0.15040000  0.38360000  1.0 0.1058270025
H  H60  1  0.18560000  0.65040000  0.11640000  1.0 0.1058270025
H  H61  1  0.68560000  0.65040000  0.38360000  1.0 0.1058270025
H  H62  1  0.81440000  0.15040000  0.11640000  1.0 0.1058270025
H  H63  1  0.68560000  0.84960000  0.61640000  1.0 0.1058270025
H  H64  1  0.81440000  0.34960000  0.88360000  1.0 0.1058270025
H  H65  1  0.21800000  0.03400000  0.64200000  1.0 0.3104159895
H  H66  1  0.28200000  0.53400000  0.85800000  1.0 0.3104159895
H  H67  1  0.21800000  0.46600000  0.35800000  1.0 0.3104159895
H  H68  1  0.28200000  0.96600000  0.14200000  1.0 0.3104159895
H  H69  1  0.78200000  0.96600000  0.35800000  1.0 0.3104159895
H  H70  1  0.71800000  0.46600000  0.14200000  1.0 0.3104159895
H  H71  1  0.78200000  0.53400000  0.64200000  1.0 0.3104159895
H  H72  1  0.71800000  0.03400000  0.85800000  1.0 0.3104159895
H  H73  1  0.09400000  0.00100000  0.62000000  1.0 0.2889595392
H  H74  1  0.40600000  0.50100000  0.88000000  1.0 0.2889595392
H  H75  1  0.09400000  0.49900000  0.38000000  1.0 0.2889595392
H  H76  1  0.40600000  0.99900000  0.12000000  1.0 0.2889595392
H  H77  1  0.90600000  0.99900000  0.38000000  1.0 0.2889595392
H  H78  1  0.59400000  0.49900000  0.12000000  1.0 0.2889595392
H  H79  1  0.90600000  0.50100000  0.62000000  1.0 0.2889595392
H  H80  1  0.59400000  0.00100000  0.88000000  1.0 0.2889595392
C  C1  1  0.56310000  0.06580000  0.62970000  1.0 0.6872559997
C  C2  1  0.93690000  0.56580000  0.87030000  1.0 0.6872559997
C  C3  1  0.56310000  0.43420000  0.37030000  1.0 0.6872559997
C  C4  1  0.93690000  0.93420000  0.12970000  1.0 0.6872559997
C  C5  1  0.43690000  0.93420000  0.37030000  1.0 0.6872559997
C  C6  1  0.06310000  0.43420000  0.12970000  1.0 0.6872559997
C  C7  1  0.43690000  0.56580000  0.62970000  1.0 0.6872559997
C  C8  1  0.06310000  0.06580000  0.87030000  1.0 0.6872559997
C  C9  1  0.29680000  0.43670000  0.70970000  1.0 0.6448773805
C  C10  1  0.20320000  0.93670000  0.79030000  1.0 0.6448773805
C  C11  1  0.29680000  0.06330000  0.29030000  1.0 0.6448773805
C  C12  1  0.20320000  0.56330000  0.20970000  1.0 0.6448773805
C  C13  1  0.70320000  0.56330000  0.29030000  1.0 0.6448773805
C  C14  1  0.79680000  0.06330000  0.20970000  1.0 0.6448773805
C  C15  1  0.70320000  0.93670000  0.70970000  1.0 0.6448773805
C  C16  1  0.79680000  0.43670000  0.79030000  1.0 0.6448773805
C  C17  1  0.50670000  0.06910000  0.56360000  1.0 -0.3344817173
C  C18  1  0.99330000  0.56910000  0.93640000  1.0 -0.3344817173
C  C19  1  0.50670000  0.43090000  0.43640000  1.0 -0.3344817173
C  C20  1  0.99330000  0.93090000  0.06360000  1.0 -0.3344817173
C  C21  1  0.49330000  0.93090000  0.43640000  1.0 -0.3344817173
C  C22  1  0.00670000  0.43090000  0.06360000  1.0 -0.3344817173
C  C23  1  0.49330000  0.56910000  0.56360000  1.0 -0.3344817173
C  C24  1  0.00670000  0.06910000  0.93640000  1.0 -0.3344817173
C  C25  1  0.52620000  0.00000000  0.53333000  1.0 -0.1370584902
C  C26  1  0.97380000  0.50000000  0.96667000  1.0 -0.1370584902
C  C27  1  0.52620000  0.50000000  0.46667000  1.0 -0.1370584902
C  C28  1  0.97380000  0.00000000  0.03333000  1.0 -0.1370584902
C  C29  1  0.47380000  0.00000000  0.46667000  1.0 -0.1370584902
C  C30  1  0.02620000  0.50000000  0.03333000  1.0 -0.1370584902
C  C31  1  0.47380000  0.50000000  0.53333000  1.0 -0.1370584902
C  C32  1  0.02620000  0.00000000  0.96667000  1.0 -0.1370584902
C  C33  1  0.43480000  0.38370000  0.69600000  1.0 -0.3434275475
C  C34  1  0.06520000  0.88370000  0.80400000  1.0 -0.3434275475
C  C35  1  0.43480000  0.11630000  0.30400000  1.0 -0.3434275475
C  C36  1  0.06520000  0.61630000  0.19600000  1.0 -0.3434275475
C  C37  1  0.56520000  0.61630000  0.30400000  1.0 -0.3434275475
C  C38  1  0.93480000  0.11630000  0.19600000  1.0 -0.3434275475
C  C39  1  0.56520000  0.88370000  0.69600000  1.0 -0.3434275475
C  C40  1  0.93480000  0.38370000  0.80400000  1.0 -0.3434275475
C  C41  1  0.15040000  0.16890000  0.70310000  1.0 0.512760638
C  C42  1  0.34960000  0.66890000  0.79690000  1.0 0.512760638
C  C43  1  0.15040000  0.33110000  0.29690000  1.0 0.512760638
C  C44  1  0.34960000  0.83110000  0.20310000  1.0 0.512760638
C  C45  1  0.84960000  0.83110000  0.29690000  1.0 0.512760638
C  C46  1  0.65040000  0.33110000  0.20310000  1.0 0.512760638
C  C47  1  0.84960000  0.66890000  0.70310000  1.0 0.512760638
C  C48  1  0.65040000  0.16890000  0.79690000  1.0 0.512760638
C  C49  1  0.38960000  0.33150000  0.64830000  1.0 -0.1085554476
C  C50  1  0.11040000  0.83150000  0.85170000  1.0 -0.1085554476
C  C51  1  0.38960000  0.16850000  0.35170000  1.0 -0.1085554476
C  C52  1  0.11040000  0.66850000  0.14830000  1.0 -0.1085554476
C  C53  1  0.61040000  0.66850000  0.35170000  1.0 -0.1085554476
C  C54  1  0.88960000  0.16850000  0.14830000  1.0 -0.1085554476
C  C55  1  0.61040000  0.83150000  0.64830000  1.0 -0.1085554476
C  C56  1  0.88960000  0.33150000  0.85170000  1.0 -0.1085554476
C  C57  1  0.28000000  0.27740000  0.69690000  1.0 -0.0332428245
C  C58  1  0.22000000  0.77740000  0.80310000  1.0 -0.0332428245
C  C59  1  0.28000000  0.22260000  0.30310000  1.0 -0.0332428245
C  C60  1  0.22000000  0.72260000  0.19690000  1.0 -0.0332428245
C  C61  1  0.72000000  0.72260000  0.30310000  1.0 -0.0332428245
C  C62  1  0.78000000  0.22260000  0.19690000  1.0 -0.0332428245
C  C63  1  0.72000000  0.77740000  0.69690000  1.0 -0.0332428245
C  C64  1  0.78000000  0.27740000  0.80310000  1.0 -0.0332428245
C  C65  1  0.28400000  0.23280000  0.70300000  1.0 0.0499704906
C  C66  1  0.21600000  0.73280000  0.79700000  1.0 0.0499704906
C  C67  1  0.28400000  0.26720000  0.29700000  1.0 0.0499704906
C  C68  1  0.21600000  0.76720000  0.20300000  1.0 0.0499704906
C  C69  1  0.71600000  0.76720000  0.29700000  1.0 0.0499704906
C  C70  1  0.78400000  0.26720000  0.20300000  1.0 0.0499704906
C  C71  1  0.71600000  0.73280000  0.70300000  1.0 0.0499704906
C  C72  1  0.78400000  0.23280000  0.79700000  1.0 0.0499704906
C  C73  1  0.23480000  0.28100000  0.65380000  1.0 0.0854033105
C  C74  1  0.26520000  0.78100000  0.84620000  1.0 0.0847835231
C  C75  1  0.23480000  0.21900000  0.34620000  1.0 0.0854033105
C  C76  1  0.26520000  0.71900000  0.15380000  1.0 0.0854033105
C  C77  1  0.76520000  0.71900000  0.34620000  1.0 0.0854033105
C  C78  1  0.73480000  0.21900000  0.15380000  1.0 0.0854033105
C  C79  1  0.76520000  0.78100000  0.65380000  1.0 0.0854033105
C  C80  1  0.73480000  0.28100000  0.84620000  1.0 0.0854033105
C  C81  1  0.29200000  0.21440000  0.67830000  1.0 -0.0417053488
C  C82  1  0.20800000  0.71440000  0.82170000  1.0 -0.0417053488
C  C83  1  0.29200000  0.28560000  0.32170000  1.0 -0.0417053488
C  C84  1  0.20800000  0.78560000  0.17830000  1.0 -0.0417053488
C  C85  1  0.70800000  0.78560000  0.32170000  1.0 -0.0417053488
C  C86  1  0.79200000  0.28560000  0.17830000  1.0 -0.0417053488
C  C87  1  0.70800000  0.71440000  0.67830000  1.0 -0.0417053488
C  C88  1  0.79200000  0.21440000  0.82170000  1.0 -0.0417053488
O  O1  1  0.19330000  0.12004000  0.73898000  1.0 -0.7195857849
O  O2  1  0.30670000  0.62004000  0.76102000  1.0 -0.7195857849
O  O3  1  0.19330000  0.37996000  0.26102000  1.0 -0.7195857849
O  O4  1  0.30670000  0.87996000  0.23898000  1.0 -0.7195857849
O  O5  1  0.80670000  0.87996000  0.26102000  1.0 -0.7195857849
O  O6  1  0.69330000  0.37996000  0.23898000  1.0 -0.7195857849
O  O7  1  0.80670000  0.62004000  0.73898000  1.0 -0.7195857849
O  O8  1  0.69330000  0.12004000  0.76102000  1.0 -0.7195857849
O  O9  1  0.10600000  0.03690000  0.63107000  1.0 -0.683869907
O  O10  1  0.39400000  0.53690000  0.86893000  1.0 -0.683869907
O  O11  1  0.10600000  0.46310000  0.36893000  1.0 -0.683869907
O  O12  1  0.39400000  0.96310000  0.13107000  1.0 -0.683869907
O  O13  1  0.89400000  0.96310000  0.36893000  1.0 -0.683869907
O  O14  1  0.60600000  0.46310000  0.13107000  1.0 -0.683869907
O  O15  1  0.89400000  0.53690000  0.63107000  1.0 -0.683869907
O  O16  1  0.60600000  0.03690000  0.86893000  1.0 -0.683869907
O  O17  1  0.72420000  0.07140000  0.63991000  1.0 -0.6334082124
O  O18  1  0.77580000  0.57140000  0.86009000  1.0 -0.6334082124
O  O19  1  0.72420000  0.42860000  0.36009000  1.0 -0.6334082124
O  O20  1  0.77580000  0.92860000  0.13991000  1.0 -0.6334082124
O  O21  1  0.27580000  0.92860000  0.36009000  1.0 -0.6334082124
O  O22  1  0.22420000  0.42860000  0.13991000  1.0 -0.6334082124
O  O23  1  0.27580000  0.57140000  0.63991000  1.0 -0.6334082124
O  O24  1  0.22420000  0.07140000  0.86009000  1.0 -0.6334082124
O  O25  1  0.99890000  0.17106000  0.68206000  1.0 -0.5631983962
O  O26  1  0.50110000  0.67106000  0.81794000  1.0 -0.5631983962
O  O27  1  0.99890000  0.32894000  0.31794000  1.0 -0.5631983962
O  O28  1  0.50110000  0.82894000  0.18206000  1.0 -0.5631983962
O  O29  1  0.00110000  0.82894000  0.31794000  1.0 -0.5631983962
O  O30  1  0.49890000  0.32894000  0.18206000  1.0 -0.5631983962
O  O31  1  0.00110000  0.67106000  0.68206000  1.0 -0.5631983962
O  O32  1  0.49890000  0.17106000  0.81794000  1.0 -0.5631983962
O  O33  1  0.15750000  0.43896000  0.68082000  1.0 -0.5716464084
O  O34  1  0.34250000  0.93896000  0.81918000  1.0 -0.5716464084
O  O35  1  0.15750000  0.06104000  0.31918000  1.0 -0.5716464084
O  O36  1  0.34250000  0.56104000  0.18082000  1.0 -0.5716464084
O  O37  1  0.84250000  0.56104000  0.31918000  1.0 -0.5716464084
O  O38  1  0.65750000  0.06104000  0.18082000  1.0 -0.5716464084
O  O39  1  0.84250000  0.93896000  0.68082000  1.0 -0.5716464084
O  O40  1  0.65750000  0.43896000  0.81918000  1.0 -0.5716464084
O  O41  1  0.44640000  0.05362000  0.66934000  1.0 -0.6582930845
O  O42  1  0.05360000  0.55362000  0.83066000  1.0 -0.6582930845
O  O43  1  0.44640000  0.44638000  0.33066000  1.0 -0.6582930845
O  O44  1  0.05360000  0.94638000  0.16934000  1.0 -0.6582930845
O  O45  1  0.55360000  0.94638000  0.33066000  1.0 -0.6582930845
O  O46  1  0.94640000  0.44638000  0.16934000  1.0 -0.6582930845
O  O47  1  0.55360000  0.55362000  0.66934000  1.0 -0.6582930845
O  O48  1  0.94640000  0.05362000  0.83066000  1.0 -0.6582930845
O  O49  1  0.32850000  0.48062000  0.75168000  1.0 -0.7278708902
O  O50  1  0.17150000  0.98062000  0.74832000  1.0 -0.7278708902
O  O51  1  0.32850000  0.01938000  0.24832000  1.0 -0.7278708902
O  O52  1  0.17150000  0.51938000  0.25168000  1.0 -0.7278708902
O  O53  1  0.67150000  0.51938000  0.24832000  1.0 -0.7278708902
O  O54  1  0.82850000  0.01938000  0.25168000  1.0 -0.7278708902
O  O55  1  0.67150000  0.98062000  0.75168000  1.0 -0.7278708902
O  O56  1  0.82850000  0.48062000  0.74832000  1.0 -0.7278708902
