# DDEC6 charges by PACMAN v1.1 (https://github.com/mtap-research/PACMAN-charge/)
data_UDUPES_ASR_pacman
_symmetry_space_group_name_H-M   'P 1'
_cell_length_a   21.42910000
_cell_length_b   7.07280000
_cell_length_c   27.90750000
_cell_angle_alpha   90.00000000
_cell_angle_beta   130.57600000
_cell_angle_gamma   90.00000000
_symmetry_Int_Tables_number   1
_chemical_formula_structural   MgH8C12O7
_chemical_formula_sum   'Mg8 H64 C96 O56'
_cell_volume   3212.69195912
_cell_formula_units_Z   8
loop_
 _symmetry_equiv_pos_site_id
 _symmetry_equiv_pos_as_xyz
  1  'x, y, z'
loop_
 _atom_site_type_symbol
 _atom_site_label
 _atom_site_symmetry_multiplicity
 _atom_site_fract_x
 _atom_site_fract_y
 _atom_site_fract_z
 _atom_site_occupancy
 _atom_site_charge
Mg  Mg1  1  0.01053000  0.56933000  0.74967000  1.0 1.3372251161
Mg  Mg2  1  0.98947000  0.06933000  0.75033000  1.0 1.3372251161
Mg  Mg3  1  0.98947000  0.43067000  0.25033000  1.0 1.3372251161
Mg  Mg4  1  0.01053000  0.93067000  0.24967000  1.0 1.3372251161
Mg  Mg5  1  0.49341000  0.54776000  0.24526000  1.0 0.9184859561
Mg  Mg6  1  0.50659000  0.04776000  0.25474000  1.0 0.9149911769
Mg  Mg7  1  0.50659000  0.45224000  0.75474000  1.0 0.9184859561
Mg  Mg8  1  0.49341000  0.95224000  0.74526000  1.0 0.9184859561
H  H1  1  0.96250000  0.36400000  0.78580000  1.0 0.36592891
H  H2  1  0.03750000  0.86400000  0.71420000  1.0 0.36592891
H  H3  1  0.03750000  0.63600000  0.21420000  1.0 0.36592891
H  H4  1  0.96250000  0.13600000  0.28580000  1.0 0.36592891
H  H5  1  0.04320000  0.31000000  0.83350000  1.0 0.3621856936
H  H6  1  0.95680000  0.81000000  0.66650000  1.0 0.3621856936
H  H7  1  0.95680000  0.69000000  0.16650000  1.0 0.3621856936
H  H8  1  0.04320000  0.19000000  0.33350000  1.0 0.3621856936
H  H9  1  0.45610000  0.27000000  0.17390000  1.0 0.2491726645
H  H10  1  0.54390000  0.77000000  0.32610000  1.0 0.2491726645
H  H11  1  0.54390000  0.73000000  0.82610000  1.0 0.2491726645
H  H12  1  0.45610000  0.23000000  0.67390000  1.0 0.2491726645
H  H13  1  0.53870000  0.30500000  0.20650000  1.0 0.2713939764
H  H14  1  0.46130000  0.80500000  0.29350000  1.0 0.2713939764
H  H15  1  0.46130000  0.69500000  0.79350000  1.0 0.2713939764
H  H16  1  0.53870000  0.19500000  0.70650000  1.0 0.2713939764
H  H17  1  0.71732000  0.28846000  0.56954000  1.0 0.1267643489
H  H18  1  0.28268000  0.78846000  0.93046000  1.0 0.1267643489
H  H19  1  0.28268000  0.71154000  0.43046000  1.0 0.1267643489
H  H20  1  0.71732000  0.21154000  0.06954000  1.0 0.1267643489
H  H21  1  0.60786000  0.29441000  0.45956000  1.0 0.1018456487
H  H22  1  0.39214000  0.79441000  0.04044000  1.0 0.1018456487
H  H23  1  0.39214000  0.70559000  0.54044000  1.0 0.1018456487
H  H24  1  0.60786000  0.20559000  0.95956000  1.0 0.1018456487
H  H25  1  0.73468000  0.37374000  0.37484000  1.0 0.1018456487
H  H26  1  0.26532000  0.87374000  0.12516000  1.0 0.1018456487
H  H27  1  0.26532000  0.62626000  0.62516000  1.0 0.1018456487
H  H28  1  0.73468000  0.12626000  0.87484000  1.0 0.1018456487
H  H29  1  0.86909000  0.39703000  0.41594000  1.0 0.1075125977
H  H30  1  0.13091000  0.89703000  0.08406000  1.0 0.1075125977
H  H31  1  0.13091000  0.60297000  0.58406000  1.0 0.1075125977
H  H32  1  0.86909000  0.10297000  0.91594000  1.0 0.1075125977
H  H33  1  0.97832000  0.39112000  0.52579000  1.0 0.1075125977
H  H34  1  0.02168000  0.89112000  0.97421000  1.0 0.1075125977
H  H35  1  0.02168000  0.60888000  0.47421000  1.0 0.1075125977
H  H36  1  0.97832000  0.10888000  0.02579000  1.0 0.1075125977
H  H37  1  0.95275000  0.36569000  0.59413000  1.0 0.1195145689
H  H38  1  0.04725000  0.86569000  0.90587000  1.0 0.1195145689
H  H39  1  0.04725000  0.63431000  0.40587000  1.0 0.1195145689
H  H40  1  0.95275000  0.13431000  0.09413000  1.0 0.1195145689
H  H41  1  0.77887000  0.71646000  0.35177000  1.0 0.1018456487
H  H42  1  0.22113000  0.21646000  0.14823000  1.0 0.1018456487
H  H43  1  0.22113000  0.28354000  0.64823000  1.0 0.1018456487
H  H44  1  0.77887000  0.78354000  0.85177000  1.0 0.1018456487
H  H45  1  0.88851000  0.68175000  0.35274000  1.0 0.1195145689
H  H46  1  0.11149000  0.18175000  0.14726000  1.0 0.1195145689
H  H47  1  0.11149000  0.31825000  0.64726000  1.0 0.1195145689
H  H48  1  0.88851000  0.81825000  0.85274000  1.0 0.1195145689
H  H49  1  0.77493000  0.81389000  0.14658000  1.0 0.1267643489
H  H50  1  0.22507000  0.31389000  0.35342000  1.0 0.1267643489
H  H51  1  0.22507000  0.18611000  0.85342000  1.0 0.1267643489
H  H52  1  0.77493000  0.68611000  0.64658000  1.0 0.1267643489
H  H53  1  0.64416000  0.87261000  0.05326000  1.0 0.1075125977
H  H54  1  0.35584000  0.37261000  0.44674000  1.0 0.1075125977
H  H55  1  0.35584000  0.12739000  0.94674000  1.0 0.1075125977
H  H56  1  0.64416000  0.62739000  0.55326000  1.0 0.1075125977
H  H57  1  0.53198000  0.88851000  0.05056000  1.0 0.1075125977
H  H58  1  0.46802000  0.38851000  0.44944000  1.0 0.1075125977
H  H59  1  0.46802000  0.11149000  0.94944000  1.0 0.1075125977
H  H60  1  0.53198000  0.61149000  0.55056000  1.0 0.1075125977
H  H61  1  0.55274000  0.85594000  0.14245000  1.0 0.0921327539
H  H62  1  0.44726000  0.35594000  0.35755000  1.0 0.0921327539
H  H63  1  0.44726000  0.14406000  0.85755000  1.0 0.0921327539
H  H64  1  0.55274000  0.64406000  0.64245000  1.0 0.0921327539
C  C1  1  0.87642000  0.32350000  0.63757000  1.0 0.6311647662
C  C2  1  0.12358000  0.82350000  0.86243000  1.0 0.6311647662
C  C3  1  0.12358000  0.67650000  0.36243000  1.0 0.6311647662
C  C4  1  0.87642000  0.17650000  0.13757000  1.0 0.6311647662
C  C5  1  0.80811000  0.32470000  0.56700000  1.0 -0.0501707166
C  C6  1  0.19189000  0.82470000  0.93300000  1.0 -0.0501707166
C  C7  1  0.19189000  0.67530000  0.43300000  1.0 -0.0501707166
C  C8  1  0.80811000  0.17530000  0.06700000  1.0 -0.0501707166
C  C9  1  0.72868000  0.30440000  0.54207000  1.0 -0.109165638
C  C10  1  0.27132000  0.80440000  0.95793000  1.0 -0.109165638
C  C11  1  0.27132000  0.69560000  0.45793000  1.0 -0.109165638
C  C12  1  0.72868000  0.19560000  0.04207000  1.0 -0.109165638
C  C13  1  0.66284000  0.30660000  0.47602000  1.0 -0.1285022921
C  C14  1  0.33716000  0.80660000  0.02398000  1.0 -0.1242577143
C  C15  1  0.33716000  0.69340000  0.52398000  1.0 -0.1242577143
C  C16  1  0.66284000  0.19340000  0.97602000  1.0 -0.1242577143
C  C17  1  0.67856000  0.32650000  0.43576000  1.0 -0.1285022921
C  C18  1  0.32144000  0.82650000  0.06424000  1.0 -0.1285022921
C  C19  1  0.32144000  0.67350000  0.56424000  1.0 -0.1285022921
C  C20  1  0.67856000  0.17350000  0.93576000  1.0 -0.1285022921
C  C21  1  0.76016000  0.34940000  0.45996000  1.0 0.0612403781
C  C22  1  0.23984000  0.84940000  0.04004000  1.0 0.0655012049
C  C23  1  0.23984000  0.65060000  0.54004000  1.0 0.0655012049
C  C24  1  0.76016000  0.15060000  0.95996000  1.0 0.0655012049
C  C25  1  0.77825000  0.37010000  0.41923000  1.0 -0.152684164
C  C26  1  0.22175000  0.87010000  0.08077000  1.0 -0.152684164
C  C27  1  0.22175000  0.62990000  0.58077000  1.0 -0.1558973722
C  C28  1  0.77825000  0.12990000  0.91923000  1.0 -0.152684164
C  C29  1  0.85782000  0.38480000  0.44357000  1.0 -0.0983005116
C  C30  1  0.14218000  0.88480000  0.05643000  1.0 -0.0983005116
C  C31  1  0.14218000  0.61520000  0.55643000  1.0 -0.0983005116
C  C32  1  0.85782000  0.11520000  0.94357000  1.0 -0.0983005116
C  C33  1  0.92331000  0.38180000  0.50945000  1.0 -0.0983005116
C  C34  1  0.07669000  0.88180000  0.99055000  1.0 -0.0983005116
C  C35  1  0.07669000  0.61820000  0.49055000  1.0 -0.0983005116
C  C36  1  0.92331000  0.11820000  0.00945000  1.0 -0.0983005116
C  C37  1  0.90821000  0.36580000  0.54989000  1.0 -0.1398052099
C  C38  1  0.09179000  0.86580000  0.95011000  1.0 -0.1398052099
C  C39  1  0.09179000  0.63420000  0.45011000  1.0 -0.1398052099
C  C40  1  0.90821000  0.13420000  0.04989000  1.0 -0.1398052099
C  C41  1  0.82607000  0.34900000  0.52618000  1.0 0.0612403781
C  C42  1  0.17393000  0.84900000  0.97382000  1.0 0.0612403781
C  C43  1  0.17393000  0.65100000  0.47382000  1.0 0.0612403781
C  C44  1  0.82607000  0.15100000  0.02618000  1.0 0.0612403781
C  C45  1  0.60850000  0.31540000  0.36542000  1.0 0.460916023
C  C46  1  0.39150000  0.81540000  0.13458000  1.0 0.460916023
C  C47  1  0.39150000  0.68460000  0.63458000  1.0 0.460916023
C  C48  1  0.60850000  0.18460000  0.86542000  1.0 0.460916023
C  C49  1  0.62197000  0.78880000  0.25927000  1.0 0.460916023
C  C50  1  0.37803000  0.28880000  0.24073000  1.0 0.460916023
C  C51  1  0.37803000  0.21120000  0.74073000  1.0 0.460916023
C  C52  1  0.62197000  0.71120000  0.75927000  1.0 0.460916023
C  C53  1  0.69219000  0.77720000  0.25918000  1.0 -0.152684164
C  C54  1  0.30781000  0.27720000  0.24082000  1.0 -0.1398052099
C  C55  1  0.30781000  0.22280000  0.74082000  1.0 -0.1398052099
C  C56  1  0.69219000  0.72280000  0.75918000  1.0 -0.1398052099
C  C57  1  0.76964000  0.73380000  0.31383000  1.0 -0.109165638
C  C58  1  0.23036000  0.23380000  0.18617000  1.0 -0.109165638
C  C59  1  0.23036000  0.26620000  0.68617000  1.0 -0.109165638
C  C60  1  0.76964000  0.76620000  0.81383000  1.0 -0.109165638
C  C61  1  0.83557000  0.71440000  0.31458000  1.0 -0.1285022921
C  C62  1  0.16443000  0.21440000  0.18542000  1.0 -0.1285022921
C  C63  1  0.16443000  0.28560000  0.68542000  1.0 -0.1285022921
C  C64  1  0.83557000  0.78560000  0.81458000  1.0 -0.1285022921
C  C65  1  0.82412000  0.74240000  0.26078000  1.0 -0.0441374302
C  C66  1  0.17588000  0.24240000  0.23922000  1.0 -0.0441374302
C  C67  1  0.17588000  0.25760000  0.73922000  1.0 -0.0441374302
C  C68  1  0.82412000  0.75760000  0.76078000  1.0 -0.0441374302
C  C69  1  0.74500000  0.79080000  0.20333000  1.0 0.0612403781
C  C70  1  0.25500000  0.29080000  0.29667000  1.0 0.0612403781
C  C71  1  0.25500000  0.20920000  0.79667000  1.0 0.0612403781
C  C72  1  0.74500000  0.70920000  0.70333000  1.0 0.0612403781
C  C73  1  0.73035000  0.81950000  0.14624000  1.0 -0.1398052099
C  C74  1  0.26965000  0.31950000  0.35376000  1.0 -0.1398052099
C  C75  1  0.26965000  0.18050000  0.85376000  1.0 -0.1398052099
C  C76  1  0.73035000  0.68050000  0.64624000  1.0 -0.1398052099
C  C77  1  0.65293000  0.85510000  0.09100000  1.0 -0.0896306231
C  C78  1  0.34707000  0.35510000  0.40900000  1.0 -0.0896306231
C  C79  1  0.34707000  0.14490000  0.90900000  1.0 -0.0896306231
C  C80  1  0.65293000  0.64490000  0.59100000  1.0 -0.0896306231
C  C81  1  0.58572000  0.86610000  0.08940000  1.0 -0.0983005116
C  C82  1  0.41428000  0.36610000  0.41060000  1.0 -0.0983005116
C  C83  1  0.41428000  0.13390000  0.91060000  1.0 -0.0983005116
C  C84  1  0.58572000  0.63390000  0.58940000  1.0 -0.0983005116
C  C85  1  0.59796000  0.84450000  0.14371000  1.0 -0.1666510187
C  C86  1  0.40204000  0.34450000  0.35629000  1.0 -0.1666510187
C  C87  1  0.40204000  0.15550000  0.85629000  1.0 -0.1666510187
C  C88  1  0.59796000  0.65550000  0.64371000  1.0 -0.1666510187
C  C89  1  0.67772000  0.80510000  0.20218000  1.0 0.0612403781
C  C90  1  0.32228000  0.30510000  0.29782000  1.0 0.0612403781
C  C91  1  0.32228000  0.19490000  0.79782000  1.0 0.0612403781
C  C92  1  0.67772000  0.69490000  0.70218000  1.0 0.0612403781
C  C93  1  0.89358000  0.71010000  0.26057000  1.0 0.6311647662
C  C94  1  0.10642000  0.21010000  0.23943000  1.0 0.6311647662
C  C95  1  0.10642000  0.28990000  0.73943000  1.0 0.6311647662
C  C96  1  0.89358000  0.78990000  0.76057000  1.0 0.6311647662
O  O1  1  0.91312000  0.47520000  0.66271000  1.0 -0.6439576678
O  O2  1  0.08688000  0.97520000  0.83729000  1.0 -0.6439576678
O  O3  1  0.08688000  0.52480000  0.33729000  1.0 -0.6439576678
O  O4  1  0.91312000  0.02480000  0.16271000  1.0 -0.6439576678
O  O5  1  0.88956000  0.17050000  0.66532000  1.0 -0.6499148465
O  O6  1  0.11044000  0.67050000  0.83468000  1.0 -0.6499148465
O  O7  1  0.11044000  0.82950000  0.33468000  1.0 -0.6499148465
O  O8  1  0.88956000  0.32950000  0.16532000  1.0 -0.6499148465
O  O9  1  0.56370000  0.45190000  0.33760000  1.0 -0.1285022921
O  O10  1  0.43630000  0.95190000  0.16240000  1.0 -0.1285022921
O  O11  1  0.43630000  0.54810000  0.66240000  1.0 -0.1285022921
O  O12  1  0.56370000  0.04810000  0.83760000  1.0 -0.1285022921
O  O13  1  0.60080000  0.15380000  0.34110000  1.0 -0.2200054682
O  O14  1  0.39920000  0.65380000  0.15890000  1.0 -0.2302043619
O  O15  1  0.39920000  0.84620000  0.65890000  1.0 -0.2200054682
O  O16  1  0.60080000  0.34620000  0.84110000  1.0 -0.2302043619
O  O17  1  0.60230000  0.62530000  0.26990000  1.0 -0.2302043619
O  O18  1  0.39770000  0.12530000  0.23010000  1.0 -0.2302043619
O  O19  1  0.39770000  0.37470000  0.73010000  1.0 -0.2302043619
O  O20  1  0.60230000  0.87470000  0.76990000  1.0 -0.2302043619
O  O21  1  0.59060000  0.93650000  0.25140000  1.0 -0.1285022921
O  O22  1  0.40940000  0.43650000  0.24860000  1.0 -0.1285022921
O  O23  1  0.40940000  0.06350000  0.74860000  1.0 -0.1285022921
O  O24  1  0.59060000  0.56350000  0.75140000  1.0 -0.1285022921
O  O25  1  0.91097000  0.54360000  0.25990000  1.0 -0.6181475155
O  O26  1  0.08903000  0.04360000  0.24010000  1.0 -0.6181475155
O  O27  1  0.08903000  0.45640000  0.74010000  1.0 -0.6181475155
O  O28  1  0.91097000  0.95640000  0.75990000  1.0 -0.6181475155
O  O29  1  0.92841000  0.85300000  0.26109000  1.0 -0.6499148465
O  O30  1  0.07159000  0.35300000  0.23891000  1.0 -0.6499148465
O  O31  1  0.07159000  0.14700000  0.73891000  1.0 -0.6499148465
O  O32  1  0.92841000  0.64700000  0.76109000  1.0 -0.6499148465
O  O33  1  0.00541000  0.32410000  0.79570000  1.0 -0.7473762862
O  O34  1  0.99459000  0.82410000  0.70430000  1.0 -0.7473762862
O  O35  1  0.99459000  0.67590000  0.20430000  1.0 -0.7473762862
O  O36  1  0.00541000  0.17590000  0.29570000  1.0 -0.7473762862
O  O37  1  0.50154000  0.29760000  0.20755000  1.0 -0.7032135757
O  O38  1  0.49846000  0.79760000  0.29245000  1.0 -0.7053188912
O  O39  1  0.49846000  0.70240000  0.79245000  1.0 -0.7032135757
O  O40  1  0.50154000  0.20240000  0.70755000  1.0 -0.7032135757
O  O41  1  0.59050000  0.47570000  0.33590000  1.0 -0.2200054682
O  O42  1  0.40950000  0.97570000  0.16410000  1.0 -0.2200054682
O  O43  1  0.40950000  0.52430000  0.66410000  1.0 -0.2200054682
O  O44  1  0.59050000  0.02430000  0.83590000  1.0 -0.2200054682
O  O45  1  0.57480000  0.16640000  0.34170000  1.0 -0.1398052099
O  O46  1  0.42520000  0.66640000  0.15830000  1.0 -0.1398052099
O  O47  1  0.42520000  0.83360000  0.65830000  1.0 -0.1398052099
O  O48  1  0.57480000  0.33360000  0.84170000  1.0 -0.1398052099
O  O49  1  0.57820000  0.65660000  0.24130000  1.0 -0.109165638
O  O50  1  0.42180000  0.15660000  0.25870000  1.0 -0.109165638
O  O51  1  0.42180000  0.34340000  0.75870000  1.0 -0.0983005116
O  O52  1  0.57820000  0.84340000  0.74130000  1.0 -0.109165638
O  O53  1  0.61370000  0.95370000  0.27710000  1.0 -0.2422214195
O  O54  1  0.38630000  0.45370000  0.22290000  1.0 -0.2422214195
O  O55  1  0.38630000  0.04630000  0.72290000  1.0 -0.2422214195
O  O56  1  0.61370000  0.54630000  0.77710000  1.0 -0.2422214195
