# DDEC6 charges by PACMAN v1.1 (https://github.com/mtap-research/PACMAN-charge/)
data_UDUQOD_ASR_pacman
_symmetry_space_group_name_H-M   'P 1'
_cell_length_a   23.59750000
_cell_length_b   23.59750000
_cell_length_c   23.59750000
_cell_angle_alpha   138.45300000
_cell_angle_beta   104.55400000
_cell_angle_gamma   90.01700000
_symmetry_Int_Tables_number   1
_chemical_formula_structural   Sr5H46C87O20F9
_chemical_formula_sum   'Sr10 H92 C174 O40 F18'
_cell_volume   8063.98498721
_cell_formula_units_Z   2
loop_
 _symmetry_equiv_pos_site_id
 _symmetry_equiv_pos_as_xyz
  1  'x, y, z'
loop_
 _atom_site_type_symbol
 _atom_site_label
 _atom_site_symmetry_multiplicity
 _atom_site_fract_x
 _atom_site_fract_y
 _atom_site_fract_z
 _atom_site_occupancy
 _atom_site_charge
Sr  Sr1  1  0.32382000  0.65112000  0.47494000  1.0 1.5033802092
Sr  Sr2  1  0.82382000  0.34888000  0.67270000  1.0 1.5050319731
Sr  Sr3  1  0.15753000  0.54343000  0.40564000  1.0 1.4532616436
Sr  Sr4  1  0.86221000  0.45657000  0.61410000  1.0 1.4553283154
Sr  Sr5  1  0.65753000  0.25189000  0.61410000  1.0 1.4553283154
Sr  Sr6  1  0.36221000  0.74811000  0.40564000  1.0 1.4532616436
Sr  Sr7  1  0.60206000  0.02214000  0.50784000  1.0 1.4371531307
Sr  Sr8  1  0.48570000  0.97786000  0.57992000  1.0 1.4371531307
Sr  Sr9  1  0.10206000  0.59422000  0.57992000  1.0 1.4371531307
Sr  Sr10  1  0.98570000  0.40578000  0.50784000  1.0 1.4371531307
H  H1  1  0.08883000  0.31178000  0.24069000  1.0 0.1105134547
H  H2  1  0.92891000  0.68822000  0.77705000  1.0 0.1105134547
H  H3  1  0.58883000  0.34814000  0.77705000  1.0 0.1105134547
H  H4  1  0.42891000  0.65186000  0.24069000  1.0 0.1105134547
H  H5  1  0.93825000  0.29958000  0.28389000  1.0 0.119375335
H  H6  1  0.98431000  0.70042000  0.63867000  1.0 0.119375335
H  H7  1  0.43825000  0.15436000  0.63867000  1.0 0.119375335
H  H8  1  0.48431000  0.84564000  0.28389000  1.0 0.119375335
H  H9  1  0.88664000  0.17090000  0.12660000  1.0 0.1105134547
H  H10  1  0.95570000  0.82910000  0.71574000  1.0 0.1105134547
H  H11  1  0.38664000  0.26004000  0.71574000  1.0 0.1105134547
H  H12  1  0.45570000  0.73996000  0.12660000  1.0 0.1105134547
H  H13  1  0.03870000  0.17789000  0.08497000  1.0 0.1105134547
H  H14  1  0.90708000  0.82211000  0.86081000  1.0 0.1105134547
H  H15  1  0.53870000  0.45373000  0.86081000  1.0 0.1105134547
H  H16  1  0.40708000  0.54627000  0.08497000  1.0 0.1105134547
H  H17  1  0.82560000  0.96019000  0.69929000  1.0 0.0998190469
H  H18  1  0.73910000  0.03981000  0.86541000  1.0 0.0998190469
H  H19  1  0.32560000  0.62631000  0.86541000  1.0 0.0998190469
H  H20  1  0.23910000  0.37369000  0.69929000  1.0 0.0998190469
H  H21  1  0.74634000  0.96154000  0.62160000  1.0 0.0998190469
H  H22  1  0.66006000  0.03846000  0.78480000  1.0 0.0936445306
H  H23  1  0.24634000  0.62474000  0.78480000  1.0 0.0936445306
H  H24  1  0.16006000  0.37526000  0.62160000  1.0 0.0936445306
H  H25  1  0.34673000  0.96098000  0.88735000  1.0 0.1105134547
H  H26  1  0.92638000  0.03902000  0.38575000  1.0 0.1105134547
H  H27  1  0.84673000  0.95937000  0.38575000  1.0 0.1105134547
H  H28  1  0.42638000  0.04063000  0.88735000  1.0 0.1105134547
H  H29  1  0.30788000  0.84323000  0.72667000  1.0 0.1105134547
H  H30  1  0.88344000  0.15677000  0.46465000  1.0 0.1105134547
H  H31  1  0.80788000  0.08121000  0.46465000  1.0 0.1105134547
H  H32  1  0.38344000  0.91879000  0.72667000  1.0 0.1105134547
H  H33  1  0.25043000  0.68042000  0.72251000  1.0 0.0998190469
H  H34  1  0.04209000  0.31958000  0.57001000  1.0 0.0998190469
H  H35  1  0.75043000  0.02792000  0.57001000  1.0 0.0998190469
H  H36  1  0.54209000  0.97208000  0.72251000  1.0 0.0998190469
H  H37  1  0.28798000  0.79733000  0.88109000  1.0 0.1105134547
H  H38  1  0.08376000  0.20267000  0.49065000  1.0 0.1105134547
H  H39  1  0.78798000  0.90689000  0.49065000  1.0 0.1105134547
H  H40  1  0.58376000  0.09311000  0.88109000  1.0 0.1105134547
H  H41  1  0.50158000  0.15972000  0.30304000  1.0 0.1268842816
H  H42  1  0.14332000  0.84028000  0.34186000  1.0 0.1268842816
H  H43  1  0.00158000  0.69854000  0.34186000  1.0 0.1268842816
H  H44  1  0.64332000  0.30146000  0.30304000  1.0 0.1268842816
H  H45  1  0.56377000  0.16142000  0.39637000  1.0 0.119375335
H  H46  1  0.23495000  0.83858000  0.40235000  1.0 0.119375335
H  H47  1  0.06377000  0.66740000  0.40235000  1.0 0.119375335
H  H48  1  0.73495000  0.33260000  0.39637000  1.0 0.119375335
H  H49  1  0.44825000  0.93084000  0.24509000  1.0 0.0998190469
H  H50  1  0.31425000  0.06916000  0.51741000  1.0 0.0998190469
H  H51  1  0.94825000  0.70316000  0.51741000  1.0 0.0998190469
H  H52  1  0.81425000  0.29684000  0.24509000  1.0 0.0998190469
H  H53  1  0.39063000  0.92495000  0.14806000  1.0 0.1105134547
H  H54  1  0.22311000  0.07505000  0.46568000  1.0 0.1105134547
H  H55  1  0.89063000  0.74257000  0.46568000  1.0 0.1105134547
H  H56  1  0.72311000  0.25743000  0.14806000  1.0 0.1105134547
H  H57  1  0.39174000  0.29367000  0.27457000  1.0 0.1105134547
H  H58  1  0.98090000  0.70633000  0.09807000  1.0 0.1105134547
H  H59  1  0.89174000  0.61717000  0.09807000  1.0 0.1105134547
H  H60  1  0.48090000  0.38283000  0.27457000  1.0 0.1105134547
H  H61  1  0.35506000  0.41097000  0.33873000  1.0 0.1105134547
H  H62  1  0.92776000  0.58903000  0.94409000  1.0 0.1105134547
H  H63  1  0.85506000  0.51633000  0.94409000  1.0 0.1105134547
H  H64  1  0.42776000  0.48367000  0.33873000  1.0 0.1105134547
H  H65  1  0.18412000  0.24683000  0.18221000  1.0 0.1105134547
H  H66  1  0.93538000  0.75317000  0.93729000  1.0 0.1105134547
H  H67  1  0.68412000  0.50191000  0.93729000  1.0 0.1105134547
H  H68  1  0.43538000  0.49809000  0.18221000  1.0 0.1105134547
H  H69  1  0.22163000  0.12757000  0.11416000  1.0 0.1105134547
H  H70  1  0.98659000  0.87243000  0.09406000  1.0 0.1105134547
H  H71  1  0.72163000  0.60747000  0.09406000  1.0 0.1105134547
H  H72  1  0.48659000  0.39253000  0.11416000  1.0 0.1105134547
H  H73  1  0.84327000  0.07866000  0.80155000  1.0 0.0998190469
H  H74  1  0.72289000  0.92134000  0.76461000  1.0 0.0998190469
H  H75  1  0.34327000  0.54172000  0.76461000  1.0 0.0998190469
H  H76  1  0.22289000  0.45828000  0.80155000  1.0 0.0998190469
H  H77  1  0.76251000  0.07911000  0.72744000  1.0 0.0998190469
H  H78  1  0.64833000  0.92089000  0.68340000  1.0 0.0998190469
H  H79  1  0.26251000  0.53507000  0.68340000  1.0 0.0998190469
H  H80  1  0.14833000  0.46493000  0.72744000  1.0 0.0998190469
H  H81  1  0.17960000  0.67263000  0.29803000  1.0 0.039080033
H  H82  1  0.62540000  0.32737000  0.50697000  1.0 0.039080033
H  H83  1  0.67960000  0.38157000  0.50697000  1.0 0.039080033
H  H84  1  0.12540000  0.61843000  0.29803000  1.0 0.039080033
H  H85  1  0.13659000  0.67406000  0.33983000  1.0 0.0239123403
H  H86  1  0.66577000  0.32594000  0.46253000  1.0 0.0239123403
H  H87  1  0.63659000  0.29676000  0.46253000  1.0 0.0239123403
H  H88  1  0.16577000  0.70324000  0.33983000  1.0 0.0239123403
H  H89  1  0.14154000  0.58271000  0.24927000  1.0 0.054728467
H  H90  1  0.66656000  0.41729000  0.55883000  1.0 0.054728467
H  H91  1  0.64154000  0.39227000  0.55883000  1.0 0.054728467
H  H92  1  0.16656000  0.60773000  0.24927000  1.0 0.054728467
C  C1  1  0.05059000  0.40549000  0.37990000  1.0 0.6082705706
C  C2  1  0.97441000  0.59451000  0.64510000  1.0 0.6082705706
C  C3  1  0.55059000  0.17069000  0.64510000  1.0 0.6082705706
C  C4  1  0.47441000  0.82931000  0.37990000  1.0 0.6082705706
C  C5  1  0.79190000  0.00000000  0.79190000  1.0 0.039080033
C  C6  1  0.29190000  0.50000000  0.79190000  1.0 0.039080033
C  C7  1  0.69430000  0.00000000  0.69430000  1.0 -0.0493871384
C  C8  1  0.19430000  0.50000000  0.69430000  1.0 -0.0493871384
C  C9  1  0.64190000  0.00000000  0.64190000  1.0 0.5715697407
C  C10  1  0.14190000  0.50000000  0.64190000  1.0 0.5715697407
C  C11  1  0.04850000  0.28250000  0.21840000  1.0 -0.0988593281
C  C12  1  0.93590000  0.71750000  0.76600000  1.0 -0.0988593281
C  C13  1  0.54850000  0.33010000  0.76600000  1.0 -0.0988593281
C  C14  1  0.43590000  0.66990000  0.21840000  1.0 -0.0988593281
C  C15  1  0.01955000  0.31885000  0.27930000  1.0 -0.0390002102
C  C16  1  0.96045000  0.68115000  0.70070000  1.0 -0.0390002102
C  C17  1  0.51955000  0.24025000  0.70070000  1.0 -0.0390002102
C  C18  1  0.46045000  0.75975000  0.27930000  1.0 -0.0390002102
C  C19  1  0.95860000  0.27610000  0.24410000  1.0 -0.0988593281
C  C20  1  0.96800000  0.72390000  0.68250000  1.0 -0.0988593281
C  C21  1  0.45860000  0.21450000  0.68250000  1.0 -0.0988593281
C  C22  1  0.46800000  0.78550000  0.24410000  1.0 -0.0988593281
C  C23  1  0.92780000  0.19820000  0.14960000  1.0 -0.1330159083
C  C24  1  0.95140000  0.80180000  0.72960000  1.0 -0.1330159083
C  C25  1  0.42780000  0.27820000  0.72960000  1.0 -0.1330159083
C  C26  1  0.45140000  0.72180000  0.14960000  1.0 -0.1330159083
C  C27  1  0.95660000  0.16110000  0.08990000  1.0 0.0936445306
C  C28  1  0.92880000  0.83890000  0.79550000  1.0 0.0936445306
C  C29  1  0.45660000  0.36670000  0.79550000  1.0 0.0936445306
C  C30  1  0.42880000  0.63330000  0.08990000  1.0 0.0936445306
C  C31  1  0.01810000  0.20320000  0.12470000  1.0 -0.1330159083
C  C32  1  0.92150000  0.79680000  0.81490000  1.0 -0.1330159083
C  C33  1  0.51810000  0.39340000  0.81490000  1.0 -0.1330159083
C  C34  1  0.42150000  0.60660000  0.12470000  1.0 -0.1330159083
C  C35  1  0.92420000  0.07880000  0.98920000  1.0 -0.1895072706
C  C36  1  0.91040000  0.92120000  0.84540000  1.0 -0.1895072706
C  C37  1  0.42420000  0.43500000  0.84540000  1.0 -0.1895072706
C  C38  1  0.41040000  0.56500000  0.98920000  1.0 -0.1895072706
C  C39  1  0.87390000  0.07390000  0.93620000  1.0 0.2207168389
C  C40  1  0.86230000  0.92610000  0.80000000  1.0 0.2207168389
C  C41  1  0.37390000  0.43770000  0.80000000  1.0 0.2207168389
C  C42  1  0.36230000  0.56230000  0.93620000  1.0 0.2207168389
C  C43  1  0.84220000  0.00000000  0.84220000  1.0 -0.1895072706
C  C44  1  0.34220000  0.50000000  0.84220000  1.0 -0.1895072706
C  C45  1  0.93940000  0.00000000  0.93940000  1.0 0.2207168389
C  C46  1  0.43940000  0.50000000  0.93940000  1.0 0.2207168389
C  C47  1  0.79240000  0.97640000  0.71740000  1.0 -0.0584358704
C  C48  1  0.74100000  0.02360000  0.81600000  1.0 -0.0584358704
C  C49  1  0.29240000  0.57500000  0.81600000  1.0 -0.0584358704
C  C50  1  0.24100000  0.42500000  0.71740000  1.0 -0.0584358704
C  C51  1  0.74460000  0.97710000  0.67070000  1.0 -0.0696980609
C  C52  1  0.69360000  0.02290000  0.76750000  1.0 -0.0696980609
C  C53  1  0.24460000  0.57390000  0.76750000  1.0 -0.0696980609
C  C54  1  0.19360000  0.42610000  0.67070000  1.0 -0.0696980609
C  C55  1  0.23630000  0.41940000  0.31450000  1.0 0.5825303792
C  C56  1  0.89510000  0.58060000  0.81690000  1.0 0.5825303792
C  C57  1  0.73630000  0.42180000  0.81690000  1.0 0.5825303792
C  C58  1  0.39510000  0.57820000  0.31450000  1.0 0.5825303792
C  C59  1  0.32000000  0.89380000  0.90140000  1.0 0.0998190469
C  C60  1  0.00760000  0.10620000  0.42620000  1.0 0.0998190469
C  C61  1  0.82000000  0.91860000  0.42620000  1.0 0.0998190469
C  C62  1  0.50760000  0.08140000  0.90140000  1.0 0.0998190469
C  C63  1  0.32650000  0.90460000  0.85430000  1.0 -0.141742833
C  C64  1  0.94970000  0.09540000  0.42190000  1.0 -0.141742833
C  C65  1  0.82650000  0.97220000  0.42190000  1.0 -0.141742833
C  C66  1  0.44970000  0.02780000  0.85430000  1.0 -0.141742833
C  C67  1  0.30400000  0.83370000  0.75750000  1.0 -0.0988593281
C  C68  1  0.92380000  0.16630000  0.47030000  1.0 -0.0988593281
C  C69  1  0.80400000  0.04650000  0.47030000  1.0 -0.0988593281
C  C70  1  0.42380000  0.95350000  0.75750000  1.0 -0.0988593281
C  C71  1  0.27650000  0.75090000  0.70980000  1.0 -0.0390002102
C  C72  1  0.95890000  0.24910000  0.52560000  1.0 -0.0390002102
C  C73  1  0.77650000  0.06670000  0.52560000  1.0 -0.0390002102
C  C74  1  0.45890000  0.93330000  0.70980000  1.0 -0.0390002102
C  C75  1  0.26980000  0.73730000  0.75590000  1.0 -0.1137415618
C  C76  1  0.01860000  0.26270000  0.53250000  1.0 -0.1137415618
C  C77  1  0.76980000  0.01390000  0.53250000  1.0 -0.1137415618
C  C78  1  0.51860000  0.98610000  0.75590000  1.0 -0.1137415618
C  C79  1  0.29170000  0.80710000  0.85040000  1.0 -0.1479115288
C  C80  1  0.04330000  0.19290000  0.48460000  1.0 -0.1479115288
C  C81  1  0.79170000  0.94130000  0.48460000  1.0 -0.1479115288
C  C82  1  0.54330000  0.05870000  0.85040000  1.0 -0.1479115288
C  C83  1  0.24670000  0.67570000  0.60620000  1.0 0.602701038
C  C84  1  0.93050000  0.32430000  0.57100000  1.0 0.602701038
C  C85  1  0.74670000  0.14050000  0.57100000  1.0 0.602701038
C  C86  1  0.43050000  0.85950000  0.60620000  1.0 0.602701038
C  C87  1  0.43870000  0.04320000  0.21550000  1.0 0.0814547426
C  C88  1  0.17230000  0.95680000  0.39550000  1.0 0.0814547426
C  C89  1  0.93870000  0.72320000  0.39550000  1.0 0.0814547426
C  C90  1  0.67230000  0.27680000  0.21550000  1.0 0.0814547426
C  C91  1  0.49100000  0.11230000  0.29030000  1.0 -0.1173394304
C  C92  1  0.17800000  0.88770000  0.37870000  1.0 -0.1173394304
C  C93  1  0.99100000  0.70070000  0.37870000  1.0 -0.1173394304
C  C94  1  0.67800000  0.29930000  0.29030000  1.0 -0.1173394304
C  C95  1  0.52830000  0.11410000  0.34720000  1.0 -0.089423907
C  C96  1  0.23310000  0.88590000  0.41420000  1.0 -0.089423907
C  C97  1  0.02830000  0.68110000  0.41420000  1.0 -0.089423907
C  C98  1  0.73310000  0.31890000  0.34720000  1.0 -0.089423907
C  C99  1  0.51270000  0.04540000  0.33070000  1.0 -0.0390002102
C  C100  1  0.28530000  0.95460000  0.46730000  1.0 -0.0390002102
C  C101  1  0.01270000  0.68200000  0.46730000  1.0 -0.0390002102
C  C102  1  0.78530000  0.31800000  0.33070000  1.0 -0.0390002102
C  C103  1  0.46010000  0.97710000  0.25640000  1.0 -0.089423907
C  C104  1  0.27930000  0.02290000  0.48300000  1.0 -0.089423907
C  C105  1  0.96010000  0.70370000  0.48300000  1.0 -0.089423907
C  C106  1  0.77930000  0.29630000  0.25640000  1.0 -0.089423907
C  C107  1  0.42470000  0.97400000  0.19910000  1.0 -0.141742833
C  C108  1  0.22510000  0.02600000  0.45070000  1.0 -0.141742833
C  C109  1  0.92470000  0.72560000  0.45070000  1.0 -0.141742833
C  C110  1  0.72510000  0.27440000  0.19910000  1.0 -0.141742833
C  C111  1  0.54900000  0.04860000  0.39460000  1.0 0.5928777158
C  C112  1  0.34600000  0.95140000  0.50040000  1.0 0.5928777158
C  C113  1  0.04900000  0.65440000  0.50040000  1.0 0.5928777158
C  C114  1  0.84600000  0.34560000  0.39460000  1.0 0.5928777158
C  C115  1  0.33580000  0.11970000  0.14370000  1.0 -0.1895072706
C  C116  1  0.02400000  0.88030000  0.21610000  1.0 -0.1895072706
C  C117  1  0.83580000  0.69210000  0.21610000  1.0 -0.1895072706
C  C118  1  0.52400000  0.30790000  0.14370000  1.0 -0.1895072706
C  C119  1  0.31880000  0.04590000  0.04970000  1.0 0.2314998966
C  C120  1  0.00380000  0.95410000  0.27290000  1.0 0.2314998966
C  C121  1  0.81880000  0.76910000  0.27290000  1.0 0.2314998966
C  C122  1  0.50380000  0.23090000  0.04970000  1.0 0.2314998966
C  C123  1  0.33950000  0.97060000  0.00470000  1.0 -0.1895072706
C  C124  1  0.03410000  0.02940000  0.36890000  1.0 -0.1895072706
C  C125  1  0.83950000  0.83480000  0.36890000  1.0 -0.1895072706
C  C126  1  0.53410000  0.16520000  0.00470000  1.0 -0.1895072706
C  C127  1  0.37760000  0.97260000  0.06060000  1.0 0.2314998966
C  C128  1  0.08800000  0.02740000  0.40500000  1.0 0.2314998966
C  C129  1  0.87760000  0.81700000  0.40500000  1.0 0.2314998966
C  C130  1  0.58800000  0.18300000  0.06060000  1.0 0.2314998966
C  C131  1  0.39860000  0.04520000  0.15720000  1.0 -0.1701038629
C  C132  1  0.11200000  0.95480000  0.35340000  1.0 -0.1701038629
C  C133  1  0.89860000  0.74140000  0.35340000  1.0 -0.1701038629
C  C134  1  0.61200000  0.25860000  0.15720000  1.0 -0.1701038629
C  C135  1  0.37460000  0.11410000  0.19370000  1.0 0.2314998966
C  C136  1  0.07960000  0.88590000  0.26050000  1.0 0.2314998966
C  C137  1  0.87460000  0.68090000  0.26050000  1.0 0.2314998966
C  C138  1  0.57960000  0.31910000  0.19370000  1.0 0.2314998966
C  C139  1  0.31210000  0.19750000  0.18860000  1.0 0.0998190469
C  C140  1  0.99110000  0.80250000  0.11460000  1.0 0.0998190469
C  C141  1  0.81210000  0.62350000  0.11460000  1.0 0.0998190469
C  C142  1  0.49110000  0.37650000  0.18860000  1.0 0.0998190469
C  C143  1  0.34950000  0.28370000  0.25560000  1.0 -0.141742833
C  C144  1  0.97190000  0.71630000  0.06580000  1.0 -0.141742833
C  C145  1  0.84950000  0.59390000  0.06580000  1.0 -0.141742833
C  C146  1  0.47190000  0.40610000  0.25560000  1.0 -0.141742833
C  C147  1  0.32800000  0.35430000  0.29510000  1.0 -0.0988593281
C  C148  1  0.94080000  0.64570000  0.97370000  1.0 -0.0988593281
C  C149  1  0.82800000  0.53290000  0.97370000  1.0 -0.0988593281
C  C150  1  0.44080000  0.46710000  0.29510000  1.0 -0.0988593281
C  C151  1  0.26470000  0.34230000  0.27040000  1.0 -0.0211200035
C  C152  1  0.92810000  0.65770000  0.92240000  1.0 -0.0211200035
C  C153  1  0.76470000  0.49430000  0.92240000  1.0 -0.0211200035
C  C154  1  0.42810000  0.50570000  0.27040000  1.0 -0.0211200035
C  C155  1  0.22620000  0.25650000  0.20150000  1.0 -0.0988593281
C  C156  1  0.94500000  0.74350000  0.96970000  1.0 -0.0988593281
C  C157  1  0.72620000  0.52470000  0.96970000  1.0 -0.0988593281
C  C158  1  0.44500000  0.47530000  0.20150000  1.0 -0.0988593281
C  C159  1  0.24860000  0.18480000  0.16060000  1.0 -0.141742833
C  C160  1  0.97580000  0.81520000  0.06380000  1.0 -0.141742833
C  C161  1  0.74860000  0.58800000  0.06380000  1.0 -0.141742833
C  C162  1  0.47580000  0.41200000  0.16060000  1.0 -0.141742833
C  C163  1  0.21580000  0.64890000  0.36470000  1.0 0.6574098169
C  C164  1  0.71580000  0.35110000  0.56690000  1.0 0.6574098169
C  C165  1  0.16360000  0.64410000  0.30770000  1.0 -0.3439534009
C  C166  1  0.66360000  0.35590000  0.51950000  1.0 -0.3439534009
C  C167  1  0.80370000  0.04790000  0.77980000  1.0 -0.0811474324
C  C168  1  0.73190000  0.95210000  0.75580000  1.0 -0.0811474324
C  C169  1  0.30370000  0.52390000  0.75580000  1.0 -0.0811474324
C  C170  1  0.23190000  0.47610000  0.77980000  1.0 -0.0811474324
C  C171  1  0.75460000  0.04530000  0.73330000  1.0 -0.0584358704
C  C172  1  0.68800000  0.95470000  0.70930000  1.0 -0.0584358704
C  C173  1  0.25460000  0.52130000  0.70930000  1.0 -0.0584358704
C  C174  1  0.18800000  0.47870000  0.73330000  1.0 -0.0584358704
O  O1  1  0.03325000  0.42354000  0.43591000  1.0 -0.6303728919
O  O2  1  0.01237000  0.57646000  0.60971000  1.0 -0.6303728919
O  O3  1  0.53325000  0.09734000  0.60971000  1.0 -0.6247959435
O  O4  1  0.51237000  0.90266000  0.43591000  1.0 -0.6247959435
O  O5  1  0.65300000  0.00548000  0.59732000  1.0 -0.6062920988
O  O6  1  0.59184000  0.99452000  0.64752000  1.0 -0.6062920988
O  O7  1  0.15300000  0.55568000  0.64752000  1.0 -0.6062920988
O  O8  1  0.09184000  0.44432000  0.59732000  1.0 -0.6062920988
O  O9  1  0.09508000  0.45848000  0.40620000  1.0 -0.6479086976
O  O10  1  0.94772000  0.54152000  0.63660000  1.0 -0.6479086976
O  O11  1  0.59508000  0.18888000  0.63660000  1.0 -0.6479086976
O  O12  1  0.44772000  0.81112000  0.40620000  1.0 -0.6479086976
O  O13  1  0.20378000  0.61178000  0.56600000  1.0 -0.6684241891
O  O14  1  0.95422000  0.38822000  0.59200000  1.0 -0.6684241891
O  O15  1  0.70378000  0.13778000  0.59200000  1.0 -0.6684241891
O  O16  1  0.45422000  0.86222000  0.56600000  1.0 -0.6684241891
O  O17  1  0.26371000  0.68061000  0.56330000  1.0 -0.6579170923
O  O18  1  0.88269000  0.31939000  0.58310000  1.0 -0.6579170923
O  O19  1  0.76371000  0.20041000  0.58310000  1.0 -0.6579170923
O  O20  1  0.38269000  0.79959000  0.56330000  1.0 -0.6579170923
O  O21  1  0.52560000  0.99630000  0.38950000  1.0 -0.6303728919
O  O22  1  0.39320000  0.00370000  0.52930000  1.0 -0.6303728919
O  O23  1  0.02560000  0.63610000  0.52930000  1.0 -0.6303728919
O  O24  1  0.89320000  0.36390000  0.38950000  1.0 -0.6303728919
O  O25  1  0.60050000  0.10347000  0.45283000  1.0 -0.6375986041
O  O26  1  0.34936000  0.89653000  0.49703000  1.0 -0.6375986041
O  O27  1  0.10050000  0.64767000  0.49703000  1.0 -0.6375986041
O  O28  1  0.84936000  0.35233000  0.45283000  1.0 -0.6375986041
O  O29  1  0.27188000  0.49638000  0.37910000  1.0 -0.6479086976
O  O30  1  0.88272000  0.50362000  0.77550000  1.0 -0.6579170923
O  O31  1  0.77188000  0.39278000  0.77550000  1.0 -0.6579170923
O  O32  1  0.38272000  0.60722000  0.37910000  1.0 -0.6479086976
O  O33  1  0.18110000  0.40200000  0.28370000  1.0 -0.5825285465
O  O34  1  0.88170000  0.59800000  0.77910000  1.0 -0.5825285465
O  O35  1  0.68110000  0.39740000  0.77910000  1.0 -0.5825285465
O  O36  1  0.38170000  0.60260000  0.28370000  1.0 -0.5825285465
O  O37  1  0.26922000  0.68048000  0.38574000  1.0 -0.6927929819
O  O38  1  0.70526000  0.31952000  0.58874000  1.0 -0.6927929819
O  O39  1  0.76922000  0.38348000  0.58874000  1.0 -0.6927929819
O  O40  1  0.20526000  0.61652000  0.38574000  1.0 -0.6927929819
F  F1  1  0.98567000  0.00000000  0.98567000  1.0 -0.141742833
F  F2  1  0.48567000  0.50000000  0.98567000  1.0 -0.141742833
F  F3  1  0.85840000  0.15006000  0.98274000  1.0 -0.141742833
F  F4  1  0.83268000  0.84994000  0.70834000  1.0 -0.141742833
F  F5  1  0.35840000  0.37566000  0.70834000  1.0 -0.141742833
F  F6  1  0.33268000  0.62434000  0.98274000  1.0 -0.141742833
F  F7  1  0.27999000  0.04603000  0.99736000  1.0 -0.141742833
F  F8  1  0.95133000  0.95397000  0.23396000  1.0 -0.141742833
F  F9  1  0.77999000  0.78263000  0.23396000  1.0 -0.141742833
F  F10  1  0.45133000  0.21737000  0.99736000  1.0 -0.141742833
F  F11  1  0.40222000  0.90398000  0.02164000  1.0 -0.141742833
F  F12  1  0.11766000  0.09602000  0.49824000  1.0 -0.1479115288
F  F13  1  0.90222000  0.88058000  0.49824000  1.0 -0.1479115288
F  F14  1  0.61766000  0.11942000  0.02164000  1.0 -0.141742833
F  F15  1  0.39072000  0.18433000  0.28639000  1.0 -0.1330159083
F  F16  1  0.10206000  0.81567000  0.20639000  1.0 -0.1330159083
F  F17  1  0.89072000  0.60433000  0.20639000  1.0 -0.1330159083
F  F18  1  0.60206000  0.39567000  0.28639000  1.0 -0.1330159083
