# DDEC6 charges by PACMAN v1.1 (https://github.com/mtap-research/PACMAN-charge/)
data_UDUQUJ_ASR_pacman
_symmetry_space_group_name_H-M   'P 1'
_cell_length_a   23.08130000
_cell_length_b   23.08130000
_cell_length_c   23.08130000
_cell_angle_alpha   137.94700000
_cell_angle_beta   102.64000000
_cell_angle_gamma   92.21450000
_symmetry_Int_Tables_number   1
_chemical_formula_structural   Ca5H46C87O20F9
_chemical_formula_sum   'Ca10 H92 C174 O40 F18'
_cell_volume   7646.80545109
_cell_formula_units_Z   2
loop_
 _symmetry_equiv_pos_site_id
 _symmetry_equiv_pos_as_xyz
  1  'x, y, z'
loop_
 _atom_site_type_symbol
 _atom_site_label
 _atom_site_symmetry_multiplicity
 _atom_site_fract_x
 _atom_site_fract_y
 _atom_site_fract_z
 _atom_site_occupancy
 _atom_site_charge
Ca  Ca1  1  0.67559000  0.34415000  0.51974000  1.0 1.4065100206
Ca  Ca2  1  0.17559000  0.65585000  0.33144000  1.0 1.4065100206
Ca  Ca3  1  0.63700000  0.24757000  0.58897000  1.0 1.3771893037
Ca  Ca4  1  0.34140000  0.75243000  0.38943000  1.0 1.3771893037
Ca  Ca5  1  0.13700000  0.54803000  0.38943000  1.0 1.3771893037
Ca  Ca6  1  0.84140000  0.45197000  0.58897000  1.0 1.3771893037
Ca  Ca7  1  0.51470000  0.02541000  0.42479000  1.0 1.3684585345
Ca  Ca8  1  0.39938000  0.97459000  0.48929000  1.0 1.3684585345
Ca  Ca9  1  0.01470000  0.58991000  0.48929000  1.0 1.3684585345
Ca  Ca10  1  0.89938000  0.41009000  0.42479000  1.0 1.3684585345
H  H1  1  0.86751000  0.36981000  0.68926000  1.0 0.0915182089
H  H2  1  0.31945000  0.63019000  0.49770000  1.0 0.0915182089
H  H3  1  0.36751000  0.67825000  0.49770000  1.0 0.0915182089
H  H4  1  0.81945000  0.32175000  0.68926000  1.0 0.0915182089
H  H5  1  0.64032000  0.57907000  0.64141000  1.0 0.1179251289
H  H6  1  0.06234000  0.42093000  0.06125000  1.0 0.1179251289
H  H7  1  0.14032000  0.49891000  0.06125000  1.0 0.1179251289
H  H8  1  0.56234000  0.50109000  0.64141000  1.0 0.1179251289
H  H9  1  0.81472000  0.73946000  0.79614000  1.0 0.111315453
H  H10  1  0.05668000  0.26054000  0.07526000  1.0 0.111315453
H  H11  1  0.31472000  0.51858000  0.07526000  1.0 0.111315453
H  H12  1  0.55668000  0.48142000  0.79614000  1.0 0.111315453
H  H13  1  0.75289000  0.32086000  0.27967000  1.0 0.1000529294
H  H14  1  0.95881000  0.67914000  0.43203000  1.0 0.1000529294
H  H15  1  0.25289000  0.97322000  0.43203000  1.0 0.1000529294
H  H16  1  0.45881000  0.02678000  0.27967000  1.0 0.1000529294
H  H17  1  0.69314000  0.14589000  0.26761000  1.0 0.111315453
H  H18  1  0.12172000  0.85411000  0.54725000  1.0 0.111315453
H  H19  1  0.19314000  0.92553000  0.54725000  1.0 0.111315453
H  H20  1  0.62172000  0.07447000  0.26761000  1.0 0.111315453
H  H21  1  0.60537000  0.70397000  0.71530000  1.0 0.111315453
H  H22  1  0.01133000  0.29603000  0.90140000  1.0 0.111315453
H  H23  1  0.10537000  0.39007000  0.90140000  1.0 0.111315453
H  H24  1  0.51133000  0.60993000  0.71530000  1.0 0.111315453
H  H25  1  0.78045000  0.86517000  0.87252000  1.0 0.111315453
H  H26  1  0.00735000  0.13483000  0.91528000  1.0 0.111315453
H  H27  1  0.28045000  0.40793000  0.91528000  1.0 0.111315453
H  H28  1  0.50735000  0.59207000  0.87252000  1.0 0.111315453
H  H29  1  0.71383000  0.20502000  0.11949000  1.0 0.111315453
H  H30  1  0.91447000  0.79498000  0.50881000  1.0 0.111315453
H  H31  1  0.21383000  0.09434000  0.50881000  1.0 0.111315453
H  H32  1  0.41447000  0.90566000  0.11949000  1.0 0.111315453
H  H33  1  0.66071000  0.02850000  0.10857000  1.0 0.111315453
H  H34  1  0.08007000  0.97150000  0.63221000  1.0 0.111315453
H  H35  1  0.16071000  0.05214000  0.63221000  1.0 0.111315453
H  H36  1  0.58007000  0.94786000  0.10857000  1.0 0.111315453
H  H37  1  0.57374000  0.34691000  0.75775000  1.0 0.111315453
H  H38  1  0.41084000  0.65309000  0.22684000  1.0 0.111315453
H  H39  1  0.07374000  0.31600000  0.22684000  1.0 0.111315453
H  H40  1  0.91084000  0.68400000  0.75775000  1.0 0.111315453
H  H41  1  0.51432000  0.14821000  0.71533000  1.0 0.1179251289
H  H42  1  0.56712000  0.85179000  0.36611000  1.0 0.1179251289
H  H43  1  0.01432000  0.29899000  0.36611000  1.0 0.1179251289
H  H44  1  0.06712000  0.70101000  0.71533000  1.0 0.1179251289
H  H45  1  0.54639000  0.06998000  0.74935000  1.0 0.1000529294
H  H46  1  0.67937000  0.93002000  0.47641000  1.0 0.1000529294
H  H47  1  0.04639000  0.29703000  0.47641000  1.0 0.1000529294
H  H48  1  0.17937000  0.70296000  0.74935000  1.0 0.1000529294
H  H49  1  0.43254000  0.83390000  0.60760000  1.0 0.111315453
H  H50  1  0.77370000  0.16610000  0.59864000  1.0 0.111315453
H  H51  1  0.93254000  0.32494000  0.59864000  1.0 0.111315453
H  H52  1  0.27370000  0.67506000  0.60760000  1.0 0.111315453
H  H53  1  0.59830000  0.45399000  0.91591000  1.0 0.111315453
H  H54  1  0.46192000  0.54601000  0.14431000  1.0 0.111315453
H  H55  1  0.09830000  0.18239000  0.14431000  1.0 0.111315453
H  H56  1  0.96192000  0.81761000  0.91591000  1.0 0.111315453
H  H57  1  0.54449000  0.25388000  0.87349000  1.0 0.1179251289
H  H58  1  0.61961000  0.74612000  0.29061000  1.0 0.1179251289
H  H59  1  0.04449000  0.17100000  0.29061000  1.0 0.1179251289
H  H60  1  0.11961000  0.82900000  0.87349000  1.0 0.1179251289
H  H61  1  0.61154000  0.07603000  0.84571000  1.0 0.1000529294
H  H62  1  0.76968000  0.92397000  0.53551000  1.0 0.1000529294
H  H63  1  0.11154000  0.26583000  0.53551000  1.0 0.1000529294
H  H64  1  0.26968000  0.73417000  0.84571000  1.0 0.1000529294
H  H65  1  0.49867000  0.83884000  0.70163000  1.0 0.1179251289
H  H66  1  0.86279000  0.16116000  0.65983000  1.0 0.1179251289
H  H67  1  0.99867000  0.29704000  0.65983000  1.0 0.1179251289
H  H68  1  0.36279000  0.70296000  0.70163000  1.0 0.1179251289
H  H69  1  0.75560000  0.37190000  0.21850000  1.0 0.0915182089
H  H70  1  0.84660000  0.62810000  0.38370000  1.0 0.0915182089
H  H71  1  0.25560000  0.03710000  0.38370000  1.0 0.0915182089
H  H72  1  0.34660000  0.96290000  0.21850000  1.0 0.0915182089
H  H73  1  0.67710000  0.37102000  0.13716000  1.0 0.0915182089
H  H74  1  0.76614000  0.62898000  0.30608000  1.0 0.0915182089
H  H75  1  0.17710000  0.03994000  0.30608000  1.0 0.0915182089
H  H76  1  0.26614000  0.96006000  0.13716000  1.0 0.0915182089
H  H77  1  0.65944000  0.45119000  0.23399000  1.0 0.0915182089
H  H78  1  0.78280000  0.54881000  0.20825000  1.0 0.0915182089
H  H79  1  0.15944000  0.92545000  0.20825000  1.0 0.0915182089
H  H80  1  0.28280000  0.07455000  0.23399000  1.0 0.0915182089
H  H81  1  0.73943000  0.44082000  0.30287000  1.0 0.1000529294
H  H82  1  0.86205000  0.55918000  0.29861000  1.0 0.1000529294
H  H83  1  0.23943000  0.93656000  0.29861000  1.0 0.1000529294
H  H84  1  0.36205000  0.06344000  0.30287000  1.0 0.1000529294
H  H85  1  0.81842000  0.32382000  0.69208000  1.0 0.1000529294
H  H86  1  0.36826000  0.67618000  0.49460000  1.0 0.1000529294
H  H87  1  0.31842000  0.62634000  0.49460000  1.0 0.1000529294
H  H88  1  0.86826000  0.37366000  0.69208000  1.0 0.1000529294
H  H89  1  0.84030000  0.42978000  0.76830000  1.0 0.1314318133
H  H90  1  0.33852000  0.57022000  0.41052000  1.0 0.1314318133
H  H91  1  0.34030000  0.57200000  0.41052000  1.0 0.1314318133
H  H92  1  0.83852000  0.42800000  0.76830000  1.0 0.1314318133
C  C1  1  0.75336000  0.56546000  0.66270000  1.0 0.6023153616
C  C2  1  0.09724000  0.43454000  0.18790000  1.0 0.6023153616
C  C3  1  0.25336000  0.59066000  0.18790000  1.0 0.6023153616
C  C4  1  0.59724000  0.40934000  0.66270000  1.0 0.6023153616
C  C5  1  0.77887000  0.36510000  0.64397000  1.0 0.6482466114
C  C6  1  0.27887000  0.63490000  0.41377000  1.0 0.6482466114
C  C7  1  0.75648000  0.31880000  0.39370000  1.0 0.6023153616
C  C8  1  0.07490000  0.68120000  0.43768000  1.0 0.6023153616
C  C9  1  0.25648000  0.86278000  0.43768000  1.0 0.6023153616
C  C10  1  0.57490000  0.13722000  0.39370000  1.0 0.6023153616
C  C11  1  0.72962000  0.64648000  0.71154000  1.0 -0.0378630736
C  C12  1  0.06506000  0.35352000  0.08314000  1.0 -0.0378630736
C  C13  1  0.22962000  0.51808000  0.08314000  1.0 -0.0378630736
C  C14  1  0.56506000  0.48192000  0.71154000  1.0 -0.0378630736
C  C15  1  0.83100000  0.37280000  0.70380000  1.0 -0.5369868325
C  C16  1  0.33100000  0.62720000  0.45820000  1.0 -0.5369868325
C  C17  1  0.72686000  0.24517000  0.29041000  1.0 -0.0378630736
C  C18  1  0.04524000  0.75483000  0.48169000  1.0 -0.0378630736
C  C19  1  0.22686000  0.93645000  0.48169000  1.0 -0.0480919596
C  C20  1  0.54524000  0.06355000  0.29041000  1.0 -0.0480919596
C  C21  1  0.66907000  0.63687000  0.68820000  1.0 -0.0890178904
C  C22  1  0.05133000  0.36313000  0.03220000  1.0 -0.0890178904
C  C23  1  0.16907000  0.48087000  0.03220000  1.0 -0.0890178904
C  C24  1  0.55133000  0.51913000  0.68820000  1.0 -0.0890178904
C  C25  1  0.77216000  0.73216000  0.78020000  1.0 -0.099667362
C  C26  1  0.04804000  0.26784000  0.04000000  1.0 -0.099667362
C  C27  1  0.27216000  0.49196000  0.04000000  1.0 -0.099667362
C  C28  1  0.54804000  0.50804000  0.78020000  1.0 -0.099667362
C  C29  1  0.52630000  0.16740000  0.61784000  1.0 0.6109507335
C  C30  1  0.45044000  0.83260000  0.35890000  1.0 0.6109507335
C  C31  1  0.02630000  0.40846000  0.35890000  1.0 0.6109507335
C  C32  1  0.95044000  0.59154000  0.61784000  1.0 0.6109507335
C  C33  1  0.44243000  0.94172000  0.59991000  1.0 0.5917027248
C  C34  1  0.65819000  0.05828000  0.50071000  1.0 0.5917027248
C  C35  1  0.94243000  0.34252000  0.50071000  1.0 0.5917027248
C  C36  1  0.15819000  0.65748000  0.59991000  1.0 0.5917027248
C  C37  1  0.73319000  0.26219000  0.24500000  1.0 -0.1085146535
C  C38  1  0.98281000  0.73781000  0.47100000  1.0 -0.1085146535
C  C39  1  0.23319000  0.98819000  0.47100000  1.0 -0.1085146535
C  C40  1  0.48281000  0.01181000  0.24500000  1.0 -0.1085146535
C  C41  1  0.69846000  0.15765000  0.23801000  1.0 -0.099667362
C  C42  1  0.08036000  0.84235000  0.54081000  1.0 -0.099667362
C  C43  1  0.19846000  0.96045000  0.54081000  1.0 -0.099667362
C  C44  1  0.58036000  0.03955000  0.23801000  1.0 -0.099667362
C  C45  1  0.64797000  0.71217000  0.73280000  1.0 -0.1400882898
C  C46  1  0.02063000  0.28783000  0.93580000  1.0 -0.1400882898
C  C47  1  0.14797000  0.41517000  0.93580000  1.0 -0.1400882898
C  C48  1  0.52063000  0.58483000  0.73280000  1.0 -0.1400882898
C  C49  1  0.75149000  0.80751000  0.82558000  1.0 -0.1400882898
C  C50  1  0.01807000  0.19249000  0.94398000  1.0 -0.1400882898
C  C51  1  0.25149000  0.42591000  0.94398000  1.0 -0.1400882898
C  C52  1  0.51807000  0.57409000  0.82558000  1.0 -0.1400882898
C  C53  1  0.54163000  0.23633000  0.72010000  1.0 -0.0378630736
C  C54  1  0.48377000  0.76367000  0.30530000  1.0 -0.0378630736
C  C55  1  0.04163000  0.32153000  0.30530000  1.0 -0.0378630736
C  C56  1  0.98377000  0.67847000  0.72010000  1.0 -0.0378630736
C  C57  1  0.48382000  0.94985000  0.66657000  1.0 -0.0273047062
C  C58  1  0.71672000  0.05015000  0.53397000  1.0 -0.0273047062
C  C59  1  0.98382000  0.31725000  0.53397000  1.0 -0.0273047062
C  C60  1  0.21672000  0.68275000  0.66657000  1.0 -0.0273047062
C  C61  1  0.71048000  0.19262000  0.14906000  1.0 -0.1467203023
C  C62  1  0.95644000  0.80738000  0.51786000  1.0 -0.1467203023
C  C63  1  0.21048000  0.06142000  0.51786000  1.0 -0.1467203023
C  C64  1  0.45644000  0.93858000  0.14906000  1.0 -0.1467203023
C  C65  1  0.67794000  0.08761000  0.14273000  1.0 -0.1400882898
C  C66  1  0.05512000  0.91239000  0.59033000  1.0 -0.1400882898
C  C67  1  0.17794000  0.03521000  0.59033000  1.0 -0.1400882898
C  C68  1  0.55512000  0.96479000  0.14273000  1.0 -0.1400882898
C  C69  1  0.68932000  0.79821000  0.80231000  1.0 0.0915182089
C  C70  1  0.00410000  0.20179000  0.89111000  1.0 0.0915182089
C  C71  1  0.18932000  0.38701000  0.89111000  1.0 0.0915182089
C  C72  1  0.50410000  0.61299000  0.80231000  1.0 0.0915182089
C  C73  1  0.56711000  0.32842000  0.78101000  1.0 -0.1085146535
C  C74  1  0.45259000  0.67158000  0.23869000  1.0 -0.1085146535
C  C75  1  0.06711000  0.28610000  0.23869000  1.0 -0.1085146535
C  C76  1  0.95259000  0.71390000  0.78101000  1.0 -0.1085146535
C  C77  1  0.53230000  0.20932000  0.75558000  1.0 -0.099667362
C  C78  1  0.54626000  0.79068000  0.32298000  1.0 -0.099667362
C  C79  1  0.03230000  0.27672000  0.32298000  1.0 -0.099667362
C  C80  1  0.04626000  0.72328000  0.75558000  1.0 -0.099667362
C  C81  1  0.86198000  0.50000000  0.36198000  1.0 0.5707965148
C  C82  1  0.36198000  0.00000000  0.36198000  1.0 0.5707965148
C  C83  1  0.53685000  0.02296000  0.73929000  1.0 -0.099667362
C  C84  1  0.71633000  0.97704000  0.51389000  1.0 -0.099667362
C  C85  1  0.03685000  0.29756000  0.51389000  1.0 -0.099667362
C  C86  1  0.21633000  0.70244000  0.73929000  1.0 -0.099667362
C  C87  1  0.46922000  0.88216000  0.65466000  1.0 -0.0890178904
C  C88  1  0.77250000  0.11784000  0.58706000  1.0 -0.0890178904
C  C89  1  0.96922000  0.31456000  0.58706000  1.0 -0.0890178904
C  C90  1  0.27250000  0.68544000  0.65466000  1.0 -0.0890178904
C  C91  1  0.68267000  0.10420000  0.09627000  1.0 0.111315453
C  C92  1  0.99207000  0.89580000  0.57847000  1.0 0.111315453
C  C93  1  0.18267000  0.08640000  0.57847000  1.0 0.111315453
C  C94  1  0.49207000  0.91360000  0.09627000  1.0 0.111315453
C  C95  1  0.66780000  0.87957000  0.85103000  1.0 -0.1797007518
C  C96  1  0.97146000  0.12043000  0.78823000  1.0 -0.1797007518
C  C97  1  0.16780000  0.31677000  0.78823000  1.0 -0.1797007518
C  C98  1  0.47146000  0.68323000  0.85103000  1.0 -0.1797007518
C  C99  1  0.58259000  0.39251000  0.87584000  1.0 -0.1400882898
C  C100  1  0.48333000  0.60749000  0.19008000  1.0 -0.1400882898
C  C101  1  0.08259000  0.20675000  0.19008000  1.0 -0.1400882898
C  C102  1  0.98333000  0.79325000  0.87584000  1.0 -0.1400882898
C  C103  1  0.54963000  0.27290000  0.85033000  1.0 -0.1400882898
C  C104  1  0.57743000  0.72710000  0.27673000  1.0 -0.1400882898
C  C105  1  0.04963000  0.19930000  0.27673000  1.0 -0.1400882898
C  C106  1  0.07743000  0.80070000  0.85033000  1.0 -0.1400882898
C  C107  1  0.80970000  0.50000000  0.30970000  1.0 -0.0378630736
C  C108  1  0.30970000  0.00000000  0.30970000  1.0 -0.0378630736
C  C109  1  0.57569000  0.02666000  0.79703000  1.0 -0.1400882898
C  C110  1  0.77037000  0.97334000  0.54903000  1.0 -0.1400882898
C  C111  1  0.07569000  0.27866000  0.54903000  1.0 -0.1400882898
C  C112  1  0.27037000  0.72134000  0.79703000  1.0 -0.1400882898
C  C113  1  0.50844000  0.88579000  0.71165000  1.0 -0.1223264011
C  C114  1  0.82586000  0.11421000  0.62265000  1.0 -0.1223264011
C  C115  1  0.00844000  0.29679000  0.62265000  1.0 -0.1223264011
C  C116  1  0.32586000  0.70321000  0.71165000  1.0 -0.1223264011
C  C117  1  0.66409000  0.02887000  0.99442000  1.0 -0.1896713622
C  C118  1  0.96555000  0.97113000  0.63522000  1.0 -0.1896713622
C  C119  1  0.16409000  0.16967000  0.63522000  1.0 -0.1896713622
C  C120  1  0.46555000  0.83033000  0.99442000  1.0 -0.1896713622
C  C121  1  0.68389000  0.95249000  0.94640000  1.0 0.2327619409
C  C122  1  0.99391000  0.04751000  0.73140000  1.0 0.2327619409
C  C123  1  0.18389000  0.23749000  0.73140000  1.0 0.2327619409
C  C124  1  0.49391000  0.76251000  0.94640000  1.0 0.2327619409
C  C125  1  0.62836000  0.88553000  0.80203000  1.0 0.2327619409
C  C126  1  0.91650000  0.11447000  0.74283000  1.0 0.2327619409
C  C127  1  0.12836000  0.32633000  0.74283000  1.0 0.2327619409
C  C128  1  0.41650000  0.67367000  0.80203000  1.0 0.2327619409
C  C129  1  0.57455000  0.36453000  0.91152000  1.0 0.1000529294
C  C130  1  0.54699000  0.63547000  0.21002000  1.0 0.1000529294
C  C131  1  0.07455000  0.16303000  0.21002000  1.0 0.1000529294
C  C132  1  0.04699000  0.83697000  0.91152000  1.0 0.1000529294
C  C133  1  0.75819000  0.42360000  0.23579000  1.0 -0.0738033197
C  C134  1  0.81219000  0.57640000  0.33459000  1.0 -0.0738033197
C  C135  1  0.25819000  0.02240000  0.33459000  1.0 -0.0738033197
C  C136  1  0.31219000  0.97760000  0.23579000  1.0 -0.0738033197
C  C137  1  0.56186000  0.95721000  0.78325000  1.0 0.070410463
C  C138  1  0.82604000  0.04279000  0.60465000  1.0 0.070410463
C  C139  1  0.06186000  0.27861000  0.60465000  1.0 0.070410463
C  C140  1  0.32604000  0.72139000  0.78325000  1.0 0.070410463
C  C141  1  0.62435000  0.02793000  0.93842000  1.0 0.246843989
C  C142  1  0.91049000  0.97207000  0.59642000  1.0 0.246843989
C  C143  1  0.12435000  0.18593000  0.59642000  1.0 0.246843989
C  C144  1  0.41049000  0.81407000  0.93842000  1.0 0.246843989
C  C145  1  0.60543000  0.95753000  0.84150000  1.0 -0.1686266782
C  C146  1  0.88397000  0.04247000  0.64790000  1.0 -0.1686266782
C  C147  1  0.10543000  0.26393000  0.64790000  1.0 -0.1686266782
C  C148  1  0.38397000  0.73607000  0.84150000  1.0 -0.1686266782
C  C149  1  0.59347000  0.43266000  0.01357000  1.0 -0.1686266782
C  C150  1  0.58091000  0.56734000  0.16081000  1.0 -0.1686266782
C  C151  1  0.09347000  0.07990000  0.16081000  1.0 -0.1645101952
C  C152  1  0.08091000  0.92010000  0.01357000  1.0 -0.1645101952
C  C153  1  0.71085000  0.42350000  0.18755000  1.0 -0.0480919596
C  C154  1  0.76405000  0.57650000  0.28735000  1.0 -0.0480919596
C  C155  1  0.21085000  0.02330000  0.28735000  1.0 -0.0480919596
C  C156  1  0.26405000  0.97670000  0.18755000  1.0 -0.0480919596
C  C157  1  0.64078000  0.43620000  0.06546000  1.0 0.2027335455
C  C158  1  0.62926000  0.56380000  0.20458000  1.0 0.2027335455
C  C159  1  0.14078000  0.07532000  0.20458000  1.0 0.2027335455
C  C160  1  0.12926000  0.92468000  0.06546000  1.0 0.2027335455
C  C161  1  0.56463000  0.50000000  0.06463000  1.0 0.2200539139
C  C162  1  0.06463000  0.00000000  0.06463000  1.0 0.2200539139
C  C163  1  0.71248000  0.50000000  0.21248000  1.0 0.0322770373
C  C164  1  0.21248000  0.00000000  0.21248000  1.0 0.0322770373
C  C165  1  0.66123000  0.50000000  0.16123000  1.0 -0.1896713622
C  C166  1  0.16123000  0.00000000  0.16123000  1.0 -0.1896713622
C  C167  1  0.70030000  0.46970000  0.24300000  1.0 -0.0611279771
C  C168  1  0.77330000  0.53030000  0.23060000  1.0 -0.0611279771
C  C169  1  0.20030000  0.95730000  0.23060000  1.0 -0.0480919596
C  C170  1  0.27330000  0.04270000  0.24300000  1.0 -0.0611279771
C  C171  1  0.74890000  0.46700000  0.28790000  1.0 -0.0611279771
C  C172  1  0.82090000  0.53300000  0.28190000  1.0 -0.0611279771
C  C173  1  0.24890000  0.96100000  0.28190000  1.0 -0.0611279771
C  C174  1  0.32090000  0.03900000  0.28790000  1.0 -0.0611279771
O  O1  1  0.71330000  0.48886000  0.59984000  1.0 -0.6414358812
O  O2  1  0.11098000  0.51114000  0.22444000  1.0 -0.6414358812
O  O3  1  0.21330000  0.61346000  0.22444000  1.0 -0.6414358812
O  O4  1  0.61098000  0.38654000  0.59984000  1.0 -0.6414358812
O  O5  1  0.72488000  0.32734000  0.61774000  1.0 -0.6696887957
O  O6  1  0.29040000  0.67266000  0.39754000  1.0 -0.6696887957
O  O7  1  0.22488000  0.60714000  0.39754000  1.0 -0.6696887957
O  O8  1  0.79040000  0.39286000  0.61774000  1.0 -0.6696887957
O  O9  1  0.73858000  0.31252000  0.43718000  1.0 -0.6464167582
O  O10  1  0.12466000  0.68748000  0.42606000  1.0 -0.6464167582
O  O11  1  0.23858000  0.80140000  0.42606000  1.0 -0.6464167582
O  O12  1  0.62466000  0.19860000  0.43718000  1.0 -0.6464167582
O  O13  1  0.80927000  0.57866000  0.68661000  1.0 -0.5739562707
O  O14  1  0.10795000  0.42134000  0.23061000  1.0 -0.5739562707
O  O15  1  0.30927000  0.62266000  0.23061000  1.0 -0.5739562707
O  O16  1  0.60795000  0.37734000  0.68661000  1.0 -0.5739562707
O  O17  1  0.80082000  0.38557000  0.43557000  1.0 -0.6628969061
O  O18  1  0.05000000  0.61443000  0.41525000  1.0 -0.6628969061
O  O19  1  0.30082000  0.86525000  0.41525000  1.0 -0.6628969061
O  O20  1  0.55000000  0.13475000  0.43557000  1.0 -0.6628969061
O  O21  1  0.38987000  0.88467000  0.54700000  1.0 -0.6330675828
O  O22  1  0.66233000  0.11533000  0.50520000  1.0 -0.6330675828
O  O23  1  0.88987000  0.34287000  0.50520000  1.0 -0.6330675828
O  O24  1  0.16233000  0.65713000  0.54700000  1.0 -0.6330675828
O  O25  1  0.55609000  0.18482000  0.59087000  1.0 -0.6414358812
O  O26  1  0.40605000  0.81518000  0.37127000  1.0 -0.6414358812
O  O27  1  0.05609000  0.46522000  0.37127000  1.0 -0.6414358812
O  O28  1  0.90605000  0.53478000  0.59087000  1.0 -0.6414358812
O  O29  1  0.48530000  0.09260000  0.56134000  1.0 -0.6414358812
O  O30  1  0.46874000  0.90740000  0.39270000  1.0 -0.6414358812
O  O31  1  0.98530000  0.42396000  0.39270000  1.0 -0.6414358812
O  O32  1  0.96874000  0.57604000  0.56134000  1.0 -0.6414358812
O  O33  1  0.46437000  0.99156000  0.59881000  1.0 -0.6414358812
O  O34  1  0.60725000  0.00844000  0.47281000  1.0 -0.6414358812
O  O35  1  0.96437000  0.36556000  0.47281000  1.0 -0.6414358812
O  O36  1  0.10725000  0.63444000  0.59881000  1.0 -0.6414358812
O  O37  1  0.84904000  0.44523000  0.35953000  1.0 -0.5942831384
O  O38  1  0.91430000  0.55477000  0.40381000  1.0 -0.5942831384
O  O39  1  0.34904000  0.98951000  0.40381000  1.0 -0.5942831384
O  O40  1  0.41430000  0.01049000  0.35953000  1.0 -0.5942831384
F  F1  1  0.72193000  0.94933000  0.99698000  1.0 -0.1400882898
F  F2  1  0.04765000  0.05067000  0.77260000  1.0 -0.1400882898
F  F3  1  0.22193000  0.22495000  0.77260000  1.0 -0.1400882898
F  F4  1  0.54765000  0.77505000  0.99698000  1.0 -0.1400882898
F  F5  1  0.61307000  0.81721000  0.70894000  1.0 -0.1400882898
F  F6  1  0.89173000  0.18279000  0.79586000  1.0 -0.1324551227
F  F7  1  0.11307000  0.40413000  0.79586000  1.0 -0.1400882898
F  F8  1  0.39173000  0.59587000  0.70894000  1.0 -0.1400882898
F  F9  1  0.60231000  0.09936000  0.98063000  1.0 -0.1400882898
F  F10  1  0.88127000  0.90064000  0.50295000  1.0 -0.1400882898
F  F11  1  0.10231000  0.12168000  0.50295000  1.0 -0.1400882898
F  F12  1  0.38127000  0.87832000  0.98063000  1.0 -0.1400882898
F  F13  1  0.67044000  0.37232000  0.01866000  1.0 -0.1400882898
F  F14  1  0.64634000  0.62768000  0.29812000  1.0 -0.1400882898
F  F15  1  0.17044000  0.15178000  0.29812000  1.0 -0.1400882898
F  F16  1  0.14634000  0.84822000  0.01866000  1.0 -0.1400882898
F  F17  1  0.51801000  0.50000000  0.01801000  1.0 -0.1400882898
F  F18  1  0.01801000  0.00000000  0.01801000  1.0 -0.1400882898
