# DDEC6 charges by PACMAN v1.1 (https://github.com/mtap-research/PACMAN-charge/)
data_UDUQIX_ASR_pacman
_symmetry_space_group_name_H-M   'P 1'
_cell_length_a   30.34220000
_cell_length_b   30.34220000
_cell_length_c   30.34220000
_cell_angle_alpha   90.00000000
_cell_angle_beta   90.00000000
_cell_angle_gamma   90.00000000
_symmetry_Int_Tables_number   1
_chemical_formula_structural   Zr3Cu2H16C24(NO3)4
_chemical_formula_sum   'Zr18 Cu12 H96 C144 N24 O72'
_cell_volume   27934.51914751
_cell_formula_units_Z   6
loop_
 _symmetry_equiv_pos_site_id
 _symmetry_equiv_pos_as_xyz
  1  'x, y, z'
loop_
 _atom_site_type_symbol
 _atom_site_label
 _atom_site_symmetry_multiplicity
 _atom_site_fract_x
 _atom_site_fract_y
 _atom_site_fract_z
 _atom_site_occupancy
 _atom_site_charge
Zr  Zr1  1  0.00000000  0.50000000  0.08236000  1.0 2.4289431356
Zr  Zr2  1  0.50000000  0.00000000  0.08236000  1.0 2.4289431356
Zr  Zr3  1  0.00000000  0.91764000  0.50000000  1.0 2.4289431356
Zr  Zr4  1  0.00000000  0.50000000  0.91764000  1.0 2.4289431356
Zr  Zr5  1  0.00000000  0.08236000  0.50000000  1.0 2.4289431356
Zr  Zr6  1  0.08236000  0.50000000  0.00000000  1.0 2.4289431356
Zr  Zr7  1  0.91764000  0.50000000  0.00000000  1.0 2.4289431356
Zr  Zr8  1  0.08236000  0.00000000  0.50000000  1.0 2.4289431356
Zr  Zr9  1  0.50000000  0.08236000  0.00000000  1.0 2.4289431356
Zr  Zr10  1  0.50000000  0.91764000  0.00000000  1.0 2.4289431356
Zr  Zr11  1  0.91764000  0.00000000  0.50000000  1.0 2.4289431356
Zr  Zr12  1  0.50000000  0.00000000  0.91764000  1.0 2.4289431356
Zr  Zr13  1  0.00000000  0.41925000  0.00000000  1.0 2.312073527
Zr  Zr14  1  0.58075000  0.00000000  0.00000000  1.0 2.312073527
Zr  Zr15  1  0.00000000  0.58075000  0.00000000  1.0 2.312073527
Zr  Zr16  1  0.41925000  0.00000000  0.00000000  1.0 2.312073527
Zr  Zr17  1  0.00000000  0.00000000  0.41925000  1.0 2.312073527
Zr  Zr18  1  0.00000000  0.00000000  0.58075000  1.0 2.312073527
Cu  Cu1  1  0.00000000  0.24456000  0.24456000  1.0 -0.0210951766
Cu  Cu2  1  0.75544000  0.00000000  0.24456000  1.0 -0.0210951766
Cu  Cu3  1  0.00000000  0.75544000  0.24456000  1.0 -0.0210951766
Cu  Cu4  1  0.24456000  0.00000000  0.24456000  1.0 -0.0210951766
Cu  Cu5  1  0.00000000  0.75544000  0.75544000  1.0 -0.0210951766
Cu  Cu6  1  0.00000000  0.24456000  0.75544000  1.0 -0.0210951766
Cu  Cu7  1  0.24456000  0.24456000  0.00000000  1.0 -0.0210951766
Cu  Cu8  1  0.75544000  0.24456000  0.00000000  1.0 -0.0210951766
Cu  Cu9  1  0.75544000  0.75544000  0.00000000  1.0 -0.0210951766
Cu  Cu10  1  0.24456000  0.00000000  0.75544000  1.0 -0.0210951766
Cu  Cu11  1  0.75544000  0.00000000  0.75544000  1.0 -0.0210951766
Cu  Cu12  1  0.24456000  0.75544000  0.00000000  1.0 -0.0210951766
H  H1  1  0.00000000  0.39729000  0.18824000  1.0 0.1038665493
H  H2  1  0.60271000  0.00000000  0.18824000  1.0 0.1038665493
H  H3  1  0.00000000  0.60271000  0.18824000  1.0 0.1038665493
H  H4  1  0.39729000  0.00000000  0.18824000  1.0 0.1038665493
H  H5  1  0.00000000  0.81176000  0.39729000  1.0 0.1038665493
H  H6  1  0.00000000  0.60271000  0.81176000  1.0 0.1038665493
H  H7  1  0.00000000  0.18824000  0.60271000  1.0 0.1038665493
H  H8  1  0.18824000  0.39729000  0.00000000  1.0 0.1038665493
H  H9  1  0.00000000  0.39729000  0.81176000  1.0 0.1038665493
H  H10  1  0.81176000  0.39729000  0.00000000  1.0 0.1038665493
H  H11  1  0.18824000  0.00000000  0.39729000  1.0 0.1038665493
H  H12  1  0.39729000  0.18824000  0.00000000  1.0 0.1038665493
H  H13  1  0.60271000  0.81176000  0.00000000  1.0 0.1038665493
H  H14  1  0.18824000  0.00000000  0.60271000  1.0 0.1038665493
H  H15  1  0.60271000  0.18824000  0.00000000  1.0 0.1038665493
H  H16  1  0.81176000  0.00000000  0.39729000  1.0 0.1038665493
H  H17  1  0.81176000  0.00000000  0.60271000  1.0 0.1038665493
H  H18  1  0.39729000  0.81176000  0.00000000  1.0 0.1038665493
H  H19  1  0.39729000  0.00000000  0.81176000  1.0 0.1038665493
H  H20  1  0.60271000  0.00000000  0.81176000  1.0 0.1038665493
H  H21  1  0.00000000  0.18824000  0.39729000  1.0 0.1038665493
H  H22  1  0.00000000  0.81176000  0.60271000  1.0 0.1038665493
H  H23  1  0.18824000  0.60271000  0.00000000  1.0 0.1038665493
H  H24  1  0.81176000  0.60271000  0.00000000  1.0 0.1038665493
H  H25  1  0.00000000  0.30664000  0.09377000  1.0 0.1289084089
H  H26  1  0.69336000  0.00000000  0.09377000  1.0 0.1289084089
H  H27  1  0.00000000  0.69336000  0.09377000  1.0 0.1289084089
H  H28  1  0.30664000  0.00000000  0.09377000  1.0 0.1289084089
H  H29  1  0.00000000  0.90623000  0.30664000  1.0 0.1289084089
H  H30  1  0.00000000  0.69336000  0.90623000  1.0 0.1289084089
H  H31  1  0.00000000  0.09377000  0.69336000  1.0 0.1289084089
H  H32  1  0.09377000  0.30664000  0.00000000  1.0 0.1289084089
H  H33  1  0.00000000  0.30664000  0.90623000  1.0 0.1289084089
H  H34  1  0.90623000  0.30664000  0.00000000  1.0 0.1289084089
H  H35  1  0.09377000  0.00000000  0.30664000  1.0 0.1289084089
H  H36  1  0.30664000  0.09377000  0.00000000  1.0 0.1289084089
H  H37  1  0.69336000  0.90623000  0.00000000  1.0 0.1289084089
H  H38  1  0.09377000  0.00000000  0.69336000  1.0 0.1289084089
H  H39  1  0.69336000  0.09377000  0.00000000  1.0 0.1289084089
H  H40  1  0.90623000  0.00000000  0.30664000  1.0 0.1289084089
H  H41  1  0.90623000  0.00000000  0.69336000  1.0 0.1289084089
H  H42  1  0.30664000  0.90623000  0.00000000  1.0 0.1289084089
H  H43  1  0.30664000  0.00000000  0.90623000  1.0 0.1289084089
H  H44  1  0.69336000  0.00000000  0.90623000  1.0 0.1289084089
H  H45  1  0.00000000  0.09377000  0.30664000  1.0 0.1289084089
H  H46  1  0.00000000  0.90623000  0.69336000  1.0 0.1289084089
H  H47  1  0.09377000  0.69336000  0.00000000  1.0 0.1289084089
H  H48  1  0.90623000  0.69336000  0.00000000  1.0 0.1289084089
H  H49  1  0.00000000  0.34148000  0.23995000  1.0 0.0878617337
H  H50  1  0.65852000  0.00000000  0.23995000  1.0 0.0878617337
H  H51  1  0.00000000  0.65852000  0.23995000  1.0 0.0878617337
H  H52  1  0.34148000  0.00000000  0.23995000  1.0 0.0878617337
H  H53  1  0.00000000  0.76005000  0.34148000  1.0 0.0878617337
H  H54  1  0.00000000  0.65852000  0.76005000  1.0 0.0878617337
H  H55  1  0.00000000  0.23995000  0.65852000  1.0 0.0878617337
H  H56  1  0.23995000  0.34148000  0.00000000  1.0 0.0878617337
H  H57  1  0.00000000  0.34148000  0.76005000  1.0 0.0878617337
H  H58  1  0.76005000  0.34148000  0.00000000  1.0 0.0878617337
H  H59  1  0.23995000  0.00000000  0.34148000  1.0 0.0878617337
H  H60  1  0.34148000  0.23995000  0.00000000  1.0 0.0878617337
H  H61  1  0.65852000  0.76005000  0.00000000  1.0 0.0878617337
H  H62  1  0.23995000  0.00000000  0.65852000  1.0 0.0878617337
H  H63  1  0.65852000  0.23995000  0.00000000  1.0 0.0878617337
H  H64  1  0.76005000  0.00000000  0.34148000  1.0 0.0878617337
H  H65  1  0.76005000  0.00000000  0.65852000  1.0 0.0878617337
H  H66  1  0.34148000  0.76005000  0.00000000  1.0 0.0878617337
H  H67  1  0.34148000  0.00000000  0.76005000  1.0 0.0878617337
H  H68  1  0.65852000  0.00000000  0.76005000  1.0 0.0878617337
H  H69  1  0.00000000  0.23995000  0.34148000  1.0 0.0878617337
H  H70  1  0.00000000  0.76005000  0.65852000  1.0 0.0878617337
H  H71  1  0.23995000  0.65852000  0.00000000  1.0 0.0878617337
H  H72  1  0.76005000  0.65852000  0.00000000  1.0 0.0878617337
H  H73  1  0.00000000  0.25341000  0.14885000  1.0 0.0792933269
H  H74  1  0.74659000  0.00000000  0.14885000  1.0 0.0792933269
H  H75  1  0.00000000  0.74659000  0.14885000  1.0 0.0792933269
H  H76  1  0.25341000  0.00000000  0.14885000  1.0 0.0792933269
H  H77  1  0.00000000  0.85115000  0.25341000  1.0 0.0792933269
H  H78  1  0.00000000  0.74659000  0.85115000  1.0 0.0792933269
H  H79  1  0.00000000  0.14885000  0.74659000  1.0 0.0792933269
H  H80  1  0.14885000  0.25341000  0.00000000  1.0 0.0792933269
H  H81  1  0.00000000  0.25341000  0.85115000  1.0 0.0792933269
H  H82  1  0.85115000  0.25341000  0.00000000  1.0 0.0792933269
H  H83  1  0.14885000  0.00000000  0.25341000  1.0 0.0792933269
H  H84  1  0.25341000  0.14885000  0.00000000  1.0 0.0792933269
H  H85  1  0.74659000  0.85115000  0.00000000  1.0 0.0792933269
H  H86  1  0.14885000  0.00000000  0.74659000  1.0 0.0792933269
H  H87  1  0.74659000  0.14885000  0.00000000  1.0 0.0792933269
H  H88  1  0.85115000  0.00000000  0.25341000  1.0 0.0792933269
H  H89  1  0.85115000  0.00000000  0.74659000  1.0 0.0792933269
H  H90  1  0.25341000  0.85115000  0.00000000  1.0 0.0792933269
H  H91  1  0.25341000  0.00000000  0.85115000  1.0 0.0792933269
H  H92  1  0.74659000  0.00000000  0.85115000  1.0 0.0792933269
H  H93  1  0.00000000  0.14885000  0.25341000  1.0 0.0792933269
H  H94  1  0.00000000  0.85115000  0.74659000  1.0 0.0792933269
H  H95  1  0.14885000  0.74659000  0.00000000  1.0 0.0792933269
H  H96  1  0.85115000  0.74659000  0.00000000  1.0 0.0792933269
C  C1  1  0.00000000  0.39397000  0.10159000  1.0 0.6137189575
C  C2  1  0.60603000  0.00000000  0.10159000  1.0 0.6137189575
C  C3  1  0.00000000  0.60603000  0.10159000  1.0 0.6137189575
C  C4  1  0.39397000  0.00000000  0.10159000  1.0 0.6137189575
C  C5  1  0.00000000  0.89841000  0.39397000  1.0 0.6137189575
C  C6  1  0.00000000  0.60603000  0.89841000  1.0 0.6137189575
C  C7  1  0.00000000  0.10159000  0.60603000  1.0 0.6137189575
C  C8  1  0.10159000  0.39397000  0.00000000  1.0 0.6137189575
C  C9  1  0.00000000  0.39397000  0.89841000  1.0 0.6137189575
C  C10  1  0.89841000  0.39397000  0.00000000  1.0 0.6137189575
C  C11  1  0.10159000  0.00000000  0.39397000  1.0 0.6137189575
C  C12  1  0.39397000  0.10159000  0.00000000  1.0 0.6137189575
C  C13  1  0.60603000  0.89841000  0.00000000  1.0 0.6137189575
C  C14  1  0.10159000  0.00000000  0.60603000  1.0 0.6137189575
C  C15  1  0.60603000  0.10159000  0.00000000  1.0 0.6137189575
C  C16  1  0.89841000  0.00000000  0.39397000  1.0 0.6137189575
C  C17  1  0.89841000  0.00000000  0.60603000  1.0 0.6137189575
C  C18  1  0.39397000  0.89841000  0.00000000  1.0 0.6137189575
C  C19  1  0.39397000  0.00000000  0.89841000  1.0 0.6137189575
C  C20  1  0.60603000  0.00000000  0.89841000  1.0 0.6137189575
C  C21  1  0.00000000  0.10159000  0.39397000  1.0 0.6137189575
C  C22  1  0.00000000  0.89841000  0.60603000  1.0 0.6137189575
C  C23  1  0.10159000  0.60603000  0.00000000  1.0 0.6137189575
C  C24  1  0.89841000  0.60603000  0.00000000  1.0 0.6137189575
C  C25  1  0.00000000  0.35835000  0.13514000  1.0 -0.0139136742
C  C26  1  0.64165000  0.00000000  0.13514000  1.0 -0.0139136742
C  C27  1  0.00000000  0.64165000  0.13514000  1.0 -0.0139136742
C  C28  1  0.35835000  0.00000000  0.13514000  1.0 -0.0139136742
C  C29  1  0.00000000  0.86486000  0.35835000  1.0 -0.0139136742
C  C30  1  0.00000000  0.64165000  0.86486000  1.0 -0.0139136742
C  C31  1  0.00000000  0.13514000  0.64165000  1.0 -0.0139136742
C  C32  1  0.13514000  0.35835000  0.00000000  1.0 -0.0139136742
C  C33  1  0.00000000  0.35835000  0.86486000  1.0 -0.0139136742
C  C34  1  0.86486000  0.35835000  0.00000000  1.0 -0.0139136742
C  C35  1  0.13514000  0.00000000  0.35835000  1.0 -0.0139136742
C  C36  1  0.35835000  0.13514000  0.00000000  1.0 -0.0139136742
C  C37  1  0.64165000  0.86486000  0.00000000  1.0 -0.0139136742
C  C38  1  0.13514000  0.00000000  0.64165000  1.0 -0.0139136742
C  C39  1  0.64165000  0.13514000  0.00000000  1.0 -0.0139136742
C  C40  1  0.86486000  0.00000000  0.35835000  1.0 -0.0139136742
C  C41  1  0.86486000  0.00000000  0.64165000  1.0 -0.0139136742
C  C42  1  0.35835000  0.86486000  0.00000000  1.0 -0.0139136742
C  C43  1  0.35835000  0.00000000  0.86486000  1.0 -0.0139136742
C  C44  1  0.64165000  0.00000000  0.86486000  1.0 -0.0139136742
C  C45  1  0.00000000  0.13514000  0.35835000  1.0 -0.0139136742
C  C46  1  0.00000000  0.86486000  0.64165000  1.0 -0.0139136742
C  C47  1  0.13514000  0.64165000  0.00000000  1.0 -0.0139136742
C  C48  1  0.86486000  0.64165000  0.00000000  1.0 -0.0139136742
C  C49  1  0.00000000  0.36747000  0.17868000  1.0 -0.1898437309
C  C50  1  0.63253000  0.00000000  0.17868000  1.0 -0.1898437309
C  C51  1  0.00000000  0.63253000  0.17868000  1.0 -0.1898437309
C  C52  1  0.36747000  0.00000000  0.17868000  1.0 -0.1898437309
C  C53  1  0.00000000  0.82132000  0.36747000  1.0 -0.1898437309
C  C54  1  0.00000000  0.63253000  0.82132000  1.0 -0.1898437309
C  C55  1  0.00000000  0.17868000  0.63253000  1.0 -0.1898437309
C  C56  1  0.17868000  0.36747000  0.00000000  1.0 -0.1898437309
C  C57  1  0.00000000  0.36747000  0.82132000  1.0 -0.1898437309
C  C58  1  0.82132000  0.36747000  0.00000000  1.0 -0.1898437309
C  C59  1  0.17868000  0.00000000  0.36747000  1.0 -0.1898437309
C  C60  1  0.36747000  0.17868000  0.00000000  1.0 -0.1898437309
C  C61  1  0.63253000  0.82132000  0.00000000  1.0 -0.1898437309
C  C62  1  0.17868000  0.00000000  0.63253000  1.0 -0.1898437309
C  C63  1  0.63253000  0.17868000  0.00000000  1.0 -0.1898437309
C  C64  1  0.82132000  0.00000000  0.36747000  1.0 -0.1898437309
C  C65  1  0.82132000  0.00000000  0.63253000  1.0 -0.1898437309
C  C66  1  0.36747000  0.82132000  0.00000000  1.0 -0.1898437309
C  C67  1  0.36747000  0.00000000  0.82132000  1.0 -0.1898437309
C  C68  1  0.63253000  0.00000000  0.82132000  1.0 -0.1898437309
C  C69  1  0.00000000  0.17868000  0.36747000  1.0 -0.1898437309
C  C70  1  0.00000000  0.82132000  0.63253000  1.0 -0.1898437309
C  C71  1  0.17868000  0.63253000  0.00000000  1.0 -0.1898437309
C  C72  1  0.82132000  0.63253000  0.00000000  1.0 -0.1898437309
C  C73  1  0.00000000  0.31524000  0.12387000  1.0 -0.1731069646
C  C74  1  0.68476000  0.00000000  0.12387000  1.0 -0.1731069646
C  C75  1  0.00000000  0.68476000  0.12387000  1.0 -0.1731069646
C  C76  1  0.31524000  0.00000000  0.12387000  1.0 -0.1731069646
C  C77  1  0.00000000  0.87613000  0.31524000  1.0 -0.1731069646
C  C78  1  0.00000000  0.68476000  0.87613000  1.0 -0.1731069646
C  C79  1  0.00000000  0.12387000  0.68476000  1.0 -0.1731069646
C  C80  1  0.12387000  0.31524000  0.00000000  1.0 -0.1731069646
C  C81  1  0.00000000  0.31524000  0.87613000  1.0 -0.1731069646
C  C82  1  0.87613000  0.31524000  0.00000000  1.0 -0.1731069646
C  C83  1  0.12387000  0.00000000  0.31524000  1.0 -0.1731069646
C  C84  1  0.31524000  0.12387000  0.00000000  1.0 -0.1731069646
C  C85  1  0.68476000  0.87613000  0.00000000  1.0 -0.1731069646
C  C86  1  0.12387000  0.00000000  0.68476000  1.0 -0.1731069646
C  C87  1  0.68476000  0.12387000  0.00000000  1.0 -0.1731069646
C  C88  1  0.87613000  0.00000000  0.31524000  1.0 -0.1731069646
C  C89  1  0.87613000  0.00000000  0.68476000  1.0 -0.1731069646
C  C90  1  0.31524000  0.87613000  0.00000000  1.0 -0.1731069646
C  C91  1  0.31524000  0.00000000  0.87613000  1.0 -0.1731069646
C  C92  1  0.68476000  0.00000000  0.87613000  1.0 -0.1731069646
C  C93  1  0.00000000  0.12387000  0.31524000  1.0 -0.1731069646
C  C94  1  0.00000000  0.87613000  0.68476000  1.0 -0.1731069646
C  C95  1  0.12387000  0.68476000  0.00000000  1.0 -0.1731069646
C  C96  1  0.87613000  0.68476000  0.00000000  1.0 -0.1731069646
C  C97  1  0.00000000  0.33390000  0.20958000  1.0 0.0878617337
C  C98  1  0.66610000  0.00000000  0.20958000  1.0 0.0878617337
C  C99  1  0.00000000  0.66610000  0.20958000  1.0 0.0878617337
C  C100  1  0.33390000  0.00000000  0.20958000  1.0 0.0878617337
C  C101  1  0.00000000  0.79042000  0.33390000  1.0 0.0878617337
C  C102  1  0.00000000  0.66610000  0.79042000  1.0 0.0878617337
C  C103  1  0.00000000  0.20958000  0.66610000  1.0 0.0878617337
C  C104  1  0.20958000  0.33390000  0.00000000  1.0 0.0878617337
C  C105  1  0.00000000  0.33390000  0.79042000  1.0 0.0878617337
C  C106  1  0.79042000  0.33390000  0.00000000  1.0 0.0878617337
C  C107  1  0.20958000  0.00000000  0.33390000  1.0 0.0878617337
C  C108  1  0.33390000  0.20958000  0.00000000  1.0 0.0878617337
C  C109  1  0.66610000  0.79042000  0.00000000  1.0 0.0878617337
C  C110  1  0.20958000  0.00000000  0.66610000  1.0 0.0878617337
C  C111  1  0.66610000  0.20958000  0.00000000  1.0 0.0878617337
C  C112  1  0.79042000  0.00000000  0.33390000  1.0 0.0878617337
C  C113  1  0.79042000  0.00000000  0.66610000  1.0 0.0878617337
C  C114  1  0.33390000  0.79042000  0.00000000  1.0 0.0878617337
C  C115  1  0.33390000  0.00000000  0.79042000  1.0 0.0878617337
C  C116  1  0.66610000  0.00000000  0.79042000  1.0 0.0878617337
C  C117  1  0.00000000  0.20958000  0.33390000  1.0 0.0878617337
C  C118  1  0.00000000  0.79042000  0.66610000  1.0 0.0878617337
C  C119  1  0.20958000  0.66610000  0.00000000  1.0 0.0878617337
C  C120  1  0.79042000  0.66610000  0.00000000  1.0 0.0878617337
C  C121  1  0.00000000  0.28360000  0.15730000  1.0 0.0744783868
C  C122  1  0.71640000  0.00000000  0.15730000  1.0 0.0792933269
C  C123  1  0.00000000  0.71640000  0.15730000  1.0 0.0744783868
C  C124  1  0.28360000  0.00000000  0.15730000  1.0 0.0744783868
C  C125  1  0.00000000  0.84270000  0.28360000  1.0 0.0744783868
C  C126  1  0.00000000  0.71640000  0.84270000  1.0 0.0744783868
C  C127  1  0.00000000  0.15730000  0.71640000  1.0 0.0744783868
C  C128  1  0.15730000  0.28360000  0.00000000  1.0 0.0744783868
C  C129  1  0.00000000  0.28360000  0.84270000  1.0 0.0744783868
C  C130  1  0.84270000  0.28360000  0.00000000  1.0 0.0744783868
C  C131  1  0.15730000  0.00000000  0.28360000  1.0 0.0744783868
C  C132  1  0.28360000  0.15730000  0.00000000  1.0 0.0744783868
C  C133  1  0.71640000  0.84270000  0.00000000  1.0 0.0744783868
C  C134  1  0.15730000  0.00000000  0.71640000  1.0 0.0744783868
C  C135  1  0.71640000  0.15730000  0.00000000  1.0 0.0792933269
C  C136  1  0.84270000  0.00000000  0.28360000  1.0 0.0744783868
C  C137  1  0.84270000  0.00000000  0.71640000  1.0 0.0744783868
C  C138  1  0.28360000  0.84270000  0.00000000  1.0 0.0744783868
C  C139  1  0.28360000  0.00000000  0.84270000  1.0 0.0744783868
C  C140  1  0.71640000  0.00000000  0.84270000  1.0 0.0744783868
C  C141  1  0.00000000  0.15730000  0.28360000  1.0 0.0744783868
C  C142  1  0.00000000  0.84270000  0.71640000  1.0 0.0744783868
C  C143  1  0.15730000  0.71640000  0.00000000  1.0 0.0744783868
C  C144  1  0.84270000  0.71640000  0.00000000  1.0 0.0744783868
N  N1  1  0.00000000  0.29253000  0.19898000  1.0 -0.2293832767
N  N2  1  0.70747000  0.00000000  0.19898000  1.0 -0.2293832767
N  N3  1  0.00000000  0.70747000  0.19898000  1.0 -0.2293832767
N  N4  1  0.29253000  0.00000000  0.19898000  1.0 -0.2293832767
N  N5  1  0.00000000  0.80102000  0.29253000  1.0 -0.2293832767
N  N6  1  0.00000000  0.70747000  0.80102000  1.0 -0.2293832767
N  N7  1  0.00000000  0.19898000  0.70747000  1.0 -0.2293832767
N  N8  1  0.19898000  0.29253000  0.00000000  1.0 -0.2293832767
N  N9  1  0.00000000  0.29253000  0.80102000  1.0 -0.2293832767
N  N10  1  0.80102000  0.29253000  0.00000000  1.0 -0.2293832767
N  N11  1  0.19898000  0.00000000  0.29253000  1.0 -0.2293832767
N  N12  1  0.29253000  0.19898000  0.00000000  1.0 -0.2293832767
N  N13  1  0.70747000  0.80102000  0.00000000  1.0 -0.2293832767
N  N14  1  0.19898000  0.00000000  0.70747000  1.0 -0.2293832767
N  N15  1  0.70747000  0.19898000  0.00000000  1.0 -0.2293832767
N  N16  1  0.80102000  0.00000000  0.29253000  1.0 -0.2293832767
N  N17  1  0.80102000  0.00000000  0.70747000  1.0 -0.2293832767
N  N18  1  0.29253000  0.80102000  0.00000000  1.0 -0.2293832767
N  N19  1  0.29253000  0.00000000  0.80102000  1.0 -0.2293832767
N  N20  1  0.70747000  0.00000000  0.80102000  1.0 -0.2293832767
N  N21  1  0.00000000  0.19898000  0.29253000  1.0 -0.2293832767
N  N22  1  0.00000000  0.80102000  0.70747000  1.0 -0.2293832767
N  N23  1  0.19898000  0.70747000  0.00000000  1.0 -0.2293832767
N  N24  1  0.80102000  0.70747000  0.00000000  1.0 -0.2293832767
O  O1  1  0.00000000  0.43271000  0.11494000  1.0 -0.6027155975
O  O2  1  0.56729000  0.00000000  0.11494000  1.0 -0.6027155975
O  O3  1  0.00000000  0.56729000  0.11494000  1.0 -0.6027155975
O  O4  1  0.43271000  0.00000000  0.11494000  1.0 -0.6027155975
O  O5  1  0.00000000  0.88506000  0.43271000  1.0 -0.6051906365
O  O6  1  0.00000000  0.56729000  0.88506000  1.0 -0.6051906365
O  O7  1  0.00000000  0.11494000  0.56729000  1.0 -0.6027155975
O  O8  1  0.11494000  0.43271000  0.00000000  1.0 -0.6027155975
O  O9  1  0.00000000  0.43271000  0.88506000  1.0 -0.6051906365
O  O10  1  0.88506000  0.43271000  0.00000000  1.0 -0.6027155975
O  O11  1  0.11494000  0.00000000  0.43271000  1.0 -0.6027155975
O  O12  1  0.43271000  0.11494000  0.00000000  1.0 -0.6027155975
O  O13  1  0.56729000  0.88506000  0.00000000  1.0 -0.6027155975
O  O14  1  0.11494000  0.00000000  0.56729000  1.0 -0.6027155975
O  O15  1  0.56729000  0.11494000  0.00000000  1.0 -0.6027155975
O  O16  1  0.88506000  0.00000000  0.43271000  1.0 -0.6027155975
O  O17  1  0.88506000  0.00000000  0.56729000  1.0 -0.6027155975
O  O18  1  0.43271000  0.88506000  0.00000000  1.0 -0.6027155975
O  O19  1  0.43271000  0.00000000  0.88506000  1.0 -0.6051906365
O  O20  1  0.56729000  0.00000000  0.88506000  1.0 -0.6027155975
O  O21  1  0.00000000  0.11494000  0.43271000  1.0 -0.6027155975
O  O22  1  0.00000000  0.88506000  0.56729000  1.0 -0.6051906365
O  O23  1  0.11494000  0.56729000  0.00000000  1.0 -0.6027155975
O  O24  1  0.88506000  0.56729000  0.00000000  1.0 -0.6027155975
O  O25  1  0.95891000  0.46123000  0.04109000  1.0 -1.1640329577
O  O26  1  0.53877000  0.95891000  0.04109000  1.0 -1.1651862678
O  O27  1  0.04109000  0.53877000  0.04109000  1.0 -1.1651862678
O  O28  1  0.46123000  0.04109000  0.04109000  1.0 -1.1640329577
O  O29  1  0.95891000  0.95891000  0.46123000  1.0 -1.1640329577
O  O30  1  0.95891000  0.53877000  0.95891000  1.0 -1.1640329577
O  O31  1  0.95891000  0.04109000  0.53877000  1.0 -1.1640329577
O  O32  1  0.04109000  0.46123000  0.04109000  1.0 -1.1651862678
O  O33  1  0.04109000  0.46123000  0.95891000  1.0 -1.1651862678
O  O34  1  0.95891000  0.46123000  0.95891000  1.0 -1.1640329577
O  O35  1  0.04109000  0.95891000  0.46123000  1.0 -1.1651862678
O  O36  1  0.46123000  0.04109000  0.95891000  1.0 -1.1651862678
O  O37  1  0.53877000  0.95891000  0.95891000  1.0 -1.1651862678
O  O38  1  0.04109000  0.04109000  0.53877000  1.0 -1.1640329577
O  O39  1  0.53877000  0.04109000  0.04109000  1.0 -1.1640329577
O  O40  1  0.95891000  0.04109000  0.46123000  1.0 -1.1640329577
O  O41  1  0.95891000  0.95891000  0.53877000  1.0 -1.1640329577
O  O42  1  0.46123000  0.95891000  0.04109000  1.0 -1.1651862678
O  O43  1  0.46123000  0.95891000  0.95891000  1.0 -1.1651862678
O  O44  1  0.53877000  0.04109000  0.95891000  1.0 -1.1651862678
O  O45  1  0.04109000  0.04109000  0.46123000  1.0 -1.1640329577
O  O46  1  0.04109000  0.95891000  0.53877000  1.0 -1.1651862678
O  O47  1  0.04109000  0.53877000  0.95891000  1.0 -1.1651862678
O  O48  1  0.95891000  0.53877000  0.04109000  1.0 -1.1640329577
O  O49  1  0.00000000  0.38142000  0.06214000  1.0 -0.584089126
O  O50  1  0.61858000  0.00000000  0.06214000  1.0 -0.584089126
O  O51  1  0.00000000  0.61858000  0.06214000  1.0 -0.584089126
O  O52  1  0.38142000  0.00000000  0.06214000  1.0 -0.584089126
O  O53  1  0.00000000  0.93786000  0.38142000  1.0 -0.584089126
O  O54  1  0.00000000  0.61858000  0.93786000  1.0 -0.5850196498
O  O55  1  0.00000000  0.06214000  0.61858000  1.0 -0.584089126
O  O56  1  0.06214000  0.38142000  0.00000000  1.0 -0.584089126
O  O57  1  0.00000000  0.38142000  0.93786000  1.0 -0.5850196498
O  O58  1  0.93786000  0.38142000  0.00000000  1.0 -0.584089126
O  O59  1  0.06214000  0.00000000  0.38142000  1.0 -0.584089126
O  O60  1  0.38142000  0.06214000  0.00000000  1.0 -0.584089126
O  O61  1  0.61858000  0.93786000  0.00000000  1.0 -0.584089126
O  O62  1  0.06214000  0.00000000  0.61858000  1.0 -0.584089126
O  O63  1  0.61858000  0.06214000  0.00000000  1.0 -0.584089126
O  O64  1  0.93786000  0.00000000  0.38142000  1.0 -0.584089126
O  O65  1  0.93786000  0.00000000  0.61858000  1.0 -0.584089126
O  O66  1  0.38142000  0.93786000  0.00000000  1.0 -0.584089126
O  O67  1  0.38142000  0.00000000  0.93786000  1.0 -0.5850196498
O  O68  1  0.61858000  0.00000000  0.93786000  1.0 -0.584089126
O  O69  1  0.00000000  0.06214000  0.38142000  1.0 -0.584089126
O  O70  1  0.00000000  0.93786000  0.61858000  1.0 -0.5850196498
O  O71  1  0.06214000  0.61858000  0.00000000  1.0 -0.584089126
O  O72  1  0.93786000  0.61858000  0.00000000  1.0 -0.584089126
