# DDEC6 charges by PACMAN v1.1 (https://github.com/mtap-research/PACMAN-charge/)
data_UFALIA_ASR_pacman
_symmetry_space_group_name_H-M   'P 1'
_cell_length_a   16.57300000
_cell_length_b   16.57300000
_cell_length_c   16.57300000
_cell_angle_alpha   68.39860000
_cell_angle_beta   68.39860000
_cell_angle_gamma   68.39860000
_symmetry_Int_Tables_number   1
_chemical_formula_structural   CuH11C20NO4
_chemical_formula_sum   'Cu6 H66 C120 N6 O24'
_cell_volume   3789.92797465
_cell_formula_units_Z   6
loop_
 _symmetry_equiv_pos_site_id
 _symmetry_equiv_pos_as_xyz
  1  'x, y, z'
loop_
 _atom_site_type_symbol
 _atom_site_label
 _atom_site_symmetry_multiplicity
 _atom_site_fract_x
 _atom_site_fract_y
 _atom_site_fract_z
 _atom_site_occupancy
 _atom_site_charge
Cu  Cu1  1  0.42354000  0.99490000  0.99477000  1.0 0.8756620952
Cu  Cu2  1  0.99490000  0.99477000  0.42354000  1.0 0.8756620952
Cu  Cu3  1  0.99477000  0.42354000  0.99490000  1.0 0.8756620952
Cu  Cu4  1  0.57646000  0.00510000  0.00523000  1.0 0.8756620952
Cu  Cu5  1  0.00510000  0.00523000  0.57646000  1.0 0.8756620952
Cu  Cu6  1  0.00523000  0.57646000  0.00510000  1.0 0.8756620952
H  H1  1  0.50471000  0.28798000  0.97611000  1.0 0.1496577638
H  H2  1  0.28798000  0.97611000  0.50471000  1.0 0.1496577638
H  H3  1  0.97611000  0.50471000  0.28798000  1.0 0.1496577638
H  H4  1  0.49529000  0.71202000  0.02389000  1.0 0.1496577638
H  H5  1  0.71202000  0.02389000  0.49529000  1.0 0.1496577638
H  H6  1  0.02389000  0.49529000  0.71202000  1.0 0.1496577638
H  H7  1  0.27214000  0.27175000  0.96784000  1.0 0.1496577638
H  H8  1  0.27175000  0.96784000  0.27214000  1.0 0.1496577638
H  H9  1  0.96784000  0.27214000  0.27175000  1.0 0.1496577638
H  H10  1  0.72786000  0.72825000  0.03216000  1.0 0.1496577638
H  H11  1  0.72825000  0.03216000  0.72786000  1.0 0.1496577638
H  H12  1  0.03216000  0.72786000  0.72825000  1.0 0.1496577638
H  H13  1  0.28659000  0.50549000  0.97752000  1.0 0.1496577638
H  H14  1  0.50549000  0.97752000  0.28659000  1.0 0.1496577638
H  H15  1  0.97752000  0.28659000  0.50549000  1.0 0.1496577638
H  H16  1  0.71341000  0.49451000  0.02248000  1.0 0.1496577638
H  H17  1  0.49451000  0.02248000  0.71341000  1.0 0.1496577638
H  H18  1  0.02248000  0.71341000  0.49451000  1.0 0.1496577638
H  H19  1  0.33141000  0.40551000  0.14521000  1.0 0.0924021369
H  H20  1  0.40551000  0.14521000  0.33141000  1.0 0.0924021369
H  H21  1  0.14521000  0.33141000  0.40551000  1.0 0.0924021369
H  H22  1  0.66859000  0.59449000  0.85479000  1.0 0.0924021369
H  H23  1  0.59449000  0.85479000  0.66859000  1.0 0.0924021369
H  H24  1  0.85479000  0.66859000  0.59449000  1.0 0.0924021369
H  H25  1  0.30123000  0.43290000  0.27959000  1.0 0.1171993011
H  H26  1  0.43290000  0.27959000  0.30123000  1.0 0.1171993011
H  H27  1  0.27959000  0.30123000  0.43290000  1.0 0.1171993011
H  H28  1  0.69877000  0.56710000  0.72041000  1.0 0.1171993011
H  H29  1  0.56710000  0.72041000  0.69877000  1.0 0.1171993011
H  H30  1  0.72041000  0.69877000  0.56710000  1.0 0.1171993011
H  H31  1  0.38887000  0.50783000  0.30338000  1.0 0.0969634833
H  H32  1  0.50783000  0.30338000  0.38887000  1.0 0.0969634833
H  H33  1  0.30338000  0.38887000  0.50783000  1.0 0.0969634833
H  H34  1  0.61113000  0.49217000  0.69662000  1.0 0.0969634833
H  H35  1  0.49217000  0.69662000  0.61113000  1.0 0.0969634833
H  H36  1  0.69662000  0.61113000  0.49217000  1.0 0.0969634833
H  H37  1  0.49786000  0.43054000  0.83375000  1.0 0.0924021369
H  H38  1  0.43054000  0.83375000  0.49786000  1.0 0.0924021369
H  H39  1  0.83375000  0.49786000  0.43054000  1.0 0.0924021369
H  H40  1  0.50214000  0.56946000  0.16625000  1.0 0.0924021369
H  H41  1  0.56946000  0.16625000  0.50214000  1.0 0.0924021369
H  H42  1  0.16625000  0.50214000  0.56946000  1.0 0.0924021369
H  H43  1  0.40320000  0.33445000  0.14374000  1.0 0.0924021369
H  H44  1  0.33445000  0.14374000  0.40320000  1.0 0.0924021369
H  H45  1  0.14374000  0.40320000  0.33445000  1.0 0.0924021369
H  H46  1  0.59680000  0.66555000  0.85626000  1.0 0.0924021369
H  H47  1  0.66555000  0.85626000  0.59680000  1.0 0.0924021369
H  H48  1  0.85626000  0.59680000  0.66555000  1.0 0.0924021369
H  H49  1  0.44414000  0.28985000  0.27613000  1.0 0.1171993011
H  H50  1  0.28985000  0.27613000  0.44414000  1.0 0.1171993011
H  H51  1  0.27613000  0.44414000  0.28985000  1.0 0.1171993011
H  H52  1  0.55586000  0.71015000  0.72387000  1.0 0.1171993011
H  H53  1  0.71015000  0.72387000  0.55586000  1.0 0.1171993011
H  H54  1  0.72387000  0.55586000  0.71015000  1.0 0.1171993011
H  H55  1  0.49136000  0.61401000  0.69617000  1.0 0.0969634833
H  H56  1  0.61401000  0.69617000  0.49136000  1.0 0.0969634833
H  H57  1  0.69617000  0.49136000  0.61401000  1.0 0.0969634833
H  H58  1  0.50864000  0.38599000  0.30383000  1.0 0.0969634833
H  H59  1  0.38599000  0.30383000  0.50864000  1.0 0.0969634833
H  H60  1  0.30383000  0.50864000  0.38599000  1.0 0.0969634833
H  H61  1  0.43102000  0.49627000  0.83670000  1.0 0.0924021369
H  H62  1  0.49627000  0.83670000  0.43102000  1.0 0.0924021369
H  H63  1  0.83670000  0.43102000  0.49627000  1.0 0.0924021369
H  H64  1  0.56898000  0.50373000  0.16330000  1.0 0.0924021369
H  H65  1  0.50373000  0.16330000  0.56898000  1.0 0.0924021369
H  H66  1  0.16330000  0.56898000  0.50373000  1.0 0.0924021369
C  C1  1  0.43469000  0.16639000  0.97989000  1.0 0.5844981658
C  C2  1  0.16639000  0.97989000  0.43469000  1.0 0.5857621798
C  C3  1  0.97989000  0.43469000  0.16639000  1.0 0.5844981658
C  C4  1  0.56531000  0.83361000  0.02011000  1.0 0.5844981658
C  C5  1  0.83361000  0.02011000  0.56531000  1.0 0.5844981658
C  C6  1  0.02011000  0.56531000  0.83361000  1.0 0.5844981658
C  C7  1  0.39502000  0.26532000  0.97562000  1.0 0.0023526772
C  C8  1  0.26532000  0.97562000  0.39502000  1.0 0.0023526772
C  C9  1  0.97562000  0.39502000  0.26532000  1.0 0.0023526772
C  C10  1  0.60498000  0.73468000  0.02438000  1.0 0.0023526772
C  C11  1  0.73468000  0.02438000  0.60498000  1.0 0.0023526772
C  C12  1  0.02438000  0.60498000  0.73468000  1.0 0.0023526772
C  C13  1  0.44276000  0.31476000  0.97816000  1.0 -0.1791250886
C  C14  1  0.31476000  0.97816000  0.44276000  1.0 -0.1791250886
C  C15  1  0.97816000  0.44276000  0.31476000  1.0 -0.1791250886
C  C16  1  0.55724000  0.68524000  0.02184000  1.0 -0.1791250886
C  C17  1  0.68524000  0.02184000  0.55724000  1.0 -0.1791250886
C  C18  1  0.02184000  0.55724000  0.68524000  1.0 -0.1791250886
C  C19  1  0.30571000  0.30511000  0.97201000  1.0 -0.1402586829
C  C20  1  0.30511000  0.97201000  0.30571000  1.0 -0.1402586829
C  C21  1  0.97201000  0.30571000  0.30511000  1.0 -0.1402586829
C  C22  1  0.69429000  0.69489000  0.02799000  1.0 -0.1402586829
C  C23  1  0.69489000  0.02799000  0.69429000  1.0 -0.1402586829
C  C24  1  0.02799000  0.69429000  0.69489000  1.0 -0.1402586829
C  C25  1  0.40380000  0.40520000  0.98380000  1.0 0.0323254252
C  C26  1  0.40520000  0.98380000  0.40380000  1.0 0.0323254252
C  C27  1  0.98380000  0.40380000  0.40520000  1.0 0.0323254252
C  C28  1  0.59620000  0.59480000  0.01620000  1.0 0.0323254252
C  C29  1  0.59480000  0.01620000  0.59620000  1.0 0.0396944161
C  C30  1  0.01620000  0.59620000  0.59480000  1.0 0.0323254252
C  C31  1  0.26589000  0.39549000  0.97479000  1.0 0.0023526772
C  C32  1  0.39549000  0.97479000  0.26589000  1.0 0.0023526772
C  C33  1  0.97479000  0.26589000  0.39549000  1.0 0.0023526772
C  C34  1  0.73411000  0.60451000  0.02521000  1.0 0.0023526772
C  C35  1  0.60451000  0.02521000  0.73411000  1.0 0.0023526772
C  C36  1  0.02521000  0.73411000  0.60451000  1.0 0.0023526772
C  C37  1  0.31408000  0.44378000  0.97848000  1.0 -0.1791250886
C  C38  1  0.44378000  0.97848000  0.31408000  1.0 -0.1791250886
C  C39  1  0.97848000  0.31408000  0.44378000  1.0 -0.1791250886
C  C40  1  0.68592000  0.55622000  0.02152000  1.0 -0.1791250886
C  C41  1  0.55622000  0.02152000  0.68592000  1.0 -0.1791250886
C  C42  1  0.02152000  0.68592000  0.55622000  1.0 -0.1791250886
C  C43  1  0.16651000  0.43451000  0.98001000  1.0 0.5844981658
C  C44  1  0.43451000  0.98001000  0.16651000  1.0 0.5844981658
C  C45  1  0.98001000  0.16651000  0.43451000  1.0 0.5844981658
C  C46  1  0.83349000  0.56549000  0.01999000  1.0 0.5844981658
C  C47  1  0.56549000  0.01999000  0.83349000  1.0 0.5844981658
C  C48  1  0.01999000  0.83349000  0.56549000  1.0 0.5844981658
C  C49  1  0.43610000  0.46580000  0.07240000  1.0 0.0692730726
C  C50  1  0.46580000  0.07240000  0.43610000  1.0 0.0692730726
C  C51  1  0.07240000  0.43610000  0.46580000  1.0 0.0692730726
C  C52  1  0.56390000  0.53420000  0.92760000  1.0 0.0692730726
C  C53  1  0.53420000  0.92760000  0.56390000  1.0 0.0692730726
C  C54  1  0.92760000  0.56390000  0.53420000  1.0 0.0692730726
C  C55  1  0.36640000  0.43680000  0.15040000  1.0 -0.0881261832
C  C56  1  0.43680000  0.15040000  0.36640000  1.0 -0.0881261832
C  C57  1  0.15040000  0.36640000  0.43680000  1.0 -0.0881261832
C  C58  1  0.63360000  0.56320000  0.84960000  1.0 -0.0881261832
C  C59  1  0.56320000  0.84960000  0.63360000  1.0 -0.0881261832
C  C60  1  0.84960000  0.63360000  0.56320000  1.0 -0.0881261832
C  C61  1  0.34880000  0.45250000  0.23120000  1.0 -0.2130161654
C  C62  1  0.45250000  0.23120000  0.34880000  1.0 -0.2130161654
C  C63  1  0.23120000  0.34880000  0.45250000  1.0 -0.2130161654
C  C64  1  0.65120000  0.54750000  0.76880000  1.0 -0.2130161654
C  C65  1  0.54750000  0.76880000  0.65120000  1.0 -0.2130161654
C  C66  1  0.76880000  0.65120000  0.54750000  1.0 -0.2130161654
C  C67  1  0.40040000  0.49850000  0.24640000  1.0 -0.1302245936
C  C68  1  0.49850000  0.24640000  0.40040000  1.0 -0.1302245936
C  C69  1  0.24640000  0.40040000  0.49850000  1.0 -0.1302245936
C  C70  1  0.59960000  0.50150000  0.75360000  1.0 -0.1302245936
C  C71  1  0.50150000  0.75360000  0.59960000  1.0 -0.1302245936
C  C72  1  0.75360000  0.59960000  0.50150000  1.0 -0.1302245936
C  C73  1  0.52670000  0.46990000  0.83490000  1.0 -0.0484794844
C  C74  1  0.46990000  0.83490000  0.52670000  1.0 -0.0484794844
C  C75  1  0.83490000  0.52670000  0.46990000  1.0 -0.0484794844
C  C76  1  0.47330000  0.53010000  0.16510000  1.0 -0.0484794844
C  C77  1  0.53010000  0.16510000  0.47330000  1.0 -0.0484794844
C  C78  1  0.16510000  0.47330000  0.53010000  1.0 -0.0484794844
C  C79  1  0.50390000  0.49790000  0.90890000  1.0 0.0396944161
C  C80  1  0.49790000  0.90890000  0.50390000  1.0 0.0396944161
C  C81  1  0.90890000  0.50390000  0.49790000  1.0 0.0396944161
C  C82  1  0.49610000  0.50210000  0.09110000  1.0 0.0396944161
C  C83  1  0.50210000  0.09110000  0.49610000  1.0 0.0396944161
C  C84  1  0.09110000  0.49610000  0.50210000  1.0 0.0396944161
C  C85  1  0.46790000  0.43240000  0.07430000  1.0 0.0692730726
C  C86  1  0.43240000  0.07430000  0.46790000  1.0 0.0692730726
C  C87  1  0.07430000  0.46790000  0.43240000  1.0 0.0692730726
C  C88  1  0.53210000  0.56760000  0.92570000  1.0 0.0692730726
C  C89  1  0.56760000  0.92570000  0.53210000  1.0 0.0692730726
C  C90  1  0.92570000  0.53210000  0.56760000  1.0 0.0692730726
C  C91  1  0.43850000  0.36530000  0.14890000  1.0 -0.0881261832
C  C92  1  0.36530000  0.14890000  0.43850000  1.0 -0.0881261832
C  C93  1  0.14890000  0.43850000  0.36530000  1.0 -0.0881261832
C  C94  1  0.56150000  0.63470000  0.85110000  1.0 -0.0881261832
C  C95  1  0.63470000  0.85110000  0.56150000  1.0 -0.0881261832
C  C96  1  0.85110000  0.56150000  0.63470000  1.0 -0.0881261832
C  C97  1  0.45820000  0.34150000  0.23040000  1.0 -0.2253088088
C  C98  1  0.34150000  0.23040000  0.45820000  1.0 -0.2253088088
C  C99  1  0.23040000  0.45820000  0.34150000  1.0 -0.2253088088
C  C100  1  0.54180000  0.65850000  0.76960000  1.0 -0.2253088088
C  C101  1  0.65850000  0.76960000  0.54180000  1.0 -0.2253088088
C  C102  1  0.76960000  0.54180000  0.65850000  1.0 -0.2253088088
C  C103  1  0.49920000  0.60410000  0.75340000  1.0 -0.116276795
C  C104  1  0.60410000  0.75340000  0.49920000  1.0 -0.116276795
C  C105  1  0.75340000  0.49920000  0.60410000  1.0 -0.116276795
C  C106  1  0.50080000  0.39590000  0.24660000  1.0 -0.116276795
C  C107  1  0.39590000  0.24660000  0.50080000  1.0 -0.116276795
C  C108  1  0.24660000  0.50080000  0.39590000  1.0 -0.116276795
C  C109  1  0.46760000  0.52790000  0.83870000  1.0 -0.038075154
C  C110  1  0.52790000  0.83870000  0.46760000  1.0 -0.038075154
C  C111  1  0.83870000  0.46760000  0.52790000  1.0 -0.038075154
C  C112  1  0.53240000  0.47210000  0.16130000  1.0 -0.038075154
C  C113  1  0.47210000  0.16130000  0.53240000  1.0 -0.038075154
C  C114  1  0.16130000  0.53240000  0.47210000  1.0 -0.038075154
C  C115  1  0.49670000  0.50370000  0.92770000  1.0 0.0396944161
C  C116  1  0.50370000  0.92770000  0.49670000  1.0 0.0396944161
C  C117  1  0.92770000  0.49670000  0.50370000  1.0 0.0396944161
C  C118  1  0.50330000  0.49630000  0.07230000  1.0 0.0396944161
C  C119  1  0.49630000  0.07230000  0.50330000  1.0 0.0396944161
C  C120  1  0.07230000  0.50330000  0.49630000  1.0 0.0396944161
N  N1  1  0.45090000  0.45060000  0.99150000  1.0 -0.0182681559
N  N2  1  0.45060000  0.99150000  0.45090000  1.0 -0.0182681559
N  N3  1  0.99150000  0.45090000  0.45060000  1.0 -0.0182681559
N  N4  1  0.54910000  0.54940000  0.00850000  1.0 -0.0182681559
N  N5  1  0.54940000  0.00850000  0.54910000  1.0 -0.0182681559
N  N6  1  0.00850000  0.54910000  0.54940000  1.0 -0.0182681559
O  O1  1  0.38608000  0.12468000  0.97808000  1.0 -0.5095980447
O  O2  1  0.12468000  0.97808000  0.38608000  1.0 -0.5095980447
O  O3  1  0.97808000  0.38608000  0.12468000  1.0 -0.5095980447
O  O4  1  0.61392000  0.87532000  0.02192000  1.0 -0.5095980447
O  O5  1  0.87532000  0.02192000  0.61392000  1.0 -0.5095980447
O  O6  1  0.02192000  0.61392000  0.87532000  1.0 -0.5095980447
O  O7  1  0.51587000  0.13447000  0.98487000  1.0 -0.5321819763
O  O8  1  0.13447000  0.98487000  0.51587000  1.0 -0.5321819763
O  O9  1  0.98487000  0.51587000  0.13447000  1.0 -0.5321819763
O  O10  1  0.48413000  0.86553000  0.01513000  1.0 -0.5321819763
O  O11  1  0.86553000  0.01513000  0.48413000  1.0 -0.5321819763
O  O12  1  0.01513000  0.48413000  0.86553000  1.0 -0.5321819763
O  O13  1  0.12546000  0.38636000  0.97726000  1.0 -0.5095980447
O  O14  1  0.38636000  0.97726000  0.12546000  1.0 -0.5095980447
O  O15  1  0.97726000  0.12546000  0.38636000  1.0 -0.5095980447
O  O16  1  0.87454000  0.61364000  0.02274000  1.0 -0.5095980447
O  O17  1  0.61364000  0.02274000  0.87454000  1.0 -0.5095980447
O  O18  1  0.02274000  0.87454000  0.61364000  1.0 -0.5095980447
O  O19  1  0.13359000  0.51509000  0.98629000  1.0 -0.5321819763
O  O20  1  0.51509000  0.98629000  0.13359000  1.0 -0.5321819763
O  O21  1  0.98629000  0.13359000  0.51509000  1.0 -0.5321819763
O  O22  1  0.86641000  0.48491000  0.01371000  1.0 -0.5321819763
O  O23  1  0.48491000  0.01371000  0.86641000  1.0 -0.5321819763
O  O24  1  0.01371000  0.86641000  0.48491000  1.0 -0.5321819763
