# DDEC6 charges by PACMAN v1.1 (https://github.com/mtap-research/PACMAN-charge/)
data_UFALOG_ASR_pacman
_symmetry_space_group_name_H-M   'P 1'
_cell_length_a   16.59610000
_cell_length_b   16.59610000
_cell_length_c   16.59610000
_cell_angle_alpha   68.59930000
_cell_angle_beta   68.59930000
_cell_angle_gamma   68.59930000
_symmetry_Int_Tables_number   1
_chemical_formula_structural   CuH15C14NO4
_chemical_formula_sum   'Cu6 H90 C84 N6 O24'
_cell_volume   3818.24078394
_cell_formula_units_Z   6
loop_
 _symmetry_equiv_pos_site_id
 _symmetry_equiv_pos_as_xyz
  1  'x, y, z'
loop_
 _atom_site_type_symbol
 _atom_site_label
 _atom_site_symmetry_multiplicity
 _atom_site_fract_x
 _atom_site_fract_y
 _atom_site_fract_z
 _atom_site_occupancy
 _atom_site_charge
Cu  Cu1  1  0.49438000  0.49435000  0.92521000  1.0 0.8666969694
Cu  Cu2  1  0.49435000  0.92521000  0.49438000  1.0 0.8666969694
Cu  Cu3  1  0.92521000  0.49438000  0.49435000  1.0 0.8666969694
Cu  Cu4  1  0.50562000  0.50565000  0.07479000  1.0 0.8666969694
Cu  Cu5  1  0.50565000  0.07479000  0.50562000  1.0 0.8666969694
Cu  Cu6  1  0.07479000  0.50562000  0.50565000  1.0 0.8666969694
H  H1  1  0.52959000  0.23094000  0.23109000  1.0 0.1459707477
H  H2  1  0.23094000  0.23109000  0.52959000  1.0 0.1459707477
H  H3  1  0.23109000  0.52959000  0.23094000  1.0 0.1459707477
H  H4  1  0.47041000  0.76906000  0.76891000  1.0 0.1459707477
H  H5  1  0.76906000  0.76891000  0.47041000  1.0 0.1459707477
H  H6  1  0.76891000  0.47041000  0.76906000  1.0 0.1459707477
H  H7  1  0.51421000  0.99963000  0.21540000  1.0 0.1286474958
H  H8  1  0.99963000  0.21540000  0.51421000  1.0 0.1286474958
H  H9  1  0.21540000  0.51421000  0.99963000  1.0 0.1286474958
H  H10  1  0.48579000  0.00037000  0.78460000  1.0 0.1286474958
H  H11  1  0.00037000  0.78460000  0.48579000  1.0 0.1286474958
H  H12  1  0.78460000  0.48579000  0.00037000  1.0 0.1286474958
H  H13  1  0.51461000  0.21547000  0.99940000  1.0 0.1286474958
H  H14  1  0.21547000  0.99940000  0.51461000  1.0 0.1286474958
H  H15  1  0.99940000  0.51461000  0.21547000  1.0 0.1286474958
H  H16  1  0.48539000  0.78453000  0.00060000  1.0 0.1286474958
H  H17  1  0.78453000  0.00060000  0.48539000  1.0 0.1286474958
H  H18  1  0.00060000  0.48539000  0.78453000  1.0 0.1286474958
H  H19  1  0.54277000  0.13370000  0.92698000  1.0 0.0731051423
H  H20  1  0.13370000  0.92698000  0.54277000  1.0 0.0731051423
H  H21  1  0.92698000  0.54277000  0.13370000  1.0 0.0731051423
H  H22  1  0.45723000  0.86630000  0.07302000  1.0 0.0731051423
H  H23  1  0.86630000  0.07302000  0.45723000  1.0 0.0731051423
H  H24  1  0.07302000  0.45723000  0.86630000  1.0 0.0731051423
H  H25  1  0.53586000  0.92196000  0.11130000  1.0 0.0876963271
H  H26  1  0.92196000  0.11130000  0.53586000  1.0 0.0876963271
H  H27  1  0.11130000  0.53586000  0.92196000  1.0 0.0876963271
H  H28  1  0.46414000  0.07804000  0.88870000  1.0 0.0876963271
H  H29  1  0.07804000  0.88870000  0.46414000  1.0 0.0876963271
H  H30  1  0.88870000  0.46414000  0.07804000  1.0 0.0876963271
H  H31  1  0.43427000  0.97254000  0.15095000  1.0 0.0797805208
H  H32  1  0.97254000  0.15095000  0.43427000  1.0 0.0797805208
H  H33  1  0.15095000  0.43427000  0.97254000  1.0 0.0797805208
H  H34  1  0.56573000  0.02746000  0.84905000  1.0 0.0797805208
H  H35  1  0.02746000  0.84905000  0.56573000  1.0 0.0797805208
H  H36  1  0.84905000  0.56573000  0.02746000  1.0 0.0797805208
H  H37  1  0.65534000  0.95253000  0.94836000  1.0 0.1094319429
H  H38  1  0.95253000  0.94836000  0.65534000  1.0 0.1094319429
H  H39  1  0.94836000  0.65534000  0.95253000  1.0 0.1094319429
H  H40  1  0.34466000  0.04747000  0.05164000  1.0 0.1094319429
H  H41  1  0.04747000  0.05164000  0.34466000  1.0 0.1094319429
H  H42  1  0.05164000  0.34466000  0.04747000  1.0 0.1094319429
H  H43  1  0.68642000  0.04293000  0.89531000  1.0 0.0797805208
H  H44  1  0.04293000  0.89531000  0.68642000  1.0 0.0797805208
H  H45  1  0.89531000  0.68642000  0.04293000  1.0 0.0797805208
H  H46  1  0.31358000  0.95707000  0.10469000  1.0 0.0797805208
H  H47  1  0.95707000  0.10469000  0.31358000  1.0 0.0797805208
H  H48  1  0.10469000  0.31358000  0.95707000  1.0 0.0797805208
H  H49  1  0.66242000  0.01089000  0.00266000  1.0 0.1094319429
H  H50  1  0.01089000  0.00266000  0.66242000  1.0 0.1094319429
H  H51  1  0.00266000  0.66242000  0.01089000  1.0 0.1094319429
H  H52  1  0.33758000  0.98911000  0.99734000  1.0 0.1094319429
H  H53  1  0.98911000  0.99734000  0.33758000  1.0 0.1094319429
H  H54  1  0.99734000  0.33758000  0.98911000  1.0 0.1094319429
H  H55  1  0.43488000  0.15122000  0.97190000  1.0 0.0797805208
H  H56  1  0.15122000  0.97190000  0.43488000  1.0 0.0797805208
H  H57  1  0.97190000  0.43488000  0.15122000  1.0 0.0797805208
H  H58  1  0.56512000  0.84878000  0.02810000  1.0 0.0797805208
H  H59  1  0.84878000  0.02810000  0.56512000  1.0 0.0797805208
H  H60  1  0.02810000  0.56512000  0.84878000  1.0 0.0797805208
H  H61  1  0.53620000  0.11033000  0.92155000  1.0 0.0797805208
H  H62  1  0.11033000  0.92155000  0.53620000  1.0 0.0797805208
H  H63  1  0.92155000  0.53620000  0.11033000  1.0 0.0797805208
H  H64  1  0.46380000  0.88967000  0.07845000  1.0 0.0797805208
H  H65  1  0.88967000  0.07845000  0.46380000  1.0 0.0797805208
H  H66  1  0.07845000  0.46380000  0.88967000  1.0 0.0797805208
H  H67  1  0.34294000  0.05429000  0.04739000  1.0 0.1094319429
H  H68  1  0.05429000  0.04739000  0.34294000  1.0 0.1094319429
H  H69  1  0.04739000  0.34294000  0.05429000  1.0 0.1094319429
H  H70  1  0.65706000  0.94571000  0.95261000  1.0 0.1094319429
H  H71  1  0.94571000  0.95261000  0.65706000  1.0 0.1094319429
H  H72  1  0.95261000  0.65706000  0.94571000  1.0 0.1094319429
H  H73  1  0.31309000  0.10565000  0.95618000  1.0 0.0797805208
H  H74  1  0.10565000  0.95618000  0.31309000  1.0 0.0797805208
H  H75  1  0.95618000  0.31309000  0.10565000  1.0 0.0797805208
H  H76  1  0.68691000  0.89435000  0.04382000  1.0 0.0797805208
H  H77  1  0.89435000  0.04382000  0.68691000  1.0 0.0797805208
H  H78  1  0.04382000  0.68691000  0.89435000  1.0 0.0797805208
H  H79  1  0.33619000  0.99840000  0.99040000  1.0 0.1094319429
H  H80  1  0.99840000  0.99040000  0.33619000  1.0 0.1094319429
H  H81  1  0.99040000  0.33619000  0.99840000  1.0 0.1094319429
H  H82  1  0.66381000  0.00160000  0.00960000  1.0 0.1094319429
H  H83  1  0.00160000  0.00960000  0.66381000  1.0 0.1094319429
H  H84  1  0.00960000  0.66381000  0.00160000  1.0 0.1094319429
H  H85  1  0.45648000  0.07308000  0.86737000  1.0 0.0797805208
H  H86  1  0.07308000  0.86737000  0.45648000  1.0 0.0797805208
H  H87  1  0.86737000  0.45648000  0.07308000  1.0 0.0797805208
H  H88  1  0.54352000  0.92692000  0.13263000  1.0 0.0797805208
H  H89  1  0.92692000  0.13263000  0.54352000  1.0 0.0797805208
H  H90  1  0.13263000  0.54352000  0.92692000  1.0 0.0797805208
C  C1  1  0.51878000  0.06758000  0.33388000  1.0 0.5812873351
C  C2  1  0.06758000  0.33388000  0.51878000  1.0 0.5812873351
C  C3  1  0.33388000  0.51878000  0.06758000  1.0 0.5812873351
C  C4  1  0.48122000  0.93242000  0.66612000  1.0 0.5812873351
C  C5  1  0.93242000  0.66612000  0.48122000  1.0 0.5812873351
C  C6  1  0.66612000  0.48122000  0.93242000  1.0 0.5812873351
C  C7  1  0.52163000  0.23666000  0.10918000  1.0 -0.002035156
C  C8  1  0.23666000  0.10918000  0.52163000  1.0 -0.002035156
C  C9  1  0.10918000  0.52163000  0.23666000  1.0 -0.002035156
C  C10  1  0.47837000  0.76334000  0.89082000  1.0 -0.002035156
C  C11  1  0.76334000  0.89082000  0.47837000  1.0 -0.002035156
C  C12  1  0.89082000  0.47837000  0.76334000  1.0 -0.002035156
C  C13  1  0.52151000  0.10909000  0.23678000  1.0 -0.0052084288
C  C14  1  0.10909000  0.23678000  0.52151000  1.0 -0.0052084288
C  C15  1  0.23678000  0.52151000  0.10909000  1.0 -0.0052084288
C  C16  1  0.47849000  0.89091000  0.76322000  1.0 -0.0052084288
C  C17  1  0.89091000  0.76322000  0.47849000  1.0 -0.0052084288
C  C18  1  0.76322000  0.47849000  0.89091000  1.0 -0.0052084288
C  C19  1  0.51868000  0.33407000  0.06761000  1.0 0.5812873351
C  C20  1  0.33407000  0.06761000  0.51868000  1.0 0.5812873351
C  C21  1  0.06761000  0.51868000  0.33407000  1.0 0.5812873351
C  C22  1  0.48132000  0.66593000  0.93239000  1.0 0.5812873351
C  C23  1  0.66593000  0.93239000  0.48132000  1.0 0.5812873351
C  C24  1  0.93239000  0.48132000  0.66593000  1.0 0.5812873351
C  C25  1  0.52499000  0.19762000  0.19775000  1.0 -0.1284023516
C  C26  1  0.19762000  0.19775000  0.52499000  1.0 -0.1284023516
C  C27  1  0.19775000  0.52499000  0.19762000  1.0 -0.1284023516
C  C28  1  0.47501000  0.80238000  0.80225000  1.0 -0.1284023516
C  C29  1  0.80238000  0.80225000  0.47501000  1.0 -0.1284023516
C  C30  1  0.80225000  0.47501000  0.80238000  1.0 -0.1284023516
C  C31  1  0.51584000  0.06044000  0.18754000  1.0 -0.2542187117
C  C32  1  0.06044000  0.18754000  0.51584000  1.0 -0.2578279778
C  C33  1  0.18754000  0.51584000  0.06044000  1.0 -0.2542187117
C  C34  1  0.48416000  0.93956000  0.81246000  1.0 -0.2542187117
C  C35  1  0.93956000  0.81246000  0.48416000  1.0 -0.2542187117
C  C36  1  0.81246000  0.48416000  0.93956000  1.0 -0.2578279778
C  C37  1  0.51606000  0.18756000  0.06026000  1.0 -0.2578279778
C  C38  1  0.18756000  0.06026000  0.51606000  1.0 -0.2578279778
C  C39  1  0.06026000  0.51606000  0.18756000  1.0 -0.2578279778
C  C40  1  0.48394000  0.81244000  0.93974000  1.0 -0.2578279778
C  C41  1  0.81244000  0.93974000  0.48394000  1.0 -0.2578279778
C  C42  1  0.93974000  0.48394000  0.81244000  1.0 -0.2578279778
C  C43  1  0.51245000  0.09815000  0.09805000  1.0 0.1164949172
C  C44  1  0.09815000  0.09805000  0.51245000  1.0 0.1094319429
C  C45  1  0.09805000  0.51245000  0.09815000  1.0 0.1094319429
C  C46  1  0.48755000  0.90185000  0.90195000  1.0 0.1094319429
C  C47  1  0.90185000  0.90195000  0.48755000  1.0 0.1094319429
C  C48  1  0.90195000  0.48755000  0.90185000  1.0 0.1164949172
C  C49  1  0.54760000  0.06810000  0.95480000  1.0 -0.0200371896
C  C50  1  0.06810000  0.95480000  0.54760000  1.0 -0.0200371896
C  C51  1  0.95480000  0.54760000  0.06810000  1.0 -0.0200371896
C  C52  1  0.45240000  0.93190000  0.04520000  1.0 -0.0200371896
C  C53  1  0.93190000  0.04520000  0.45240000  1.0 -0.0200371896
C  C54  1  0.04520000  0.45240000  0.93190000  1.0 -0.0200371896
C  C55  1  0.48180000  0.96690000  0.09450000  1.0 -0.0882359139
C  C56  1  0.96690000  0.09450000  0.48180000  1.0 -0.0882359139
C  C57  1  0.09450000  0.48180000  0.96690000  1.0 -0.0882359139
C  C58  1  0.51820000  0.03310000  0.90550000  1.0 -0.0882359139
C  C59  1  0.03310000  0.90550000  0.51820000  1.0 -0.0882359139
C  C60  1  0.90550000  0.51820000  0.03310000  1.0 -0.0882359139
C  C61  1  0.64720000  0.01360000  0.94990000  1.0 -0.2801750543
C  C62  1  0.01360000  0.94990000  0.64720000  1.0 -0.2801750543
C  C63  1  0.94990000  0.64720000  0.01360000  1.0 -0.2801750543
C  C64  1  0.35280000  0.98640000  0.05010000  1.0 -0.2801750543
C  C65  1  0.98640000  0.05010000  0.35280000  1.0 -0.2801750543
C  C66  1  0.05010000  0.35280000  0.98640000  1.0 -0.2801750543
C  C67  1  0.48190000  0.09430000  0.96670000  1.0 -0.0843791075
C  C68  1  0.09430000  0.96670000  0.48190000  1.0 -0.0882359139
C  C69  1  0.96670000  0.48190000  0.09430000  1.0 -0.0843791075
C  C70  1  0.51810000  0.90570000  0.03330000  1.0 -0.0843791075
C  C71  1  0.90570000  0.03330000  0.51810000  1.0 -0.0843791075
C  C72  1  0.03330000  0.51810000  0.90570000  1.0 -0.0843791075
C  C73  1  0.35170000  0.05150000  0.98670000  1.0 -0.2801750543
C  C74  1  0.05150000  0.98670000  0.35170000  1.0 -0.2801750543
C  C75  1  0.98670000  0.35170000  0.05150000  1.0 -0.2801750543
C  C76  1  0.64830000  0.94850000  0.01330000  1.0 -0.2801750543
C  C77  1  0.94850000  0.01330000  0.64830000  1.0 -0.2801750543
C  C78  1  0.01330000  0.64830000  0.94850000  1.0 -0.2801750543
C  C79  1  0.45170000  0.04520000  0.93290000  1.0 -0.0200371896
C  C80  1  0.04520000  0.93290000  0.45170000  1.0 -0.0200371896
C  C81  1  0.93290000  0.45170000  0.04520000  1.0 -0.0200371896
C  C82  1  0.54830000  0.95480000  0.06710000  1.0 -0.0200371896
C  C83  1  0.95480000  0.06710000  0.54830000  1.0 -0.0200371896
C  C84  1  0.06710000  0.54830000  0.95480000  1.0 -0.0200371896
N  N1  1  0.50265000  0.05075000  0.05085000  1.0 -0.0986068762
N  N2  1  0.05075000  0.05085000  0.50265000  1.0 -0.0986068762
N  N3  1  0.05085000  0.50265000  0.05075000  1.0 -0.0986068762
N  N4  1  0.49735000  0.94925000  0.94915000  1.0 -0.0986068762
N  N5  1  0.94925000  0.94915000  0.49735000  1.0 -0.0986068762
N  N6  1  0.94915000  0.49735000  0.94925000  1.0 -0.0986068762
O  O1  1  0.51302000  0.98822000  0.36647000  1.0 -0.5299462668
O  O2  1  0.98822000  0.36647000  0.51302000  1.0 -0.5299462668
O  O3  1  0.36647000  0.51302000  0.98822000  1.0 -0.5299462668
O  O4  1  0.48698000  0.01178000  0.63353000  1.0 -0.5299462668
O  O5  1  0.01178000  0.63353000  0.48698000  1.0 -0.5299462668
O  O6  1  0.63353000  0.48698000  0.01178000  1.0 -0.5299462668
O  O7  1  0.52094000  0.37619000  0.11566000  1.0 -0.5202292891
O  O8  1  0.37619000  0.11566000  0.52094000  1.0 -0.5202292891
O  O9  1  0.11566000  0.52094000  0.37619000  1.0 -0.5202292891
O  O10  1  0.47906000  0.62381000  0.88434000  1.0 -0.5202292891
O  O11  1  0.62381000  0.88434000  0.47906000  1.0 -0.5202292891
O  O12  1  0.88434000  0.47906000  0.62381000  1.0 -0.5202292891
O  O13  1  0.52083000  0.11563000  0.37618000  1.0 -0.5202292891
O  O14  1  0.11563000  0.37618000  0.52083000  1.0 -0.5202292891
O  O15  1  0.37618000  0.52083000  0.11563000  1.0 -0.5202292891
O  O16  1  0.47917000  0.88437000  0.62382000  1.0 -0.5202292891
O  O17  1  0.88437000  0.62382000  0.47917000  1.0 -0.5202292891
O  O18  1  0.62382000  0.47917000  0.88437000  1.0 -0.5202292891
O  O19  1  0.51288000  0.36658000  0.98819000  1.0 -0.5299462668
O  O20  1  0.36658000  0.98819000  0.51288000  1.0 -0.5299462668
O  O21  1  0.98819000  0.51288000  0.36658000  1.0 -0.5299462668
O  O22  1  0.48712000  0.63342000  0.01181000  1.0 -0.5299462668
O  O23  1  0.63342000  0.01181000  0.48712000  1.0 -0.5299462668
O  O24  1  0.01181000  0.48712000  0.63342000  1.0 -0.5299462668
