# DDEC6 charges by PACMAN v1.1 (https://github.com/mtap-research/PACMAN-charge/)
data_UFAMUN_ASR_pacman
_symmetry_space_group_name_H-M   'P 1'
_cell_length_a   10.48510000
_cell_length_b   17.01540000
_cell_length_c   24.79460000
_cell_angle_alpha   89.71180000
_cell_angle_beta   89.63830000
_cell_angle_gamma   82.05440000
_symmetry_Int_Tables_number   1
_chemical_formula_structural   ZnH27C36NO5
_chemical_formula_sum   'Zn4 H108 C144 N4 O20'
_cell_volume   4380.96610473
_cell_formula_units_Z   4
loop_
 _symmetry_equiv_pos_site_id
 _symmetry_equiv_pos_as_xyz
  1  'x, y, z'
loop_
 _atom_site_type_symbol
 _atom_site_label
 _atom_site_symmetry_multiplicity
 _atom_site_fract_x
 _atom_site_fract_y
 _atom_site_fract_z
 _atom_site_occupancy
 _atom_site_charge
Zn  Zn1  1  0.84182000  0.05553000  0.81055000  1.0 0.9096380364
Zn  Zn2  1  0.62346000  0.96528000  0.81608000  1.0 0.8659368645
Zn  Zn3  1  0.15818000  0.94447000  0.18945000  1.0 0.9096380364
Zn  Zn4  1  0.37654000  0.03472000  0.18392000  1.0 0.8647724878
H  H1  1  0.40237000  0.09233000  0.69318000  1.0 0.130608629
H  H2  1  0.30432000  0.15630000  0.61784000  1.0 0.1199948398
H  H3  1  0.60006000  0.28616000  0.60601000  1.0 0.1118602173
H  H4  1  0.70789000  0.20994000  0.67590000  1.0 0.1118602173
H  H5  1  0.13195000  0.39009000  0.48482000  1.0 0.1118602173
H  H6  1  0.08727000  0.45375000  0.40166000  1.0 0.1118602173
H  H7  1  0.44631000  0.37429000  0.34797000  1.0 0.1118602173
H  H8  1  0.49543000  0.31218000  0.43012000  1.0 0.1199948398
H  H9  1  0.19287000  0.32396000  0.28036000  1.0 0.1118602173
H  H10  1  0.27048000  0.25156000  0.20493000  1.0 0.130608629
H  H11  1  0.46313000  0.43291000  0.15853000  1.0 0.130608629
H  H12  1  0.39108000  0.50139000  0.23634000  1.0 0.1118602173
H  H13  1  0.42818000  0.11947000  0.05154000  1.0 0.130608629
H  H14  1  0.49891000  0.05544000  0.97178000  1.0 0.1199948398
H  H15  1  0.68462000  0.23938000  0.92984000  1.0 0.1118602173
H  H16  1  0.60533000  0.30712000  0.00683000  1.0 0.1199948398
H  H17  1  0.03616000  0.50568000  0.22966000  1.0 0.1199948398
H  H18  1  0.99140000  0.57111000  0.14945000  1.0 0.130608629
H  H19  1  0.20800000  0.74103000  0.19286000  1.0 0.130608629
H  H20  1  0.24419000  0.67921000  0.27588000  1.0 0.1118602173
H  H21  1  0.88736000  0.70116000  0.99456000  1.0 0.130608629
H  H22  1  0.79847000  0.77400000  0.92356000  1.0 0.130608629
H  H23  1  0.02310000  0.94408000  0.95789000  1.0 0.1199948398
H  H24  1  0.09903000  0.86907000  0.03299000  1.0 0.130608629
H  H25  1  0.96736000  0.63484000  0.34337000  1.0 0.1199948398
H  H26  1  0.91682000  0.70157000  0.42340000  1.0 0.1199948398
H  H27  1  0.28464000  0.64032000  0.47460000  1.0 0.1199948398
H  H28  1  0.33228000  0.56984000  0.39444000  1.0 0.1118602173
H  H29  1  0.13972000  0.84117000  0.61392000  1.0 0.130608629
H  H30  1  0.05878000  0.90728000  0.69189000  1.0 0.1199948398
H  H31  1  0.71996000  0.82710000  0.66982000  1.0 0.1199948398
H  H32  1  0.80033000  0.76280000  0.59203000  1.0 0.1118602173
H  H33  1  0.53593000  0.84978000  0.75714000  1.0 0.0624106796
H  H34  1  0.32901000  0.82143000  0.85757000  1.0 0.0791785432
H  H35  1  0.23772000  0.77114000  0.82391000  1.0 0.0624106796
H  H36  1  0.12646000  0.89035000  0.84979000  1.0 0.0976587922
H  H37  1  0.13859000  0.88578000  0.78548000  1.0 0.0791785432
H  H38  1  0.22938000  0.93580000  0.81896000  1.0 0.0710509385
H  H39  1  0.36332000  0.82179000  0.69781000  1.0 0.0791785432
H  H40  1  0.22841000  0.81105000  0.72462000  1.0 0.0710509385
H  H41  1  0.31063000  0.70229000  0.68005000  1.0 0.0897226849
H  H42  1  0.30222000  0.68296000  0.74310000  1.0 0.0710509385
H  H43  1  0.43782000  0.69376000  0.71615000  1.0 0.0791785432
H  H44  1  0.45570000  0.87417000  0.74884000  1.0 0.0897226849
H  H45  1  0.36873000  0.82271000  0.87630000  1.0 0.0791785432
H  H46  1  0.23520000  0.79209000  0.86175000  1.0 0.0624106796
H  H47  1  0.19982000  0.90718000  0.90834000  1.0 0.0897226849
H  H48  1  0.14271000  0.91947000  0.84872000  1.0 0.0976587922
H  H49  1  0.27596000  0.95003000  0.86323000  1.0 0.0976587922
H  H50  1  0.21637000  0.78286000  0.74817000  1.0 0.0710509385
H  H51  1  0.28724000  0.72595000  0.79309000  1.0 0.0624106796
H  H52  1  0.35963000  0.68992000  0.71122000  1.0 0.0624106796
H  H53  1  0.47288000  0.71841000  0.74591000  1.0 0.0897226849
H  H54  1  0.40159000  0.77565000  0.70073000  1.0 0.0791785432
H  H55  1  0.59763000  0.90767000  0.30682000  1.0 0.130608629
H  H56  1  0.69568000  0.84370000  0.38216000  1.0 0.1199948398
H  H57  1  0.39994000  0.71384000  0.39399000  1.0 0.1118602173
H  H58  1  0.29211000  0.79006000  0.32410000  1.0 0.1118602173
H  H59  1  0.86805000  0.60991000  0.51518000  1.0 0.1118602173
H  H60  1  0.91273000  0.54625000  0.59834000  1.0 0.1118602173
H  H61  1  0.55369000  0.62571000  0.65203000  1.0 0.1118602173
H  H62  1  0.50457000  0.68782000  0.56988000  1.0 0.1199948398
H  H63  1  0.80713000  0.67604000  0.71964000  1.0 0.1118602173
H  H64  1  0.72952000  0.74844000  0.79507000  1.0 0.130608629
H  H65  1  0.53687000  0.56709000  0.84147000  1.0 0.130608629
H  H66  1  0.60892000  0.49861000  0.76366000  1.0 0.1118602173
H  H67  1  0.57182000  0.88053000  0.94846000  1.0 0.130608629
H  H68  1  0.50109000  0.94456000  0.02822000  1.0 0.1199948398
H  H69  1  0.31538000  0.76062000  0.07016000  1.0 0.1118602173
H  H70  1  0.39467000  0.69288000  0.99317000  1.0 0.1199948398
H  H71  1  0.96384000  0.49432000  0.77034000  1.0 0.1199948398
H  H72  1  0.00860000  0.42889000  0.85055000  1.0 0.130608629
H  H73  1  0.79200000  0.25897000  0.80714000  1.0 0.130608629
H  H74  1  0.75581000  0.32079000  0.72412000  1.0 0.1118602173
H  H75  1  0.11264000  0.29884000  0.00544000  1.0 0.130608629
H  H76  1  0.20153000  0.22600000  0.07644000  1.0 0.130608629
H  H77  1  0.97690000  0.05592000  0.04211000  1.0 0.1199948398
H  H78  1  0.90097000  0.13093000  0.96701000  1.0 0.130608629
H  H79  1  0.03264000  0.36516000  0.65663000  1.0 0.1199948398
H  H80  1  0.08318000  0.29843000  0.57660000  1.0 0.1199948398
H  H81  1  0.71536000  0.35968000  0.52540000  1.0 0.1199948398
H  H82  1  0.66772000  0.43016000  0.60556000  1.0 0.1118602173
H  H83  1  0.86028000  0.15883000  0.38608000  1.0 0.130608629
H  H84  1  0.94122000  0.09272000  0.30811000  1.0 0.130608629
H  H85  1  0.28004000  0.17290000  0.33018000  1.0 0.1199948398
H  H86  1  0.19967000  0.23720000  0.40797000  1.0 0.1118602173
H  H87  1  0.46407000  0.15022000  0.24286000  1.0 0.0624106796
H  H88  1  0.67099000  0.17857000  0.14243000  1.0 0.0791785432
H  H89  1  0.76228000  0.22886000  0.17609000  1.0 0.0624106796
H  H90  1  0.87354000  0.10965000  0.15021000  1.0 0.0976587922
H  H91  1  0.86141000  0.11422000  0.21452000  1.0 0.0791785432
H  H92  1  0.77062000  0.06420000  0.18104000  1.0 0.0710509385
H  H93  1  0.63668000  0.17821000  0.30219000  1.0 0.0791785432
H  H94  1  0.77159000  0.18895000  0.27538000  1.0 0.0710509385
H  H95  1  0.68937000  0.29771000  0.31995000  1.0 0.0897226849
H  H96  1  0.69778000  0.31704000  0.25690000  1.0 0.0710509385
H  H97  1  0.56218000  0.30624000  0.28385000  1.0 0.0791785432
H  H98  1  0.54430000  0.12583000  0.25116000  1.0 0.0897226849
H  H99  1  0.63127000  0.17729000  0.12370000  1.0 0.0791785432
H  H100  1  0.76480000  0.20791000  0.13825000  1.0 0.0624106796
H  H101  1  0.80018000  0.09282000  0.09166000  1.0 0.0897226849
H  H102  1  0.85729000  0.08053000  0.15128000  1.0 0.0976587922
H  H103  1  0.72404000  0.04997000  0.13677000  1.0 0.0976587922
H  H104  1  0.78363000  0.21714000  0.25183000  1.0 0.0710509385
H  H105  1  0.71276000  0.27405000  0.20691000  1.0 0.0624106796
H  H106  1  0.64037000  0.31008000  0.28878000  1.0 0.0624106796
H  H107  1  0.52712000  0.28159000  0.25409000  1.0 0.0897226849
H  H108  1  0.59841000  0.22435000  0.29927000  1.0 0.0791785432
C  C1  1  0.62170000  0.10310000  0.74020000  1.0 0.5868738781
C  C2  1  0.55650000  0.14730000  0.69300000  1.0 -0.0202184269
C  C3  1  0.44320000  0.13150000  0.67510000  1.0 -0.0920127739
C  C4  1  0.38310000  0.17030000  0.63090000  1.0 -0.1594990623
C  C5  1  0.44100000  0.23080000  0.60560000  1.0 0.130608629
C  C6  1  0.56020000  0.24570000  0.62320000  1.0 -0.1594990623
C  C7  1  0.62320000  0.20250000  0.66570000  1.0 -0.1020513479
C  C8  1  0.38920000  0.27220000  0.55690000  1.0 -0.1020513479
C  C9  1  0.35340000  0.30400000  0.51710000  1.0 -0.1020513479
C  C10  1  0.31900000  0.34510000  0.46640000  1.0 0.1199948398
C  C11  1  0.19630000  0.38720000  0.45750000  1.0 -0.1594990623
C  C12  1  0.17020000  0.42480000  0.40770000  1.0 -0.1395837512
C  C13  1  0.26130000  0.42110000  0.36720000  1.0 0.0710509385
C  C14  1  0.38330000  0.37800000  0.37590000  1.0 -0.1669972528
C  C15  1  0.41220000  0.34090000  0.42450000  1.0 -0.1594990623
C  C16  1  0.23800000  0.46440000  0.31520000  1.0 -0.0202184269
C  C17  1  0.18200000  0.54220000  0.31290000  1.0 -0.0419246943
C  C18  1  0.28580000  0.42060000  0.26600000  1.0 0.0624106796
C  C19  1  0.24910000  0.34540000  0.25590000  1.0 -0.1815140058
C  C20  1  0.29390000  0.30280000  0.21090000  1.0 -0.1594990623
C  C21  1  0.37630000  0.33610000  0.17280000  1.0 0.0791785432
C  C22  1  0.40940000  0.40970000  0.18320000  1.0 -0.1180499044
C  C23  1  0.36530000  0.45100000  0.22970000  1.0 -0.1395837512
C  C24  1  0.42130000  0.29410000  0.12530000  1.0 -0.2533332293
C  C25  1  0.46310000  0.26010000  0.08500000  1.0 -0.2412329425
C  C26  1  0.51060000  0.22050000  0.03730000  1.0 0.130608629
C  C27  1  0.47870000  0.14450000  0.02650000  1.0 -0.1180499044
C  C28  1  0.52120000  0.10650000  0.97930000  1.0 -0.1104189477
C  C29  1  0.59630000  0.14220000  0.94280000  1.0 -0.0202184269
C  C30  1  0.63020000  0.21580000  0.95400000  1.0 -0.1104189477
C  C31  1  0.58500000  0.25530000  0.00030000  1.0 -0.1302285638
C  C32  1  0.64320000  0.09770000  0.89190000  1.0 0.5788584839
C  C33  1  0.14910000  0.58380000  0.26170000  1.0 0.0710509385
C  C34  1  0.07080000  0.55340000  0.22250000  1.0 -0.1501386209
C  C35  1  0.04490000  0.59210000  0.17490000  1.0 -0.1395837512
C  C36  1  0.09500000  0.66200000  0.16240000  1.0 0.130608629
C  C37  1  0.17230000  0.69390000  0.20070000  1.0 -0.1395837512
C  C38  1  0.19560000  0.65610000  0.24960000  1.0 -0.1501386209
C  C39  1  0.06550000  0.70150000  0.11230000  1.0 -0.0920127739
C  C40  1  0.03920000  0.73730000  0.06950000  1.0 -0.1104189477
C  C41  1  0.99760000  0.78020000  0.02290000  1.0 0.1199948398
C  C42  1  0.91130000  0.75220000  0.98810000  1.0 -0.1395837512
C  C43  1  0.86000000  0.79450000  0.94550000  1.0 -0.0920127739
C  C44  1  0.89740000  0.86880000  0.93360000  1.0 -0.0202184269
C  C45  1  0.99130000  0.89570000  0.96600000  1.0 -0.1104189477
C  C46  1  0.03710000  0.85000000  0.01050000  1.0 -0.1395837512
C  C47  1  0.84200000  0.91770000  0.88630000  1.0 0.5592039715
C  C48  1  0.15470000  0.59120000  0.36290000  1.0 0.0791785432
C  C49  1  0.03050000  0.63420000  0.37070000  1.0 -0.1501386209
C  C50  1  0.00140000  0.67470000  0.41760000  1.0 -0.1501386209
C  C51  1  0.09610000  0.67680000  0.45730000  1.0 0.1199948398
C  C52  1  0.21950000  0.63810000  0.44840000  1.0 -0.1501386209
C  C53  1  0.24740000  0.59580000  0.40070000  1.0 -0.1501386209
C  C54  1  0.06350000  0.71920000  0.50720000  1.0 -0.0920127739
C  C55  1  0.02710000  0.75350000  0.54690000  1.0 -0.1020513479
C  C56  1  0.98180000  0.79390000  0.59640000  1.0 0.1401062201
C  C57  1  0.05400000  0.83750000  0.62520000  1.0 -0.1594990623
C  C58  1  0.00530000  0.87770000  0.67170000  1.0 -0.1104189477
C  C59  1  0.88350000  0.87470000  0.68810000  1.0 -0.0202184269
C  C60  1  0.80570000  0.83030000  0.65840000  1.0 -0.1104189477
C  C61  1  0.85400000  0.79160000  0.61280000  1.0 -0.1501386209
C  C62  1  0.82720000  0.92060000  0.73590000  1.0 0.5728286098
C  C63  1  0.46470000  0.86190000  0.78100000  1.0 0.2368826906
C  C64  1  0.27960000  0.81980000  0.82380000  1.0 0.0192852373
C  C65  1  0.18630000  0.88820000  0.81910000  1.0 -0.1669972528
C  C66  1  0.32240000  0.79390000  0.72700000  1.0 -0.1020513479
C  C67  1  0.34500000  0.71200000  0.71570000  1.0 -0.1501386209
C  C68  1  0.42600000  0.87200000  0.78500000  1.0 0.2254799347
C  C69  1  0.28900000  0.83440000  0.85470000  1.0 -0.0558454372
C  C70  1  0.22200000  0.90800000  0.86990000  1.0 -0.2183949683
C  C71  1  0.29900000  0.76850000  0.76700000  1.0 0.010136145
C  C72  1  0.39000000  0.73600000  0.72830000  1.0 -0.1594990623
C  C73  1  0.37830000  0.89690000  0.25980000  1.0 0.5868738781
C  C74  1  0.44350000  0.85270000  0.30700000  1.0 -0.0202184269
C  C75  1  0.55680000  0.86850000  0.32490000  1.0 -0.0920127739
C  C76  1  0.61690000  0.82970000  0.36910000  1.0 -0.1594990623
C  C77  1  0.55900000  0.76920000  0.39440000  1.0 0.130608629
C  C78  1  0.43980000  0.75430000  0.37680000  1.0 -0.1594990623
C  C79  1  0.37680000  0.79750000  0.33430000  1.0 -0.1020513479
C  C80  1  0.61080000  0.72780000  0.44310000  1.0 -0.1020513479
C  C81  1  0.64660000  0.69600000  0.48290000  1.0 -0.1020513479
C  C82  1  0.68100000  0.65490000  0.53360000  1.0 0.1199948398
C  C83  1  0.80370000  0.61280000  0.54250000  1.0 -0.1594990623
C  C84  1  0.82980000  0.57520000  0.59230000  1.0 -0.1395837512
C  C85  1  0.73870000  0.57890000  0.63280000  1.0 0.0710509385
C  C86  1  0.61670000  0.62200000  0.62410000  1.0 -0.1669972528
C  C87  1  0.58780000  0.65910000  0.57550000  1.0 -0.1594990623
C  C88  1  0.76200000  0.53560000  0.68480000  1.0 -0.0202184269
C  C89  1  0.81800000  0.45780000  0.68710000  1.0 -0.0419246943
C  C90  1  0.71420000  0.57940000  0.73400000  1.0 0.0624106796
C  C91  1  0.75090000  0.65460000  0.74410000  1.0 -0.1815140058
C  C92  1  0.70610000  0.69720000  0.78910000  1.0 -0.1669972528
C  C93  1  0.62370000  0.66390000  0.82720000  1.0 0.0791785432
C  C94  1  0.59060000  0.59030000  0.81680000  1.0 -0.1180499044
C  C95  1  0.63470000  0.54900000  0.77030000  1.0 -0.1395837512
C  C96  1  0.57870000  0.70590000  0.87470000  1.0 -0.2533332293
C  C97  1  0.53690000  0.73990000  0.91500000  1.0 -0.2412329425
C  C98  1  0.48940000  0.77950000  0.96270000  1.0 0.130608629
C  C99  1  0.52130000  0.85550000  0.97350000  1.0 -0.1180499044
C  C100  1  0.47880000  0.89350000  0.02070000  1.0 -0.1104189477
C  C101  1  0.40370000  0.85780000  0.05720000  1.0 -0.0202184269
C  C102  1  0.36980000  0.78420000  0.04600000  1.0 -0.1104189477
C  C103  1  0.41500000  0.74470000  0.99970000  1.0 -0.1302285638
C  C104  1  0.35680000  0.90230000  0.10810000  1.0 0.5788584839
C  C105  1  0.85090000  0.41620000  0.73830000  1.0 0.0710509385
C  C106  1  0.92920000  0.44660000  0.77750000  1.0 -0.1501386209
C  C107  1  0.95510000  0.40790000  0.82510000  1.0 -0.1395837512
C  C108  1  0.90500000  0.33800000  0.83760000  1.0 0.130608629
C  C109  1  0.82770000  0.30610000  0.79930000  1.0 -0.1395837512
C  C110  1  0.80440000  0.34390000  0.75040000  1.0 -0.1501386209
C  C111  1  0.93450000  0.29850000  0.88770000  1.0 -0.0920127739
C  C112  1  0.96080000  0.26270000  0.93050000  1.0 -0.1104189477
C  C113  1  0.00240000  0.21980000  0.97710000  1.0 0.1199948398
C  C114  1  0.08870000  0.24780000  0.01190000  1.0 -0.1395837512
C  C115  1  0.14000000  0.20550000  0.05450000  1.0 -0.0920127739
C  C116  1  0.10260000  0.13120000  0.06640000  1.0 -0.0202184269
C  C117  1  0.00870000  0.10430000  0.03400000  1.0 -0.1104189477
C  C118  1  0.96290000  0.15000000  0.98950000  1.0 -0.1395837512
C  C119  1  0.15800000  0.08230000  0.11370000  1.0 0.5592039715
C  C120  1  0.84530000  0.40880000  0.63710000  1.0 0.0791785432
C  C121  1  0.96950000  0.36580000  0.62930000  1.0 -0.1501386209
C  C122  1  0.99860000  0.32530000  0.58240000  1.0 -0.1501386209
C  C123  1  0.90390000  0.32320000  0.54270000  1.0 0.1199948398
C  C124  1  0.78050000  0.36190000  0.55160000  1.0 -0.1501386209
C  C125  1  0.75260000  0.40420000  0.59930000  1.0 -0.1501386209
C  C126  1  0.93650000  0.28080000  0.49280000  1.0 -0.0920127739
C  C127  1  0.97290000  0.24650000  0.45310000  1.0 -0.1020513479
C  C128  1  0.01820000  0.20610000  0.40360000  1.0 0.1401062201
C  C129  1  0.94600000  0.16250000  0.37480000  1.0 -0.1594990623
C  C130  1  0.99470000  0.12230000  0.32830000  1.0 -0.1104189477
C  C131  1  0.11650000  0.12530000  0.31190000  1.0 -0.0202184269
C  C132  1  0.19430000  0.16970000  0.34160000  1.0 -0.1104189477
C  C133  1  0.14600000  0.20840000  0.38720000  1.0 -0.1501386209
C  C134  1  0.17280000  0.07940000  0.26410000  1.0 0.5728286098
C  C135  1  0.53530000  0.13810000  0.21900000  1.0 0.2368826906
C  C136  1  0.72040000  0.18020000  0.17620000  1.0 0.0192852373
C  C137  1  0.81370000  0.11180000  0.18090000  1.0 -0.1669972528
C  C138  1  0.67760000  0.20610000  0.27300000  1.0 -0.1020513479
C  C139  1  0.65500000  0.28800000  0.28430000  1.0 -0.1501386209
C  C140  1  0.57400000  0.12800000  0.21500000  1.0 0.2254799347
C  C141  1  0.71100000  0.16560000  0.14530000  1.0 -0.0558454372
C  C142  1  0.77800000  0.09200000  0.13010000  1.0 -0.2183949683
C  C143  1  0.70100000  0.23150000  0.23300000  1.0 0.010136145
C  C144  1  0.61000000  0.26400000  0.27170000  1.0 -0.1594990623
N  N1  1  0.36460000  0.82120000  0.77680000  1.0 0.0192852373
N  N2  1  0.32300000  0.83550000  0.79700000  1.0 0.130608629
N  N3  1  0.63540000  0.17880000  0.22320000  1.0 0.0192852373
N  N4  1  0.67700000  0.16450000  0.20300000  1.0 0.130608629
O  O1  1  0.73700000  0.11180000  0.74981000  1.0 -0.5417245735
O  O2  1  0.55860000  0.05770000  0.76651000  1.0 -0.5493758131
O  O3  1  0.59260000  0.03810000  0.88081000  1.0 -0.5192121674
O  O4  1  0.73210000  0.12480000  0.86505000  1.0 -0.5632636209
O  O5  1  0.74960000  0.89430000  0.86316000  1.0 -0.5026946176
O  O6  1  0.88930000  0.97990000  0.87506000  1.0 -0.5632636209
O  O7  1  0.71350000  0.91260000  0.74987000  1.0 -0.5493758131
O  O8  1  0.89780000  0.96390000  0.75889000  1.0 -0.5493758131
O  O9  1  0.46760000  0.91480000  0.81490000  1.0 -0.3536898304
O  O10  1  0.48100000  0.90400000  0.82150000  1.0 -0.3689044524
O  O11  1  0.26300000  0.88820000  0.25019000  1.0 -0.5417245735
O  O12  1  0.44140000  0.94230000  0.23349000  1.0 -0.5493758131
O  O13  1  0.40740000  0.96190000  0.11919000  1.0 -0.5192121674
O  O14  1  0.26790000  0.87520000  0.13495000  1.0 -0.5632636209
O  O15  1  0.25040000  0.10570000  0.13684000  1.0 -0.5026946176
O  O16  1  0.11070000  0.02010000  0.12494000  1.0 -0.5632636209
O  O17  1  0.28650000  0.08740000  0.25013000  1.0 -0.5493758131
O  O18  1  0.10220000  0.03610000  0.24111000  1.0 -0.5493758131
O  O19  1  0.53240000  0.08520000  0.18510000  1.0 -0.3536898304
O  O20  1  0.51900000  0.09600000  0.17850000  1.0 -0.3689044524
