# DDEC6 charges by PACMAN v1.1 (https://github.com/mtap-research/PACMAN-charge/)
data_UFEMIC_FSR_pacman
_symmetry_space_group_name_H-M   'P 1'
_cell_length_a   12.34440000
_cell_length_b   13.35220000
_cell_length_c   14.33840000
_cell_angle_alpha   90.00000000
_cell_angle_beta   90.00000000
_cell_angle_gamma   90.00000000
_symmetry_Int_Tables_number   1
_chemical_formula_structural   Cu5H14C10N8O
_chemical_formula_sum   'Cu20 H56 C40 N32 O4'
_cell_volume   2363.32531289
_cell_formula_units_Z   4
loop_
 _symmetry_equiv_pos_site_id
 _symmetry_equiv_pos_as_xyz
  1  'x, y, z'
loop_
 _atom_site_type_symbol
 _atom_site_label
 _atom_site_symmetry_multiplicity
 _atom_site_fract_x
 _atom_site_fract_y
 _atom_site_fract_z
 _atom_site_occupancy
 _atom_site_charge
Cu  Cu1  1  0.16637000  0.25000000  0.16010000  1.0 0.7992908469
Cu  Cu2  1  0.66637000  0.75000000  0.33990000  1.0 0.7992908469
Cu  Cu3  1  0.83363000  0.75000000  0.83990000  1.0 0.7992908469
Cu  Cu4  1  0.33363000  0.25000000  0.66010000  1.0 0.7992908469
Cu  Cu5  1  0.96104000  0.43738000  0.44566000  1.0 0.2609028442
Cu  Cu6  1  0.46104000  0.56262000  0.05434000  1.0 0.2609028442
Cu  Cu7  1  0.03896000  0.93738000  0.55434000  1.0 0.2609028442
Cu  Cu8  1  0.53896000  0.06262000  0.94566000  1.0 0.2609028442
Cu  Cu9  1  0.03896000  0.56262000  0.55434000  1.0 0.2609028442
Cu  Cu10  1  0.53896000  0.43738000  0.94566000  1.0 0.2609028442
Cu  Cu11  1  0.96104000  0.06262000  0.44566000  1.0 0.2609028442
Cu  Cu12  1  0.46104000  0.93738000  0.05434000  1.0 0.2609028442
Cu  Cu13  1  0.36343000  0.44357000  0.37818000  1.0 0.6358152227
Cu  Cu14  1  0.86343000  0.55643000  0.12182000  1.0 0.6358152227
Cu  Cu15  1  0.63657000  0.94357000  0.62182000  1.0 0.6358152227
Cu  Cu16  1  0.13657000  0.05643000  0.87818000  1.0 0.634387981
Cu  Cu17  1  0.63657000  0.55643000  0.62182000  1.0 0.6358152227
Cu  Cu18  1  0.13657000  0.44357000  0.87818000  1.0 0.6358152227
Cu  Cu19  1  0.36343000  0.05643000  0.37818000  1.0 0.6358152227
Cu  Cu20  1  0.86343000  0.94357000  0.12182000  1.0 0.6358152227
H  H1  1  0.10290000  0.07320000  0.16930000  1.0 0.3085651084
H  H2  1  0.60290000  0.92680000  0.33070000  1.0 0.3085651084
H  H3  1  0.89710000  0.57320000  0.83070000  1.0 0.3085651084
H  H4  1  0.39710000  0.42680000  0.66930000  1.0 0.3085651084
H  H5  1  0.89710000  0.92680000  0.83070000  1.0 0.3085651084
H  H6  1  0.39710000  0.07320000  0.66930000  1.0 0.3085651084
H  H7  1  0.10290000  0.42680000  0.16930000  1.0 0.3085651084
H  H8  1  0.60290000  0.57320000  0.33070000  1.0 0.3085651084
H  H9  1  0.19960000  0.07360000  0.11150000  1.0 0.300941439
H  H10  1  0.69960000  0.92640000  0.38850000  1.0 0.3085651084
H  H11  1  0.80040000  0.57360000  0.88850000  1.0 0.3085651084
H  H12  1  0.30040000  0.42640000  0.61150000  1.0 0.3085651084
H  H13  1  0.80040000  0.92640000  0.88850000  1.0 0.3085651084
H  H14  1  0.30040000  0.07360000  0.61150000  1.0 0.3085651084
H  H15  1  0.19960000  0.42640000  0.11150000  1.0 0.3085651084
H  H16  1  0.69960000  0.57360000  0.38850000  1.0 0.3085651084
H  H17  1  0.20930000  0.07670000  0.21250000  1.0 0.300941439
H  H18  1  0.70930000  0.92330000  0.28750000  1.0 0.300941439
H  H19  1  0.79070000  0.57670000  0.78750000  1.0 0.300941439
H  H20  1  0.29070000  0.42330000  0.71250000  1.0 0.300941439
H  H21  1  0.79070000  0.92330000  0.78750000  1.0 0.300941439
H  H22  1  0.29070000  0.07670000  0.71250000  1.0 0.300941439
H  H23  1  0.20930000  0.42330000  0.21250000  1.0 0.300941439
H  H24  1  0.70930000  0.57670000  0.28750000  1.0 0.300941439
H  H25  1  0.03940000  0.25000000  0.29010000  1.0 0.300941439
H  H26  1  0.53940000  0.75000000  0.20990000  1.0 0.2932391873
H  H27  1  0.96060000  0.75000000  0.70990000  1.0 0.2932391873
H  H28  1  0.46060000  0.25000000  0.79010000  1.0 0.2932391873
H  H29  1  0.13520000  0.19560000  0.32000000  1.0 0.2832340137
H  H30  1  0.63520000  0.80440000  0.18000000  1.0 0.2832340137
H  H31  1  0.86480000  0.69560000  0.68000000  1.0 0.2832340137
H  H32  1  0.36480000  0.30440000  0.82000000  1.0 0.2832340137
H  H33  1  0.86480000  0.80440000  0.68000000  1.0 0.2832340137
H  H34  1  0.36480000  0.19560000  0.82000000  1.0 0.2832340137
H  H35  1  0.13520000  0.30440000  0.32000000  1.0 0.2832340137
H  H36  1  0.63520000  0.69560000  0.18000000  1.0 0.2832340137
H  H37  1  0.26010000  0.25000000  0.00710000  1.0 0.300941439
H  H38  1  0.76010000  0.75000000  0.49290000  1.0 0.300941439
H  H39  1  0.73990000  0.75000000  0.99290000  1.0 0.300941439
H  H40  1  0.23990000  0.25000000  0.50710000  1.0 0.300941439
H  H41  1  0.32890000  0.30440000  0.07180000  1.0 0.300941439
H  H42  1  0.82890000  0.69560000  0.42820000  1.0 0.300941439
H  H43  1  0.67110000  0.80440000  0.92820000  1.0 0.300941439
H  H44  1  0.17110000  0.19560000  0.57180000  1.0 0.300941439
H  H45  1  0.67110000  0.69560000  0.92820000  1.0 0.300941439
H  H46  1  0.17110000  0.30440000  0.57180000  1.0 0.300941439
H  H47  1  0.32890000  0.19560000  0.07180000  1.0 0.300941439
H  H48  1  0.82890000  0.80440000  0.42820000  1.0 0.300941439
H  H49  1  0.96180000  0.25000000  0.10160000  1.0 0.2832340137
H  H50  1  0.46180000  0.75000000  0.39840000  1.0 0.2832340137
H  H51  1  0.03820000  0.75000000  0.89840000  1.0 0.2832340137
H  H52  1  0.53820000  0.25000000  0.60160000  1.0 0.2832340137
H  H53  1  0.00180000  0.25000000  0.01850000  1.0 0.3085651084
H  H54  1  0.50180000  0.75000000  0.48150000  1.0 0.3085651084
H  H55  1  0.99820000  0.75000000  0.98150000  1.0 0.3085651084
H  H56  1  0.49820000  0.25000000  0.51850000  1.0 0.3085651084
C  C1  1  0.13020000  0.48560000  0.45810000  1.0 -0.0451984696
C  C2  1  0.63020000  0.51440000  0.04190000  1.0 -0.0451984696
C  C3  1  0.86980000  0.98560000  0.54190000  1.0 -0.0451984696
C  C4  1  0.36980000  0.01440000  0.95810000  1.0 -0.0451984696
C  C5  1  0.86980000  0.51440000  0.54190000  1.0 -0.0451984696
C  C6  1  0.36980000  0.48560000  0.95810000  1.0 -0.0451984696
C  C7  1  0.13020000  0.01440000  0.45810000  1.0 -0.0451984696
C  C8  1  0.63020000  0.98560000  0.04190000  1.0 -0.0451984696
C  C9  1  0.91920000  0.47090000  0.31890000  1.0 -0.0154366157
C  C10  1  0.41920000  0.52910000  0.18110000  1.0 -0.0154366157
C  C11  1  0.08080000  0.97090000  0.68110000  1.0 -0.0154366157
C  C12  1  0.58080000  0.02910000  0.81890000  1.0 -0.0138426788
C  C13  1  0.08080000  0.52910000  0.68110000  1.0 -0.0154366157
C  C14  1  0.58080000  0.47090000  0.81890000  1.0 -0.0154366157
C  C15  1  0.91920000  0.02910000  0.31890000  1.0 -0.0154366157
C  C16  1  0.41920000  0.97090000  0.18110000  1.0 -0.0154366157
C  C17  1  0.46850000  0.48790000  0.47240000  1.0 -0.268049475
C  C18  1  0.96850000  0.51210000  0.02760000  1.0 -0.268049475
C  C19  1  0.53150000  0.98790000  0.52760000  1.0 -0.268049475
C  C20  1  0.03150000  0.01210000  0.97240000  1.0 -0.268049475
C  C21  1  0.53150000  0.51210000  0.52760000  1.0 -0.268049475
C  C22  1  0.03150000  0.48790000  0.97240000  1.0 -0.268049475
C  C23  1  0.46850000  0.01210000  0.47240000  1.0 -0.268049475
C  C24  1  0.96850000  0.98790000  0.02760000  1.0 -0.268049475
C  C25  1  0.36500000  0.29460000  0.36460000  1.0 -0.3388668636
C  C26  1  0.86500000  0.70540000  0.13540000  1.0 -0.3388668636
C  C27  1  0.63500000  0.79460000  0.63540000  1.0 -0.3463144192
C  C28  1  0.13500000  0.20540000  0.86460000  1.0 -0.3388668636
C  C29  1  0.63500000  0.70540000  0.63540000  1.0 -0.3463144192
C  C30  1  0.13500000  0.29460000  0.86460000  1.0 -0.3388668636
C  C31  1  0.36500000  0.20540000  0.36460000  1.0 -0.3388668636
C  C32  1  0.86500000  0.79460000  0.13540000  1.0 -0.3388668636
C  C33  1  0.95910000  0.29330000  0.46890000  1.0 -0.2223079616
C  C34  1  0.45910000  0.70670000  0.03110000  1.0 -0.2223079616
C  C35  1  0.04090000  0.79330000  0.53110000  1.0 -0.2223079616
C  C36  1  0.54090000  0.20670000  0.96890000  1.0 -0.2223079616
C  C37  1  0.04090000  0.70670000  0.53110000  1.0 -0.2223079616
C  C38  1  0.54090000  0.29330000  0.96890000  1.0 -0.2223079616
C  C39  1  0.95910000  0.20670000  0.46890000  1.0 -0.2223079616
C  C40  1  0.45910000  0.79330000  0.03110000  1.0 -0.2223079616
N  N1  1  0.17010000  0.09670000  0.16390000  1.0 -0.7340600636
N  N2  1  0.67010000  0.90330000  0.33610000  1.0 -0.7340600636
N  N3  1  0.82990000  0.59670000  0.83610000  1.0 -0.7361276994
N  N4  1  0.32990000  0.40330000  0.66390000  1.0 -0.7361276994
N  N5  1  0.82990000  0.90330000  0.83610000  1.0 -0.7340600636
N  N6  1  0.32990000  0.09670000  0.66390000  1.0 -0.7361276994
N  N7  1  0.17010000  0.40330000  0.16390000  1.0 -0.7340600636
N  N8  1  0.67010000  0.59670000  0.33610000  1.0 -0.7361276994
N  N9  1  0.11150000  0.25000000  0.29050000  1.0 -0.7565805206
N  N10  1  0.61150000  0.75000000  0.20950000  1.0 -0.7565805206
N  N11  1  0.88850000  0.75000000  0.70950000  1.0 -0.7565805206
N  N12  1  0.38850000  0.25000000  0.79050000  1.0 -0.7565805206
N  N13  1  0.28820000  0.25000000  0.06420000  1.0 -0.7340600636
N  N14  1  0.78820000  0.75000000  0.43580000  1.0 -0.7361276994
N  N15  1  0.71180000  0.75000000  0.93580000  1.0 -0.7340600636
N  N16  1  0.21180000  0.25000000  0.56420000  1.0 -0.7340600636
N  N17  1  0.21150000  0.47120000  0.42500000  1.0 -0.3388668636
N  N18  1  0.71150000  0.52880000  0.07500000  1.0 -0.3388668636
N  N19  1  0.78850000  0.97120000  0.57500000  1.0 -0.3388668636
N  N20  1  0.28850000  0.02880000  0.92500000  1.0 -0.3388668636
N  N21  1  0.78850000  0.52880000  0.57500000  1.0 -0.3388668636
N  N22  1  0.28850000  0.47120000  0.92500000  1.0 -0.3388668636
N  N23  1  0.21150000  0.02880000  0.42500000  1.0 -0.3388668636
N  N24  1  0.71150000  0.97120000  0.07500000  1.0 -0.3388668636
N  N25  1  0.89330000  0.49510000  0.24540000  1.0 -0.3708852122
N  N26  1  0.39330000  0.50490000  0.25460000  1.0 -0.3708852122
N  N27  1  0.10670000  0.99510000  0.75460000  1.0 -0.3708852122
N  N28  1  0.60670000  0.00490000  0.74540000  1.0 -0.3708852122
N  N29  1  0.10670000  0.50490000  0.75460000  1.0 -0.3708852122
N  N30  1  0.60670000  0.49510000  0.74540000  1.0 -0.3708852122
N  N31  1  0.89330000  0.00490000  0.24540000  1.0 -0.3708852122
N  N32  1  0.39330000  0.99510000  0.25460000  1.0 -0.3708852122
O  O1  1  0.01970000  0.25000000  0.07360000  1.0 -0.6189703087
O  O2  1  0.51970000  0.75000000  0.42640000  1.0 -0.6189703087
O  O3  1  0.98030000  0.75000000  0.92640000  1.0 -0.6189703087
O  O4  1  0.48030000  0.25000000  0.57360000  1.0 -0.6189703087
