# DDEC6 charges by PACMAN v1.1 (https://github.com/mtap-research/PACMAN-charge/)
data_UFENAW_ASR_pacman
_symmetry_space_group_name_H-M   'P 1'
_cell_length_a   17.31440000
_cell_length_b   17.31440000
_cell_length_c   18.42300000
_cell_angle_alpha   89.48360000
_cell_angle_beta   90.51640000
_cell_angle_gamma   147.40100000
_symmetry_Int_Tables_number   1
_chemical_formula_structural   Zn3(C2O)16
_chemical_formula_sum   'Zn6 C64 O32'
_cell_volume   2975.42003167
_cell_formula_units_Z   2
loop_
 _symmetry_equiv_pos_site_id
 _symmetry_equiv_pos_as_xyz
  1  'x, y, z'
loop_
 _atom_site_type_symbol
 _atom_site_label
 _atom_site_symmetry_multiplicity
 _atom_site_fract_x
 _atom_site_fract_y
 _atom_site_fract_z
 _atom_site_occupancy
 _atom_site_charge
Zn  Zn1  1  0.93112000  0.65648000  0.72022000  1.0 0.9335420251
Zn  Zn2  1  0.34352000  0.06888000  0.22022000  1.0 0.9335420251
Zn  Zn3  1  0.65090000  0.76158000  0.70678000  1.0 0.9120259106
Zn  Zn4  1  0.23842000  0.34910000  0.20678000  1.0 0.9120259106
Zn  Zn5  1  0.79044000  0.70836000  0.71033000  1.0 1.0194311261
Zn  Zn6  1  0.29164000  0.20956000  0.21033000  1.0 1.0194311261
C  C1  1  0.73370000  0.52550000  0.60890000  1.0 0.6422455951
C  C2  1  0.47450000  0.26630000  0.10890000  1.0 0.6422455951
C  C3  1  0.83520000  0.88000000  0.81600000  1.0 0.6422455951
C  C4  1  0.12000000  0.16480000  0.31600000  1.0 0.6422455951
C  C5  1  0.37650000  0.34030000  0.70180000  1.0 0.0096574788
C  C6  1  0.65970000  0.62350000  0.20180000  1.0 0.0096574788
C  C7  1  0.04910000  0.08530000  0.02170000  1.0 -0.0182240976
C  C8  1  0.91470000  0.95090000  0.52170000  1.0 -0.0182240976
C  C9  1  0.11250000  0.93450000  0.75100000  1.0 0.5557665944
C  C10  1  0.06550000  0.88750000  0.25100000  1.0 0.5557665944
C  C11  1  0.52650000  0.32950000  0.40090000  1.0 -0.140192765
C  C12  1  0.67050000  0.47350000  0.90090000  1.0 -0.140192765
C  C13  1  0.19570000  0.06670000  0.73490000  1.0 -0.1334676102
C  C14  1  0.93330000  0.80430000  0.23490000  1.0 -0.1334676102
C  C15  1  0.21630000  0.71730000  0.70900000  1.0 -0.0714588816
C  C16  1  0.28270000  0.78370000  0.20900000  1.0 -0.0772908658
C  C17  1  0.35860000  0.69740000  0.72400000  1.0 -0.0002595198
C  C18  1  0.30260000  0.64140000  0.22400000  1.0 0.0045050371
C  C19  1  0.66780000  0.46580000  0.53470000  1.0 -0.0182240976
C  C20  1  0.53420000  0.33220000  0.03470000  1.0 -0.0182240976
C  C21  1  0.48200000  0.50400000  0.67550000  1.0 0.6422455951
C  C22  1  0.49600000  0.51800000  0.17550000  1.0 0.6422455951
C  C23  1  0.45110000  0.25490000  0.33390000  1.0 0.6422455951
C  C24  1  0.74510000  0.54890000  0.83390000  1.0 0.6422455951
C  C25  1  0.91560000  0.96000000  0.88700000  1.0 -0.0714588816
C  C26  1  0.04000000  0.08440000  0.38700000  1.0 -0.0714588816
C  C27  1  0.14460000  0.73100000  0.69940000  1.0 0.5891662955
C  C28  1  0.26900000  0.85540000  0.19940000  1.0 0.5891662955
C  C29  1  0.12450000  0.15530000  0.09550000  1.0 0.6568226635
C  C30  1  0.84470000  0.87550000  0.59550000  1.0 0.6568226635
C  C31  1  0.44910000  0.69690000  0.72400000  1.0 0.5476399183
C  C32  1  0.30310000  0.55090000  0.22400000  1.0 0.5476399183
C  C33  1  0.02120000  0.99280000  0.91140000  1.0 0.0414041636
C  C34  1  0.00720000  0.97880000  0.41140000  1.0 0.0414041636
C  C35  1  0.57580000  0.44020000  0.51710000  1.0 0.0096574788
C  C36  1  0.55980000  0.42420000  0.01710000  1.0 0.0096574788
C  C37  1  0.95020000  0.05320000  0.00320000  1.0 0.0207477582
C  C38  1  0.94680000  0.04980000  0.50320000  1.0 0.0207477582
C  C39  1  0.62470000  0.35530000  0.42730000  1.0 0.0414041636
C  C40  1  0.64470000  0.37530000  0.92730000  1.0 0.0343826122
C  C41  1  0.07130000  0.04070000  0.98090000  1.0 -0.0182240976
C  C42  1  0.95930000  0.92870000  0.48090000  1.0 -0.0182240976
C  C43  1  0.68570000  0.42030000  0.49290000  1.0 -0.0083014781
C  C44  1  0.57970000  0.31430000  0.99290000  1.0 -0.0083014781
C  C45  1  0.17670000  0.09330000  0.66640000  1.0 0.099948654
C  C46  1  0.90670000  0.82330000  0.16640000  1.0 0.099948654
C  C47  1  0.49720000  0.36860000  0.44770000  1.0 0.0918439567
C  C48  1  0.63140000  0.50280000  0.94770000  1.0 0.0918439567
C  C49  1  0.87440000  0.98760000  0.93320000  1.0 0.0918439567
C  C50  1  0.01240000  0.12560000  0.43320000  1.0 0.0918439567
C  C51  1  0.40050000  0.32310000  0.75710000  1.0 0.0096574788
C  C52  1  0.67690000  0.59950000  0.25710000  1.0 0.0096574788
C  C53  1  0.32210000  0.18990000  0.77910000  1.0 0.0918439567
C  C54  1  0.81010000  0.67790000  0.27910000  1.0 0.099948654
C  C55  1  0.27680000  0.23380000  0.65070000  1.0 -0.0304438551
C  C56  1  0.76620000  0.72320000  0.15070000  1.0 -0.0304438551
C  C57  1  0.36460000  0.83740000  0.68800000  1.0 0.0778412826
C  C58  1  0.16260000  0.63540000  0.18800000  1.0 0.0778412826
C  C59  1  0.22410000  0.58990000  0.74110000  1.0 -0.0450049818
C  C60  1  0.41010000  0.77590000  0.24110000  1.0 -0.0440985851
C  C61  1  0.44100000  0.82700000  0.69000000  1.0 0.0592490964
C  C62  1  0.17300000  0.55900000  0.19000000  1.0 0.0592490964
C  C63  1  0.15530000  0.59670000  0.72920000  1.0 -0.0304438551
C  C64  1  0.40330000  0.84470000  0.22920000  1.0 -0.0182240976
O  O1  1  0.74010000  0.85170000  0.80160000  1.0 -0.5022437752
O  O2  1  0.14830000  0.25990000  0.30160000  1.0 -0.5022437752
O  O3  1  0.82460000  0.55420000  0.62340000  1.0 -0.4685198694
O  O4  1  0.44580000  0.17540000  0.12340000  1.0 -0.4685198694
O  O5  1  0.00180000  0.82620000  0.70760000  1.0 -0.5900474668
O  O6  1  0.17380000  0.99820000  0.20760000  1.0 -0.5900474668
O  O7  1  0.58950000  0.60470000  0.71590000  1.0 -0.5429533601
O  O8  1  0.39530000  0.41050000  0.21590000  1.0 -0.5429533601
O  O9  1  0.11400000  0.21340000  0.12580000  1.0 -0.5311966817
O  O10  1  0.78660000  0.88600000  0.62580000  1.0 -0.5311966817
O  O11  1  0.45870000  0.19730000  0.30280000  1.0 -0.4832258106
O  O12  1  0.80270000  0.54130000  0.80280000  1.0 -0.4832258106
O  O13  1  0.19230000  0.15670000  0.11910000  1.0 -0.516825068
O  O14  1  0.84330000  0.80770000  0.61910000  1.0 -0.516825068
O  O15  1  0.38030000  0.25310000  0.31090000  1.0 -0.5311966817
O  O16  1  0.74690000  0.61970000  0.81090000  1.0 -0.5311966817
O  O17  1  0.69610000  0.54490000  0.65040000  1.0 -0.5311966817
O  O18  1  0.45510000  0.30390000  0.15040000  1.0 -0.5311966817
O  O19  1  0.55180000  0.77720000  0.69730000  1.0 -0.361741665
O  O20  1  0.22280000  0.44820000  0.19730000  1.0 -0.361741665
O  O21  1  0.88620000  0.87140000  0.77540000  1.0 -0.5479782104
O  O22  1  0.12860000  0.11380000  0.27540000  1.0 -0.5479782104
O  O23  1  0.03360000  0.64860000  0.74330000  1.0 -0.5106041909
O  O24  1  0.35140000  0.96640000  0.24330000  1.0 -0.5106041909
O  O25  1  0.45330000  0.51850000  0.62180000  1.0 -0.4249262989
O  O26  1  0.48150000  0.54670000  0.12180000  1.0 -0.4249262989
O  O27  1  0.14460000  0.91780000  0.80190000  1.0 -0.4378916006
O  O28  1  0.08220000  0.85540000  0.30190000  1.0 -0.4378916006
O  O29  1  0.19910000  0.82990000  0.66370000  1.0 -0.4332333287
O  O30  1  0.17010000  0.80090000  0.16370000  1.0 -0.4332333287
O  O31  1  0.41080000  0.61640000  0.77400000  1.0 -0.4332333287
O  O32  1  0.38360000  0.58920000  0.27400000  1.0 -0.4378916006
