# DDEC6 charges by PACMAN v1.1 (https://github.com/mtap-research/PACMAN-charge/)
data_UFESUW01_FSR_pacman
_symmetry_space_group_name_H-M   'P 1'
_cell_length_a   11.46790000
_cell_length_b   11.46790000
_cell_length_c   16.74500000
_cell_angle_alpha   90.00000000
_cell_angle_beta   90.00000000
_cell_angle_gamma   120.15000000
_symmetry_Int_Tables_number   1
_chemical_formula_structural   FeAg2H12C28(N2O)4
_chemical_formula_sum   'Fe2 Ag4 H24 C56 N16 O8'
_cell_volume   1904.25522442
_cell_formula_units_Z   2
loop_
 _symmetry_equiv_pos_site_id
 _symmetry_equiv_pos_as_xyz
  1  'x, y, z'
loop_
 _atom_site_type_symbol
 _atom_site_label
 _atom_site_symmetry_multiplicity
 _atom_site_fract_x
 _atom_site_fract_y
 _atom_site_fract_z
 _atom_site_occupancy
 _atom_site_charge
Fe  Fe1  1  0.00000000  0.00000000  0.00000000  1.0 0.7811064997
Fe  Fe2  1  0.50000000  0.50000000  0.50000000  1.0 0.7811064997
Ag  Ag1  1  0.84581000  0.84581000  0.30189000  1.0 0.18897601
Ag  Ag2  1  0.65419000  0.65419000  0.80189000  1.0 0.18897601
Ag  Ag3  1  0.34581000  0.34581000  0.19811000  1.0 0.18897601
Ag  Ag4  1  0.15419000  0.15419000  0.69811000  1.0 0.18897601
H  H1  1  0.72540000  0.97120000  0.05510000  1.0 0.1195124236
H  H2  1  0.60830000  0.08510000  0.05550000  1.0 0.1534083017
H  H3  1  0.38490000  0.26750000  0.84870000  1.0 0.1195124236
H  H4  1  0.77460000  0.52880000  0.55510000  1.0 0.1147279494
H  H5  1  0.89170000  0.41490000  0.55550000  1.0 0.1534083017
H  H6  1  0.11510000  0.23250000  0.34870000  1.0 0.1195124236
H  H7  1  0.47120000  0.22540000  0.44490000  1.0 0.1147279494
H  H8  1  0.58510000  0.10830000  0.44450000  1.0 0.1534083017
H  H9  1  0.76750000  0.88490000  0.65130000  1.0 0.1195124236
H  H10  1  0.02880000  0.27460000  0.94490000  1.0 0.1147279494
H  H11  1  0.91490000  0.39170000  0.94450000  1.0 0.1534083017
H  H12  1  0.73250000  0.61510000  0.15130000  1.0 0.1195124236
H  H13  1  0.27460000  0.02880000  0.94490000  1.0 0.1147279494
H  H14  1  0.39170000  0.91490000  0.94450000  1.0 0.1534083017
H  H15  1  0.61510000  0.73250000  0.15130000  1.0 0.1195124236
H  H16  1  0.22540000  0.47120000  0.44490000  1.0 0.1147279494
H  H17  1  0.10830000  0.58510000  0.44450000  1.0 0.1534083017
H  H18  1  0.88490000  0.76750000  0.65130000  1.0 0.1195124236
H  H19  1  0.52880000  0.77460000  0.55510000  1.0 0.1147279494
H  H20  1  0.41490000  0.89170000  0.55550000  1.0 0.1534083017
H  H21  1  0.23250000  0.11510000  0.34870000  1.0 0.1195124236
H  H22  1  0.97120000  0.72540000  0.05510000  1.0 0.1147279494
H  H23  1  0.08510000  0.60830000  0.05550000  1.0 0.1534083017
H  H24  1  0.26750000  0.38490000  0.84870000  1.0 0.1195124236
C  C1  1  0.76390000  0.05670000  0.03260000  1.0 0.1195124236
C  C2  1  0.69390000  0.12490000  0.03280000  1.0 -0.1931203923
C  C3  1  0.57210000  0.28410000  0.94380000  1.0 0.43667501
C  C4  1  0.50370000  0.36230000  0.94350000  1.0 -0.0785596225
C  C5  1  0.40460000  0.33380000  0.88690000  1.0 -0.0785596225
C  C6  1  0.73610000  0.44330000  0.53260000  1.0 0.1147279494
C  C7  1  0.80610000  0.37510000  0.53280000  1.0 -0.1931203923
C  C8  1  0.92790000  0.21590000  0.44380000  1.0 0.43667501
C  C9  1  0.99630000  0.13770000  0.44350000  1.0 -0.0785596225
C  C10  1  0.09540000  0.16620000  0.38690000  1.0 -0.0785596225
C  C11  1  0.55670000  0.26390000  0.46740000  1.0 0.1195124236
C  C12  1  0.62490000  0.19390000  0.46720000  1.0 -0.1931203923
C  C13  1  0.78410000  0.07210000  0.55620000  1.0 0.43667501
C  C14  1  0.86230000  0.00370000  0.55650000  1.0 -0.0785596225
C  C15  1  0.83380000  0.90460000  0.61310000  1.0 -0.0785596225
C  C16  1  0.94330000  0.23610000  0.96740000  1.0 0.1195124236
C  C17  1  0.87510000  0.30610000  0.96720000  1.0 -0.1931203923
C  C18  1  0.71590000  0.42790000  0.05620000  1.0 0.43667501
C  C19  1  0.63770000  0.49630000  0.05650000  1.0 -0.0785596225
C  C20  1  0.66620000  0.59540000  0.11310000  1.0 -0.0785596225
C  C21  1  0.23610000  0.94330000  0.96740000  1.0 0.1195124236
C  C22  1  0.30610000  0.87510000  0.96720000  1.0 -0.1931203923
C  C23  1  0.42790000  0.71590000  0.05620000  1.0 0.43667501
C  C24  1  0.49630000  0.63770000  0.05650000  1.0 -0.0785596225
C  C25  1  0.59540000  0.66620000  0.11310000  1.0 -0.0785596225
C  C26  1  0.26390000  0.55670000  0.46740000  1.0 0.1195124236
C  C27  1  0.19390000  0.62490000  0.46720000  1.0 -0.1931203923
C  C28  1  0.07210000  0.78410000  0.55620000  1.0 0.43667501
C  C29  1  0.00370000  0.86230000  0.55650000  1.0 -0.0785596225
C  C30  1  0.90460000  0.83380000  0.61310000  1.0 -0.0785596225
C  C31  1  0.44330000  0.73610000  0.53260000  1.0 0.1195124236
C  C32  1  0.37510000  0.80610000  0.53280000  1.0 -0.1931203923
C  C33  1  0.21590000  0.92790000  0.44380000  1.0 0.43667501
C  C34  1  0.13770000  0.99630000  0.44350000  1.0 -0.0785596225
C  C35  1  0.16620000  0.09540000  0.38690000  1.0 -0.0785596225
C  C36  1  0.05670000  0.76390000  0.03260000  1.0 0.1195124236
C  C37  1  0.12490000  0.69390000  0.03280000  1.0 -0.1931203923
C  C38  1  0.28410000  0.57210000  0.94380000  1.0 0.43667501
C  C39  1  0.36230000  0.50370000  0.94350000  1.0 -0.0785596225
C  C40  1  0.33380000  0.40460000  0.88690000  1.0 -0.0785596225
C  C41  1  0.91750000  0.91750000  0.18880000  1.0 -0.0229273008
C  C42  1  0.74390000  0.74390000  0.40530000  1.0 0.0056111754
C  C43  1  0.58250000  0.58250000  0.68880000  1.0 -0.0229273008
C  C44  1  0.75610000  0.75610000  0.90530000  1.0 0.0043787437
C  C45  1  0.41750000  0.41750000  0.31120000  1.0 -0.0229273008
C  C46  1  0.24390000  0.24390000  0.09470000  1.0 0.0043787437
C  C47  1  0.08250000  0.08250000  0.81120000  1.0 -0.0229273008
C  C48  1  0.25610000  0.25610000  0.59470000  1.0 0.0043787437
C  C49  1  0.74900000  0.25100000  0.00000000  1.0 0.2229734787
C  C50  1  0.53500000  0.46500000  0.00000000  1.0 0.0301440188
C  C51  1  0.75100000  0.24900000  0.50000000  1.0 0.2229734787
C  C52  1  0.96500000  0.03500000  0.50000000  1.0 0.0301440188
C  C53  1  0.25100000  0.74900000  0.00000000  1.0 0.2229734787
C  C54  1  0.46500000  0.53500000  0.00000000  1.0 0.0301440188
C  C55  1  0.24900000  0.75100000  0.50000000  1.0 0.2229734787
C  C56  1  0.03500000  0.96500000  0.50000000  1.0 0.0301440188
N  N1  1  0.94170000  0.94170000  0.12270000  1.0 -0.3335419244
N  N2  1  0.67340000  0.67340000  0.45570000  1.0 -0.3457837424
N  N3  1  0.55830000  0.55830000  0.62270000  1.0 -0.3335419244
N  N4  1  0.82660000  0.82660000  0.95570000  1.0 -0.3457837424
N  N5  1  0.44170000  0.44170000  0.37730000  1.0 -0.3335419244
N  N6  1  0.17340000  0.17340000  0.04430000  1.0 -0.3457837424
N  N7  1  0.05830000  0.05830000  0.87730000  1.0 -0.3335419244
N  N8  1  0.32660000  0.32660000  0.54430000  1.0 -0.3457837424
N  N9  1  0.88750000  0.11250000  0.00000000  1.0 -0.2197427398
N  N10  1  0.67660000  0.32340000  0.00000000  1.0 -0.234201344
N  N11  1  0.61250000  0.38750000  0.50000000  1.0 -0.2197427398
N  N12  1  0.82340000  0.17660000  0.50000000  1.0 -0.234201344
N  N13  1  0.11250000  0.88750000  0.00000000  1.0 -0.2197427398
N  N14  1  0.32340000  0.67660000  0.00000000  1.0 -0.234201344
N  N15  1  0.38750000  0.61250000  0.50000000  1.0 -0.2197427398
N  N16  1  0.17660000  0.82340000  0.50000000  1.0 -0.234201344
O  O1  1  0.54190000  0.18750000  0.90040000  1.0 -0.4339291432
O  O2  1  0.95810000  0.31250000  0.40040000  1.0 -0.4339291432
O  O3  1  0.68750000  0.04190000  0.59960000  1.0 -0.4339291432
O  O4  1  0.81250000  0.45810000  0.09960000  1.0 -0.4358139954
O  O5  1  0.45810000  0.81250000  0.09960000  1.0 -0.4339291432
O  O6  1  0.04190000  0.68750000  0.59960000  1.0 -0.4339291432
O  O7  1  0.31250000  0.95810000  0.40040000  1.0 -0.4339291432
O  O8  1  0.18750000  0.54190000  0.90040000  1.0 -0.4339291432
