# DDEC6 charges by PACMAN v1.1 (https://github.com/mtap-research/PACMAN-charge/)
data_UFESUW02_ASR_pacman
_symmetry_space_group_name_H-M   'P 1'
_cell_length_a   11.35670000
_cell_length_b   11.35670000
_cell_length_c   16.35780000
_cell_angle_alpha   90.00000000
_cell_angle_beta   90.00000000
_cell_angle_gamma   120.00100000
_symmetry_Int_Tables_number   1
_chemical_formula_structural   FeAg2H12C28(N2O)4
_chemical_formula_sum   'Fe2 Ag4 H24 C56 N16 O8'
_cell_volume   1827.07113490
_cell_formula_units_Z   2
loop_
 _symmetry_equiv_pos_site_id
 _symmetry_equiv_pos_as_xyz
  1  'x, y, z'
loop_
 _atom_site_type_symbol
 _atom_site_label
 _atom_site_symmetry_multiplicity
 _atom_site_fract_x
 _atom_site_fract_y
 _atom_site_fract_z
 _atom_site_occupancy
 _atom_site_charge
Fe  Fe1  1  0.00000000  0.00000000  0.00000000  1.0 0.8194286137
Fe  Fe2  1  0.50000000  0.50000000  0.50000000  1.0 0.8194286137
Ag  Ag1  1  0.84625000  0.84625000  0.30210000  1.0 0.174599292
Ag  Ag2  1  0.65375000  0.65375000  0.80210000  1.0 0.174599292
Ag  Ag3  1  0.34625000  0.34625000  0.19790000  1.0 0.174599292
Ag  Ag4  1  0.15375000  0.15375000  0.69790000  1.0 0.174599292
H  H1  1  0.72548000  0.96138000  0.05155000  1.0 0.110899566
H  H2  1  0.60386000  0.07554000  0.05448000  1.0 0.1500002875
H  H3  1  0.38129000  0.26105000  0.84558000  1.0 0.1244518816
H  H4  1  0.77452000  0.53862000  0.55155000  1.0 0.110899566
H  H5  1  0.89614000  0.42446000  0.55448000  1.0 0.1500002875
H  H6  1  0.11871000  0.23895000  0.34558000  1.0 0.1244518816
H  H7  1  0.46138000  0.22548000  0.44845000  1.0 0.110899566
H  H8  1  0.57554000  0.10386000  0.44552000  1.0 0.1500002875
H  H9  1  0.76105000  0.88129000  0.65442000  1.0 0.1244518816
H  H10  1  0.03862000  0.27452000  0.94845000  1.0 0.110899566
H  H11  1  0.92446000  0.39614000  0.94552000  1.0 0.1500002875
H  H12  1  0.73895000  0.61871000  0.15442000  1.0 0.1244518816
H  H13  1  0.27452000  0.03862000  0.94845000  1.0 0.110899566
H  H14  1  0.39614000  0.92446000  0.94552000  1.0 0.1500002875
H  H15  1  0.61871000  0.73895000  0.15442000  1.0 0.1244518816
H  H16  1  0.22548000  0.46138000  0.44845000  1.0 0.110899566
H  H17  1  0.10386000  0.57554000  0.44552000  1.0 0.1500002875
H  H18  1  0.88129000  0.76105000  0.65442000  1.0 0.1244518816
H  H19  1  0.53862000  0.77452000  0.55155000  1.0 0.110899566
H  H20  1  0.42446000  0.89614000  0.55448000  1.0 0.1500002875
H  H21  1  0.23895000  0.11871000  0.34558000  1.0 0.1244518816
H  H22  1  0.96138000  0.72548000  0.05155000  1.0 0.110899566
H  H23  1  0.07554000  0.60386000  0.05448000  1.0 0.1500002875
H  H24  1  0.26105000  0.38129000  0.84558000  1.0 0.1244518816
C  C1  1  0.76640000  0.05120000  0.03030000  1.0 0.110899566
C  C2  1  0.69290000  0.11790000  0.03200000  1.0 -0.2006135319
C  C3  1  0.57230000  0.28010000  0.94340000  1.0 0.4395976274
C  C4  1  0.50250000  0.35990000  0.94200000  1.0 -0.0745195371
C  C5  1  0.40230000  0.33010000  0.88500000  1.0 -0.0853873656
C  C6  1  0.73360000  0.44880000  0.53030000  1.0 0.110899566
C  C7  1  0.80710000  0.38210000  0.53200000  1.0 -0.2006135319
C  C8  1  0.92770000  0.21990000  0.44340000  1.0 0.4395976274
C  C9  1  0.99750000  0.14010000  0.44200000  1.0 -0.0745195371
C  C10  1  0.09770000  0.16990000  0.38500000  1.0 -0.0853873656
C  C11  1  0.55120000  0.26640000  0.46970000  1.0 0.110899566
C  C12  1  0.61790000  0.19290000  0.46800000  1.0 -0.2006135319
C  C13  1  0.78010000  0.07230000  0.55660000  1.0 0.4395976274
C  C14  1  0.85990000  0.00250000  0.55800000  1.0 -0.0745195371
C  C15  1  0.83010000  0.90230000  0.61500000  1.0 -0.0853873656
C  C16  1  0.94880000  0.23360000  0.96970000  1.0 0.110899566
C  C17  1  0.88210000  0.30710000  0.96800000  1.0 -0.2006135319
C  C18  1  0.71990000  0.42770000  0.05660000  1.0 0.4395976274
C  C19  1  0.64010000  0.49750000  0.05800000  1.0 -0.0745195371
C  C20  1  0.66990000  0.59770000  0.11500000  1.0 -0.0853873656
C  C21  1  0.23360000  0.94880000  0.96970000  1.0 0.110899566
C  C22  1  0.30710000  0.88210000  0.96800000  1.0 -0.2006135319
C  C23  1  0.42770000  0.71990000  0.05660000  1.0 0.4395976274
C  C24  1  0.49750000  0.64010000  0.05800000  1.0 -0.0745195371
C  C25  1  0.59770000  0.66990000  0.11500000  1.0 -0.0853873656
C  C26  1  0.26640000  0.55120000  0.46970000  1.0 0.110899566
C  C27  1  0.19290000  0.61790000  0.46800000  1.0 -0.2006135319
C  C28  1  0.07230000  0.78010000  0.55660000  1.0 0.4395976274
C  C29  1  0.00250000  0.85990000  0.55800000  1.0 -0.0745195371
C  C30  1  0.90230000  0.83010000  0.61500000  1.0 -0.0853873656
C  C31  1  0.44880000  0.73360000  0.53030000  1.0 0.110899566
C  C32  1  0.38210000  0.80710000  0.53200000  1.0 -0.2006135319
C  C33  1  0.21990000  0.92770000  0.44340000  1.0 0.4395976274
C  C34  1  0.14010000  0.99750000  0.44200000  1.0 -0.0745195371
C  C35  1  0.16990000  0.09770000  0.38500000  1.0 -0.0853873656
C  C36  1  0.05120000  0.76640000  0.03030000  1.0 0.110899566
C  C37  1  0.11790000  0.69290000  0.03200000  1.0 -0.2006135319
C  C38  1  0.28010000  0.57230000  0.94340000  1.0 0.4395976274
C  C39  1  0.35990000  0.50250000  0.94200000  1.0 -0.0745195371
C  C40  1  0.33010000  0.40230000  0.88500000  1.0 -0.0853873656
C  C41  1  0.91860000  0.91860000  0.18670000  1.0 -0.0172062981
C  C42  1  0.74170000  0.74170000  0.40510000  1.0 -0.0046182471
C  C43  1  0.58140000  0.58140000  0.68670000  1.0 -0.0172062981
C  C44  1  0.75830000  0.75830000  0.90510000  1.0 -0.0050336782
C  C45  1  0.41860000  0.41860000  0.31330000  1.0 -0.0172062981
C  C46  1  0.24170000  0.24170000  0.09490000  1.0 -0.0050336782
C  C47  1  0.08140000  0.08140000  0.81330000  1.0 -0.0172062981
C  C48  1  0.25830000  0.25830000  0.59490000  1.0 -0.0050336782
C  C49  1  0.75210000  0.24790000  0.00000000  1.0 0.2290107667
C  C50  1  0.53500000  0.46500000  0.00000000  1.0 0.0196692145
C  C51  1  0.74790000  0.25210000  0.50000000  1.0 0.2290107667
C  C52  1  0.96500000  0.03500000  0.50000000  1.0 0.0196692145
C  C53  1  0.24790000  0.75210000  0.00000000  1.0 0.2290107667
C  C54  1  0.46500000  0.53500000  0.00000000  1.0 0.0196692145
C  C55  1  0.25210000  0.74790000  0.50000000  1.0 0.2290107667
C  C56  1  0.03500000  0.96500000  0.50000000  1.0 0.0196692145
N  N1  1  0.94310000  0.94310000  0.11870000  1.0 -0.3270090611
N  N2  1  0.66666667  0.66666667  0.45300000  1.0 -0.3392771126
N  N3  1  0.55690000  0.55690000  0.61870000  1.0 -0.3270090611
N  N4  1  0.83332000  0.83332000  0.95300000  1.0 -0.3392771126
N  N5  1  0.44310000  0.44310000  0.38130000  1.0 -0.3270090611
N  N6  1  0.16668000  0.16668000  0.04700000  1.0 -0.3392771126
N  N7  1  0.05690000  0.05690000  0.88130000  1.0 -0.3270090611
N  N8  1  0.33333333  0.33333333  0.54700000  1.0 -0.3392771126
N  N9  1  0.89290000  0.10710000  0.00000000  1.0 -0.2168898337
N  N10  1  0.67890000  0.32110000  0.00000000  1.0 -0.2313529343
N  N11  1  0.60710000  0.39290000  0.50000000  1.0 -0.2168898337
N  N12  1  0.82110000  0.17890000  0.50000000  1.0 -0.2313529343
N  N13  1  0.10710000  0.89290000  0.00000000  1.0 -0.2168898337
N  N14  1  0.32110000  0.67890000  0.00000000  1.0 -0.2313529343
N  N15  1  0.39290000  0.60710000  0.50000000  1.0 -0.2168898337
N  N16  1  0.17890000  0.82110000  0.50000000  1.0 -0.2313529343
O  O1  1  0.54156000  0.18284000  0.89970000  1.0 -0.4234927536
O  O2  1  0.95844000  0.31716000  0.39970000  1.0 -0.4234927536
O  O3  1  0.68284000  0.04156000  0.60030000  1.0 -0.4234927536
O  O4  1  0.81716000  0.45844000  0.10030000  1.0 -0.4234927536
O  O5  1  0.45844000  0.81716000  0.10030000  1.0 -0.4234927536
O  O6  1  0.04156000  0.68284000  0.60030000  1.0 -0.4234927536
O  O7  1  0.31716000  0.95844000  0.39970000  1.0 -0.4234927536
O  O8  1  0.18284000  0.54156000  0.89970000  1.0 -0.4234927536
