# DDEC6 charges by PACMAN v1.1 (https://github.com/mtap-research/PACMAN-charge/)
data_UFEXOT_FSR_pacman
_symmetry_space_group_name_H-M   'P 1'
_cell_length_a   15.92790000
_cell_length_b   15.92790000
_cell_length_c   15.92790000
_cell_angle_alpha   117.91800000
_cell_angle_beta   117.91800000
_cell_angle_gamma   117.91800000
_symmetry_Int_Tables_number   1
_chemical_formula_structural   Er6Cu3H20C30(N4O9)3
_chemical_formula_sum   'Er6 Cu3 H20 C30 N12 O27'
_cell_volume   1496.03159778
_cell_formula_units_Z   1
loop_
 _symmetry_equiv_pos_site_id
 _symmetry_equiv_pos_as_xyz
  1  'x, y, z'
loop_
 _atom_site_type_symbol
 _atom_site_label
 _atom_site_symmetry_multiplicity
 _atom_site_fract_x
 _atom_site_fract_y
 _atom_site_fract_z
 _atom_site_occupancy
 _atom_site_charge
Er  Er1  1  0.71089000  0.86371000  0.77475000  1.0 2.0415225586
Er  Er2  1  0.86371000  0.77475000  0.71089000  1.0 2.0415225586
Er  Er3  1  0.77475000  0.71089000  0.86371000  1.0 2.0415225586
Er  Er4  1  0.28911000  0.13629000  0.22525000  1.0 2.0415225586
Er  Er5  1  0.13629000  0.22525000  0.28911000  1.0 2.0415225586
Er  Er6  1  0.22525000  0.28911000  0.13629000  1.0 2.0415225586
Cu  Cu1  1  0.50000000  0.00000000  0.50000000  1.0 0.6286726754
Cu  Cu2  1  0.00000000  0.50000000  0.50000000  1.0 0.6286726754
Cu  Cu3  1  0.50000000  0.50000000  0.00000000  1.0 0.6286726754
H  H1  1  0.03680000  0.26760000  0.13350000  1.0 0.3779709201
H  H2  1  0.26760000  0.13350000  0.03680000  1.0 0.3779709201
H  H3  1  0.13350000  0.03680000  0.26760000  1.0 0.3779709201
H  H4  1  0.96320000  0.73240000  0.86650000  1.0 0.3779709201
H  H5  1  0.73240000  0.86650000  0.96320000  1.0 0.3779709201
H  H6  1  0.86650000  0.96320000  0.73240000  1.0 0.3779709201
H  H7  1  0.15600000  0.57540000  0.06350000  1.0 0.1251449149
H  H8  1  0.57540000  0.06350000  0.15600000  1.0 0.1251449149
H  H9  1  0.06350000  0.15600000  0.57540000  1.0 0.1251449149
H  H10  1  0.84400000  0.42460000  0.93650000  1.0 0.1251449149
H  H11  1  0.42460000  0.93650000  0.84400000  1.0 0.1251449149
H  H12  1  0.93650000  0.84400000  0.42460000  1.0 0.1251449149
H  H13  1  0.04100000  0.32290000  0.91590000  1.0 0.116011263
H  H14  1  0.32290000  0.91590000  0.04100000  1.0 0.116011263
H  H15  1  0.91590000  0.04100000  0.32290000  1.0 0.116011263
H  H16  1  0.95900000  0.67710000  0.08410000  1.0 0.116011263
H  H17  1  0.67710000  0.08410000  0.95900000  1.0 0.116011263
H  H18  1  0.08410000  0.95900000  0.67710000  1.0 0.116011263
H  H19  1  0.56037000  0.56037000  0.56037000  1.0 0.2569518845
H  H20  1  0.43963000  0.43963000  0.43963000  1.0 0.2569518845
C  C1  1  0.38610000  0.62750000  0.35550000  1.0 0.4388202887
C  C2  1  0.62750000  0.35550000  0.38610000  1.0 0.4388202887
C  C3  1  0.35550000  0.38610000  0.62750000  1.0 0.4388202887
C  C4  1  0.61390000  0.37250000  0.64450000  1.0 0.4388202887
C  C5  1  0.37250000  0.64450000  0.61390000  1.0 0.4388202887
C  C6  1  0.64450000  0.61390000  0.37250000  1.0 0.4388202887
C  C7  1  0.45960000  0.78490000  0.44620000  1.0 -0.0804700878
C  C8  1  0.78490000  0.44620000  0.45960000  1.0 -0.0804700878
C  C9  1  0.44620000  0.45960000  0.78490000  1.0 -0.0804700878
C  C10  1  0.54040000  0.21510000  0.55380000  1.0 -0.0804700878
C  C11  1  0.21510000  0.55380000  0.54040000  1.0 -0.0804700878
C  C12  1  0.55380000  0.54040000  0.21510000  1.0 -0.0804700878
C  C13  1  0.21750000  0.59200000  0.14050000  1.0 -0.0509614232
C  C14  1  0.59200000  0.14050000  0.21750000  1.0 -0.0509614232
C  C15  1  0.14050000  0.21750000  0.59200000  1.0 -0.0509614232
C  C16  1  0.78250000  0.40800000  0.85950000  1.0 -0.0509614232
C  C17  1  0.40800000  0.85950000  0.78250000  1.0 -0.0509614232
C  C18  1  0.85950000  0.78250000  0.40800000  1.0 -0.0509614232
C  C19  1  0.14830000  0.44040000  0.05230000  1.0 0.0986604553
C  C20  1  0.44040000  0.05230000  0.14830000  1.0 0.0986604553
C  C21  1  0.05230000  0.14830000  0.44040000  1.0 0.0986604553
C  C22  1  0.85170000  0.55960000  0.94770000  1.0 0.0986604553
C  C23  1  0.55960000  0.94770000  0.85170000  1.0 0.0986604553
C  C24  1  0.94770000  0.85170000  0.55960000  1.0 0.0986604553
C  C25  1  0.63630000  0.98500000  0.66490000  1.0 0.5535220863
C  C26  1  0.98500000  0.66490000  0.63630000  1.0 0.5535220863
C  C27  1  0.66490000  0.63630000  0.98500000  1.0 0.5535220863
C  C28  1  0.36370000  0.01500000  0.33510000  1.0 0.5535220863
C  C29  1  0.01500000  0.33510000  0.36370000  1.0 0.5535220863
C  C30  1  0.33510000  0.36370000  0.01500000  1.0 0.5535220863
N  N1  1  0.23025000  0.45785000  0.15600000  1.0 -0.4319571097
N  N2  1  0.45785000  0.15600000  0.23025000  1.0 -0.4319571097
N  N3  1  0.15600000  0.23025000  0.45785000  1.0 -0.4319571097
N  N4  1  0.76975000  0.54215000  0.84400000  1.0 -0.4319571097
N  N5  1  0.54215000  0.84400000  0.76975000  1.0 -0.4319571097
N  N6  1  0.84400000  0.76975000  0.54215000  1.0 -0.4319571097
N  N7  1  0.37160000  0.76120000  0.33530000  1.0 -0.2090471773
N  N8  1  0.76120000  0.33530000  0.37160000  1.0 -0.2090471773
N  N9  1  0.33530000  0.37160000  0.76120000  1.0 -0.2090471773
N  N10  1  0.62840000  0.23880000  0.66470000  1.0 -0.2090471773
N  N11  1  0.23880000  0.66470000  0.62840000  1.0 -0.2090471773
N  N12  1  0.66470000  0.62840000  0.23880000  1.0 -0.2090471773
O  O1  1  0.45192000  0.62928000  0.44300000  1.0 -0.7027145464
O  O2  1  0.62928000  0.44300000  0.45192000  1.0 -0.7027145464
O  O3  1  0.44300000  0.45192000  0.62928000  1.0 -0.7027145464
O  O4  1  0.54808000  0.37072000  0.55700000  1.0 -0.7027145464
O  O5  1  0.37072000  0.55700000  0.54808000  1.0 -0.7027145464
O  O6  1  0.55700000  0.54808000  0.37072000  1.0 -0.7027145464
O  O7  1  0.73066000  0.02421000  0.78063000  1.0 -0.6017194826
O  O8  1  0.02421000  0.78063000  0.73066000  1.0 -0.6017194826
O  O9  1  0.78063000  0.73066000  0.02421000  1.0 -0.6017194826
O  O10  1  0.26934000  0.97579000  0.21937000  1.0 -0.6017194826
O  O11  1  0.97579000  0.21937000  0.26934000  1.0 -0.6017194826
O  O12  1  0.21937000  0.26934000  0.97579000  1.0 -0.6017194826
O  O13  1  0.67810000  0.10590000  0.71790000  1.0 -0.5365341742
O  O14  1  0.10590000  0.71790000  0.67810000  1.0 -0.5365341742
O  O15  1  0.71790000  0.67810000  0.10590000  1.0 -0.5365341742
O  O16  1  0.32190000  0.89410000  0.28210000  1.0 -0.5365341742
O  O17  1  0.89410000  0.28210000  0.32190000  1.0 -0.5365341742
O  O18  1  0.28210000  0.32190000  0.89410000  1.0 -0.5365341742
O  O19  1  0.00000000  0.00000000  0.00000000  1.0 -0.7318988282
O  O20  1  0.02992000  0.20262000  0.10456000  1.0 -1.0768420536
O  O21  1  0.20262000  0.10456000  0.02992000  1.0 -1.0768420536
O  O22  1  0.10456000  0.02992000  0.20262000  1.0 -1.0768420536
O  O23  1  0.97008000  0.79738000  0.89544000  1.0 -1.0768420536
O  O24  1  0.79738000  0.89544000  0.97008000  1.0 -1.0768420536
O  O25  1  0.89544000  0.97008000  0.79738000  1.0 -1.0768420536
O  O26  1  0.68257000  0.68257000  0.68257000  1.0 -1.0182307798
O  O27  1  0.31743000  0.31743000  0.31743000  1.0 -1.0182307798
