# DDEC6 charges by PACMAN v1.1 (https://github.com/mtap-research/PACMAN-charge/)
data_UFEXEJ_FSR_pacman
_symmetry_space_group_name_H-M   'P 1'
_cell_length_a   16.00200000
_cell_length_b   16.00200000
_cell_length_c   16.00200000
_cell_angle_alpha   117.91100000
_cell_angle_beta   117.91100000
_cell_angle_gamma   117.91100000
_symmetry_Int_Tables_number   1
_chemical_formula_structural   Dy6Cu3H20C30(N4O9)3
_chemical_formula_sum   'Dy6 Cu3 H20 C30 N12 O27'
_cell_volume   1519.47019333
_cell_formula_units_Z   1
loop_
 _symmetry_equiv_pos_site_id
 _symmetry_equiv_pos_as_xyz
  1  'x, y, z'
loop_
 _atom_site_type_symbol
 _atom_site_label
 _atom_site_symmetry_multiplicity
 _atom_site_fract_x
 _atom_site_fract_y
 _atom_site_fract_z
 _atom_site_occupancy
 _atom_site_charge
Dy  Dy1  1  0.71102000  0.86418000  0.77538000  1.0 1.7827311236
Dy  Dy2  1  0.86418000  0.77538000  0.71102000  1.0 1.7827311236
Dy  Dy3  1  0.77538000  0.71102000  0.86418000  1.0 1.7827311236
Dy  Dy4  1  0.28898000  0.13582000  0.22462000  1.0 1.7827311236
Dy  Dy5  1  0.13582000  0.22462000  0.28898000  1.0 1.7827311236
Dy  Dy6  1  0.22462000  0.28898000  0.13582000  1.0 1.7827311236
Cu  Cu1  1  0.50000000  0.00000000  0.50000000  1.0 0.6636739252
Cu  Cu2  1  0.00000000  0.50000000  0.50000000  1.0 0.6636739252
Cu  Cu3  1  0.50000000  0.50000000  0.00000000  1.0 0.6636739252
H  H1  1  0.15460000  0.57750000  0.06580000  1.0 0.1305756945
H  H2  1  0.57750000  0.06580000  0.15460000  1.0 0.1305756945
H  H3  1  0.06580000  0.15460000  0.57750000  1.0 0.1305756945
H  H4  1  0.84540000  0.42250000  0.93420000  1.0 0.1305756945
H  H5  1  0.42250000  0.93420000  0.84540000  1.0 0.1305756945
H  H6  1  0.93420000  0.84540000  0.42250000  1.0 0.1305756945
H  H7  1  0.04400000  0.32840000  0.91910000  1.0 0.1305756945
H  H8  1  0.32840000  0.91910000  0.04400000  1.0 0.1305756945
H  H9  1  0.91910000  0.04400000  0.32840000  1.0 0.1305756945
H  H10  1  0.95600000  0.67160000  0.08090000  1.0 0.1305756945
H  H11  1  0.67160000  0.08090000  0.95600000  1.0 0.1305756945
H  H12  1  0.08090000  0.95600000  0.67160000  1.0 0.1305756945
H  H13  1  0.55937000  0.55937000  0.55937000  1.0 0.2950998622
H  H14  1  0.44063000  0.44063000  0.44063000  1.0 0.2950998622
H  H15  1  0.97950000  0.00550000  0.86820000  1.0 0.2389059964
H  H16  1  0.00550000  0.86820000  0.97950000  1.0 0.2389059964
H  H17  1  0.86820000  0.97950000  0.00550000  1.0 0.2389059964
H  H18  1  0.02050000  0.99450000  0.13180000  1.0 0.2389059964
H  H19  1  0.99450000  0.13180000  0.02050000  1.0 0.2389059964
H  H20  1  0.13180000  0.02050000  0.99450000  1.0 0.2389059964
C  C1  1  0.38550000  0.62890000  0.35560000  1.0 0.4522422928
C  C2  1  0.62890000  0.35560000  0.38550000  1.0 0.4522422928
C  C3  1  0.35560000  0.38550000  0.62890000  1.0 0.4522422928
C  C4  1  0.61450000  0.37110000  0.64440000  1.0 0.4522422928
C  C5  1  0.37110000  0.64440000  0.61450000  1.0 0.4522422928
C  C6  1  0.64440000  0.61450000  0.37110000  1.0 0.4522422928
C  C7  1  0.45890000  0.78520000  0.44630000  1.0 -0.069423191
C  C8  1  0.78520000  0.44630000  0.45890000  1.0 -0.069423191
C  C9  1  0.44630000  0.45890000  0.78520000  1.0 -0.069423191
C  C10  1  0.54110000  0.21480000  0.55370000  1.0 -0.069423191
C  C11  1  0.21480000  0.55370000  0.54110000  1.0 -0.069423191
C  C12  1  0.55370000  0.54110000  0.21480000  1.0 -0.069423191
C  C13  1  0.21720000  0.59410000  0.14200000  1.0 -0.03836593
C  C14  1  0.59410000  0.14200000  0.21720000  1.0 -0.03836593
C  C15  1  0.14200000  0.21720000  0.59410000  1.0 -0.03836593
C  C16  1  0.78280000  0.40590000  0.85800000  1.0 -0.03836593
C  C17  1  0.40590000  0.85800000  0.78280000  1.0 -0.03836593
C  C18  1  0.85800000  0.78280000  0.40590000  1.0 -0.03836593
C  C19  1  0.14960000  0.44420000  0.05440000  1.0 0.1073426384
C  C20  1  0.44420000  0.05440000  0.14960000  1.0 0.1073426384
C  C21  1  0.05440000  0.14960000  0.44420000  1.0 0.1073426384
C  C22  1  0.85040000  0.55580000  0.94560000  1.0 0.1073426384
C  C23  1  0.55580000  0.94560000  0.85040000  1.0 0.1073426384
C  C24  1  0.94560000  0.85040000  0.55580000  1.0 0.1073426384
C  C25  1  0.63250000  0.98370000  0.66280000  1.0 0.561225422
C  C26  1  0.98370000  0.66280000  0.63250000  1.0 0.561225422
C  C27  1  0.66280000  0.63250000  0.98370000  1.0 0.561225422
C  C28  1  0.36750000  0.01630000  0.33720000  1.0 0.561225422
C  C29  1  0.01630000  0.33720000  0.36750000  1.0 0.561225422
C  C30  1  0.33720000  0.36750000  0.01630000  1.0 0.561225422
N  N1  1  0.23050000  0.45970000  0.15720000  1.0 -0.3848624152
N  N2  1  0.45970000  0.15720000  0.23050000  1.0 -0.3848624152
N  N3  1  0.15720000  0.23050000  0.45970000  1.0 -0.3848624152
N  N4  1  0.76950000  0.54030000  0.84280000  1.0 -0.3848624152
N  N5  1  0.54030000  0.84280000  0.76950000  1.0 -0.3848624152
N  N6  1  0.84280000  0.76950000  0.54030000  1.0 -0.3848624152
N  N7  1  0.37340000  0.76350000  0.33750000  1.0 -0.2058006686
N  N8  1  0.76350000  0.33750000  0.37340000  1.0 -0.2058006686
N  N9  1  0.33750000  0.37340000  0.76350000  1.0 -0.2058006686
N  N10  1  0.62660000  0.23650000  0.66250000  1.0 -0.2058006686
N  N11  1  0.23650000  0.66250000  0.62660000  1.0 -0.2058006686
N  N12  1  0.66250000  0.62660000  0.23650000  1.0 -0.2046467137
O  O1  1  0.45172000  0.63023000  0.44285000  1.0 -0.6483105542
O  O2  1  0.63023000  0.44285000  0.45172000  1.0 -0.6483105542
O  O3  1  0.44285000  0.45172000  0.63023000  1.0 -0.6483105542
O  O4  1  0.54828000  0.36977000  0.55715000  1.0 -0.6483105542
O  O5  1  0.36977000  0.55715000  0.54828000  1.0 -0.6483105542
O  O6  1  0.55715000  0.54828000  0.36977000  1.0 -0.6483105542
O  O7  1  0.72801000  0.02301000  0.77908000  1.0 -0.5517128032
O  O8  1  0.02301000  0.77908000  0.72801000  1.0 -0.5517128032
O  O9  1  0.77908000  0.72801000  0.02301000  1.0 -0.5517128032
O  O10  1  0.27199000  0.97699000  0.22092000  1.0 -0.5517128032
O  O11  1  0.97699000  0.22092000  0.27199000  1.0 -0.5517128032
O  O12  1  0.22092000  0.27199000  0.97699000  1.0 -0.5517128032
O  O13  1  0.67583000  0.10447000  0.71620000  1.0 -0.5228358032
O  O14  1  0.10447000  0.71620000  0.67583000  1.0 -0.5228358032
O  O15  1  0.71620000  0.67583000  0.10447000  1.0 -0.5228358032
O  O16  1  0.32417000  0.89553000  0.28380000  1.0 -0.5228358032
O  O17  1  0.89553000  0.28380000  0.32417000  1.0 -0.5228358032
O  O18  1  0.28380000  0.32417000  0.89553000  1.0 -0.5228358032
O  O19  1  0.68077000  0.68077000  0.68077000  1.0 -0.9484165829
O  O20  1  0.31923000  0.31923000  0.31923000  1.0 -0.9484165829
O  O21  1  0.89324000  0.96952000  0.79454000  1.0 -0.960121008
O  O22  1  0.96952000  0.79454000  0.89324000  1.0 -0.960121008
O  O23  1  0.79454000  0.89324000  0.96952000  1.0 -0.960121008
O  O24  1  0.10676000  0.03048000  0.20546000  1.0 -0.960121008
O  O25  1  0.03048000  0.20546000  0.10676000  1.0 -0.960121008
O  O26  1  0.20546000  0.10676000  0.03048000  1.0 -0.960121008
O  O27  1  0.00000000  0.00000000  0.00000000  1.0 -0.818541221
