# DDEC6 charges by PACMAN v1.1 (https://github.com/mtap-research/PACMAN-charge/)
data_UFISOS_ion_pacman
_symmetry_space_group_name_H-M   'P 1'
_cell_length_a   13.83550000
_cell_length_b   12.52170000
_cell_length_c   8.72435000
_cell_angle_alpha   79.05480000
_cell_angle_beta   62.69450000
_cell_angle_gamma   38.25080000
_symmetry_Int_Tables_number   1
_chemical_formula_structural   Li2Fe2C4Cl2O9
_chemical_formula_sum   'Li4 Fe4 C8 Cl4 O18'
_cell_volume   790.59107221
_cell_formula_units_Z   2
loop_
 _symmetry_equiv_pos_site_id
 _symmetry_equiv_pos_as_xyz
  1  'x, y, z'
loop_
 _atom_site_type_symbol
 _atom_site_label
 _atom_site_symmetry_multiplicity
 _atom_site_fract_x
 _atom_site_fract_y
 _atom_site_fract_z
 _atom_site_occupancy
 _atom_site_charge
Li  Li1  1  0.33540000  0.27580000  0.36420000  1.0 0.7204999898
Li  Li2  1  0.02460000  0.36420000  0.27580000  1.0 0.7204999898
Li  Li3  1  0.97420000  0.91460000  0.22540000  1.0 0.7204999898
Li  Li4  1  0.88580000  0.22540000  0.91460000  1.0 0.7143821889
Fe  Fe1  1  0.36990000  0.73938000  0.78578000  1.0 1.0989727848
Fe  Fe2  1  0.10494000  0.78578000  0.73938000  1.0 1.0989727848
Fe  Fe3  1  0.51062000  0.88010000  0.14506000  1.0 1.0989727848
Fe  Fe4  1  0.46422000  0.14506000  0.88010000  1.0 1.0989727848
C  C1  1  0.53586000  0.74780000  0.88180000  1.0 0.4631294185
C  C2  1  0.83454000  0.88180000  0.74780000  1.0 0.4631294185
C  C3  1  0.50220000  0.71414000  0.41546000  1.0 0.4654200727
C  C4  1  0.36820000  0.41546000  0.71414000  1.0 0.4631294185
C  C5  1  0.34112000  0.88266000  0.04114000  1.0 0.4654200727
C  C6  1  0.73508000  0.04114000  0.88266000  1.0 0.4654200727
C  C7  1  0.36734000  0.90888000  0.51492000  1.0 0.4654200727
C  C8  1  0.20886000  0.51492000  0.90888000  1.0 0.4654200727
Cl  Cl1  1  0.51002000  0.47814000  0.85380000  1.0 -0.4686396307
Cl  Cl2  1  0.15804000  0.85380000  0.47814000  1.0 -0.4686396307
Cl  Cl3  1  0.77186000  0.73998000  0.09196000  1.0 -0.4686396307
Cl  Cl4  1  0.39620000  0.09196000  0.73998000  1.0 -0.4686396307
O  O1  1  0.15630000  0.84370000  0.84370000  1.0 -0.7421229309
O  O2  1  0.40630000  0.09370000  0.09370000  1.0 -0.7421229309
O  O3  1  0.58073000  0.66923000  0.74653000  1.0 -0.4776796128
O  O4  1  0.00351000  0.74653000  0.66923000  1.0 -0.4686396307
O  O5  1  0.58077000  0.66927000  0.24649000  1.0 -0.4776796128
O  O6  1  0.50347000  0.24649000  0.66927000  1.0 -0.4776796128
O  O7  1  0.24481000  0.89917000  0.02399000  1.0 -0.487056972
O  O8  1  0.83203000  0.02399000  0.89917000  1.0 -0.487056972
O  O9  1  0.35083000  0.00519000  0.41797000  1.0 -0.487056972
O  O10  1  0.22601000  0.41797000  0.00519000  1.0 -0.487056972
O  O11  1  0.29438000  0.96602000  0.17390000  1.0 -0.487056972
O  O12  1  0.56570000  0.17390000  0.96602000  1.0 -0.487056972
O  O13  1  0.28398000  0.95562000  0.68430000  1.0 -0.487056972
O  O14  1  0.07610000  0.68430000  0.95562000  1.0 -0.487056972
O  O15  1  0.63411000  0.72685000  0.90273000  1.0 -0.4578308216
O  O16  1  0.73631000  0.90273000  0.72685000  1.0 -0.4578308216
O  O17  1  0.52315000  0.61589000  0.51369000  1.0 -0.4578308216
O  O18  1  0.34727000  0.51369000  0.61589000  1.0 -0.4578308216
