# DDEC6 charges by PACMAN v1.1 (https://github.com/mtap-research/PACMAN-charge/)
data_UFOGEE_ASR_pacman
_symmetry_space_group_name_H-M   'P 1'
_cell_length_a   14.85710000
_cell_length_b   14.85710000
_cell_length_c   17.57300000
_cell_angle_alpha   75.44950000
_cell_angle_beta   104.55000000
_cell_angle_gamma   156.31900000
_symmetry_Int_Tables_number   1
_chemical_formula_structural   ZnH16C24(NO)4
_chemical_formula_sum   'Zn2 H32 C48 N8 O8'
_cell_volume   1505.75525025
_cell_formula_units_Z   2
loop_
 _symmetry_equiv_pos_site_id
 _symmetry_equiv_pos_as_xyz
  1  'x, y, z'
loop_
 _atom_site_type_symbol
 _atom_site_label
 _atom_site_symmetry_multiplicity
 _atom_site_fract_x
 _atom_site_fract_y
 _atom_site_fract_z
 _atom_site_occupancy
 _atom_site_charge
Zn  Zn1  1  0.07117000  0.07117000  0.25000000  1.0 0.7358887665
Zn  Zn2  1  0.92883000  0.92883000  0.75000000  1.0 0.7358887665
H  H1  1  0.61250000  0.71170000  0.28270000  1.0 0.1179165825
H  H2  1  0.37040000  0.46960000  0.38150000  1.0 0.1376156084
H  H3  1  0.84020000  0.74160000  0.52540000  1.0 0.1288466942
H  H4  1  0.06650000  0.97170000  0.42080000  1.0 0.1082910979
H  H5  1  0.68790000  0.49850000  0.36930000  1.0 0.1179165825
H  H6  1  0.95460000  0.63540000  0.44330000  1.0 0.1179165825
H  H7  1  0.56470000  0.06970000  0.41530000  1.0 0.1288466942
H  H8  1  0.29480000  0.92700000  0.34790000  1.0 0.1179165825
H  H9  1  0.71170000  0.61250000  0.21730000  1.0 0.1179165825
H  H10  1  0.46960000  0.37040000  0.11850000  1.0 0.1376156084
H  H11  1  0.74160000  0.84020000  0.97460000  1.0 0.1288466942
H  H12  1  0.97170000  0.06650000  0.07920000  1.0 0.1082910979
H  H13  1  0.49850000  0.68790000  0.13070000  1.0 0.1179165825
H  H14  1  0.63540000  0.95460000  0.05670000  1.0 0.1179165825
H  H15  1  0.06970000  0.56470000  0.08470000  1.0 0.1288466942
H  H16  1  0.92700000  0.29480000  0.15210000  1.0 0.1179165825
H  H17  1  0.38750000  0.28830000  0.71730000  1.0 0.1179165825
H  H18  1  0.62960000  0.53040000  0.61850000  1.0 0.1376156084
H  H19  1  0.15980000  0.25840000  0.47460000  1.0 0.1288466942
H  H20  1  0.93350000  0.02830000  0.57920000  1.0 0.1082910979
H  H21  1  0.31210000  0.50150000  0.63070000  1.0 0.1179165825
H  H22  1  0.04540000  0.36460000  0.55670000  1.0 0.1179165825
H  H23  1  0.43530000  0.93030000  0.58470000  1.0 0.1288466942
H  H24  1  0.70520000  0.07300000  0.65210000  1.0 0.1179165825
H  H25  1  0.28830000  0.38750000  0.78270000  1.0 0.1179165825
H  H26  1  0.53040000  0.62960000  0.88150000  1.0 0.1376156084
H  H27  1  0.25840000  0.15980000  0.02540000  1.0 0.1288466942
H  H28  1  0.02830000  0.93350000  0.92080000  1.0 0.1082910979
H  H29  1  0.50150000  0.31210000  0.86930000  1.0 0.1179165825
H  H30  1  0.36460000  0.04540000  0.94330000  1.0 0.1179165825
H  H31  1  0.93030000  0.43530000  0.91530000  1.0 0.1288466942
H  H32  1  0.07300000  0.70520000  0.84790000  1.0 0.1179165825
C  C1  1  0.65900000  0.71800000  0.33220000  1.0 0.1082910979
C  C2  1  0.51210000  0.57170000  0.39160000  1.0 -0.1888732217
C  C3  1  0.57532000  0.57608000  0.46680000  1.0 0.1082910979
C  C4  1  0.78920000  0.73160000  0.47660000  1.0 -0.2031492122
C  C5  1  0.92550000  0.87110000  0.41320000  1.0 0.078487514
C  C6  1  0.28630000  0.10390000  0.30740000  1.0 0.5313403777
C  C7  1  0.46260000  0.19740000  0.35150000  1.0 -0.0319344286
C  C8  1  0.66070000  0.41010000  0.37950000  1.0 -0.0820337125
C  C9  1  0.82220000  0.49320000  0.42370000  1.0 -0.161361098
C  C10  1  0.78300000  0.36460000  0.43740000  1.0 0.1376156084
C  C11  1  0.58790000  0.15450000  0.40750000  1.0 -0.161361098
C  C12  1  0.42800000  0.07080000  0.36620000  1.0 -0.0918984987
C  C13  1  0.71800000  0.65900000  0.16780000  1.0 0.1082910979
C  C14  1  0.57170000  0.51210000  0.10840000  1.0 -0.1888732217
C  C15  1  0.57608000  0.57532000  0.03320000  1.0 0.1082910979
C  C16  1  0.73160000  0.78920000  0.02340000  1.0 -0.2031492122
C  C17  1  0.87110000  0.92550000  0.08680000  1.0 0.078487514
C  C18  1  0.10390000  0.28630000  0.19260000  1.0 0.5313403777
C  C19  1  0.19740000  0.46260000  0.14850000  1.0 -0.0319344286
C  C20  1  0.41010000  0.66070000  0.12050000  1.0 -0.0820337125
C  C21  1  0.49320000  0.82220000  0.07630000  1.0 -0.161361098
C  C22  1  0.36460000  0.78300000  0.06260000  1.0 0.1376156084
C  C23  1  0.15450000  0.58790000  0.09250000  1.0 -0.161361098
C  C24  1  0.07080000  0.42800000  0.13380000  1.0 -0.0918984987
C  C25  1  0.34100000  0.28200000  0.66780000  1.0 0.1082910979
C  C26  1  0.48790000  0.42830000  0.60840000  1.0 -0.1888732217
C  C27  1  0.42468000  0.42392000  0.53320000  1.0 0.1082910979
C  C28  1  0.21080000  0.26840000  0.52340000  1.0 -0.2031492122
C  C29  1  0.07450000  0.12890000  0.58680000  1.0 0.078487514
C  C30  1  0.71370000  0.89610000  0.69260000  1.0 0.5313403777
C  C31  1  0.53740000  0.80260000  0.64850000  1.0 -0.0319344286
C  C32  1  0.33930000  0.58990000  0.62050000  1.0 -0.0820337125
C  C33  1  0.17780000  0.50680000  0.57630000  1.0 -0.161361098
C  C34  1  0.21700000  0.63540000  0.56260000  1.0 0.1376156084
C  C35  1  0.41210000  0.84550000  0.59250000  1.0 -0.161361098
C  C36  1  0.57200000  0.92920000  0.63380000  1.0 -0.0918984987
C  C37  1  0.28200000  0.34100000  0.83220000  1.0 0.1082910979
C  C38  1  0.42830000  0.48790000  0.89160000  1.0 -0.1888732217
C  C39  1  0.42392000  0.42468000  0.96680000  1.0 0.1082910979
C  C40  1  0.26840000  0.21080000  0.97660000  1.0 -0.2031492122
C  C41  1  0.12890000  0.07450000  0.91320000  1.0 0.078487514
C  C42  1  0.89610000  0.71370000  0.80740000  1.0 0.5313403777
C  C43  1  0.80260000  0.53740000  0.85150000  1.0 -0.0319344286
C  C44  1  0.58990000  0.33930000  0.87950000  1.0 -0.0820337125
C  C45  1  0.50680000  0.17780000  0.92370000  1.0 -0.161361098
C  C46  1  0.63540000  0.21700000  0.93740000  1.0 0.1376156084
C  C47  1  0.84550000  0.41210000  0.90750000  1.0 -0.161361098
C  C48  1  0.92920000  0.57200000  0.86620000  1.0 -0.0918984987
N  N1  1  0.93170000  0.42070000  0.48540000  1.0 -0.0740262347
N  N2  1  0.86360000  0.86760000  0.34180000  1.0 -0.2360252567
N  N3  1  0.42070000  0.93170000  0.01460000  1.0 -0.0740262347
N  N4  1  0.86760000  0.86360000  0.15820000  1.0 -0.2360252567
N  N5  1  0.06830000  0.57930000  0.51460000  1.0 -0.0820337125
N  N6  1  0.13640000  0.13240000  0.65820000  1.0 -0.2360252567
N  N7  1  0.57930000  0.06830000  0.98540000  1.0 -0.0740262347
N  N8  1  0.13240000  0.13640000  0.84180000  1.0 -0.2360252567
O  O1  1  0.32718000  0.22622000  0.29520000  1.0 -0.5312583871
O  O2  1  0.10180000  0.90560000  0.28980000  1.0 -0.5433134862
O  O3  1  0.22622000  0.32718000  0.20480000  1.0 -0.5312583871
O  O4  1  0.90560000  0.10180000  0.21020000  1.0 -0.5433134862
O  O5  1  0.67282000  0.77378000  0.70480000  1.0 -0.5312583871
O  O6  1  0.89820000  0.09440000  0.71020000  1.0 -0.5433134862
O  O7  1  0.77378000  0.67282000  0.79520000  1.0 -0.5312583871
O  O8  1  0.09440000  0.89820000  0.78980000  1.0 -0.5433134862
