# DDEC6 charges by PACMAN v1.1 (https://github.com/mtap-research/PACMAN-charge/)
data_UFOPUD_ASR_pacman
_symmetry_space_group_name_H-M   'P 1'
_cell_length_a   14.77200000
_cell_length_b   17.53100000
_cell_length_c   17.03730000
_cell_angle_alpha   90.00000000
_cell_angle_beta   117.55100000
_cell_angle_gamma   90.00000000
_symmetry_Int_Tables_number   1
_chemical_formula_structural   Mn3H32C54(N5O6)2
_chemical_formula_sum   'Mn6 H64 C108 N20 O24'
_cell_volume   3911.77824736
_cell_formula_units_Z   2
loop_
 _symmetry_equiv_pos_site_id
 _symmetry_equiv_pos_as_xyz
  1  'x, y, z'
loop_
 _atom_site_type_symbol
 _atom_site_label
 _atom_site_symmetry_multiplicity
 _atom_site_fract_x
 _atom_site_fract_y
 _atom_site_fract_z
 _atom_site_occupancy
 _atom_site_charge
Mn  Mn1  1  0.07421000  0.93999000  0.83321000  1.0 0.9477201272
Mn  Mn2  1  0.92579000  0.43999000  0.66679000  1.0 0.9477201272
Mn  Mn3  1  0.92579000  0.06001000  0.16679000  1.0 0.9477201272
Mn  Mn4  1  0.07421000  0.56001000  0.33321000  1.0 0.9477201272
Mn  Mn5  1  0.00000000  0.00000000  0.00000000  1.0 1.0505828429
Mn  Mn6  1  0.00000000  0.50000000  0.50000000  1.0 1.0505828429
H  H1  1  0.90688000  0.17829000  0.72410000  1.0 0.1100105401
H  H2  1  0.77098000  0.26332000  0.67821000  1.0 0.0995720733
H  H3  1  0.62897000  0.12231000  0.76745000  1.0 0.0995720733
H  H4  1  0.77017000  0.04246000  0.82415000  1.0 0.1191147902
H  H5  1  0.09242000  0.70915000  0.89810000  1.0 0.1191147902
H  H6  1  0.05772000  0.58266000  0.91125000  1.0 0.1267664861
H  H7  1  0.00856000  0.76858000  0.08125000  1.0 0.1267664861
H  H8  1  0.97284000  0.64233000  0.09593000  1.0 0.1100105401
H  H9  1  0.23550000  0.34471000  0.61281000  1.0 0.0995720733
H  H10  1  0.36870000  0.25922000  0.68414000  1.0 0.0785873104
H  H11  1  0.51305000  0.34774000  0.55490000  1.0 0.0785873104
H  H12  1  0.37984000  0.43323000  0.48356000  1.0 0.0932206679
H  H13  1  0.44074000  0.31426000  0.70346000  1.0 0.0601808392
H  H14  1  0.29150000  0.38549000  0.64060000  1.0 0.0995720733
H  H15  1  0.34021000  0.43341000  0.43255000  1.0 0.0995720733
H  H16  1  0.48945000  0.36218000  0.49541000  1.0 0.0785873104
H  H17  1  0.09312000  0.67829000  0.77590000  1.0 0.1100105401
H  H18  1  0.22902000  0.76332000  0.82179000  1.0 0.0995720733
H  H19  1  0.37103000  0.62231000  0.73255000  1.0 0.0995720733
H  H20  1  0.22983000  0.54246000  0.67585000  1.0 0.1191147902
H  H21  1  0.90758000  0.20915000  0.60190000  1.0 0.1191147902
H  H22  1  0.94228000  0.08266000  0.58875000  1.0 0.1267664861
H  H23  1  0.99144000  0.26858000  0.41875000  1.0 0.1267664861
H  H24  1  0.02716000  0.14233000  0.40407000  1.0 0.1100105401
H  H25  1  0.76450000  0.84471000  0.88719000  1.0 0.0995720733
H  H26  1  0.63130000  0.75922000  0.81586000  1.0 0.0785873104
H  H27  1  0.48695000  0.84774000  0.94510000  1.0 0.0785873104
H  H28  1  0.62016000  0.93323000  0.01644000  1.0 0.0932206679
H  H29  1  0.55926000  0.81426000  0.79654000  1.0 0.0601808392
H  H30  1  0.70850000  0.88549000  0.85940000  1.0 0.0995720733
H  H31  1  0.65979000  0.93341000  0.06745000  1.0 0.0995720733
H  H32  1  0.51055000  0.86218000  0.00459000  1.0 0.0785873104
H  H33  1  0.09312000  0.82171000  0.27590000  1.0 0.1100105401
H  H34  1  0.22902000  0.73668000  0.32179000  1.0 0.0995720733
H  H35  1  0.37103000  0.87769000  0.23255000  1.0 0.0995720733
H  H36  1  0.22983000  0.95754000  0.17585000  1.0 0.1191147902
H  H37  1  0.90758000  0.29085000  0.10190000  1.0 0.1191147902
H  H38  1  0.94228000  0.41734000  0.08875000  1.0 0.1267664861
H  H39  1  0.99144000  0.23142000  0.91875000  1.0 0.1267664861
H  H40  1  0.02716000  0.35767000  0.90407000  1.0 0.1100105401
H  H41  1  0.76450000  0.65529000  0.38719000  1.0 0.0995720733
H  H42  1  0.63130000  0.74078000  0.31586000  1.0 0.0785873104
H  H43  1  0.48695000  0.65226000  0.44510000  1.0 0.0785873104
H  H44  1  0.62016000  0.56677000  0.51644000  1.0 0.0932206679
H  H45  1  0.55926000  0.68574000  0.29654000  1.0 0.0601808392
H  H46  1  0.70850000  0.61451000  0.35940000  1.0 0.0995720733
H  H47  1  0.65979000  0.56659000  0.56745000  1.0 0.0995720733
H  H48  1  0.51055000  0.63782000  0.50459000  1.0 0.0785873104
H  H49  1  0.90688000  0.32171000  0.22410000  1.0 0.1100105401
H  H50  1  0.77098000  0.23668000  0.17821000  1.0 0.0995720733
H  H51  1  0.62897000  0.37769000  0.26745000  1.0 0.0995720733
H  H52  1  0.77017000  0.45754000  0.32415000  1.0 0.1191147902
H  H53  1  0.09242000  0.79085000  0.39810000  1.0 0.1191147902
H  H54  1  0.05772000  0.91734000  0.41125000  1.0 0.1267664861
H  H55  1  0.00856000  0.73142000  0.58125000  1.0 0.1267664861
H  H56  1  0.97284000  0.85767000  0.59593000  1.0 0.1100105401
H  H57  1  0.23550000  0.15529000  0.11281000  1.0 0.0995720733
H  H58  1  0.36870000  0.24078000  0.18414000  1.0 0.0785873104
H  H59  1  0.51305000  0.15226000  0.05490000  1.0 0.0785873104
H  H60  1  0.37984000  0.06677000  0.98356000  1.0 0.0932206679
H  H61  1  0.44074000  0.18574000  0.20346000  1.0 0.0601808392
H  H62  1  0.29150000  0.11451000  0.14060000  1.0 0.0995720733
H  H63  1  0.34021000  0.06659000  0.93255000  1.0 0.0995720733
H  H64  1  0.48945000  0.13782000  0.99541000  1.0 0.0785873104
C  C1  1  0.85100000  0.16690000  0.73330000  1.0 -0.0837094523
C  C2  1  0.93460000  0.04380000  0.79880000  1.0 0.5699134935
C  C3  1  0.76910000  0.21760000  0.70510000  1.0 -0.2506951596
C  C4  1  0.68550000  0.19990000  0.71690000  1.0 0.1531879585
C  C5  1  0.68550000  0.13450000  0.75950000  1.0 -0.2358816545
C  C6  1  0.76890000  0.08530000  0.79150000  1.0 -0.0911234077
C  C7  1  0.20520000  0.45700000  0.49150000  1.0 0.4341218639
C  C8  1  0.06640000  0.83480000  0.97240000  1.0 0.5699134935
C  C9  1  0.05140000  0.75110000  0.98680000  1.0 -0.0096993915
C  C10  1  0.06770000  0.69540000  0.93740000  1.0 -0.1058177594
C  C11  1  0.04780000  0.61990000  0.94540000  1.0 -0.1524942051
C  C12  1  0.01760000  0.73120000  0.04680000  1.0 -0.1058177594
C  C13  1  0.99700000  0.65590000  0.05620000  1.0 -0.1650956105
C  C14  1  0.01270000  0.60050000  0.00510000  1.0 0.1443418283
C  C15  1  0.84870000  0.10040000  0.77450000  1.0 -0.0096993915
C  C16  1  0.29450000  0.39740000  0.54110000  1.0 0.0293517341
C  C17  1  0.29110000  0.34530000  0.60120000  1.0 -0.0837094523
C  C18  1  0.37090000  0.29410000  0.64390000  1.0 -0.1058177594
C  C19  1  0.45410000  0.29500000  0.62660000  1.0 0.0293517341
C  C20  1  0.45740000  0.34710000  0.56650000  1.0 -0.0025297624
C  C21  1  0.37760000  0.39830000  0.52380000  1.0 -0.0288282473
C  C22  1  0.47990000  0.33120000  0.60570000  1.0 0.001019259
C  C23  1  0.42060000  0.33810000  0.64920000  1.0 -0.0394734081
C  C24  1  0.33120000  0.38080000  0.61150000  1.0 -0.0161512354
C  C25  1  0.30100000  0.41650000  0.53030000  1.0 -0.0288282473
C  C26  1  0.36040000  0.40950000  0.48690000  1.0 -0.0394734081
C  C27  1  0.44980000  0.36690000  0.52450000  1.0 -0.1166854417
C  C28  1  0.14900000  0.66690000  0.76670000  1.0 -0.0837094523
C  C29  1  0.06540000  0.54380000  0.70120000  1.0 0.5699134935
C  C30  1  0.23090000  0.71760000  0.79490000  1.0 -0.2506951596
C  C31  1  0.31450000  0.69990000  0.78310000  1.0 0.1531879585
C  C32  1  0.31450000  0.63450000  0.74050000  1.0 -0.2345426064
C  C33  1  0.23110000  0.58530000  0.70850000  1.0 -0.0911234077
C  C34  1  0.79480000  0.95700000  0.00850000  1.0 0.4341218639
C  C35  1  0.93360000  0.33480000  0.52760000  1.0 0.5699134935
C  C36  1  0.94860000  0.25110000  0.51320000  1.0 -0.0096993915
C  C37  1  0.93230000  0.19540000  0.56260000  1.0 -0.1058177594
C  C38  1  0.95220000  0.11990000  0.55460000  1.0 -0.1524942051
C  C39  1  0.98240000  0.23120000  0.45320000  1.0 -0.1058177594
C  C40  1  0.00300000  0.15590000  0.44380000  1.0 -0.1650956105
C  C41  1  0.98730000  0.10050000  0.49490000  1.0 0.1443418283
C  C42  1  0.15130000  0.60040000  0.72550000  1.0 -0.0096993915
C  C43  1  0.70550000  0.89740000  0.95890000  1.0 0.0293517341
C  C44  1  0.70890000  0.84530000  0.89880000  1.0 -0.0837094523
C  C45  1  0.62910000  0.79410000  0.85610000  1.0 -0.1058177594
C  C46  1  0.54590000  0.79500000  0.87340000  1.0 0.0293517341
C  C47  1  0.54260000  0.84710000  0.93350000  1.0 -0.0025297624
C  C48  1  0.62240000  0.89830000  0.97620000  1.0 -0.0288282473
C  C49  1  0.52010000  0.83120000  0.89430000  1.0 0.001019259
C  C50  1  0.57940000  0.83810000  0.85080000  1.0 -0.0394734081
C  C51  1  0.66880000  0.88080000  0.88850000  1.0 -0.0161512354
C  C52  1  0.69900000  0.91650000  0.96970000  1.0 -0.0288282473
C  C53  1  0.63960000  0.90950000  0.01310000  1.0 -0.0394734081
C  C54  1  0.55020000  0.86690000  0.97550000  1.0 -0.1166854417
C  C55  1  0.14900000  0.83310000  0.26670000  1.0 -0.0837094523
C  C56  1  0.06540000  0.95620000  0.20120000  1.0 0.5699134935
C  C57  1  0.23090000  0.78240000  0.29490000  1.0 -0.2506951596
C  C58  1  0.31450000  0.80010000  0.28310000  1.0 0.1531879585
C  C59  1  0.31450000  0.86550000  0.24050000  1.0 -0.2345426064
C  C60  1  0.23110000  0.91470000  0.20850000  1.0 -0.0911234077
C  C61  1  0.79480000  0.54300000  0.50850000  1.0 0.4341218639
C  C62  1  0.93360000  0.16520000  0.02760000  1.0 0.5699134935
C  C63  1  0.94860000  0.24890000  0.01320000  1.0 -0.0096993915
C  C64  1  0.93230000  0.30460000  0.06260000  1.0 -0.1058177594
C  C65  1  0.95220000  0.38010000  0.05460000  1.0 -0.1524942051
C  C66  1  0.98240000  0.26880000  0.95320000  1.0 -0.1058177594
C  C67  1  0.00300000  0.34410000  0.94380000  1.0 -0.1650956105
C  C68  1  0.98730000  0.39950000  0.99490000  1.0 0.1443418283
C  C69  1  0.15130000  0.89960000  0.22550000  1.0 -0.0096993915
C  C70  1  0.70550000  0.60260000  0.45890000  1.0 0.0293517341
C  C71  1  0.70890000  0.65470000  0.39880000  1.0 -0.0837094523
C  C72  1  0.62910000  0.70590000  0.35610000  1.0 -0.1058177594
C  C73  1  0.54590000  0.70500000  0.37340000  1.0 0.0293517341
C  C74  1  0.54260000  0.65290000  0.43350000  1.0 -0.0025297624
C  C75  1  0.62240000  0.60170000  0.47620000  1.0 -0.0288282473
C  C76  1  0.52010000  0.66880000  0.39430000  1.0 0.001019259
C  C77  1  0.57940000  0.66190000  0.35080000  1.0 -0.0394734081
C  C78  1  0.66880000  0.61920000  0.38850000  1.0 -0.0161512354
C  C79  1  0.69900000  0.58350000  0.46970000  1.0 -0.0288282473
C  C80  1  0.63960000  0.59050000  0.51310000  1.0 -0.0394734081
C  C81  1  0.55020000  0.63310000  0.47550000  1.0 -0.1166854417
C  C82  1  0.85100000  0.33310000  0.23330000  1.0 -0.0837094523
C  C83  1  0.93460000  0.45620000  0.29880000  1.0 0.5699134935
C  C84  1  0.76910000  0.28240000  0.20510000  1.0 -0.2506951596
C  C85  1  0.68550000  0.30010000  0.21690000  1.0 0.1531879585
C  C86  1  0.68550000  0.36550000  0.25950000  1.0 -0.2345426064
C  C87  1  0.76890000  0.41470000  0.29150000  1.0 -0.0911234077
C  C88  1  0.20520000  0.04300000  0.99150000  1.0 0.4341218639
C  C89  1  0.06640000  0.66520000  0.47240000  1.0 0.5699134935
C  C90  1  0.05140000  0.74890000  0.48680000  1.0 -0.0096993915
C  C91  1  0.06770000  0.80460000  0.43740000  1.0 -0.1058177594
C  C92  1  0.04780000  0.88010000  0.44540000  1.0 -0.1524942051
C  C93  1  0.01760000  0.76880000  0.54680000  1.0 -0.1058177594
C  C94  1  0.99700000  0.84410000  0.55620000  1.0 -0.1650956105
C  C95  1  0.01270000  0.89950000  0.50510000  1.0 0.1443418283
C  C96  1  0.84870000  0.39960000  0.27450000  1.0 -0.0096993915
C  C97  1  0.29450000  0.10260000  0.04110000  1.0 0.0293517341
C  C98  1  0.29110000  0.15470000  0.10120000  1.0 -0.0837094523
C  C99  1  0.37090000  0.20590000  0.14390000  1.0 -0.1058177594
C  C100  1  0.45410000  0.20500000  0.12660000  1.0 0.0293517341
C  C101  1  0.45740000  0.15290000  0.06650000  1.0 -0.0025297624
C  C102  1  0.37760000  0.10170000  0.02380000  1.0 -0.0288282473
C  C103  1  0.47990000  0.16880000  0.10570000  1.0 0.001019259
C  C104  1  0.42060000  0.16190000  0.14920000  1.0 -0.0394734081
C  C105  1  0.33120000  0.11920000  0.11150000  1.0 -0.0161512354
C  C106  1  0.30100000  0.08350000  0.03030000  1.0 -0.0288282473
C  C107  1  0.36040000  0.09050000  0.98690000  1.0 -0.0394734081
C  C108  1  0.44980000  0.13310000  0.02450000  1.0 -0.1166854417
N  N1  1  0.98960000  0.52440000  0.02020000  1.0 -0.1166854417
N  N2  1  0.53820000  0.24380000  0.67530000  1.0 0.071623059
N  N3  1  0.61600000  0.25920000  0.66850000  1.0 -0.0561459567
N  N4  1  0.57030000  0.28500000  0.63480000  1.0 -0.0288282473
N  N5  1  0.58650000  0.24030000  0.69590000  1.0 0.0134179373
N  N6  1  0.01040000  0.02440000  0.47980000  1.0 -0.1166854417
N  N7  1  0.46180000  0.74380000  0.82470000  1.0 0.0479919929
N  N8  1  0.38400000  0.75920000  0.83150000  1.0 -0.0561459567
N  N9  1  0.42970000  0.78500000  0.86520000  1.0 -0.0288282473
N  N10  1  0.41350000  0.74030000  0.80410000  1.0 0.0134179373
N  N11  1  0.01040000  0.47560000  0.97980000  1.0 -0.1166854417
N  N12  1  0.46180000  0.75620000  0.32470000  1.0 0.0479919929
N  N13  1  0.38400000  0.74080000  0.33150000  1.0 -0.0561459567
N  N14  1  0.42970000  0.71500000  0.36520000  1.0 -0.0288282473
N  N15  1  0.41350000  0.75970000  0.30410000  1.0 0.0134179373
N  N16  1  0.98960000  0.97560000  0.52020000  1.0 -0.1166854417
N  N17  1  0.53820000  0.25620000  0.17530000  1.0 0.0479919929
N  N18  1  0.61600000  0.24080000  0.16850000  1.0 -0.0561459567
N  N19  1  0.57030000  0.21500000  0.13480000  1.0 -0.0288282473
N  N20  1  0.58650000  0.25970000  0.19590000  1.0 0.0134179373
O  O1  1  0.94945000  0.99385000  0.85717000  1.0 -0.5713073369
O  O2  1  0.98580000  0.04430000  0.75820000  1.0 -0.5366050433
O  O3  1  0.19140000  0.48820000  0.42100000  1.0 -0.4865984195
O  O4  1  0.04016000  0.88212000  0.01106000  1.0 -0.5464267414
O  O5  1  0.14980000  0.46195000  0.52820000  1.0 -0.4865984195
O  O6  1  0.10330000  0.84829000  0.92080000  1.0 -0.5713073369
O  O7  1  0.05055000  0.49385000  0.64283000  1.0 -0.5713073369
O  O8  1  0.01420000  0.54430000  0.74180000  1.0 -0.5366050433
O  O9  1  0.80860000  0.98820000  0.07900000  1.0 -0.4865984195
O  O10  1  0.95984000  0.38212000  0.48894000  1.0 -0.5464267414
O  O11  1  0.85020000  0.96195000  0.97180000  1.0 -0.4865984195
O  O12  1  0.89670000  0.34829000  0.57920000  1.0 -0.5713073369
O  O13  1  0.05055000  0.00615000  0.14283000  1.0 -0.5713073369
O  O14  1  0.01420000  0.95570000  0.24180000  1.0 -0.5366050433
O  O15  1  0.80860000  0.51180000  0.57900000  1.0 -0.4865984195
O  O16  1  0.95984000  0.11788000  0.98894000  1.0 -0.5464267414
O  O17  1  0.85020000  0.53805000  0.47180000  1.0 -0.4865984195
O  O18  1  0.89670000  0.15171000  0.07920000  1.0 -0.5713073369
O  O19  1  0.94945000  0.50615000  0.35717000  1.0 -0.5713073369
O  O20  1  0.98580000  0.45570000  0.25820000  1.0 -0.5366050433
O  O21  1  0.19140000  0.01180000  0.92100000  1.0 -0.4838329684
O  O22  1  0.04016000  0.61788000  0.51106000  1.0 -0.5464267414
O  O23  1  0.14980000  0.03805000  0.02820000  1.0 -0.4865984195
O  O24  1  0.10330000  0.65171000  0.42080000  1.0 -0.5713073369
