# DDEC6 charges by PACMAN v1.1 (https://github.com/mtap-research/PACMAN-charge/)
data_UFOPOX_FSR_pacman
_symmetry_space_group_name_H-M   'P 1'
_cell_length_a   8.23400000
_cell_length_b   11.91100000
_cell_length_c   15.18900000
_cell_angle_alpha   102.88300000
_cell_angle_beta   99.71800000
_cell_angle_gamma   106.22000000
_symmetry_Int_Tables_number   1
_chemical_formula_structural   MnH20C23N4O5
_chemical_formula_sum   'Mn2 H40 C46 N8 O10'
_cell_volume   1351.20550192
_cell_formula_units_Z   2
loop_
 _symmetry_equiv_pos_site_id
 _symmetry_equiv_pos_as_xyz
  1  'x, y, z'
loop_
 _atom_site_type_symbol
 _atom_site_label
 _atom_site_symmetry_multiplicity
 _atom_site_fract_x
 _atom_site_fract_y
 _atom_site_fract_z
 _atom_site_occupancy
 _atom_site_charge
Mn  Mn1  1  0.02954000  0.38595000  0.58303000  1.0 0.9109940021
Mn  Mn2  1  0.97046000  0.61405000  0.41697000  1.0 0.9109940021
H  H1  1  0.63860000  0.37480000  0.23400000  1.0 0.119687918
H  H2  1  0.53060000  0.24580000  0.08380000  1.0 0.129491761
H  H3  1  0.65320000  0.98020000  0.16920000  1.0 0.129491761
H  H4  1  0.76140000  0.10790000  0.32100000  1.0 0.119687918
H  H5  1  0.76370000  0.07520000  0.70950000  1.0 0.1115820747
H  H6  1  0.73590000  0.96540000  0.81770000  1.0 0.119687918
H  H7  1  0.20700000  0.18640000  0.97740000  1.0 0.1115820747
H  H8  1  0.22930000  0.30250000  0.87190000  1.0 0.119687918
H  H9  1  0.01570000  0.13140000  0.47480000  1.0 0.1014933078
H  H10  1  0.17910000  0.00400000  0.45330000  1.0 0.129491761
H  H11  1  0.64430000  0.09810000  0.51070000  1.0 0.129491761
H  H12  1  0.60870000  0.29830000  0.56800000  1.0 0.1437325367
H  H13  1  0.43240000  0.41550000  0.58800000  1.0 0.1115820747
H  H14  1  0.98140000  0.53110000  0.76800000  1.0 0.1014933078
H  H15  1  0.75550000  0.64670000  0.62450000  1.0 0.1437325367
H  H16  1  0.81690000  0.77500000  0.69820000  1.0 0.129491761
H  H17  1  0.64710000  0.67360000  0.69740000  1.0 0.129491761
H  H18  1  0.99030000  0.68160000  0.88030000  1.0 0.129491761
H  H19  1  0.82690000  0.72520000  0.87090000  1.0 0.129491761
H  H20  1  0.99770000  0.79970000  0.84940000  1.0 0.129491761
H  H21  1  0.36140000  0.62520000  0.76600000  1.0 0.119687918
H  H22  1  0.46940000  0.75420000  0.91620000  1.0 0.129491761
H  H23  1  0.34680000  0.01980000  0.83080000  1.0 0.129491761
H  H24  1  0.23860000  0.89210000  0.67900000  1.0 0.119687918
H  H25  1  0.23630000  0.92480000  0.29050000  1.0 0.1115820747
H  H26  1  0.26410000  0.03460000  0.18230000  1.0 0.119687918
H  H27  1  0.79300000  0.81360000  0.02260000  1.0 0.1115820747
H  H28  1  0.77070000  0.69750000  0.12810000  1.0 0.119687918
H  H29  1  0.98430000  0.86860000  0.52520000  1.0 0.1014933078
H  H30  1  0.82090000  0.99600000  0.54670000  1.0 0.129491761
H  H31  1  0.35570000  0.90190000  0.48930000  1.0 0.129491761
H  H32  1  0.39130000  0.70170000  0.43200000  1.0 0.1437325367
H  H33  1  0.56760000  0.58450000  0.41200000  1.0 0.1115820747
H  H34  1  0.01860000  0.46890000  0.23200000  1.0 0.1014933078
H  H35  1  0.24450000  0.35330000  0.37550000  1.0 0.1437325367
H  H36  1  0.18310000  0.22500000  0.30180000  1.0 0.129491761
H  H37  1  0.35290000  0.32640000  0.30260000  1.0 0.129491761
H  H38  1  0.00970000  0.31840000  0.11970000  1.0 0.129491761
H  H39  1  0.17310000  0.27480000  0.12910000  1.0 0.129491761
H  H40  1  0.00230000  0.20030000  0.15060000  1.0 0.129491761
C  C1  1  0.78910000  0.33960000  0.39022000  1.0 0.5718764751
C  C2  1  0.71100000  0.25380000  0.29299000  1.0 -0.0430888632
C  C3  1  0.64170000  0.29550000  0.22140000  1.0 -0.1099263491
C  C4  1  0.57730000  0.21790000  0.13140000  1.0 -0.1630614089
C  C5  1  0.58140000  0.10060000  0.11130000  1.0 0.1115820747
C  C6  1  0.65010000  0.05960000  0.18220000  1.0 -0.1630614089
C  C7  1  0.71530000  0.13630000  0.27350000  1.0 -0.0922761322
C  C8  1  0.85180000  0.09850000  0.76370000  1.0 -0.1006583726
C  C9  1  0.83580000  0.03190000  0.82790000  1.0 -0.1707852246
C  C10  1  0.96880000  0.06500000  0.90670000  1.0 0.1437325367
C  C11  1  0.11760000  0.16520000  0.92410000  1.0 -0.1796277301
C  C12  1  0.13150000  0.23410000  0.86030000  1.0 -0.1006583726
C  C13  1  0.13660000  0.16460000  0.49540000  1.0 0.0818516327
C  C14  1  0.23370000  0.08700000  0.48210000  1.0 -0.2061889158
C  C15  1  0.41480000  0.13600000  0.51260000  1.0 0.1647423967
C  C16  1  0.52680000  0.05980000  0.50600000  1.0 -0.1306998344
C  C17  1  0.48810000  0.26160000  0.55030000  1.0 -0.1796277301
C  C18  1  0.38110000  0.33170000  0.56160000  1.0 0.0904552428
C  C19  1  0.01530000  0.27280000  0.71080000  1.0 0.5352785079
C  C20  1  0.91230000  0.55070000  0.72280000  1.0 0.2840088098
C  C21  1  0.76250000  0.68890000  0.68750000  1.0 -0.3149012239
C  C22  1  0.92440000  0.71940000  0.84550000  1.0 -0.3436728479
C  C23  1  0.00010000  0.20050000  0.78026000  1.0 -0.0157271145
C  C24  1  0.21090000  0.66040000  0.60978000  1.0 0.5718764751
C  C25  1  0.28900000  0.74620000  0.70701000  1.0 -0.0430888632
C  C26  1  0.35830000  0.70450000  0.77860000  1.0 -0.1099263491
C  C27  1  0.42270000  0.78210000  0.86860000  1.0 -0.1630614089
C  C28  1  0.41860000  0.89940000  0.88870000  1.0 0.1115820747
C  C29  1  0.34990000  0.94040000  0.81780000  1.0 -0.1630614089
C  C30  1  0.28470000  0.86370000  0.72650000  1.0 -0.0922761322
C  C31  1  0.14820000  0.90150000  0.23630000  1.0 -0.1006583726
C  C32  1  0.16420000  0.96810000  0.17210000  1.0 -0.1707852246
C  C33  1  0.03120000  0.93500000  0.09330000  1.0 0.1437325367
C  C34  1  0.88240000  0.83480000  0.07590000  1.0 -0.1796277301
C  C35  1  0.86850000  0.76590000  0.13970000  1.0 -0.1006583726
C  C36  1  0.86340000  0.83540000  0.50460000  1.0 0.0818516327
C  C37  1  0.76630000  0.91300000  0.51790000  1.0 -0.2061889158
C  C38  1  0.58520000  0.86400000  0.48740000  1.0 0.1647423967
C  C39  1  0.47320000  0.94020000  0.49400000  1.0 -0.1306998344
C  C40  1  0.51190000  0.73840000  0.44970000  1.0 -0.1796277301
C  C41  1  0.61890000  0.66830000  0.43840000  1.0 0.0904552428
C  C42  1  0.98470000  0.72720000  0.28920000  1.0 0.5352785079
C  C43  1  0.08770000  0.44930000  0.27720000  1.0 0.2840088098
C  C44  1  0.23750000  0.31110000  0.31250000  1.0 -0.3149012239
C  C45  1  0.07560000  0.28060000  0.15450000  1.0 -0.3436728479
C  C46  1  0.99990000  0.79950000  0.21974000  1.0 -0.0157271145
N  N1  1  0.93650000  0.98720000  0.96749000  1.0 -0.1306998344
N  N2  1  0.20700000  0.28470000  0.53615000  1.0 -0.2486276837
N  N3  1  0.86220000  0.64720000  0.74960000  1.0 0.0355989518
N  N4  1  0.49660000  0.03960000  0.99040000  1.0 -0.0542513975
N  N5  1  0.06350000  0.01280000  0.03251000  1.0 -0.1306998344
N  N6  1  0.79300000  0.71530000  0.46385000  1.0 -0.2486276837
N  N7  1  0.13780000  0.35280000  0.25040000  1.0 0.0355989518
N  N8  1  0.50340000  0.96040000  0.00960000  1.0 -0.0542513975
O  O1  1  0.85740000  0.29830000  0.45010000  1.0 -0.5489131422
O  O2  1  0.87350000  0.48670000  0.64296000  1.0 -0.4345928343
O  O3  1  0.90400000  0.22857000  0.63341000  1.0 -0.5597682507
O  O4  1  0.13460000  0.37278000  0.73132000  1.0 -0.5489131422
O  O5  1  0.78310000  0.44613000  0.40474000  1.0 -0.5597682507
O  O6  1  0.14260000  0.70170000  0.54990000  1.0 -0.5489131422
O  O7  1  0.12650000  0.51330000  0.35704000  1.0 -0.4345928343
O  O8  1  0.09600000  0.77143000  0.36659000  1.0 -0.5597682507
O  O9  1  0.86540000  0.62722000  0.26868000  1.0 -0.5489131422
O  O10  1  0.21690000  0.55387000  0.59526000  1.0 -0.5597682507
