# DDEC6 charges by PACMAN v1.1 (https://github.com/mtap-research/PACMAN-charge/)
data_UFUNOB_ASR_pacman
_symmetry_space_group_name_H-M   'P 1'
_cell_length_a   14.28990000
_cell_length_b   16.17980000
_cell_length_c   16.52160000
_cell_angle_alpha   110.28700000
_cell_angle_beta   88.13500000
_cell_angle_gamma   106.28800000
_symmetry_Int_Tables_number   1
_chemical_formula_structural   Zn3H40C80(N2O)8
_chemical_formula_sum   'Zn3 H40 C80 N16 O8'
_cell_volume   3430.26539951
_cell_formula_units_Z   1
loop_
 _symmetry_equiv_pos_site_id
 _symmetry_equiv_pos_as_xyz
  1  'x, y, z'
loop_
 _atom_site_type_symbol
 _atom_site_label
 _atom_site_symmetry_multiplicity
 _atom_site_fract_x
 _atom_site_fract_y
 _atom_site_fract_z
 _atom_site_occupancy
 _atom_site_charge
Zn  Zn1  1  0.63202000  0.43879000  0.04796000  1.0 0.7487983936
Zn  Zn2  1  0.36798000  0.56121000  0.95204000  1.0 0.7487983936
Zn  Zn3  1  0.00000000  0.00000000  0.00000000  1.0 0.6445680493
H  H1  1  0.43570000  0.38020000  0.96030000  1.0 0.1235013247
H  H2  1  0.28630000  0.28020000  0.95240000  1.0 0.147360671
H  H3  1  0.49780000  0.39420000  0.80200000  1.0 0.1286972798
H  H4  1  0.36230000  0.25730000  0.17210000  1.0 0.147360671
H  H5  1  0.00350000  0.66890000  0.94660000  1.0 0.1286972798
H  H6  1  0.44470000  0.40660000  0.67840000  1.0 0.1286972798
H  H7  1  0.51120000  0.35930000  0.17390000  1.0 0.1235013247
H  H8  1  0.76800000  0.53800000  0.77820000  1.0 0.1286972798
H  H9  1  0.37400000  0.10750000  0.05020000  1.0 0.1286972798
H  H10  1  0.33180000  0.94150000  0.01930000  1.0 0.1286972798
H  H11  1  0.71520000  0.54700000  0.65400000  1.0 0.1286972798
H  H12  1  0.82880000  0.65670000  0.93440000  1.0 0.1383028747
H  H13  1  0.17400000  0.77410000  0.09680000  1.0 0.1600677454
H  H14  1  0.24980000  0.66320000  0.07650000  1.0 0.1286972798
H  H15  1  0.23210000  0.77150000  0.86300000  1.0 0.147360671
H  H16  1  0.78880000  0.72630000  0.18350000  1.0 0.1235013247
H  H17  1  0.75520000  0.61880000  0.36740000  1.0 0.1286972798
H  H18  1  0.31570000  0.66750000  0.85140000  1.0 0.1235013247
H  H19  1  0.84430000  0.75780000  0.46290000  1.0 0.1235013247
H  H20  1  0.88870000  0.86160000  0.27800000  1.0 0.1235013247
H  H21  1  0.56430000  0.61980000  0.03970000  1.0 0.1235013247
H  H22  1  0.71370000  0.71980000  0.04760000  1.0 0.147360671
H  H23  1  0.50220000  0.60580000  0.19800000  1.0 0.1286972798
H  H24  1  0.63770000  0.74270000  0.82790000  1.0 0.147360671
H  H25  1  0.99650000  0.33110000  0.05340000  1.0 0.1286972798
H  H26  1  0.55530000  0.59340000  0.32160000  1.0 0.1286972798
H  H27  1  0.48880000  0.64070000  0.82610000  1.0 0.1235013247
H  H28  1  0.23200000  0.46200000  0.22180000  1.0 0.1286972798
H  H29  1  0.62600000  0.89250000  0.94980000  1.0 0.1286972798
H  H30  1  0.66820000  0.05850000  0.98070000  1.0 0.1286972798
H  H31  1  0.28480000  0.45300000  0.34600000  1.0 0.1286972798
H  H32  1  0.17120000  0.34330000  0.06560000  1.0 0.1383028747
H  H33  1  0.82600000  0.22590000  0.90320000  1.0 0.1600677454
H  H34  1  0.75020000  0.33680000  0.92350000  1.0 0.1286972798
H  H35  1  0.76790000  0.22850000  0.13700000  1.0 0.147360671
H  H36  1  0.21120000  0.27370000  0.81650000  1.0 0.1235013247
H  H37  1  0.24480000  0.38120000  0.63260000  1.0 0.1286972798
H  H38  1  0.68430000  0.33250000  0.14860000  1.0 0.1235013247
H  H39  1  0.15570000  0.24220000  0.53710000  1.0 0.1235013247
H  H40  1  0.11130000  0.13840000  0.72200000  1.0 0.1235013247
C  C1  1  0.30700000  0.25190000  0.05840000  1.0 0.1286972798
C  C2  1  0.21370000  0.17860000  0.04720000  1.0 -0.0669270782
C  C3  1  0.70690000  0.56610000  0.19850000  1.0 0.5533693516
C  C4  1  0.87440000  0.80100000  0.95890000  1.0 0.1952222967
C  C5  1  0.42180000  0.35340000  0.00240000  1.0 0.095266276
C  C6  1  0.33170000  0.29340000  0.99750000  1.0 -0.181909976
C  C7  1  0.54170000  0.42650000  0.77300000  1.0 -0.092837981
C  C8  1  0.37630000  0.27970000  0.12690000  1.0 -0.1906952148
C  C9  1  0.18770000  0.78110000  0.97970000  1.0 0.1106146956
C  C10  1  0.63910000  0.46760000  0.80550000  1.0 -0.0290362835
C  C11  1  0.22190000  0.08960000  0.03620000  1.0 0.1941328877
C  C12  1  0.13030000  0.84830000  0.98730000  1.0 -0.0514446016
C  C13  1  0.67210000  0.46480000  0.88960000  1.0 0.5533693516
C  C14  1  0.97680000  0.71690000  0.95320000  1.0 -0.1740335813
C  C15  1  0.51020000  0.43340000  0.69830000  1.0 -0.128844906
C  C16  1  0.46600000  0.34110000  0.12730000  1.0 0.09170165
C  C17  1  0.70240000  0.51160000  0.75870000  1.0 -0.0969862706
C  C18  1  0.57240000  0.47870000  0.65260000  1.0 0.09170165
C  C19  1  0.31140000  0.06670000  0.03880000  1.0 -0.1989701456
C  C20  1  0.18450000  0.94110000  0.00830000  1.0 0.1703599849
C  C21  1  0.03030000  0.81240000  0.97310000  1.0 0.1600677454
C  C22  1  0.76480000  0.65580000  0.26230000  1.0 -0.0290362835
C  C23  1  0.28840000  0.97550000  0.02180000  1.0 -0.1906952148
C  C24  1  0.53550000  0.48880000  0.57540000  1.0 -0.0631001061
C  C25  1  0.67070000  0.51710000  0.68440000  1.0 -0.1424224144
C  C26  1  0.88070000  0.70990000  0.94570000  1.0 -0.1906952148
C  C27  1  0.19930000  0.75080000  0.04390000  1.0 -0.181909976
C  C28  1  0.24780000  0.68590000  0.03220000  1.0 0.0707198334
C  C29  1  0.58990000  0.48200000  0.50150000  1.0 0.0707198334
C  C30  1  0.23400000  0.75030000  0.90830000  1.0 -0.1989701456
C  C31  1  0.80240000  0.73040000  0.23970000  1.0 -0.0969862706
C  C32  1  0.55280000  0.49450000  0.43080000  1.0 0.1383028747
C  C33  1  0.07730000  0.04980000  0.46950000  1.0 0.1286972798
C  C34  1  0.87690000  0.82350000  0.38030000  1.0 0.0814210092
C  C35  1  0.78120000  0.66760000  0.34810000  1.0 -0.092837981
C  C36  1  0.28480000  0.68720000  0.90190000  1.0 0.09170165
C  C37  1  0.83560000  0.75110000  0.40520000  1.0 -0.128844906
C  C38  1  0.86070000  0.81310000  0.29720000  1.0 -0.128844906
C  C39  1  0.93970000  0.91510000  0.44240000  1.0 -0.0421418501
C  C40  1  0.01270000  0.96900000  0.41790000  1.0 0.0814210092
C  C41  1  0.69300000  0.74810000  0.94160000  1.0 0.1286972798
C  C42  1  0.78630000  0.82140000  0.95280000  1.0 -0.0669270782
C  C43  1  0.29310000  0.43390000  0.80150000  1.0 0.5533693516
C  C44  1  0.12560000  0.19900000  0.04110000  1.0 0.1952222967
C  C45  1  0.57820000  0.64660000  0.99760000  1.0 0.095266276
C  C46  1  0.66830000  0.70660000  0.00250000  1.0 -0.181909976
C  C47  1  0.45830000  0.57350000  0.22700000  1.0 -0.092837981
C  C48  1  0.62370000  0.72030000  0.87310000  1.0 -0.1906952148
C  C49  1  0.81230000  0.21890000  0.02030000  1.0 0.1106146956
C  C50  1  0.36090000  0.53240000  0.19450000  1.0 -0.0290362835
C  C51  1  0.77810000  0.91040000  0.96380000  1.0 0.1941328877
C  C52  1  0.86970000  0.15170000  0.01270000  1.0 -0.0514446016
C  C53  1  0.32790000  0.53520000  0.11040000  1.0 0.5533693516
C  C54  1  0.02320000  0.28310000  0.04680000  1.0 -0.1740335813
C  C55  1  0.48980000  0.56660000  0.30170000  1.0 -0.128844906
C  C56  1  0.53400000  0.65890000  0.87270000  1.0 0.09170165
C  C57  1  0.29760000  0.48840000  0.24130000  1.0 -0.0969862706
C  C58  1  0.42760000  0.52130000  0.34740000  1.0 0.09170165
C  C59  1  0.68860000  0.93330000  0.96120000  1.0 -0.1989701456
C  C60  1  0.81550000  0.05890000  0.99170000  1.0 0.1703599849
C  C61  1  0.96970000  0.18760000  0.02690000  1.0 0.1600677454
C  C62  1  0.23520000  0.34420000  0.73770000  1.0 -0.0290362835
C  C63  1  0.71160000  0.02450000  0.97820000  1.0 -0.1906952148
C  C64  1  0.46450000  0.51120000  0.42460000  1.0 -0.0631001061
C  C65  1  0.32930000  0.48290000  0.31560000  1.0 -0.1424224144
C  C66  1  0.11930000  0.29010000  0.05430000  1.0 -0.181909976
C  C67  1  0.80070000  0.24920000  0.95610000  1.0 -0.181909976
C  C68  1  0.75220000  0.31410000  0.96780000  1.0 0.0707198334
C  C69  1  0.41010000  0.51800000  0.49850000  1.0 0.0707198334
C  C70  1  0.76600000  0.24970000  0.09170000  1.0 -0.1989701456
C  C71  1  0.19760000  0.26960000  0.76030000  1.0 -0.0969862706
C  C72  1  0.44720000  0.50550000  0.56920000  1.0 0.1383028747
C  C73  1  0.92270000  0.95020000  0.53050000  1.0 0.1286972798
C  C74  1  0.12310000  0.17650000  0.61970000  1.0 0.0814210092
C  C75  1  0.21880000  0.33240000  0.65190000  1.0 -0.092837981
C  C76  1  0.71520000  0.31280000  0.09810000  1.0 0.09170165
C  C77  1  0.16440000  0.24890000  0.59480000  1.0 -0.128844906
C  C78  1  0.13930000  0.18690000  0.70280000  1.0 -0.128844906
C  C79  1  0.06030000  0.08490000  0.55760000  1.0 -0.0514446016
C  C80  1  0.98730000  0.03100000  0.58210000  1.0 0.0814210092
N  N1  1  0.49115000  0.37542000  0.06491000  1.0 -0.2280951834
N  N2  1  0.29220000  0.65358000  0.96110000  1.0 -0.2243075734
N  N3  1  0.14513000  0.01224000  0.01800000  1.0 -0.3582298449
N  N4  1  0.96410000  0.86159000  0.97520000  1.0 -0.3582298449
N  N5  1  0.68970000  0.45240000  0.46780000  1.0 -0.083021312
N  N6  1  0.16240000  0.06020000  0.40880000  1.0 -0.2280951834
N  N7  1  0.06730000  0.93130000  0.33150000  1.0 -0.2128103888
N  N8  1  0.62740000  0.47250000  0.37110000  1.0 -0.2280951834
N  N9  1  0.50885000  0.62458000  0.93509000  1.0 -0.2280951834
N  N10  1  0.70780000  0.34642000  0.03890000  1.0 -0.2243075734
N  N11  1  0.85487000  0.98776000  0.98200000  1.0 -0.3582298449
N  N12  1  0.03590000  0.13841000  0.02480000  1.0 -0.3582298449
N  N13  1  0.31030000  0.54760000  0.53220000  1.0 -0.083021312
N  N14  1  0.83760000  0.93980000  0.59120000  1.0 -0.2280951834
N  N15  1  0.93270000  0.06870000  0.66850000  1.0 -0.2128103888
N  N16  1  0.37260000  0.52750000  0.62890000  1.0 -0.2243075734
O  O1  1  0.69008000  0.56532000  0.12263000  1.0 -0.530067361
O  O2  1  0.76021000  0.49332000  0.91349000  1.0 -0.530067361
O  O3  1  0.67990000  0.49687000  0.21871000  1.0 -0.5031281179
O  O4  1  0.60609000  0.43072000  0.93105000  1.0 -0.5376215643
O  O5  1  0.30992000  0.43468000  0.87737000  1.0 -0.530067361
O  O6  1  0.23979000  0.50668000  0.08651000  1.0 -0.530067361
O  O7  1  0.32010000  0.50313000  0.78129000  1.0 -0.5031281179
O  O8  1  0.39391000  0.56928000  0.06895000  1.0 -0.5376215643
