# DDEC6 charges by PACMAN v1.1 (https://github.com/mtap-research/PACMAN-charge/)
data_UGAPAW_FSR_pacman
_symmetry_space_group_name_H-M   'P 1'
_cell_length_a   10.60100000
_cell_length_b   19.45300000
_cell_length_c   10.95400000
_cell_angle_alpha   90.00000000
_cell_angle_beta   108.74000000
_cell_angle_gamma   90.00000000
_symmetry_Int_Tables_number   1
_chemical_formula_structural   Bi7H8C24(SO7)4
_chemical_formula_sum   'Bi14 H16 C48 S8 O56'
_cell_volume   2139.19224685
_cell_formula_units_Z   2
loop_
 _symmetry_equiv_pos_site_id
 _symmetry_equiv_pos_as_xyz
  1  'x, y, z'
loop_
 _atom_site_type_symbol
 _atom_site_label
 _atom_site_symmetry_multiplicity
 _atom_site_fract_x
 _atom_site_fract_y
 _atom_site_fract_z
 _atom_site_occupancy
 _atom_site_charge
Bi  Bi1  1  0.95959000  0.34506000  0.00108000  1.0 1.6026998708
Bi  Bi2  1  0.18007000  0.34251000  0.80161000  1.0 1.5362575004
Bi  Bi3  1  0.04041000  0.84506000  0.99892000  1.0 1.6026998708
Bi  Bi4  1  0.81993000  0.84251000  0.19839000  1.0 1.5362575004
Bi  Bi5  1  0.04041000  0.65494000  0.99892000  1.0 1.6026998708
Bi  Bi6  1  0.81993000  0.65749000  0.19839000  1.0 1.5362575004
Bi  Bi7  1  0.95959000  0.15494000  0.00108000  1.0 1.6026998708
Bi  Bi8  1  0.18007000  0.15749000  0.80161000  1.0 1.5362575004
Bi  Bi9  1  0.85792000  0.25000000  0.69233000  1.0 1.6258996675
Bi  Bi10  1  0.26630000  0.25000000  0.13272000  1.0 1.4624428699
Bi  Bi11  1  0.52311000  0.25000000  0.94166000  1.0 1.4925789187
Bi  Bi12  1  0.14208000  0.75000000  0.30767000  1.0 1.6248215387
Bi  Bi13  1  0.73370000  0.75000000  0.86728000  1.0 1.4624428699
Bi  Bi14  1  0.47689000  0.75000000  0.05834000  1.0 1.4925789187
H  H1  1  0.65450000  0.37810000  0.29440000  1.0 0.1591335833
H  H2  1  0.36940000  0.50810000  0.09630000  1.0 0.1591335833
H  H3  1  0.57520000  0.61540000  0.49190000  1.0 0.1482508431
H  H4  1  0.90160000  0.50160000  0.65450000  1.0 0.1591335833
H  H5  1  0.34550000  0.87810000  0.70560000  1.0 0.1591335833
H  H6  1  0.63060000  0.00810000  0.90370000  1.0 0.1591335833
H  H7  1  0.42480000  0.11540000  0.50810000  1.0 0.1482508431
H  H8  1  0.09840000  0.00160000  0.34550000  1.0 0.1591335833
H  H9  1  0.34550000  0.62190000  0.70560000  1.0 0.1591335833
H  H10  1  0.63060000  0.49190000  0.90370000  1.0 0.1591335833
H  H11  1  0.42480000  0.38460000  0.50810000  1.0 0.1482508431
H  H12  1  0.09840000  0.49840000  0.34550000  1.0 0.1591335833
H  H13  1  0.65450000  0.12190000  0.29440000  1.0 0.1591335833
H  H14  1  0.36940000  0.99190000  0.09630000  1.0 0.1591335833
H  H15  1  0.57520000  0.88460000  0.49190000  1.0 0.1482508431
H  H16  1  0.90160000  0.99840000  0.65450000  1.0 0.1591335833
C  C1  1  0.61210000  0.42040000  0.28770000  1.0 -0.1090968227
C  C2  1  0.50490000  0.43420000  0.18120000  1.0 0.0005238237
C  C3  1  0.43910000  0.49780000  0.17080000  1.0 -0.0774142699
C  C4  1  0.47620000  0.54420000  0.26840000  1.0 -0.1155091313
C  C5  1  0.62620000  0.57660000  0.49110000  1.0 -0.1385490274
C  C6  1  0.73730000  0.56420000  0.59160000  1.0 0.0140901857
C  C7  1  0.82100000  0.50730000  0.58870000  1.0 -0.0573967447
C  C8  1  0.78370000  0.46140000  0.49070000  1.0 -0.0961935942
C  C9  1  0.58610000  0.53070000  0.38310000  1.0 0.076413565
C  C10  1  0.65950000  0.46910000  0.38730000  1.0 0.0892842493
C  C11  1  0.46440000  0.38470000  0.07120000  1.0 0.5861232827
C  C12  1  0.78160000  0.61240000  0.70610000  1.0 0.6062942694
C  C13  1  0.38790000  0.92040000  0.71230000  1.0 -0.1090968227
C  C14  1  0.49510000  0.93420000  0.81880000  1.0 0.0005238237
C  C15  1  0.56090000  0.99780000  0.82920000  1.0 -0.0774142699
C  C16  1  0.52380000  0.04420000  0.73160000  1.0 -0.1155091313
C  C17  1  0.37380000  0.07660000  0.50890000  1.0 -0.1385490274
C  C18  1  0.26270000  0.06420000  0.40840000  1.0 0.0140901857
C  C19  1  0.17900000  0.00730000  0.41130000  1.0 -0.0573967447
C  C20  1  0.21630000  0.96140000  0.50930000  1.0 -0.0961935942
C  C21  1  0.41390000  0.03070000  0.61690000  1.0 0.076413565
C  C22  1  0.34050000  0.96910000  0.61270000  1.0 0.0892842493
C  C23  1  0.53560000  0.88470000  0.92880000  1.0 0.5861232827
C  C24  1  0.21840000  0.11240000  0.29390000  1.0 0.6062942694
C  C25  1  0.38790000  0.57960000  0.71230000  1.0 -0.1090968227
C  C26  1  0.49510000  0.56580000  0.81880000  1.0 0.0005238237
C  C27  1  0.56090000  0.50220000  0.82920000  1.0 -0.0774142699
C  C28  1  0.52380000  0.45580000  0.73160000  1.0 -0.1155091313
C  C29  1  0.37380000  0.42340000  0.50890000  1.0 -0.1385490274
C  C30  1  0.26270000  0.43580000  0.40840000  1.0 0.0140901857
C  C31  1  0.17900000  0.49270000  0.41130000  1.0 -0.0573967447
C  C32  1  0.21630000  0.53860000  0.50930000  1.0 -0.0961935942
C  C33  1  0.41390000  0.46930000  0.61690000  1.0 0.076413565
C  C34  1  0.34050000  0.53090000  0.61270000  1.0 0.0892842493
C  C35  1  0.53560000  0.61530000  0.92880000  1.0 0.5861232827
C  C36  1  0.21840000  0.38760000  0.29390000  1.0 0.6062942694
C  C37  1  0.61210000  0.07960000  0.28770000  1.0 -0.1090968227
C  C38  1  0.50490000  0.06580000  0.18120000  1.0 0.0005238237
C  C39  1  0.43910000  0.00220000  0.17080000  1.0 -0.0774142699
C  C40  1  0.47620000  0.95580000  0.26840000  1.0 -0.1155091313
C  C41  1  0.62620000  0.92340000  0.49110000  1.0 -0.1385490274
C  C42  1  0.73730000  0.93580000  0.59160000  1.0 0.0140901857
C  C43  1  0.82100000  0.99270000  0.58870000  1.0 -0.0573967447
C  C44  1  0.78370000  0.03860000  0.49070000  1.0 -0.0961935942
C  C45  1  0.58610000  0.96930000  0.38310000  1.0 0.076413565
C  C46  1  0.65950000  0.03090000  0.38730000  1.0 0.0892842493
C  C47  1  0.46440000  0.11530000  0.07120000  1.0 0.5861232827
C  C48  1  0.78160000  0.88760000  0.70610000  1.0 0.6062942694
S  S1  1  0.40163000  0.62671000  0.24200000  1.0 1.2002279113
S  S2  1  0.89950000  0.39836000  0.47634000  1.0 1.2002279113
S  S3  1  0.59837000  0.12671000  0.75800000  1.0 1.2002279113
S  S4  1  0.10050000  0.89836000  0.52366000  1.0 1.2002279113
S  S5  1  0.59837000  0.37329000  0.75800000  1.0 1.2002279113
S  S6  1  0.10050000  0.60164000  0.52366000  1.0 1.2002279113
S  S7  1  0.40163000  0.87329000  0.24200000  1.0 1.2002279113
S  S8  1  0.89950000  0.10164000  0.47634000  1.0 1.2002279113
O  O1  1  0.15600000  0.32790000  0.98450000  1.0 -0.8631462207
O  O2  1  0.94520000  0.35890000  0.78330000  1.0 -0.8503479054
O  O3  1  0.50680000  0.32250000  0.09730000  1.0 -0.5837067415
O  O4  1  0.39600000  0.40360000  0.96400000  1.0 -0.5230723073
O  O5  1  0.71480000  0.66780000  0.69940000  1.0 -0.5501843592
O  O6  1  0.88010000  0.59490000  0.79970000  1.0 -0.5622442415
O  O7  1  0.30530000  0.62550000  0.11290000  1.0 -0.6463787903
O  O8  1  0.51320000  0.67320000  0.24610000  1.0 -0.6105172237
O  O9  1  0.34560000  0.64230000  0.34310000  1.0 -0.5501843592
O  O10  1  0.02360000  0.41330000  0.57630000  1.0 -0.592600887
O  O11  1  0.84580000  0.33000000  0.48880000  1.0 -0.6105172237
O  O12  1  0.90750000  0.40860000  0.34670000  1.0 -0.5700285485
O  O13  1  0.84400000  0.82790000  0.01550000  1.0 -0.8631462207
O  O14  1  0.05480000  0.85890000  0.21670000  1.0 -0.8503479054
O  O15  1  0.49320000  0.82250000  0.90270000  1.0 -0.5837067415
O  O16  1  0.60400000  0.90360000  0.03600000  1.0 -0.5230723073
O  O17  1  0.28520000  0.16780000  0.30060000  1.0 -0.5501843592
O  O18  1  0.11990000  0.09490000  0.20030000  1.0 -0.5622442415
O  O19  1  0.69470000  0.12550000  0.88710000  1.0 -0.6463787903
O  O20  1  0.48680000  0.17320000  0.75390000  1.0 -0.6105172237
O  O21  1  0.65440000  0.14230000  0.65690000  1.0 -0.5501843592
O  O22  1  0.97640000  0.91330000  0.42370000  1.0 -0.592600887
O  O23  1  0.15420000  0.83000000  0.51120000  1.0 -0.6105172237
O  O24  1  0.09250000  0.90860000  0.65330000  1.0 -0.5700285485
O  O25  1  0.84400000  0.67210000  0.01550000  1.0 -0.8631462207
O  O26  1  0.05480000  0.64110000  0.21670000  1.0 -0.8503479054
O  O27  1  0.49320000  0.67750000  0.90270000  1.0 -0.5837067415
O  O28  1  0.60400000  0.59640000  0.03600000  1.0 -0.5230723073
O  O29  1  0.28520000  0.33220000  0.30060000  1.0 -0.5501843592
O  O30  1  0.11990000  0.40510000  0.20030000  1.0 -0.5622442415
O  O31  1  0.69470000  0.37450000  0.88710000  1.0 -0.6463787903
O  O32  1  0.48680000  0.32680000  0.75390000  1.0 -0.6105172237
O  O33  1  0.65440000  0.35770000  0.65690000  1.0 -0.5501843592
O  O34  1  0.97640000  0.58670000  0.42370000  1.0 -0.592600887
O  O35  1  0.15420000  0.67000000  0.51120000  1.0 -0.6105172237
O  O36  1  0.09250000  0.59140000  0.65330000  1.0 -0.5700285485
O  O37  1  0.15600000  0.17210000  0.98450000  1.0 -0.8631462207
O  O38  1  0.94520000  0.14110000  0.78330000  1.0 -0.8503479054
O  O39  1  0.50680000  0.17750000  0.09730000  1.0 -0.5837067415
O  O40  1  0.39600000  0.09640000  0.96400000  1.0 -0.5230723073
O  O41  1  0.71480000  0.83220000  0.69940000  1.0 -0.5501843592
O  O42  1  0.88010000  0.90510000  0.79970000  1.0 -0.5622442415
O  O43  1  0.30530000  0.87450000  0.11290000  1.0 -0.6463787903
O  O44  1  0.51320000  0.82680000  0.24610000  1.0 -0.6105172237
O  O45  1  0.34560000  0.85770000  0.34310000  1.0 -0.5501843592
O  O46  1  0.02360000  0.08670000  0.57630000  1.0 -0.592600887
O  O47  1  0.84580000  0.17000000  0.48880000  1.0 -0.6105172237
O  O48  1  0.90750000  0.09140000  0.34670000  1.0 -0.5700285485
O  O49  1  0.06630000  0.25000000  0.72370000  1.0 -0.8503479054
O  O50  1  0.88400000  0.25000000  0.90090000  1.0 -0.8982119014
O  O51  1  0.31780000  0.25000000  0.87550000  1.0 -0.8631462207
O  O52  1  0.05940000  0.25000000  0.13910000  1.0 -0.833647882
O  O53  1  0.93370000  0.75000000  0.27630000  1.0 -0.8432279279
O  O54  1  0.11600000  0.75000000  0.09910000  1.0 -0.8982119014
O  O55  1  0.68220000  0.75000000  0.12450000  1.0 -0.8631462207
O  O56  1  0.94060000  0.75000000  0.86090000  1.0 -0.833647882
