# DDEC6 charges by PACMAN v1.1 (https://github.com/mtap-research/PACMAN-charge/)
data_UGELIB_ASR_pacman
_symmetry_space_group_name_H-M   'P 1'
_cell_length_a   10.19700000
_cell_length_b   17.47200000
_cell_length_c   27.31600000
_cell_angle_alpha   90.00000000
_cell_angle_beta   90.00000000
_cell_angle_gamma   90.00000000
_symmetry_Int_Tables_number   1
_chemical_formula_structural   Ga2P2O8F
_chemical_formula_sum   'Ga32 P32 O128 F16'
_cell_volume   4866.67275494
_cell_formula_units_Z   16
loop_
 _symmetry_equiv_pos_site_id
 _symmetry_equiv_pos_as_xyz
  1  'x, y, z'
loop_
 _atom_site_type_symbol
 _atom_site_label
 _atom_site_symmetry_multiplicity
 _atom_site_fract_x
 _atom_site_fract_y
 _atom_site_fract_z
 _atom_site_occupancy
 _atom_site_charge
Ga  Ga1  1  0.08840000  0.23920000  0.22030000  1.0 1.4663548581
Ga  Ga2  1  0.58840000  0.26080000  0.27970000  1.0 1.4646464698
Ga  Ga3  1  0.91160000  0.26080000  0.72030000  1.0 1.4646464698
Ga  Ga4  1  0.41160000  0.23920000  0.77970000  1.0 1.4663548581
Ga  Ga5  1  0.91160000  0.76080000  0.77970000  1.0 1.4646464698
Ga  Ga6  1  0.41160000  0.73920000  0.72030000  1.0 1.4663548581
Ga  Ga7  1  0.08840000  0.73920000  0.27970000  1.0 1.4663548581
Ga  Ga8  1  0.58840000  0.76080000  0.22030000  1.0 1.4646464698
Ga  Ga9  1  0.11050000  0.17930000  0.34410000  1.0 1.5007161491
Ga  Ga10  1  0.61050000  0.32070000  0.15590000  1.0 1.4933303508
Ga  Ga11  1  0.88950000  0.32070000  0.84410000  1.0 1.4933303508
Ga  Ga12  1  0.38950000  0.17930000  0.65590000  1.0 1.4933303508
Ga  Ga13  1  0.88950000  0.82070000  0.65590000  1.0 1.4933303508
Ga  Ga14  1  0.38950000  0.67930000  0.84410000  1.0 1.4933303508
Ga  Ga15  1  0.11050000  0.67930000  0.15590000  1.0 1.5007161491
Ga  Ga16  1  0.61050000  0.82070000  0.34410000  1.0 1.4933303508
Ga  Ga17  1  0.90250000  0.42350000  0.05400000  1.0 1.5467415663
Ga  Ga18  1  0.40250000  0.07650000  0.44600000  1.0 1.5467415663
Ga  Ga19  1  0.09750000  0.07650000  0.55400000  1.0 1.5467415663
Ga  Ga20  1  0.59750000  0.42350000  0.94600000  1.0 1.5467415663
Ga  Ga21  1  0.09750000  0.57650000  0.94600000  1.0 1.5467415663
Ga  Ga22  1  0.59750000  0.92350000  0.55400000  1.0 1.5467415663
Ga  Ga23  1  0.90250000  0.92350000  0.44600000  1.0 1.5467415663
Ga  Ga24  1  0.40250000  0.57650000  0.05400000  1.0 1.5467415663
Ga  Ga25  1  0.92600000  0.41270000  0.24150000  1.0 1.528457243
Ga  Ga26  1  0.42600000  0.08730000  0.25850000  1.0 1.528457243
Ga  Ga27  1  0.07400000  0.08730000  0.74150000  1.0 1.528457243
Ga  Ga28  1  0.57400000  0.41270000  0.75850000  1.0 1.528457243
Ga  Ga29  1  0.07400000  0.58730000  0.75850000  1.0 1.528457243
Ga  Ga30  1  0.57400000  0.91270000  0.74150000  1.0 1.528457243
Ga  Ga31  1  0.92600000  0.91270000  0.25850000  1.0 1.528457243
Ga  Ga32  1  0.42600000  0.58730000  0.24150000  1.0 1.528457243
P  P1  1  0.90400000  0.31980000  0.14160000  1.0 1.528457243
P  P2  1  0.40400000  0.18020000  0.35840000  1.0 1.528457243
P  P3  1  0.09600000  0.18020000  0.64160000  1.0 1.528457243
P  P4  1  0.59600000  0.31980000  0.85840000  1.0 1.528457243
P  P5  1  0.09600000  0.68020000  0.85840000  1.0 1.528457243
P  P6  1  0.59600000  0.81980000  0.64160000  1.0 1.528457243
P  P7  1  0.90400000  0.81980000  0.35840000  1.0 1.528457243
P  P8  1  0.40400000  0.68020000  0.14160000  1.0 1.528457243
P  P9  1  0.11050000  0.06570000  0.25520000  1.0 1.5467415663
P  P10  1  0.61050000  0.43430000  0.24480000  1.0 1.5432946198
P  P11  1  0.88950000  0.43430000  0.75520000  1.0 1.5432946198
P  P12  1  0.38950000  0.06570000  0.74480000  1.0 1.5467415663
P  P13  1  0.88950000  0.93430000  0.74480000  1.0 1.5432946198
P  P14  1  0.38950000  0.56570000  0.75520000  1.0 1.5467415663
P  P15  1  0.11050000  0.56570000  0.24480000  1.0 1.5467415663
P  P16  1  0.61050000  0.93430000  0.25520000  1.0 1.5432946198
P  P17  1  0.09480000  0.07420000  0.44040000  1.0 1.5213588588
P  P18  1  0.59480000  0.42580000  0.05960000  1.0 1.5213588588
P  P19  1  0.90520000  0.42580000  0.94040000  1.0 1.5213588588
P  P20  1  0.40520000  0.07420000  0.55960000  1.0 1.5213588588
P  P21  1  0.90520000  0.92580000  0.55960000  1.0 1.5213588588
P  P22  1  0.40520000  0.57420000  0.94040000  1.0 1.5213588588
P  P23  1  0.09480000  0.57420000  0.05960000  1.0 1.5213588588
P  P24  1  0.59480000  0.92580000  0.44040000  1.0 1.5213588588
P  P25  1  0.88600000  0.27340000  0.30400000  1.0 1.5007161491
P  P26  1  0.38600000  0.22660000  0.19600000  1.0 1.5064786307
P  P27  1  0.11400000  0.22660000  0.80400000  1.0 1.5064786307
P  P28  1  0.61400000  0.27340000  0.69600000  1.0 1.5064786307
P  P29  1  0.11400000  0.72660000  0.69600000  1.0 1.5064786307
P  P30  1  0.61400000  0.77340000  0.80400000  1.0 1.5007161491
P  P31  1  0.88600000  0.77340000  0.19600000  1.0 1.5007161491
P  P32  1  0.38600000  0.72660000  0.30400000  1.0 1.5064786307
O  O1  1  0.08710000  0.12810000  0.21730000  1.0 -0.7330618801
O  O2  1  0.58710000  0.37190000  0.28270000  1.0 -0.7392205171
O  O3  1  0.91290000  0.37190000  0.71730000  1.0 -0.7392205171
O  O4  1  0.41290000  0.12810000  0.78270000  1.0 -0.7330618801
O  O5  1  0.91290000  0.87190000  0.78270000  1.0 -0.7392205171
O  O6  1  0.41290000  0.62810000  0.71730000  1.0 -0.7330618801
O  O7  1  0.08710000  0.62810000  0.28270000  1.0 -0.7330618801
O  O8  1  0.58710000  0.87190000  0.21730000  1.0 -0.7330618801
O  O9  1  0.92610000  0.23390000  0.25680000  1.0 -0.7174506714
O  O10  1  0.42610000  0.26610000  0.24320000  1.0 -0.7174506714
O  O11  1  0.07390000  0.26610000  0.75680000  1.0 -0.7174506714
O  O12  1  0.57390000  0.23390000  0.74320000  1.0 -0.7174506714
O  O13  1  0.07390000  0.76610000  0.74320000  1.0 -0.7174506714
O  O14  1  0.57390000  0.73390000  0.75680000  1.0 -0.7174506714
O  O15  1  0.92610000  0.73390000  0.24320000  1.0 -0.7148116715
O  O16  1  0.42610000  0.76610000  0.25680000  1.0 -0.7148116715
O  O17  1  0.04790000  0.13210000  0.40410000  1.0 -0.6376498528
O  O18  1  0.54790000  0.36790000  0.09590000  1.0 -0.6376498528
O  O19  1  0.95210000  0.36790000  0.90410000  1.0 -0.6376498528
O  O20  1  0.45210000  0.13210000  0.59590000  1.0 -0.6376498528
O  O21  1  0.95210000  0.86790000  0.59590000  1.0 -0.6376498528
O  O22  1  0.45210000  0.63210000  0.90410000  1.0 -0.6376498528
O  O23  1  0.04790000  0.63210000  0.09590000  1.0 -0.6376498528
O  O24  1  0.54790000  0.86790000  0.40410000  1.0 -0.6376498528
O  O25  1  0.88790000  0.38790000  0.17650000  1.0 -0.7606284209
O  O26  1  0.38790000  0.11210000  0.32350000  1.0 -0.7606284209
O  O27  1  0.11210000  0.11210000  0.67650000  1.0 -0.7606284209
O  O28  1  0.61210000  0.38790000  0.82350000  1.0 -0.7606284209
O  O29  1  0.11210000  0.61210000  0.82350000  1.0 -0.7606284209
O  O30  1  0.61210000  0.88790000  0.67650000  1.0 -0.7606284209
O  O31  1  0.88790000  0.88790000  0.32350000  1.0 -0.7606284209
O  O32  1  0.38790000  0.61210000  0.17650000  1.0 -0.7606284209
O  O33  1  0.00830000  0.00420000  0.43870000  1.0 -0.6927532591
O  O34  1  0.50830000  0.49580000  0.06130000  1.0 -0.6927532591
O  O35  1  0.99170000  0.49580000  0.93870000  1.0 -0.6927532591
O  O36  1  0.49170000  0.00420000  0.56130000  1.0 -0.6927532591
O  O37  1  0.99170000  0.99580000  0.56130000  1.0 -0.6927532591
O  O38  1  0.49170000  0.50420000  0.93870000  1.0 -0.6927532591
O  O39  1  0.00830000  0.50420000  0.06130000  1.0 -0.6927532591
O  O40  1  0.50830000  0.99580000  0.43870000  1.0 -0.6927532591
O  O41  1  0.96960000  0.35030000  0.09370000  1.0 -0.6678884053
O  O42  1  0.46960000  0.14970000  0.40630000  1.0 -0.6678884053
O  O43  1  0.03040000  0.14970000  0.59370000  1.0 -0.6678884053
O  O44  1  0.53040000  0.35030000  0.90630000  1.0 -0.6678884053
O  O45  1  0.03040000  0.64970000  0.90630000  1.0 -0.6678884053
O  O46  1  0.53040000  0.85030000  0.59370000  1.0 -0.6678884053
O  O47  1  0.96960000  0.85030000  0.40630000  1.0 -0.6678884053
O  O48  1  0.46960000  0.64970000  0.09370000  1.0 -0.6678884053
O  O49  1  0.89840000  0.36060000  0.29920000  1.0 -0.7174506714
O  O50  1  0.39840000  0.13940000  0.20080000  1.0 -0.7174506714
O  O51  1  0.10160000  0.13940000  0.79920000  1.0 -0.7174506714
O  O52  1  0.60160000  0.36060000  0.70080000  1.0 -0.7174506714
O  O53  1  0.10160000  0.63940000  0.70080000  1.0 -0.7174506714
O  O54  1  0.60160000  0.86060000  0.79920000  1.0 -0.7174506714
O  O55  1  0.89840000  0.86060000  0.20080000  1.0 -0.7174506714
O  O56  1  0.39840000  0.63940000  0.29920000  1.0 -0.7174506714
O  O57  1  0.01600000  0.00080000  0.24290000  1.0 -0.6678884053
O  O58  1  0.51600000  0.49920000  0.25710000  1.0 -0.6678884053
O  O59  1  0.98400000  0.49920000  0.74290000  1.0 -0.6645638831
O  O60  1  0.48400000  0.00080000  0.75710000  1.0 -0.6678884053
O  O61  1  0.98400000  0.99920000  0.75710000  1.0 -0.6645638831
O  O62  1  0.48400000  0.50080000  0.74290000  1.0 -0.6678884053
O  O63  1  0.01600000  0.50080000  0.25710000  1.0 -0.6678884053
O  O64  1  0.51600000  0.99920000  0.24290000  1.0 -0.6678884053
O  O65  1  0.74550000  0.25100000  0.31720000  1.0 -0.6508838422
O  O66  1  0.24550000  0.24900000  0.18280000  1.0 -0.6508838422
O  O67  1  0.25450000  0.24900000  0.81720000  1.0 -0.6508838422
O  O68  1  0.75450000  0.25100000  0.68280000  1.0 -0.6508838422
O  O69  1  0.25450000  0.74900000  0.68280000  1.0 -0.6508838422
O  O70  1  0.75450000  0.75100000  0.81720000  1.0 -0.6508838422
O  O71  1  0.74550000  0.75100000  0.18280000  1.0 -0.6508838422
O  O72  1  0.24550000  0.74900000  0.31720000  1.0 -0.6508838422
O  O73  1  0.25220000  0.03480000  0.25350000  1.0 -0.6792880781
O  O74  1  0.75220000  0.46520000  0.24650000  1.0 -0.6792880781
O  O75  1  0.74780000  0.46520000  0.75350000  1.0 -0.6792880781
O  O76  1  0.24780000  0.03480000  0.74650000  1.0 -0.6792880781
O  O77  1  0.74780000  0.96520000  0.74650000  1.0 -0.6792880781
O  O78  1  0.24780000  0.53480000  0.75350000  1.0 -0.6792880781
O  O79  1  0.25220000  0.53480000  0.24650000  1.0 -0.6792880781
O  O80  1  0.75220000  0.96520000  0.25350000  1.0 -0.6792880781
O  O81  1  0.98730000  0.25500000  0.16070000  1.0 -0.6678884053
O  O82  1  0.48730000  0.24500000  0.33930000  1.0 -0.6678884053
O  O83  1  0.01270000  0.24500000  0.66070000  1.0 -0.6678884053
O  O84  1  0.51270000  0.25500000  0.83930000  1.0 -0.6678884053
O  O85  1  0.01270000  0.74500000  0.83930000  1.0 -0.6678884053
O  O86  1  0.51270000  0.75500000  0.66070000  1.0 -0.6678884053
O  O87  1  0.98730000  0.75500000  0.33930000  1.0 -0.6678884053
O  O88  1  0.48730000  0.74500000  0.16070000  1.0 -0.6678884053
O  O89  1  0.97280000  0.24790000  0.34730000  1.0 -0.6645638831
O  O90  1  0.47280000  0.25210000  0.15270000  1.0 -0.6645638831
O  O91  1  0.02720000  0.25210000  0.84730000  1.0 -0.6645638831
O  O92  1  0.52720000  0.24790000  0.65270000  1.0 -0.6645638831
O  O93  1  0.02720000  0.75210000  0.65270000  1.0 -0.6645638831
O  O94  1  0.52720000  0.74790000  0.84730000  1.0 -0.6645638831
O  O95  1  0.97280000  0.74790000  0.15270000  1.0 -0.6645638831
O  O96  1  0.47280000  0.75210000  0.34730000  1.0 -0.6645638831
O  O97  1  0.07850000  0.09150000  0.30820000  1.0 -0.7392205171
O  O98  1  0.57850000  0.40850000  0.19180000  1.0 -0.7392205171
O  O99  1  0.92150000  0.40850000  0.80820000  1.0 -0.7392205171
O  O100  1  0.42150000  0.09150000  0.69180000  1.0 -0.7392205171
O  O101  1  0.92150000  0.90850000  0.69180000  1.0 -0.7392205171
O  O102  1  0.42150000  0.59150000  0.80820000  1.0 -0.7392205171
O  O103  1  0.07850000  0.59150000  0.19180000  1.0 -0.7392205171
O  O104  1  0.57850000  0.90850000  0.30820000  1.0 -0.7392205171
O  O105  1  0.76690000  0.29170000  0.12690000  1.0 -0.698250819
O  O106  1  0.26690000  0.20830000  0.37310000  1.0 -0.698250819
O  O107  1  0.23310000  0.20830000  0.62690000  1.0 -0.698250819
O  O108  1  0.73310000  0.29170000  0.87310000  1.0 -0.698250819
O  O109  1  0.23310000  0.70830000  0.87310000  1.0 -0.698250819
O  O110  1  0.73310000  0.79170000  0.62690000  1.0 -0.698250819
O  O111  1  0.76690000  0.79170000  0.37310000  1.0 -0.698250819
O  O112  1  0.26690000  0.70830000  0.12690000  1.0 -0.698250819
O  O113  1  0.23600000  0.04700000  0.43030000  1.0 -0.7392205171
O  O114  1  0.73600000  0.45300000  0.06970000  1.0 -0.7392205171
O  O115  1  0.76400000  0.45300000  0.93030000  1.0 -0.7392205171
O  O116  1  0.26400000  0.04700000  0.56970000  1.0 -0.7392205171
O  O117  1  0.76400000  0.95300000  0.56970000  1.0 -0.7392205171
O  O118  1  0.26400000  0.54700000  0.93030000  1.0 -0.7392205171
O  O119  1  0.23600000  0.54700000  0.06970000  1.0 -0.7392205171
O  O120  1  0.73600000  0.95300000  0.43030000  1.0 -0.7392205171
O  O121  1  0.08880000  0.11160000  0.49150000  1.0 -0.7330618801
O  O122  1  0.58880000  0.38840000  0.00850000  1.0 -0.7330618801
O  O123  1  0.91120000  0.38840000  0.99150000  1.0 -0.7330618801
O  O124  1  0.41120000  0.11160000  0.50850000  1.0 -0.7330618801
O  O125  1  0.91120000  0.88840000  0.50850000  1.0 -0.7330618801
O  O126  1  0.41120000  0.61160000  0.99150000  1.0 -0.7330618801
O  O127  1  0.08880000  0.61160000  0.00850000  1.0 -0.7330618801
O  O128  1  0.58880000  0.88840000  0.49150000  1.0 -0.7330618801
F  F1  1  0.17930000  0.23020000  0.28390000  1.0 -0.4832700294
F  F2  1  0.67930000  0.26980000  0.21610000  1.0 -0.4832700294
F  F3  1  0.82070000  0.26980000  0.78390000  1.0 -0.4853500016
F  F4  1  0.32070000  0.23020000  0.71610000  1.0 -0.4832700294
F  F5  1  0.82070000  0.76980000  0.71610000  1.0 -0.4832700294
F  F6  1  0.32070000  0.73020000  0.78390000  1.0 -0.4832700294
F  F7  1  0.17930000  0.73020000  0.21610000  1.0 -0.4832700294
F  F8  1  0.67930000  0.76980000  0.28390000  1.0 -0.4832700294
F  F9  1  0.09370000  0.35240000  0.23250000  1.0 -0.4832700294
F  F10  1  0.59370000  0.14760000  0.26750000  1.0 -0.4832700294
F  F11  1  0.90630000  0.14760000  0.73250000  1.0 -0.4853500016
F  F12  1  0.40630000  0.35240000  0.76750000  1.0 -0.4832700294
F  F13  1  0.90630000  0.64760000  0.76750000  1.0 -0.4832700294
F  F14  1  0.40630000  0.85240000  0.73250000  1.0 -0.4832700294
F  F15  1  0.09370000  0.85240000  0.26750000  1.0 -0.4832700294
F  F16  1  0.59370000  0.64760000  0.23250000  1.0 -0.4832700294
