# DDEC6 charges by PACMAN v1.1 (https://github.com/mtap-research/PACMAN-charge/)
data_UGOSOY_FSR_pacman
_symmetry_space_group_name_H-M   'P 1'
_cell_length_a   24.97320000
_cell_length_b   24.97320000
_cell_length_c   24.97320000
_cell_angle_alpha   148.69200000
_cell_angle_beta   148.69200000
_cell_angle_gamma   44.86510000
_symmetry_Int_Tables_number   1
_chemical_formula_structural   CuH16C24(N2O)4
_chemical_formula_sum   'Cu4 H64 C96 N32 O16'
_cell_volume   4192.58266058
_cell_formula_units_Z   4
loop_
 _symmetry_equiv_pos_site_id
 _symmetry_equiv_pos_as_xyz
  1  'x, y, z'
loop_
 _atom_site_type_symbol
 _atom_site_label
 _atom_site_symmetry_multiplicity
 _atom_site_fract_x
 _atom_site_fract_y
 _atom_site_fract_z
 _atom_site_occupancy
 _atom_site_charge
Cu  Cu1  1  0.52548000  0.02548000  0.50000000  1.0 0.6100833353
Cu  Cu2  1  0.77548000  0.77548000  0.00000000  1.0 0.6100833353
Cu  Cu3  1  0.22452000  0.22452000  0.00000000  1.0 0.6100833353
Cu  Cu4  1  0.97452000  0.47452000  0.50000000  1.0 0.6100833353
H  H1  1  0.62420000  0.20600000  0.68260000  1.0 0.1060846825
H  H2  1  0.95600000  0.77340000  0.08180000  1.0 0.1060846825
H  H3  1  0.69160000  0.87420000  0.91820000  1.0 0.1060846825
H  H4  1  0.52340000  0.94160000  0.31740000  1.0 0.1060846825
H  H5  1  0.59900000  0.30640000  0.67400000  1.0 0.137295274
H  H6  1  0.05640000  0.88240000  0.20740000  1.0 0.137295274
H  H7  1  0.67500000  0.84900000  0.79260000  1.0 0.137295274
H  H8  1  0.63240000  0.92500000  0.32600000  1.0 0.137295274
H  H9  1  0.30800000  0.18550000  0.31310000  1.0 0.137295274
H  H10  1  0.93550000  0.12240000  0.37750000  1.0 0.137295274
H  H11  1  0.74490000  0.55800000  0.62250000  1.0 0.137295274
H  H12  1  0.87240000  0.99490000  0.68690000  1.0 0.137295274
H  H13  1  0.34020000  0.08400000  0.32580000  1.0 0.1060846825
H  H14  1  0.83400000  0.00820000  0.24380000  1.0 0.1060846825
H  H15  1  0.76440000  0.59020000  0.75620000  1.0 0.1060846825
H  H16  1  0.75820000  0.01440000  0.67420000  1.0 0.1060846825
H  H17  1  0.67300000  0.49210000  0.79530000  1.0 0.1323511984
H  H18  1  0.24210000  0.94680000  0.31910000  1.0 0.1323511984
H  H19  1  0.62770000  0.92300000  0.68090000  1.0 0.1323511984
H  H20  1  0.69680000  0.87770000  0.20470000  1.0 0.1323511984
H  H21  1  0.78220000  0.61250000  0.94790000  1.0 0.1060846825
H  H22  1  0.36250000  0.91460000  0.33030000  1.0 0.1060846825
H  H23  1  0.58430000  0.03220000  0.66970000  1.0 0.1060846825
H  H24  1  0.66460000  0.83430000  0.05210000  1.0 0.1060846825
H  H25  1  0.55650000  0.68170000  0.72120000  1.0 0.103588667
H  H26  1  0.43170000  0.21050000  0.62520000  1.0 0.103588667
H  H27  1  0.58530000  0.80650000  0.37480000  1.0 0.103588667
H  H28  1  0.96050000  0.83530000  0.27880000  1.0 0.103588667
H  H29  1  0.44430000  0.56580000  0.56850000  1.0 0.137295274
H  H30  1  0.31580000  0.24730000  0.62150000  1.0 0.137295274
H  H31  1  0.62580000  0.69430000  0.37850000  1.0 0.137295274
H  H32  1  0.99730000  0.87580000  0.43150000  1.0 0.137295274
H  H33  1  0.12580000  0.04400000  0.81740000  1.0 0.1060846825
H  H34  1  0.79400000  0.47660000  0.41820000  1.0 0.1060846825
H  H35  1  0.05840000  0.37580000  0.58180000  1.0 0.1060846825
H  H36  1  0.22660000  0.30840000  0.18260000  1.0 0.1060846825
H  H37  1  0.15100000  0.94360000  0.82600000  1.0 0.137295274
H  H38  1  0.69360000  0.36760000  0.29260000  1.0 0.137295274
H  H39  1  0.07500000  0.40100000  0.70740000  1.0 0.137295274
H  H40  1  0.11760000  0.32500000  0.17400000  1.0 0.137295274
H  H41  1  0.44200000  0.06450000  0.18690000  1.0 0.137295274
H  H42  1  0.81450000  0.12760000  0.12250000  1.0 0.137295274
H  H43  1  0.00510000  0.69200000  0.87750000  1.0 0.137295274
H  H44  1  0.87760000  0.25510000  0.81310000  1.0 0.137295274
H  H45  1  0.40980000  0.16600000  0.17420000  1.0 0.1060846825
H  H46  1  0.91600000  0.24180000  0.25620000  1.0 0.1060846825
H  H47  1  0.98560000  0.65980000  0.74380000  1.0 0.1060846825
H  H48  1  0.99180000  0.23560000  0.82580000  1.0 0.1060846825
H  H49  1  0.07700000  0.75790000  0.70470000  1.0 0.1323511984
H  H50  1  0.50790000  0.30320000  0.18090000  1.0 0.1323511984
H  H51  1  0.12230000  0.32700000  0.81910000  1.0 0.1323511984
H  H52  1  0.05320000  0.37230000  0.29530000  1.0 0.1323511984
H  H53  1  0.96780000  0.63750000  0.55210000  1.0 0.1060846825
H  H54  1  0.38750000  0.33540000  0.16970000  1.0 0.1060846825
H  H55  1  0.16570000  0.21780000  0.83030000  1.0 0.1060846825
H  H56  1  0.08540000  0.41570000  0.44790000  1.0 0.1060846825
H  H57  1  0.19350000  0.56830000  0.77880000  1.0 0.103588667
H  H58  1  0.31830000  0.03950000  0.87480000  1.0 0.103588667
H  H59  1  0.16470000  0.44350000  0.12520000  1.0 0.103588667
H  H60  1  0.78950000  0.41470000  0.22120000  1.0 0.103588667
H  H61  1  0.30570000  0.68420000  0.93150000  1.0 0.137295274
H  H62  1  0.43420000  0.00270000  0.87850000  1.0 0.137295274
H  H63  1  0.12420000  0.55570000  0.12150000  1.0 0.137295274
H  H64  1  0.75270000  0.37420000  0.06850000  1.0 0.137295274
C  C1  1  0.56039000  0.19989000  0.60570000  1.0 0.0793668778
C  C2  1  0.94989000  0.84419000  0.13950000  1.0 0.0793668778
C  C3  1  0.70469000  0.81039000  0.86050000  1.0 0.0793668778
C  C4  1  0.59419000  0.95469000  0.39430000  1.0 0.0793668778
C  C5  1  0.54513000  0.26093000  0.60140000  1.0 -0.1643487055
C  C6  1  0.01093000  0.90953000  0.21580000  1.0 -0.1643487055
C  C7  1  0.69373000  0.79513000  0.78420000  1.0 -0.1643487055
C  C8  1  0.65953000  0.94373000  0.39860000  1.0 -0.1643487055
C  C9  1  0.45313000  0.25643000  0.49350000  1.0 0.0411428872
C  C10  1  0.00643000  0.01293000  0.30330000  1.0 0.0411428872
C  C11  1  0.70963000  0.70313000  0.69670000  1.0 0.0411428872
C  C12  1  0.76293000  0.95963000  0.50650000  1.0 0.0411428872
C  C13  1  0.37323000  0.18933000  0.38770000  1.0 -0.1813620281
C  C14  1  0.93933000  0.05163000  0.31610000  1.0 -0.1813620281
C  C15  1  0.73553000  0.62323000  0.68390000  1.0 -0.1813620281
C  C16  1  0.80163000  0.98553000  0.61230000  1.0 -0.1813620281
C  C17  1  0.39350000  0.12910000  0.39680000  1.0 0.0695525596
C  C18  1  0.87910000  0.98230000  0.23560000  1.0 0.0695525596
C  C19  1  0.74670000  0.64350000  0.76440000  1.0 0.0695525596
C  C20  1  0.73230000  0.99670000  0.60320000  1.0 0.0695525596
C  C21  1  0.43888000  0.31988000  0.48940000  1.0 0.2774910119
C  C22  1  0.06988000  0.08048000  0.38100000  1.0 0.2774910119
C  C23  1  0.69948000  0.68888000  0.61900000  1.0 0.2774910119
C  C24  1  0.83048000  0.94948000  0.51060000  1.0 0.2774910119
C  C25  1  0.47916000  0.43436000  0.56320000  1.0 0.266919234
C  C26  1  0.18436000  0.12116000  0.45520000  1.0 0.266919234
C  C27  1  0.66596000  0.72916000  0.54480000  1.0 0.266919234
C  C28  1  0.87116000  0.91596000  0.43680000  1.0 0.266919234
C  C29  1  0.54858000  0.51278000  0.66320000  1.0 0.0411428872
C  C30  1  0.26278000  0.09958000  0.46420000  1.0 0.0411428872
C  C31  1  0.63538000  0.79858000  0.53580000  1.0 0.0411428872
C  C32  1  0.84958000  0.88538000  0.33680000  1.0 0.0411428872
C  C33  1  0.64799000  0.53009000  0.77830000  1.0 -0.1690960105
C  C34  1  0.28009000  0.00179000  0.38210000  1.0 -0.1690960105
C  C35  1  0.61969000  0.89799000  0.61790000  1.0 -0.1690960105
C  C36  1  0.75179000  0.86969000  0.22170000  1.0 -0.1690960105
C  C37  1  0.71308000  0.60368000  0.87120000  1.0 0.0695525596
C  C38  1  0.35368000  0.98248000  0.39060000  1.0 0.0695525596
C  C39  1  0.59188000  0.96308000  0.60940000  1.0 0.0695525596
C  C40  1  0.73248000  0.84188000  0.12880000  1.0 0.0695525596
C  C41  1  0.58031000  0.64421000  0.73810000  1.0 0.0695525596
C  C42  1  0.39421000  0.15611000  0.56390000  1.0 0.0695525596
C  C43  1  0.59221000  0.83031000  0.43610000  1.0 0.0695525596
C  C44  1  0.90611000  0.84221000  0.26190000  1.0 0.0695525596
C  C45  1  0.51323000  0.57343000  0.64440000  1.0 -0.1690960105
C  C46  1  0.32343000  0.17903000  0.56020000  1.0 -0.1690960105
C  C47  1  0.61883000  0.76323000  0.43980000  1.0 -0.1690960105
C  C48  1  0.92903000  0.86883000  0.35560000  1.0 -0.1690960105
C  C49  1  0.18961000  0.05011000  0.89430000  1.0 0.0793668778
C  C50  1  0.80011000  0.40581000  0.36050000  1.0 0.0793668778
C  C51  1  0.04531000  0.43961000  0.63950000  1.0 0.0793668778
C  C52  1  0.15581000  0.29531000  0.10570000  1.0 0.0793668778
C  C53  1  0.20487000  0.98907000  0.89860000  1.0 -0.1643487055
C  C54  1  0.73907000  0.34047000  0.28420000  1.0 -0.1643487055
C  C55  1  0.05627000  0.45487000  0.71580000  1.0 -0.1643487055
C  C56  1  0.09047000  0.30627000  0.10140000  1.0 -0.1643487055
C  C57  1  0.29687000  0.99357000  0.00650000  1.0 0.0411428872
C  C58  1  0.74357000  0.23707000  0.19670000  1.0 0.0411428872
C  C59  1  0.04037000  0.54687000  0.80330000  1.0 0.0411428872
C  C60  1  0.98707000  0.29037000  0.99350000  1.0 0.0411428872
C  C61  1  0.37677000  0.06067000  0.11230000  1.0 -0.1813620281
C  C62  1  0.81067000  0.19837000  0.18390000  1.0 -0.1813620281
C  C63  1  0.01447000  0.62677000  0.81610000  1.0 -0.1813620281
C  C64  1  0.94837000  0.26447000  0.88770000  1.0 -0.1813620281
C  C65  1  0.35650000  0.12090000  0.10320000  1.0 0.0695525596
C  C66  1  0.87090000  0.26770000  0.26440000  1.0 0.0695525596
C  C67  1  0.00330000  0.60650000  0.73560000  1.0 0.0695525596
C  C68  1  0.01770000  0.25330000  0.89680000  1.0 0.0695525596
C  C69  1  0.31112000  0.93012000  0.01060000  1.0 0.2774910119
C  C70  1  0.68012000  0.16952000  0.11900000  1.0 0.2774910119
C  C71  1  0.05052000  0.56112000  0.88100000  1.0 0.2774910119
C  C72  1  0.91952000  0.30052000  0.98940000  1.0 0.2774910119
C  C73  1  0.27084000  0.81564000  0.93680000  1.0 0.266919234
C  C74  1  0.56564000  0.12884000  0.04480000  1.0 0.266919234
C  C75  1  0.08404000  0.52084000  0.95520000  1.0 0.266919234
C  C76  1  0.87884000  0.33404000  0.06320000  1.0 0.266919234
C  C77  1  0.20142000  0.73722000  0.83680000  1.0 0.0411428872
C  C78  1  0.48722000  0.15042000  0.03580000  1.0 0.0411428872
C  C79  1  0.11462000  0.45142000  0.96420000  1.0 0.0411428872
C  C80  1  0.90042000  0.36462000  0.16320000  1.0 0.0411428872
C  C81  1  0.10201000  0.71991000  0.72170000  1.0 -0.1690960105
C  C82  1  0.46991000  0.24821000  0.11790000  1.0 -0.1690960105
C  C83  1  0.13031000  0.35201000  0.88210000  1.0 -0.1690960105
C  C84  1  0.99821000  0.38031000  0.27830000  1.0 -0.1690960105
C  C85  1  0.03692000  0.64632000  0.62880000  1.0 0.0695525596
C  C86  1  0.39632000  0.26752000  0.10940000  1.0 0.0695525596
C  C87  1  0.15812000  0.28692000  0.89060000  1.0 0.0695525596
C  C88  1  0.01752000  0.40812000  0.37120000  1.0 0.0695525596
C  C89  1  0.16969000  0.60579000  0.76190000  1.0 0.0695525596
C  C90  1  0.35579000  0.09389000  0.93610000  1.0 0.0695525596
C  C91  1  0.15779000  0.41969000  0.06390000  1.0 0.0695525596
C  C92  1  0.84389000  0.40779000  0.23810000  1.0 0.0695525596
C  C93  1  0.23677000  0.67657000  0.85560000  1.0 -0.1690960105
C  C94  1  0.42657000  0.07097000  0.93980000  1.0 -0.1690960105
C  C95  1  0.13117000  0.48677000  0.06020000  1.0 -0.1690960105
C  C96  1  0.82097000  0.38117000  0.14440000  1.0 -0.1690960105
N  N1  1  0.48554000  0.13114000  0.50160000  1.0 -0.2303695872
N  N2  1  0.88114000  0.87954000  0.14560000  1.0 -0.2303695872
N  N3  1  0.73394000  0.73554000  0.85440000  1.0 -0.2303695872
N  N4  1  0.62954000  0.98394000  0.49840000  1.0 -0.2303695872
N  N5  1  0.36315000  0.31925000  0.39070000  1.0 -0.2545633305
N  N6  1  0.06925000  0.17855000  0.45610000  1.0 -0.2545633305
N  N7  1  0.72245000  0.61315000  0.54390000  1.0 -0.2545633305
N  N8  1  0.92855000  0.97245000  0.60930000  1.0 -0.2545633305
N  N9  1  0.39255000  0.39545000  0.44350000  1.0 -0.2303695872
N  N10  1  0.14545000  0.20195000  0.50290000  1.0 -0.2303695872
N  N11  1  0.69905000  0.64255000  0.49710000  1.0 -0.2303695872
N  N12  1  0.95195000  0.94905000  0.55650000  1.0 -0.2303695872
N  N13  1  0.67843000  0.66293000  0.85290000  1.0 -0.2303695872
N  N14  1  0.41293000  0.06003000  0.48450000  1.0 -0.2303695872
N  N15  1  0.57553000  0.92843000  0.51550000  1.0 -0.2303695872
N  N16  1  0.81003000  0.82553000  0.14710000  1.0 -0.2303695872
N  N17  1  0.26446000  0.11886000  0.99840000  1.0 -0.2303695872
N  N18  1  0.86886000  0.37046000  0.35440000  1.0 -0.2303695872
N  N19  1  0.01606000  0.51446000  0.64560000  1.0 -0.2303695872
N  N20  1  0.12046000  0.26606000  0.00160000  1.0 -0.2303695872
N  N21  1  0.38685000  0.93075000  0.10930000  1.0 -0.2545633305
N  N22  1  0.68075000  0.07145000  0.04390000  1.0 -0.2545633305
N  N23  1  0.02755000  0.63685000  0.95610000  1.0 -0.2545633305
N  N24  1  0.82145000  0.27755000  0.89070000  1.0 -0.2545633305
N  N25  1  0.35745000  0.85455000  0.05650000  1.0 -0.2303695872
N  N26  1  0.60455000  0.04805000  0.99710000  1.0 -0.2303695872
N  N27  1  0.05095000  0.60745000  0.00290000  1.0 -0.2303695872
N  N28  1  0.79805000  0.30095000  0.94350000  1.0 -0.2303695872
N  N29  1  0.07157000  0.58707000  0.64710000  1.0 -0.2303695872
N  N30  1  0.33707000  0.18997000  0.01550000  1.0 -0.2303695872
N  N31  1  0.17447000  0.32157000  0.98450000  1.0 -0.2303695872
N  N32  1  0.93997000  0.42447000  0.35290000  1.0 -0.2303695872
O  O1  1  0.51664000  0.38914000  0.60130000  1.0 -0.1813620281
O  O2  1  0.13914000  0.03784000  0.37250000  1.0 -0.1813620281
O  O3  1  0.66534000  0.76664000  0.62750000  1.0 -0.1813620281
O  O4  1  0.78784000  0.91534000  0.39870000  1.0 -0.1813620281
O  O5  1  0.64151000  0.16171000  0.75740000  1.0 -0.3734792236
O  O6  1  0.91171000  0.65431000  0.02020000  1.0 -0.3734792236
O  O7  1  0.63411000  0.89151000  0.97980000  1.0 -0.3763309855
O  O8  1  0.40431000  0.88411000  0.24260000  1.0 -0.3734792236
O  O9  1  0.23336000  0.86086000  0.89870000  1.0 -0.1813620281
O  O10  1  0.61086000  0.21216000  0.12750000  1.0 -0.1813620281
O  O11  1  0.08466000  0.48336000  0.87250000  1.0 -0.1813620281
O  O12  1  0.96216000  0.33466000  0.10130000  1.0 -0.1813620281
O  O13  1  0.10849000  0.08829000  0.74260000  1.0 -0.3763309855
O  O14  1  0.83829000  0.59569000  0.47980000  1.0 -0.3734792236
O  O15  1  0.11589000  0.35849000  0.52020000  1.0 -0.3763309855
O  O16  1  0.34569000  0.36589000  0.25740000  1.0 -0.3763309855
