# DDEC6 charges by PACMAN v1.1 (https://github.com/mtap-research/PACMAN-charge/)
data_UHEKUQ_FSR_pacman
_symmetry_space_group_name_H-M   'P 1'
_cell_length_a   8.44000000
_cell_length_b   18.23900000
_cell_length_c   20.79900000
_cell_angle_alpha   90.00000000
_cell_angle_beta   110.52100000
_cell_angle_gamma   90.00000000
_symmetry_Int_Tables_number   1
_chemical_formula_structural   NiH25C32N3O8
_chemical_formula_sum   'Ni4 H100 C128 N12 O32'
_cell_volume   2998.56870064
_cell_formula_units_Z   4
loop_
 _symmetry_equiv_pos_site_id
 _symmetry_equiv_pos_as_xyz
  1  'x, y, z'
loop_
 _atom_site_type_symbol
 _atom_site_label
 _atom_site_symmetry_multiplicity
 _atom_site_fract_x
 _atom_site_fract_y
 _atom_site_fract_z
 _atom_site_occupancy
 _atom_site_charge
Ni  Ni1  1  0.32127000  0.74304000  0.72921000  1.0 0.6431091433
Ni  Ni2  1  0.67873000  0.24304000  0.77079000  1.0 0.6431091433
Ni  Ni3  1  0.67873000  0.25696000  0.27079000  1.0 0.6431091433
Ni  Ni4  1  0.32127000  0.75696000  0.22921000  1.0 0.6431091433
H  H1  1  0.56320000  0.39080000  0.19170000  1.0 0.1206365448
H  H2  1  0.67200000  0.85070000  0.40990000  1.0 0.1404859317
H  H3  1  0.73710000  0.36190000  0.38590000  1.0 0.1103987864
H  H4  1  0.68870000  0.55330000  0.52750000  1.0 0.1472832509
H  H5  1  0.57310000  0.55460000  0.31210000  1.0 0.1284462644
H  H6  1  0.52030000  0.50910000  0.20480000  1.0 0.1404859317
H  H7  1  0.89140000  0.88150000  0.50510000  1.0 0.1404859317
H  H8  1  0.95820000  0.50450000  0.72000000  1.0 0.1284462644
H  H9  1  0.58330000  0.49640000  0.43360000  1.0 0.1103987864
H  H10  1  0.74310000  0.53810000  0.43040000  1.0 0.1103987864
H  H11  1  0.96320000  0.67550000  0.55640000  1.0 0.1284462644
H  H12  1  0.35820000  0.32860000  0.72840000  1.0 0.1103987864
H  H13  1  0.98680000  0.38060000  0.57040000  1.0 0.173018605
H  H14  1  0.64560000  0.62680000  0.70680000  1.0 0.1103987864
H  H15  1  0.76200000  0.55780000  0.73000000  1.0 0.1103987864
H  H16  1  0.01060000  0.65660000  0.68620000  1.0 0.1206365448
H  H17  1  0.21330000  0.77030000  0.84740000  1.0 0.1206365448
H  H18  1  0.74140000  0.64420000  0.46300000  1.0 0.1103987864
H  H19  1  0.16500000  0.44690000  0.77630000  1.0 0.1025411808
H  H20  1  0.02840000  0.38620000  0.76990000  1.0 0.1103987864
H  H21  1  0.59200000  0.23160000  0.89640000  1.0 0.1103987864
H  H22  1  0.79850000  0.66240000  0.82380000  1.0 0.1206365448
H  H23  1  0.01440000  0.73490000  0.88910000  1.0 0.1404859317
H  H24  1  0.19980000  0.35060000  0.88090000  1.0 0.1206365448
H  H25  1  0.41410000  0.27710000  0.94410000  1.0 0.1472832509
H  H26  1  0.43680000  0.89080000  0.30830000  1.0 0.1206365448
H  H27  1  0.32800000  0.35070000  0.09010000  1.0 0.1404859317
H  H28  1  0.26290000  0.86190000  0.11410000  1.0 0.1103987864
H  H29  1  0.31130000  0.05330000  0.97250000  1.0 0.1472832509
H  H30  1  0.42690000  0.05460000  0.18790000  1.0 0.1284462644
H  H31  1  0.47970000  0.00910000  0.29520000  1.0 0.1404859317
H  H32  1  0.10860000  0.38150000  0.99490000  1.0 0.1404859317
H  H33  1  0.04180000  0.00450000  0.78000000  1.0 0.1284462644
H  H34  1  0.41670000  0.99640000  0.06640000  1.0 0.1103987864
H  H35  1  0.25690000  0.03810000  0.06960000  1.0 0.1103987864
H  H36  1  0.03680000  0.17550000  0.94360000  1.0 0.1284462644
H  H37  1  0.64180000  0.82860000  0.77160000  1.0 0.1103987864
H  H38  1  0.01320000  0.88060000  0.92960000  1.0 0.173018605
H  H39  1  0.35440000  0.12680000  0.79320000  1.0 0.1103987864
H  H40  1  0.23800000  0.05780000  0.77000000  1.0 0.1103987864
H  H41  1  0.98940000  0.15660000  0.81380000  1.0 0.1284462644
H  H42  1  0.78670000  0.27030000  0.65260000  1.0 0.1206365448
H  H43  1  0.25860000  0.14420000  0.03700000  1.0 0.1103987864
H  H44  1  0.83500000  0.94690000  0.72370000  1.0 0.1025411808
H  H45  1  0.97160000  0.88620000  0.73010000  1.0 0.1103987864
H  H46  1  0.40800000  0.73160000  0.60360000  1.0 0.1103987864
H  H47  1  0.20150000  0.16240000  0.67620000  1.0 0.1206365448
H  H48  1  0.98560000  0.23490000  0.61090000  1.0 0.1404859317
H  H49  1  0.80020000  0.85060000  0.61910000  1.0 0.1206365448
H  H50  1  0.58590000  0.77710000  0.55590000  1.0 0.1472832509
H  H51  1  0.43680000  0.60920000  0.80830000  1.0 0.1206365448
H  H52  1  0.32800000  0.14930000  0.59010000  1.0 0.1404859317
H  H53  1  0.26290000  0.63810000  0.61410000  1.0 0.1103987864
H  H54  1  0.31130000  0.44670000  0.47250000  1.0 0.1472832509
H  H55  1  0.42690000  0.44540000  0.68790000  1.0 0.1284462644
H  H56  1  0.47970000  0.49090000  0.79520000  1.0 0.1404859317
H  H57  1  0.10860000  0.11850000  0.49490000  1.0 0.1404859317
H  H58  1  0.04180000  0.49550000  0.28000000  1.0 0.1284462644
H  H59  1  0.41670000  0.50360000  0.56640000  1.0 0.1103987864
H  H60  1  0.25690000  0.46190000  0.56960000  1.0 0.1103987864
H  H61  1  0.03680000  0.32450000  0.44360000  1.0 0.1284462644
H  H62  1  0.64180000  0.67140000  0.27160000  1.0 0.1103987864
H  H63  1  0.01320000  0.61940000  0.42960000  1.0 0.173018605
H  H64  1  0.35440000  0.37320000  0.29320000  1.0 0.1103987864
H  H65  1  0.23800000  0.44220000  0.27000000  1.0 0.1103987864
H  H66  1  0.98940000  0.34340000  0.31380000  1.0 0.1284462644
H  H67  1  0.78670000  0.22970000  0.15260000  1.0 0.1206365448
H  H68  1  0.25860000  0.35580000  0.53700000  1.0 0.1103987864
H  H69  1  0.83500000  0.55310000  0.22370000  1.0 0.1025411808
H  H70  1  0.97160000  0.61380000  0.23010000  1.0 0.1103987864
H  H71  1  0.40800000  0.76840000  0.10360000  1.0 0.1103987864
H  H72  1  0.20150000  0.33760000  0.17620000  1.0 0.1206365448
H  H73  1  0.98560000  0.26510000  0.11090000  1.0 0.1404859317
H  H74  1  0.80020000  0.64940000  0.11910000  1.0 0.1206365448
H  H75  1  0.58590000  0.72290000  0.05590000  1.0 0.1472832509
H  H76  1  0.56320000  0.10920000  0.69170000  1.0 0.1206365448
H  H77  1  0.67200000  0.64930000  0.90990000  1.0 0.1404859317
H  H78  1  0.73710000  0.13810000  0.88590000  1.0 0.1103987864
H  H79  1  0.68870000  0.94670000  0.02750000  1.0 0.1472832509
H  H80  1  0.57310000  0.94540000  0.81210000  1.0 0.1284462644
H  H81  1  0.52030000  0.99090000  0.70480000  1.0 0.1404859317
H  H82  1  0.89140000  0.61850000  0.00510000  1.0 0.1404859317
H  H83  1  0.95820000  0.99550000  0.22000000  1.0 0.1284462644
H  H84  1  0.58330000  0.00360000  0.93360000  1.0 0.1103987864
H  H85  1  0.74310000  0.96190000  0.93040000  1.0 0.1103987864
H  H86  1  0.96320000  0.82450000  0.05640000  1.0 0.1284462644
H  H87  1  0.35820000  0.17140000  0.22840000  1.0 0.1103987864
H  H88  1  0.98680000  0.11940000  0.07040000  1.0 0.173018605
H  H89  1  0.64560000  0.87320000  0.20680000  1.0 0.1103987864
H  H90  1  0.76200000  0.94220000  0.23000000  1.0 0.1103987864
H  H91  1  0.01060000  0.84340000  0.18620000  1.0 0.1206365448
H  H92  1  0.21330000  0.72970000  0.34740000  1.0 0.1206365448
H  H93  1  0.74140000  0.85580000  0.96300000  1.0 0.1103987864
H  H94  1  0.16500000  0.05310000  0.27630000  1.0 0.1025411808
H  H95  1  0.02840000  0.11380000  0.26990000  1.0 0.1103987864
H  H96  1  0.59200000  0.26840000  0.39640000  1.0 0.1103987864
H  H97  1  0.79850000  0.83760000  0.32380000  1.0 0.1206365448
H  H98  1  0.01440000  0.76510000  0.38910000  1.0 0.1404859317
H  H99  1  0.19980000  0.14940000  0.38090000  1.0 0.1206365448
H  H100  1  0.41410000  0.22290000  0.44410000  1.0 0.1472832509
C  C1  1  0.65930000  0.46140000  0.35890000  1.0 -0.0125688611
C  C2  1  0.54920000  0.72120000  0.36650000  1.0 0.4987498229
C  C3  1  0.58960000  0.40930000  0.23590000  1.0 0.0302217682
C  C4  1  0.68450000  0.74460000  0.42700000  1.0 -0.0704201073
C  C5  1  0.73080000  0.81430000  0.44020000  1.0 -0.1076120906
C  C6  1  0.81510000  0.53620000  0.62680000  1.0 0.2759465059
C  C7  1  0.68840000  0.39210000  0.34820000  1.0 0.0093922404
C  C8  1  0.76550000  0.52290000  0.55930000  1.0 -0.3892178307
C  C9  1  0.59490000  0.50570000  0.30570000  1.0 -0.1013626619
C  C10  1  0.94710000  0.78180000  0.54000000  1.0 -0.0704201073
C  C11  1  0.56210000  0.47890000  0.24300000  1.0 -0.1563035692
C  C12  1  0.83120000  0.46410000  0.53980000  1.0 0.2759465059
C  C13  1  0.86110000  0.83250000  0.49650000  1.0 -0.1076120906
C  C14  1  0.92570000  0.49430000  0.67330000  1.0 -0.3635241086
C  C15  1  0.26110000  0.34770000  0.79840000  1.0 -0.0125688611
C  C16  1  0.69000000  0.49030000  0.42640000  1.0 -0.0438329088
C  C17  1  0.90240000  0.71180000  0.52660000  1.0 -0.1198694887
C  C18  1  0.37020000  0.31820000  0.77370000  1.0 0.0093922404
C  C19  1  0.98820000  0.43710000  0.65050000  1.0 0.2759465059
C  C20  1  0.94210000  0.42130000  0.58490000  1.0 -0.3659929256
C  C21  1  0.75150000  0.60520000  0.70780000  1.0 -0.0438329088
C  C22  1  0.88920000  0.65150000  0.74850000  1.0 -0.0125688611
C  C23  1  0.01120000  0.67270000  0.72870000  1.0 0.0153518585
C  C24  1  0.12940000  0.73820000  0.82180000  1.0 0.0673934636
C  C25  1  0.08290000  0.80050000  0.60210000  1.0 0.4987498229
C  C26  1  0.77210000  0.69320000  0.47120000  1.0 -0.1198694887
C  C27  1  0.13130000  0.39720000  0.76100000  1.0 -0.0491839279
C  C28  1  0.50480000  0.26200000  0.87020000  1.0 0.0447409456
C  C29  1  0.88590000  0.67560000  0.80860000  1.0 -0.1076120906
C  C30  1  0.01060000  0.71860000  0.84620000  1.0 -0.1477377167
C  C31  1  0.27620000  0.33160000  0.86210000  1.0 -0.1076120906
C  C32  1  0.40060000  0.28850000  0.89890000  1.0 -0.1477377167
C  C33  1  0.34070000  0.96140000  0.14110000  1.0 -0.0125688611
C  C34  1  0.45080000  0.22120000  0.13350000  1.0 0.4987498229
C  C35  1  0.41040000  0.90930000  0.26410000  1.0 0.0302217682
C  C36  1  0.31550000  0.24460000  0.07300000  1.0 -0.0704201073
C  C37  1  0.26920000  0.31430000  0.05980000  1.0 -0.1076120906
C  C38  1  0.18490000  0.03620000  0.87320000  1.0 0.2759465059
C  C39  1  0.31160000  0.89210000  0.15180000  1.0 0.0093922404
C  C40  1  0.23450000  0.02290000  0.94070000  1.0 -0.3892178307
C  C41  1  0.40510000  0.00570000  0.19430000  1.0 -0.1013626619
C  C42  1  0.05290000  0.28180000  0.96000000  1.0 -0.0704201073
C  C43  1  0.43790000  0.97890000  0.25700000  1.0 -0.1563035692
C  C44  1  0.16880000  0.96410000  0.96020000  1.0 0.2759465059
C  C45  1  0.13890000  0.33250000  0.00350000  1.0 -0.1076120906
C  C46  1  0.07430000  0.99430000  0.82670000  1.0 -0.3635241086
C  C47  1  0.73890000  0.84770000  0.70160000  1.0 -0.0125688611
C  C48  1  0.31000000  0.99030000  0.07360000  1.0 -0.0438329088
C  C49  1  0.09760000  0.21180000  0.97340000  1.0 -0.1198694887
C  C50  1  0.62980000  0.81820000  0.72630000  1.0 0.0093922404
C  C51  1  0.01180000  0.93710000  0.84950000  1.0 0.2759465059
C  C52  1  0.05790000  0.92130000  0.91510000  1.0 -0.3659929256
C  C53  1  0.24850000  0.10520000  0.79220000  1.0 -0.0438329088
C  C54  1  0.11080000  0.15150000  0.75150000  1.0 -0.0125688611
C  C55  1  0.98880000  0.17270000  0.77130000  1.0 0.0153518585
C  C56  1  0.87060000  0.23820000  0.67820000  1.0 0.0673934636
C  C57  1  0.91710000  0.30050000  0.89790000  1.0 0.4987498229
C  C58  1  0.22790000  0.19320000  0.02880000  1.0 -0.1198694887
C  C59  1  0.86870000  0.89720000  0.73900000  1.0 -0.0491839279
C  C60  1  0.49520000  0.76200000  0.62980000  1.0 0.0447409456
C  C61  1  0.11410000  0.17560000  0.69140000  1.0 -0.1076120906
C  C62  1  0.98940000  0.21860000  0.65380000  1.0 -0.1477377167
C  C63  1  0.72380000  0.83160000  0.63790000  1.0 -0.1076120906
C  C64  1  0.59940000  0.78850000  0.60110000  1.0 -0.1477377167
C  C65  1  0.34070000  0.53860000  0.64110000  1.0 -0.0125688611
C  C66  1  0.45080000  0.27880000  0.63350000  1.0 0.4987498229
C  C67  1  0.41040000  0.59070000  0.76410000  1.0 0.0302217682
C  C68  1  0.31550000  0.25540000  0.57300000  1.0 -0.0704201073
C  C69  1  0.26920000  0.18570000  0.55980000  1.0 -0.1076120906
C  C70  1  0.18490000  0.46380000  0.37320000  1.0 0.2759465059
C  C71  1  0.31160000  0.60790000  0.65180000  1.0 0.0093922404
C  C72  1  0.23450000  0.47710000  0.44070000  1.0 -0.3892178307
C  C73  1  0.40510000  0.49430000  0.69430000  1.0 -0.1013626619
C  C74  1  0.05290000  0.21820000  0.46000000  1.0 -0.0704201073
C  C75  1  0.43790000  0.52110000  0.75700000  1.0 -0.1563035692
C  C76  1  0.16880000  0.53590000  0.46020000  1.0 0.2759465059
C  C77  1  0.13890000  0.16750000  0.50350000  1.0 -0.1076120906
C  C78  1  0.07430000  0.50570000  0.32670000  1.0 -0.3635241086
C  C79  1  0.73890000  0.65230000  0.20160000  1.0 -0.0125688611
C  C80  1  0.31000000  0.50970000  0.57360000  1.0 -0.0438329088
C  C81  1  0.09760000  0.28820000  0.47340000  1.0 -0.1198694887
C  C82  1  0.62980000  0.68180000  0.22630000  1.0 0.0093922404
C  C83  1  0.01180000  0.56290000  0.34950000  1.0 0.2759465059
C  C84  1  0.05790000  0.57870000  0.41510000  1.0 -0.3659929256
C  C85  1  0.24850000  0.39480000  0.29220000  1.0 -0.0438329088
C  C86  1  0.11080000  0.34850000  0.25150000  1.0 -0.0125688611
C  C87  1  0.98880000  0.32730000  0.27130000  1.0 0.0153518585
C  C88  1  0.87060000  0.26180000  0.17820000  1.0 0.0673934636
C  C89  1  0.91710000  0.19950000  0.39790000  1.0 0.4987498229
C  C90  1  0.22790000  0.30680000  0.52880000  1.0 -0.1198694887
C  C91  1  0.86870000  0.60280000  0.23900000  1.0 -0.0491839279
C  C92  1  0.49520000  0.73800000  0.12980000  1.0 0.0447409456
C  C93  1  0.11410000  0.32440000  0.19140000  1.0 -0.1076120906
C  C94  1  0.98940000  0.28140000  0.15380000  1.0 -0.1477377167
C  C95  1  0.72380000  0.66840000  0.13790000  1.0 -0.1076120906
C  C96  1  0.59940000  0.71150000  0.10110000  1.0 -0.1477377167
C  C97  1  0.65930000  0.03860000  0.85890000  1.0 -0.0125688611
C  C98  1  0.54920000  0.77880000  0.86650000  1.0 0.4987498229
C  C99  1  0.58960000  0.09070000  0.73590000  1.0 0.0302217682
C  C100  1  0.68450000  0.75540000  0.92700000  1.0 -0.0704201073
C  C101  1  0.73080000  0.68570000  0.94020000  1.0 -0.1076120906
C  C102  1  0.81510000  0.96380000  0.12680000  1.0 0.2759465059
C  C103  1  0.68840000  0.10790000  0.84820000  1.0 0.0093922404
C  C104  1  0.76550000  0.97710000  0.05930000  1.0 -0.3892178307
C  C105  1  0.59490000  0.99430000  0.80570000  1.0 -0.1013626619
C  C106  1  0.94710000  0.71820000  0.04000000  1.0 -0.0704201073
C  C107  1  0.56210000  0.02110000  0.74300000  1.0 -0.1563035692
C  C108  1  0.83120000  0.03590000  0.03980000  1.0 0.2759465059
C  C109  1  0.86110000  0.66750000  0.99650000  1.0 -0.1076120906
C  C110  1  0.92570000  0.00570000  0.17330000  1.0 -0.3635241086
C  C111  1  0.26110000  0.15230000  0.29840000  1.0 -0.0125688611
C  C112  1  0.69000000  0.00970000  0.92640000  1.0 -0.0438329088
C  C113  1  0.90240000  0.78820000  0.02660000  1.0 -0.1198694887
C  C114  1  0.37020000  0.18180000  0.27370000  1.0 0.0093922404
C  C115  1  0.98820000  0.06290000  0.15050000  1.0 0.2759465059
C  C116  1  0.94210000  0.07870000  0.08490000  1.0 -0.3659929256
C  C117  1  0.75150000  0.89480000  0.20780000  1.0 -0.0438329088
C  C118  1  0.88920000  0.84850000  0.24850000  1.0 -0.0125688611
C  C119  1  0.01120000  0.82730000  0.22870000  1.0 0.0153518585
C  C120  1  0.12940000  0.76180000  0.32180000  1.0 0.0673934636
C  C121  1  0.08290000  0.69950000  0.10210000  1.0 0.4987498229
C  C122  1  0.77210000  0.80680000  0.97120000  1.0 -0.1198694887
C  C123  1  0.13130000  0.10280000  0.26100000  1.0 -0.0491839279
C  C124  1  0.50480000  0.23800000  0.37020000  1.0 0.0447409456
C  C125  1  0.88590000  0.82440000  0.30860000  1.0 -0.1076120906
C  C126  1  0.01060000  0.78140000  0.34620000  1.0 -0.1477377167
C  C127  1  0.27620000  0.16840000  0.36210000  1.0 -0.1076120906
C  C128  1  0.40060000  0.21150000  0.39890000  1.0 -0.1477377167
N  N1  1  0.65188000  0.36460000  0.28738000  1.0 -0.2150272871
N  N2  1  0.13400000  0.71490000  0.76440000  1.0 -0.1988554368
N  N3  1  0.49330000  0.27560000  0.80860000  1.0 -0.2081228937
N  N4  1  0.34812000  0.86460000  0.21262000  1.0 -0.2150272871
N  N5  1  0.86600000  0.21490000  0.73560000  1.0 -0.1988554368
N  N6  1  0.50670000  0.77560000  0.69140000  1.0 -0.2081228937
N  N7  1  0.34812000  0.63540000  0.71262000  1.0 -0.2150272871
N  N8  1  0.86600000  0.28510000  0.23560000  1.0 -0.1988554368
N  N9  1  0.50670000  0.72440000  0.19140000  1.0 -0.2081228937
N  N10  1  0.65188000  0.13540000  0.78738000  1.0 -0.2150272871
N  N11  1  0.13400000  0.78510000  0.26440000  1.0 -0.1988554368
N  N12  1  0.49330000  0.22440000  0.30860000  1.0 -0.2081228937
O  O1  1  0.49262000  0.76735000  0.32162000  1.0 -0.4753123964
O  O2  1  0.74495000  0.59500000  0.64195000  1.0 -0.1365179638
O  O3  1  0.15449000  0.74886000  0.63689000  1.0 -0.4722827295
O  O4  1  0.79169000  0.44460000  0.47499000  1.0 -0.1261242194
O  O5  1  0.50487000  0.65950000  0.36227000  1.0 -0.426663279
O  O6  1  0.10100000  0.39200000  0.69230000  1.0 -0.1563035692
O  O7  1  0.27789000  0.84810000  0.74559000  1.0 -0.2862426187
O  O8  1  0.11650000  0.86230000  0.61520000  1.0 -0.4041134859
O  O9  1  0.50738000  0.26735000  0.17838000  1.0 -0.4753123964
O  O10  1  0.25505000  0.09500000  0.85805000  1.0 -0.1365179638
O  O11  1  0.84551000  0.24886000  0.86311000  1.0 -0.4722827295
O  O12  1  0.20831000  0.94460000  0.02501000  1.0 -0.1261242194
O  O13  1  0.49513000  0.15950000  0.13773000  1.0 -0.426663279
O  O14  1  0.89900000  0.89200000  0.80770000  1.0 -0.1563035692
O  O15  1  0.72211000  0.34810000  0.75441000  1.0 -0.2862426187
O  O16  1  0.88350000  0.36230000  0.88480000  1.0 -0.4041134859
O  O17  1  0.50738000  0.23265000  0.67838000  1.0 -0.4753123964
O  O18  1  0.25505000  0.40500000  0.35805000  1.0 -0.1365179638
O  O19  1  0.84551000  0.25114000  0.36311000  1.0 -0.4722827295
O  O20  1  0.20831000  0.55540000  0.52501000  1.0 -0.1261242194
O  O21  1  0.49513000  0.34050000  0.63773000  1.0 -0.426663279
O  O22  1  0.89900000  0.60800000  0.30770000  1.0 -0.1563035692
O  O23  1  0.72211000  0.15190000  0.25441000  1.0 -0.2862426187
O  O24  1  0.88350000  0.13770000  0.38480000  1.0 -0.4041134859
O  O25  1  0.49262000  0.73265000  0.82162000  1.0 -0.4753123964
O  O26  1  0.74495000  0.90500000  0.14195000  1.0 -0.1365179638
O  O27  1  0.15449000  0.75114000  0.13689000  1.0 -0.4722827295
O  O28  1  0.79169000  0.05540000  0.97499000  1.0 -0.1261242194
O  O29  1  0.50487000  0.84050000  0.86227000  1.0 -0.426663279
O  O30  1  0.10100000  0.10800000  0.19230000  1.0 -0.1563035692
O  O31  1  0.27789000  0.65190000  0.24559000  1.0 -0.2862426187
O  O32  1  0.11650000  0.63770000  0.11520000  1.0 -0.4041134859
