# DDEC6 charges by PACMAN v1.1 (https://github.com/mtap-research/PACMAN-charge/)
data_UHOHEG_FSR_pacman
_symmetry_space_group_name_H-M   'P 1'
_cell_length_a   12.99460000
_cell_length_b   12.99460000
_cell_length_c   15.04360000
_cell_angle_alpha   68.08730000
_cell_angle_beta   111.91300000
_cell_angle_gamma   116.58500000
_symmetry_Int_Tables_number   1
_chemical_formula_structural   FeH40C52(Se2N3)2
_chemical_formula_sum   'Fe2 H80 C104 Se8 N12'
_cell_volume   2041.43935163
_cell_formula_units_Z   2
loop_
 _symmetry_equiv_pos_site_id
 _symmetry_equiv_pos_as_xyz
  1  'x, y, z'
loop_
 _atom_site_type_symbol
 _atom_site_label
 _atom_site_symmetry_multiplicity
 _atom_site_fract_x
 _atom_site_fract_y
 _atom_site_fract_z
 _atom_site_occupancy
 _atom_site_charge
Fe  Fe1  1  0.00000000  0.50000000  0.00000000  1.0 0.4584912946
Fe  Fe2  1  0.50000000  0.00000000  0.50000000  1.0 0.4584912946
H  H1  1  0.17600000  0.65580000  0.13900000  1.0 0.0532888097
H  H2  1  0.65580000  0.17600000  0.36100000  1.0 0.0532888097
H  H3  1  0.82400000  0.34420000  0.86100000  1.0 0.0532888097
H  H4  1  0.34420000  0.82400000  0.63900000  1.0 0.0532888097
H  H5  1  0.32180000  0.66320000  0.28570000  1.0 0.0906227632
H  H6  1  0.66320000  0.32180000  0.21430000  1.0 0.0906227632
H  H7  1  0.67820000  0.33680000  0.71430000  1.0 0.0906227632
H  H8  1  0.33680000  0.67820000  0.78570000  1.0 0.0906227632
H  H9  1  0.26610000  0.32050000  0.32310000  1.0 0.0978879324
H  H10  1  0.32050000  0.26610000  0.17690000  1.0 0.0978879324
H  H11  1  0.73390000  0.67950000  0.67690000  1.0 0.0978879324
H  H12  1  0.67950000  0.73390000  0.82310000  1.0 0.0978879324
H  H13  1  0.12090000  0.32250000  0.17420000  1.0 0.0978879324
H  H14  1  0.32250000  0.12090000  0.32580000  1.0 0.0978879324
H  H15  1  0.87910000  0.67750000  0.82580000  1.0 0.0978879324
H  H16  1  0.67750000  0.87910000  0.67420000  1.0 0.0978879324
H  H17  1  0.35930000  0.58510000  0.46450000  1.0 0.0978879324
H  H18  1  0.58510000  0.35930000  0.03550000  1.0 0.0978879324
H  H19  1  0.64070000  0.41490000  0.53550000  1.0 0.0978879324
H  H20  1  0.41490000  0.64070000  0.96450000  1.0 0.0978879324
H  H21  1  0.48600000  0.39840000  0.39210000  1.0 0.0978879324
H  H22  1  0.39840000  0.48600000  0.10790000  1.0 0.0978879324
H  H23  1  0.51400000  0.60160000  0.60790000  1.0 0.0978879324
H  H24  1  0.60160000  0.51400000  0.89210000  1.0 0.0978879324
H  H25  1  0.85490000  0.62310000  0.34640000  1.0 0.0978879324
H  H26  1  0.62310000  0.85490000  0.15360000  1.0 0.0978879324
H  H27  1  0.14510000  0.37690000  0.65360000  1.0 0.0978879324
H  H28  1  0.37690000  0.14510000  0.84640000  1.0 0.0978879324
H  H29  1  0.69240000  0.77860000  0.07950000  1.0 0.1104624058
H  H30  1  0.77860000  0.69240000  0.42050000  1.0 0.1104624058
H  H31  1  0.30760000  0.22140000  0.92050000  1.0 0.1104624058
H  H32  1  0.22140000  0.30760000  0.57950000  1.0 0.1104624058
H  H33  1  0.91140000  0.43360000  0.18710000  1.0 0.078451748
H  H34  1  0.43360000  0.91140000  0.31290000  1.0 0.078451748
H  H35  1  0.08860000  0.56640000  0.81290000  1.0 0.078451748
H  H36  1  0.56640000  0.08860000  0.68710000  1.0 0.078451748
H  H37  1  0.84070000  0.50230000  0.26600000  1.0 0.0906227632
H  H38  1  0.50230000  0.84070000  0.23400000  1.0 0.0906227632
H  H39  1  0.15930000  0.49770000  0.73400000  1.0 0.0906227632
H  H40  1  0.49770000  0.15930000  0.76600000  1.0 0.0906227632
H  H41  1  0.84160000  0.78240000  0.03050000  1.0 0.0906227632
H  H42  1  0.78240000  0.84160000  0.46950000  1.0 0.0906227632
H  H43  1  0.15840000  0.21760000  0.96950000  1.0 0.0906227632
H  H44  1  0.21760000  0.15840000  0.53050000  1.0 0.0906227632
H  H45  1  0.91830000  0.71190000  0.96130000  1.0 0.0906227632
H  H46  1  0.71190000  0.91830000  0.53870000  1.0 0.0906227632
H  H47  1  0.08170000  0.28810000  0.03870000  1.0 0.0906227632
H  H48  1  0.28810000  0.08170000  0.46130000  1.0 0.0906227632
H  H49  1  0.28220000  0.59320000  0.08140000  1.0 0.078451748
H  H50  1  0.59320000  0.28220000  0.41860000  1.0 0.078451748
H  H51  1  0.71780000  0.40680000  0.91860000  1.0 0.078451748
H  H52  1  0.40680000  0.71780000  0.58140000  1.0 0.078451748
H  H53  1  0.42820000  0.59220000  0.22730000  1.0 0.1104624058
H  H54  1  0.59220000  0.42820000  0.27270000  1.0 0.1104624058
H  H55  1  0.57180000  0.40780000  0.77270000  1.0 0.1104624058
H  H56  1  0.40780000  0.57180000  0.72730000  1.0 0.1104624058
H  H57  1  0.17350000  0.39370000  0.37110000  1.0 0.1104624058
H  H58  1  0.39370000  0.17350000  0.12890000  1.0 0.1104624058
H  H59  1  0.82650000  0.60630000  0.62890000  1.0 0.1104624058
H  H60  1  0.60630000  0.82650000  0.87110000  1.0 0.1104624058
H  H61  1  0.03610000  0.39990000  0.22840000  1.0 0.0978879324
H  H62  1  0.39990000  0.03610000  0.27160000  1.0 0.0978879324
H  H63  1  0.96390000  0.60010000  0.77160000  1.0 0.0978879324
H  H64  1  0.60010000  0.96390000  0.72840000  1.0 0.0978879324
H  H65  1  0.76150000  0.52790000  0.98930000  1.0 0.0906227632
H  H66  1  0.52790000  0.76150000  0.51070000  1.0 0.0906227632
H  H67  1  0.23850000  0.47210000  0.01070000  1.0 0.0906227632
H  H68  1  0.47210000  0.23850000  0.48930000  1.0 0.0906227632
H  H69  1  0.68720000  0.59040000  0.06390000  1.0 0.1104624058
H  H70  1  0.59040000  0.68720000  0.43610000  1.0 0.1104624058
H  H71  1  0.31280000  0.40960000  0.93610000  1.0 0.1104624058
H  H72  1  0.40960000  0.31280000  0.56390000  1.0 0.1104624058
H  H73  1  0.00970000  0.77070000  0.19490000  1.0 0.0906227632
H  H74  1  0.77070000  0.00970000  0.30510000  1.0 0.0906227632
H  H75  1  0.99030000  0.22930000  0.80510000  1.0 0.0906227632
H  H76  1  0.22930000  0.99030000  0.69490000  1.0 0.0906227632
H  H77  1  0.08740000  0.68480000  0.12630000  1.0 0.0532888097
H  H78  1  0.68480000  0.08740000  0.37370000  1.0 0.0532888097
H  H79  1  0.91260000  0.31520000  0.87370000  1.0 0.0532888097
H  H80  1  0.31520000  0.91260000  0.62630000  1.0 0.0532888097
C  C1  1  0.79750000  0.25210000  0.06010000  1.0 -0.0190391214
C  C2  1  0.25210000  0.79750000  0.43990000  1.0 -0.0190391214
C  C3  1  0.20250000  0.74790000  0.93990000  1.0 -0.0190391214
C  C4  1  0.74790000  0.20250000  0.56010000  1.0 -0.0190391214
C  C5  1  0.19650000  0.58730000  0.17590000  1.0 -0.0086630601
C  C6  1  0.58730000  0.19650000  0.32410000  1.0 -0.0086630601
C  C7  1  0.80350000  0.41270000  0.82410000  1.0 -0.0086630601
C  C8  1  0.41270000  0.80350000  0.67590000  1.0 -0.0086630601
C  C9  1  0.28350000  0.59270000  0.26300000  1.0 -0.1081261653
C  C10  1  0.59270000  0.28350000  0.23700000  1.0 -0.1081261653
C  C11  1  0.71650000  0.40730000  0.73700000  1.0 -0.1081261653
C  C12  1  0.40730000  0.71650000  0.76300000  1.0 -0.1081261653
C  C13  1  0.25170000  0.39210000  0.28560000  1.0 -0.0967957088
C  C14  1  0.39210000  0.25170000  0.21440000  1.0 -0.0967957088
C  C15  1  0.74830000  0.60790000  0.71440000  1.0 -0.0967957088
C  C16  1  0.60790000  0.74830000  0.78560000  1.0 -0.0967957088
C  C17  1  0.16410000  0.39370000  0.19610000  1.0 -0.0190391214
C  C18  1  0.39370000  0.16410000  0.30390000  1.0 -0.0190391214
C  C19  1  0.83590000  0.60630000  0.80390000  1.0 -0.0190391214
C  C20  1  0.60630000  0.83590000  0.69610000  1.0 -0.0190391214
C  C21  1  0.31510000  0.49050000  0.31870000  1.0 0.0532888097
C  C22  1  0.49050000  0.31510000  0.18130000  1.0 0.0532888097
C  C23  1  0.68490000  0.50950000  0.68130000  1.0 0.0532888097
C  C24  1  0.50950000  0.68490000  0.81870000  1.0 0.0532888097
C  C25  1  0.40970000  0.49490000  0.41210000  1.0 0.020553085
C  C26  1  0.49490000  0.40970000  0.08790000  1.0 0.020553085
C  C27  1  0.59030000  0.50510000  0.58790000  1.0 0.020553085
C  C28  1  0.50510000  0.59030000  0.91210000  1.0 0.020553085
C  C29  1  0.41710000  0.55170000  0.47860000  1.0 -0.2327291676
C  C30  1  0.55170000  0.41710000  0.02140000  1.0 -0.2327291676
C  C31  1  0.58290000  0.44830000  0.52140000  1.0 -0.2327291676
C  C32  1  0.44830000  0.58290000  0.97860000  1.0 -0.2327291676
C  C33  1  0.49230000  0.44030000  0.43510000  1.0 -0.2434952342
C  C34  1  0.44030000  0.49230000  0.06490000  1.0 -0.2434952342
C  C35  1  0.50770000  0.55970000  0.56490000  1.0 -0.2434952342
C  C36  1  0.55970000  0.50770000  0.93510000  1.0 -0.2434952342
C  C37  1  0.80830000  0.67090000  0.30630000  1.0 -0.1692100512
C  C38  1  0.67090000  0.80830000  0.19370000  1.0 -0.1692100512
C  C39  1  0.19170000  0.32910000  0.69370000  1.0 -0.1692100512
C  C40  1  0.32910000  0.19170000  0.80630000  1.0 -0.1692100512
C  C41  1  0.71350000  0.76330000  0.14960000  1.0 -0.1606585988
C  C42  1  0.76330000  0.71350000  0.35040000  1.0 -0.1606585988
C  C43  1  0.28650000  0.23670000  0.85040000  1.0 -0.1606585988
C  C44  1  0.23670000  0.28650000  0.64960000  1.0 -0.1606585988
C  C45  1  0.78490000  0.69790000  0.20410000  1.0 0.0622548731
C  C46  1  0.69790000  0.78490000  0.29590000  1.0 0.0622548731
C  C47  1  0.21510000  0.30210000  0.79590000  1.0 0.0622548731
C  C48  1  0.30210000  0.21510000  0.70410000  1.0 0.0622548731
C  C49  1  0.89890000  0.50690000  0.15580000  1.0 -0.0790795159
C  C50  1  0.50690000  0.89890000  0.34420000  1.0 -0.0790795159
C  C51  1  0.10110000  0.49310000  0.84420000  1.0 -0.0790795159
C  C52  1  0.49310000  0.10110000  0.65580000  1.0 -0.0790795159
C  C53  1  0.85530000  0.54690000  0.20270000  1.0 -0.1692100512
C  C54  1  0.54690000  0.85530000  0.29730000  1.0 -0.1692100512
C  C55  1  0.14470000  0.45310000  0.79730000  1.0 -0.1692100512
C  C56  1  0.45310000  0.14470000  0.70270000  1.0 -0.1692100512
C  C57  1  0.85680000  0.71100000  0.06560000  1.0 -0.0419988464
C  C58  1  0.71100000  0.85680000  0.43440000  1.0 -0.0419988464
C  C59  1  0.14320000  0.28900000  0.93440000  1.0 -0.0419988464
C  C60  1  0.28900000  0.14320000  0.56560000  1.0 -0.0419988464
C  C61  1  0.90230000  0.66770000  0.02410000  1.0 0.0118043125
C  C62  1  0.66770000  0.90230000  0.47590000  1.0 0.0118043125
C  C63  1  0.09770000  0.33230000  0.97590000  1.0 0.0118043125
C  C64  1  0.33230000  0.09770000  0.52410000  1.0 0.0118043125
C  C65  1  0.83300000  0.65280000  0.15670000  1.0 0.0532888097
C  C66  1  0.65280000  0.83300000  0.34330000  1.0 0.0532888097
C  C67  1  0.16700000  0.34720000  0.84330000  1.0 0.0532888097
C  C68  1  0.34720000  0.16700000  0.65670000  1.0 0.0532888097
C  C69  1  0.26020000  0.55100000  0.14230000  1.0 -0.0598458154
C  C70  1  0.55100000  0.26020000  0.35770000  1.0 -0.0598458154
C  C71  1  0.73980000  0.44900000  0.85770000  1.0 -0.0598458154
C  C72  1  0.44900000  0.73980000  0.64230000  1.0 -0.0598458154
C  C73  1  0.34690000  0.55130000  0.22850000  1.0 -0.1081261653
C  C74  1  0.55130000  0.34690000  0.27150000  1.0 -0.1081261653
C  C75  1  0.65310000  0.44870000  0.77150000  1.0 -0.1081261653
C  C76  1  0.44870000  0.65310000  0.72850000  1.0 -0.1081261653
C  C77  1  0.19940000  0.43660000  0.31180000  1.0 -0.0790795159
C  C78  1  0.43660000  0.19940000  0.18820000  1.0 -0.0790795159
C  C79  1  0.80060000  0.56340000  0.68820000  1.0 -0.0790795159
C  C80  1  0.56340000  0.80060000  0.81180000  1.0 -0.0790795159
C  C81  1  0.11710000  0.43890000  0.22610000  1.0 0.0118043125
C  C82  1  0.43890000  0.11710000  0.27390000  1.0 0.0118043125
C  C83  1  0.88290000  0.56110000  0.77390000  1.0 0.0118043125
C  C84  1  0.56110000  0.88290000  0.72610000  1.0 0.0118043125
C  C85  1  0.81480000  0.56320000  0.04200000  1.0 -0.0036192003
C  C86  1  0.56320000  0.81480000  0.45800000  1.0 -0.0036192003
C  C87  1  0.18520000  0.43680000  0.95800000  1.0 -0.0036192003
C  C88  1  0.43680000  0.18520000  0.54200000  1.0 -0.0036192003
C  C89  1  0.76980000  0.60220000  0.08600000  1.0 -0.0790795159
C  C90  1  0.60220000  0.76980000  0.41400000  1.0 -0.0790795159
C  C91  1  0.23020000  0.39780000  0.91400000  1.0 -0.0790795159
C  C92  1  0.39780000  0.23020000  0.58600000  1.0 -0.0790795159
C  C93  1  0.95900000  0.70700000  0.16400000  1.0 -0.145609525
C  C94  1  0.70700000  0.95900000  0.33600000  1.0 -0.145609525
C  C95  1  0.04100000  0.29300000  0.83600000  1.0 -0.145609525
C  C96  1  0.29300000  0.04100000  0.66400000  1.0 -0.145609525
C  C97  1  0.00420000  0.65780000  0.11900000  1.0 -0.0598458154
C  C98  1  0.65780000  0.00420000  0.38100000  1.0 -0.0598458154
C  C99  1  0.99580000  0.34220000  0.88100000  1.0 -0.0598458154
C  C100  1  0.34220000  0.99580000  0.61900000  1.0 -0.0598458154
C  C101  1  0.82070000  0.25230000  0.09670000  1.0 0.0041655572
C  C102  1  0.25230000  0.82070000  0.40330000  1.0 0.0118043125
C  C103  1  0.17930000  0.74770000  0.90330000  1.0 0.0118043125
C  C104  1  0.74770000  0.17930000  0.59670000  1.0 0.0118043125
Se  Se1  1  0.65180000  0.14242000  0.06870000  1.0 -0.0299786506
Se  Se2  1  0.14242000  0.65180000  0.43130000  1.0 -0.0299786506
Se  Se3  1  0.34820000  0.85758000  0.93130000  1.0 -0.0299786506
Se  Se4  1  0.85758000  0.34820000  0.56870000  1.0 -0.0299786506
Se  Se5  1  0.70890000  0.13470000  0.15180000  1.0 0.0118043125
Se  Se6  1  0.13470000  0.70890000  0.34820000  1.0 0.0118043125
Se  Se7  1  0.29110000  0.86530000  0.84820000  1.0 0.0118043125
Se  Se8  1  0.86530000  0.29110000  0.65180000  1.0 0.0118043125
N  N1  1  0.13930000  0.49010000  0.14100000  1.0 -0.0419988464
N  N2  1  0.49010000  0.13930000  0.35900000  1.0 -0.0419988464
N  N3  1  0.86070000  0.50990000  0.85900000  1.0 -0.0419988464
N  N4  1  0.50990000  0.86070000  0.64100000  1.0 -0.0419988464
N  N5  1  0.92470000  0.56990000  0.06550000  1.0 -0.046882688
N  N6  1  0.56990000  0.92470000  0.43450000  1.0 -0.046882688
N  N7  1  0.07530000  0.43010000  0.93450000  1.0 -0.046882688
N  N8  1  0.43010000  0.07530000  0.56550000  1.0 -0.046882688
N  N9  1  0.88960000  0.32680000  0.05660000  1.0 -0.2982233176
N  N10  1  0.32680000  0.88960000  0.44340000  1.0 -0.2982233176
N  N11  1  0.11040000  0.67320000  0.94340000  1.0 -0.2982233176
N  N12  1  0.67320000  0.11040000  0.55660000  1.0 -0.2982233176
