# DDEC6 charges by PACMAN v1.1 (https://github.com/mtap-research/PACMAN-charge/)
data_UHUPOD01_ASR_pacman
_symmetry_space_group_name_H-M   'P 1'
_cell_length_a   37.43030000
_cell_length_b   37.43030000
_cell_length_c   37.43030000
_cell_angle_alpha   60.00000000
_cell_angle_beta   60.00000000
_cell_angle_gamma   60.00000000
_symmetry_Int_Tables_number   1
_chemical_formula_structural   Zn8H60C96O25
_chemical_formula_sum   'Zn16 H120 C192 O50'
_cell_volume   37081.29784410
_cell_formula_units_Z   2
loop_
 _symmetry_equiv_pos_site_id
 _symmetry_equiv_pos_as_xyz
  1  'x, y, z'
loop_
 _atom_site_type_symbol
 _atom_site_label
 _atom_site_symmetry_multiplicity
 _atom_site_fract_x
 _atom_site_fract_y
 _atom_site_fract_z
 _atom_site_occupancy
 _atom_site_charge
Zn  Zn1  1  0.77180000  0.68460000  0.77180000  1.0 0.4828054619
Zn  Zn2  1  0.68460000  0.77180000  0.77180000  1.0 0.4828054619
Zn  Zn3  1  0.77180000  0.77180000  0.77180000  1.0 0.4828054619
Zn  Zn4  1  0.77180000  0.77180000  0.68460000  1.0 0.4828054619
Zn  Zn5  1  0.22820000  0.31540000  0.22820000  1.0 0.4828054619
Zn  Zn6  1  0.31540000  0.22820000  0.22820000  1.0 0.4828054619
Zn  Zn7  1  0.22820000  0.22820000  0.31540000  1.0 0.4828054619
Zn  Zn8  1  0.22820000  0.22820000  0.22820000  1.0 0.4828054619
Zn  Zn9  1  0.72884000  0.72884000  0.72884000  1.0 0.5216489745
Zn  Zn10  1  0.72884000  0.72884000  0.81348000  1.0 0.5216489745
Zn  Zn11  1  0.72884000  0.81348000  0.72884000  1.0 0.5216489745
Zn  Zn12  1  0.81348000  0.72884000  0.72884000  1.0 0.5216489745
Zn  Zn13  1  0.27116000  0.27116000  0.18652000  1.0 0.5216489745
Zn  Zn14  1  0.27116000  0.27116000  0.27116000  1.0 0.5216489745
Zn  Zn15  1  0.27116000  0.18652000  0.27116000  1.0 0.5216489745
Zn  Zn16  1  0.18652000  0.27116000  0.27116000  1.0 0.5216489745
H  H1  1  0.84940000  0.59660000  0.70460000  1.0 0.1158605439
H  H2  1  0.59660000  0.84940000  0.84940000  1.0 0.1158605439
H  H3  1  0.70460000  0.84940000  0.84940000  1.0 0.1158605439
H  H4  1  0.84940000  0.70460000  0.59660000  1.0 0.1158605439
H  H5  1  0.70460000  0.84940000  0.59660000  1.0 0.1158605439
H  H6  1  0.84940000  0.59660000  0.84940000  1.0 0.1158605439
H  H7  1  0.84940000  0.70460000  0.84940000  1.0 0.1158605439
H  H8  1  0.59660000  0.84940000  0.70460000  1.0 0.1158605439
H  H9  1  0.59660000  0.70460000  0.84940000  1.0 0.1158605439
H  H10  1  0.84940000  0.84940000  0.59660000  1.0 0.1158605439
H  H11  1  0.84940000  0.84940000  0.70460000  1.0 0.1158605439
H  H12  1  0.70460000  0.59660000  0.84940000  1.0 0.1158605439
H  H13  1  0.15060000  0.40340000  0.15060000  1.0 0.1158605439
H  H14  1  0.40340000  0.15060000  0.29540000  1.0 0.1098388552
H  H15  1  0.29540000  0.15060000  0.40340000  1.0 0.1158605439
H  H16  1  0.15060000  0.29540000  0.15060000  1.0 0.1098388552
H  H17  1  0.29540000  0.15060000  0.15060000  1.0 0.1098388552
H  H18  1  0.15060000  0.40340000  0.29540000  1.0 0.1158605439
H  H19  1  0.15060000  0.29540000  0.40340000  1.0 0.1158605439
H  H20  1  0.40340000  0.15060000  0.15060000  1.0 0.1158605439
H  H21  1  0.40340000  0.29540000  0.15060000  1.0 0.1098388552
H  H22  1  0.15060000  0.15060000  0.29540000  1.0 0.1158605439
H  H23  1  0.15060000  0.15060000  0.40340000  1.0 0.1158605439
H  H24  1  0.29540000  0.40340000  0.15060000  1.0 0.1158605439
H  H25  1  0.89340000  0.55280000  0.66040000  1.0 0.0926487969
H  H26  1  0.55280000  0.89340000  0.89340000  1.0 0.0926487969
H  H27  1  0.66040000  0.89340000  0.89340000  1.0 0.0926487969
H  H28  1  0.89340000  0.66040000  0.55280000  1.0 0.0926487969
H  H29  1  0.66040000  0.89340000  0.55280000  1.0 0.0926487969
H  H30  1  0.89340000  0.55280000  0.89340000  1.0 0.0926487969
H  H31  1  0.89340000  0.66040000  0.89340000  1.0 0.0926487969
H  H32  1  0.55280000  0.89340000  0.66040000  1.0 0.0926487969
H  H33  1  0.55280000  0.66040000  0.89340000  1.0 0.0926487969
H  H34  1  0.89340000  0.89340000  0.55280000  1.0 0.0960806546
H  H35  1  0.89340000  0.89340000  0.66040000  1.0 0.0960806546
H  H36  1  0.66040000  0.55280000  0.89340000  1.0 0.0926487969
H  H37  1  0.10660000  0.44720000  0.10660000  1.0 0.0926487969
H  H38  1  0.44720000  0.10660000  0.33960000  1.0 0.0926487969
H  H39  1  0.33960000  0.10660000  0.44720000  1.0 0.0926487969
H  H40  1  0.10660000  0.33960000  0.10660000  1.0 0.0926487969
H  H41  1  0.33960000  0.10660000  0.10660000  1.0 0.0926487969
H  H42  1  0.10660000  0.44720000  0.33960000  1.0 0.0926487969
H  H43  1  0.10660000  0.33960000  0.44720000  1.0 0.0926487969
H  H44  1  0.44720000  0.10660000  0.10660000  1.0 0.0926487969
H  H45  1  0.44720000  0.33960000  0.10660000  1.0 0.0926487969
H  H46  1  0.10660000  0.10660000  0.33960000  1.0 0.0926487969
H  H47  1  0.10660000  0.10660000  0.44720000  1.0 0.0926487969
H  H48  1  0.33960000  0.44720000  0.10660000  1.0 0.0926487969
H  H49  1  0.92330000  0.52250000  0.52250000  1.0 0.1256359559
H  H50  1  0.52250000  0.92330000  0.03170000  1.0 0.1256359559
H  H51  1  0.52250000  0.03170000  0.92330000  1.0 0.1256359559
H  H52  1  0.03170000  0.52250000  0.52250000  1.0 0.1256359559
H  H53  1  0.52250000  0.92330000  0.52250000  1.0 0.1256359559
H  H54  1  0.03170000  0.52250000  0.92330000  1.0 0.1256359559
H  H55  1  0.92330000  0.52250000  0.03170000  1.0 0.1256359559
H  H56  1  0.52250000  0.03170000  0.52250000  1.0 0.1256359559
H  H57  1  0.52250000  0.52250000  0.92330000  1.0 0.1256359559
H  H58  1  0.92330000  0.03170000  0.52250000  1.0 0.1256359559
H  H59  1  0.03170000  0.92330000  0.52250000  1.0 0.1256359559
H  H60  1  0.52250000  0.52250000  0.03170000  1.0 0.1256359559
H  H61  1  0.07670000  0.47750000  0.96830000  1.0 0.1256359559
H  H62  1  0.47750000  0.07670000  0.47750000  1.0 0.1256359559
H  H63  1  0.47750000  0.96830000  0.47750000  1.0 0.1256359559
H  H64  1  0.96830000  0.47750000  0.07670000  1.0 0.1256359559
H  H65  1  0.47750000  0.07670000  0.96830000  1.0 0.1256359559
H  H66  1  0.96830000  0.47750000  0.47750000  1.0 0.1256359559
H  H67  1  0.07670000  0.47750000  0.47750000  1.0 0.1256359559
H  H68  1  0.47750000  0.96830000  0.07670000  1.0 0.1256359559
H  H69  1  0.47750000  0.47750000  0.96830000  1.0 0.1256359559
H  H70  1  0.07670000  0.96830000  0.47750000  1.0 0.1256359559
H  H71  1  0.96830000  0.07670000  0.47750000  1.0 0.1256359559
H  H72  1  0.47750000  0.47750000  0.07670000  1.0 0.1256359559
H  H73  1  0.84030000  0.60630000  0.60630000  1.0 0.0926487969
H  H74  1  0.60630000  0.84030000  0.94710000  1.0 0.0926487969
H  H75  1  0.60630000  0.94710000  0.84030000  1.0 0.0926487969
H  H76  1  0.94710000  0.60630000  0.60630000  1.0 0.0926487969
H  H77  1  0.60630000  0.84030000  0.60630000  1.0 0.0926487969
H  H78  1  0.94710000  0.60630000  0.84030000  1.0 0.0926487969
H  H79  1  0.84030000  0.60630000  0.94710000  1.0 0.0926487969
H  H80  1  0.60630000  0.94710000  0.60630000  1.0 0.0926487969
H  H81  1  0.60630000  0.60630000  0.84030000  1.0 0.0926487969
H  H82  1  0.84030000  0.94710000  0.60630000  1.0 0.0926487969
H  H83  1  0.94710000  0.84030000  0.60630000  1.0 0.0926487969
H  H84  1  0.60630000  0.60630000  0.94710000  1.0 0.0926487969
H  H85  1  0.15970000  0.39370000  0.05290000  1.0 0.0926487969
H  H86  1  0.39370000  0.15970000  0.39370000  1.0 0.0926487969
H  H87  1  0.39370000  0.05290000  0.39370000  1.0 0.0926487969
H  H88  1  0.05290000  0.39370000  0.15970000  1.0 0.0926487969
H  H89  1  0.39370000  0.15970000  0.05290000  1.0 0.0926487969
H  H90  1  0.05290000  0.39370000  0.39370000  1.0 0.0926487969
H  H91  1  0.15970000  0.39370000  0.39370000  1.0 0.0926487969
H  H92  1  0.39370000  0.05290000  0.15970000  1.0 0.0926487969
H  H93  1  0.39370000  0.39370000  0.05290000  1.0 0.0926487969
H  H94  1  0.15970000  0.05290000  0.39370000  1.0 0.0926487969
H  H95  1  0.05290000  0.15970000  0.39370000  1.0 0.0926487969
H  H96  1  0.39370000  0.39370000  0.15970000  1.0 0.0926487969
H  H97  1  0.79570000  0.65090000  0.65090000  1.0 0.1098388552
H  H98  1  0.65090000  0.79570000  0.90250000  1.0 0.1098388552
H  H99  1  0.65090000  0.90250000  0.79570000  1.0 0.1098388552
H  H100  1  0.90250000  0.65090000  0.65090000  1.0 0.1098388552
H  H101  1  0.65090000  0.79570000  0.65090000  1.0 0.1098388552
H  H102  1  0.90250000  0.65090000  0.79570000  1.0 0.1098388552
H  H103  1  0.79570000  0.65090000  0.90250000  1.0 0.1098388552
H  H104  1  0.65090000  0.90250000  0.65090000  1.0 0.1098388552
H  H105  1  0.65090000  0.65090000  0.79570000  1.0 0.1098388552
H  H106  1  0.79570000  0.90250000  0.65090000  1.0 0.1098388552
H  H107  1  0.90250000  0.79570000  0.65090000  1.0 0.1098388552
H  H108  1  0.65090000  0.65090000  0.90250000  1.0 0.1098388552
H  H109  1  0.20430000  0.34910000  0.09750000  1.0 0.1098388552
H  H110  1  0.34910000  0.20430000  0.34910000  1.0 0.1098388552
H  H111  1  0.34910000  0.09750000  0.34910000  1.0 0.1098388552
H  H112  1  0.09750000  0.34910000  0.20430000  1.0 0.1098388552
H  H113  1  0.34910000  0.20430000  0.09750000  1.0 0.1098388552
H  H114  1  0.09750000  0.34910000  0.34910000  1.0 0.1098388552
H  H115  1  0.20430000  0.34910000  0.34910000  1.0 0.1098388552
H  H116  1  0.34910000  0.09750000  0.20430000  1.0 0.1098388552
H  H117  1  0.34910000  0.34910000  0.09750000  1.0 0.1098388552
H  H118  1  0.20430000  0.09750000  0.34910000  1.0 0.1098388552
H  H119  1  0.09750000  0.20430000  0.34910000  1.0 0.1098388552
H  H120  1  0.34910000  0.34910000  0.20430000  1.0 0.1098388552
C  C1  1  0.81620000  0.68380000  0.68380000  1.0 0.4038591471
C  C2  1  0.68380000  0.81620000  0.81620000  1.0 0.4038591471
C  C3  1  0.68380000  0.81620000  0.68380000  1.0 0.4038591471
C  C4  1  0.81620000  0.68380000  0.81620000  1.0 0.4038591471
C  C5  1  0.68380000  0.68380000  0.81620000  1.0 0.4038591471
C  C6  1  0.81620000  0.81620000  0.68380000  1.0 0.4038591471
C  C7  1  0.18380000  0.31620000  0.18380000  1.0 0.4038591471
C  C8  1  0.31620000  0.18380000  0.31620000  1.0 0.4038591471
C  C9  1  0.31620000  0.18380000  0.18380000  1.0 0.4038591471
C  C10  1  0.18380000  0.31620000  0.31620000  1.0 0.4038591471
C  C11  1  0.31620000  0.31620000  0.18380000  1.0 0.4038591471
C  C12  1  0.18380000  0.18380000  0.31620000  1.0 0.4038591471
C  C13  1  0.84490000  0.65510000  0.65510000  1.0 -0.0214769983
C  C14  1  0.65510000  0.84490000  0.84490000  1.0 -0.0214769983
C  C15  1  0.65510000  0.84490000  0.65510000  1.0 -0.0214769983
C  C16  1  0.84490000  0.65510000  0.84490000  1.0 -0.0214769983
C  C17  1  0.65510000  0.65510000  0.84490000  1.0 -0.0214769983
C  C18  1  0.84490000  0.84490000  0.65510000  1.0 -0.0214769983
C  C19  1  0.15510000  0.34490000  0.15510000  1.0 -0.0214769983
C  C20  1  0.34490000  0.15510000  0.34490000  1.0 -0.0214769983
C  C21  1  0.34490000  0.15510000  0.15510000  1.0 -0.0214769983
C  C22  1  0.15510000  0.34490000  0.34490000  1.0 -0.0214769983
C  C23  1  0.34490000  0.34490000  0.15510000  1.0 -0.0214769983
C  C24  1  0.15510000  0.15510000  0.34490000  1.0 -0.0214769983
C  C25  1  0.85810000  0.60950000  0.67430000  1.0 -0.0615030082
C  C26  1  0.60950000  0.85810000  0.85810000  1.0 -0.0615030082
C  C27  1  0.67430000  0.85810000  0.85810000  1.0 -0.0615030082
C  C28  1  0.85810000  0.67430000  0.60950000  1.0 -0.0615030082
C  C29  1  0.67430000  0.85810000  0.60950000  1.0 -0.0615030082
C  C30  1  0.85810000  0.60950000  0.85810000  1.0 -0.0615030082
C  C31  1  0.85810000  0.67430000  0.85810000  1.0 -0.0615030082
C  C32  1  0.60950000  0.85810000  0.67430000  1.0 -0.0615030082
C  C33  1  0.60950000  0.67430000  0.85810000  1.0 -0.0615030082
C  C34  1  0.85810000  0.85810000  0.60950000  1.0 -0.0615030082
C  C35  1  0.85810000  0.85810000  0.67430000  1.0 -0.0615030082
C  C36  1  0.67430000  0.60950000  0.85810000  1.0 -0.0615030082
C  C37  1  0.14190000  0.39050000  0.14190000  1.0 -0.0653314504
C  C38  1  0.39050000  0.14190000  0.32570000  1.0 -0.0615030082
C  C39  1  0.32570000  0.14190000  0.39050000  1.0 -0.0615030082
C  C40  1  0.14190000  0.32570000  0.14190000  1.0 -0.0615030082
C  C41  1  0.32570000  0.14190000  0.14190000  1.0 -0.0615030082
C  C42  1  0.14190000  0.39050000  0.32570000  1.0 -0.0615030082
C  C43  1  0.14190000  0.32570000  0.39050000  1.0 -0.0615030082
C  C44  1  0.39050000  0.14190000  0.14190000  1.0 -0.0615030082
C  C45  1  0.39050000  0.32570000  0.14190000  1.0 -0.0615030082
C  C46  1  0.14190000  0.14190000  0.32570000  1.0 -0.0615030082
C  C47  1  0.14190000  0.14190000  0.39050000  1.0 -0.0615030082
C  C48  1  0.32570000  0.39050000  0.14190000  1.0 -0.0653314504
C  C49  1  0.88450000  0.58310000  0.64790000  1.0 -0.0886378512
C  C50  1  0.58310000  0.88450000  0.88450000  1.0 -0.0886378512
C  C51  1  0.64790000  0.88450000  0.88450000  1.0 -0.0886378512
C  C52  1  0.88450000  0.64790000  0.58310000  1.0 -0.0886378512
C  C53  1  0.64790000  0.88450000  0.58310000  1.0 -0.0886378512
C  C54  1  0.88450000  0.58310000  0.88450000  1.0 -0.0886378512
C  C55  1  0.88450000  0.64790000  0.88450000  1.0 -0.0886378512
C  C56  1  0.58310000  0.88450000  0.64790000  1.0 -0.0886378512
C  C57  1  0.58310000  0.64790000  0.88450000  1.0 -0.0886378512
C  C58  1  0.88450000  0.88450000  0.58310000  1.0 -0.0886378512
C  C59  1  0.88450000  0.88450000  0.64790000  1.0 -0.0886378512
C  C60  1  0.64790000  0.58310000  0.88450000  1.0 -0.0886378512
C  C61  1  0.11550000  0.41690000  0.11550000  1.0 -0.0886378512
C  C62  1  0.41690000  0.11550000  0.35210000  1.0 -0.0886378512
C  C63  1  0.35210000  0.11550000  0.41690000  1.0 -0.0886378512
C  C64  1  0.11550000  0.35210000  0.11550000  1.0 -0.0886378512
C  C65  1  0.35210000  0.11550000  0.11550000  1.0 -0.0886378512
C  C66  1  0.11550000  0.41690000  0.35210000  1.0 -0.0886378512
C  C67  1  0.11550000  0.35210000  0.41690000  1.0 -0.0886378512
C  C68  1  0.41690000  0.11550000  0.11550000  1.0 -0.0886378512
C  C69  1  0.41690000  0.35210000  0.11550000  1.0 -0.0886378512
C  C70  1  0.11550000  0.11550000  0.35210000  1.0 -0.0886378512
C  C71  1  0.11550000  0.11550000  0.41690000  1.0 -0.0886378512
C  C72  1  0.35210000  0.41690000  0.11550000  1.0 -0.0886378512
C  C73  1  0.89720000  0.60280000  0.60280000  1.0 0.0623511312
C  C74  1  0.60280000  0.89720000  0.89720000  1.0 0.0623511312
C  C75  1  0.60280000  0.89720000  0.60280000  1.0 0.0623511312
C  C76  1  0.89720000  0.60280000  0.89720000  1.0 0.0623511312
C  C77  1  0.60280000  0.60280000  0.89720000  1.0 0.0623511312
C  C78  1  0.89720000  0.89720000  0.60280000  1.0 0.067805962
C  C79  1  0.10280000  0.39720000  0.10280000  1.0 0.0623511312
C  C80  1  0.39720000  0.10280000  0.39720000  1.0 0.0623511312
C  C81  1  0.39720000  0.10280000  0.10280000  1.0 0.0623511312
C  C82  1  0.10280000  0.39720000  0.39720000  1.0 0.0623511312
C  C83  1  0.39720000  0.39720000  0.10280000  1.0 0.0623511312
C  C84  1  0.10280000  0.10280000  0.39720000  1.0 0.0623511312
C  C85  1  0.92430000  0.57570000  0.57570000  1.0 -0.0615030082
C  C86  1  0.57570000  0.92430000  0.92430000  1.0 -0.0615030082
C  C87  1  0.57570000  0.92430000  0.57570000  1.0 -0.0615030082
C  C88  1  0.92430000  0.57570000  0.92430000  1.0 -0.0615030082
C  C89  1  0.57570000  0.57570000  0.92430000  1.0 -0.0615030082
C  C90  1  0.92430000  0.92430000  0.57570000  1.0 -0.0615030082
C  C91  1  0.07570000  0.42430000  0.07570000  1.0 -0.0615030082
C  C92  1  0.42430000  0.07570000  0.42430000  1.0 -0.0615030082
C  C93  1  0.42430000  0.07570000  0.07570000  1.0 -0.0615030082
C  C94  1  0.07570000  0.42430000  0.42430000  1.0 -0.0615030082
C  C95  1  0.42430000  0.42430000  0.07570000  1.0 -0.0615030082
C  C96  1  0.07570000  0.07570000  0.42430000  1.0 -0.0615030082
C  C97  1  0.94560000  0.55440000  0.55440000  1.0 -0.1228378887
C  C98  1  0.55440000  0.94560000  0.94560000  1.0 -0.1228378887
C  C99  1  0.55440000  0.94560000  0.55440000  1.0 -0.1228378887
C  C100  1  0.94560000  0.55440000  0.94560000  1.0 -0.1228378887
C  C101  1  0.55440000  0.55440000  0.94560000  1.0 -0.1228378887
C  C102  1  0.94560000  0.94560000  0.55440000  1.0 -0.1228378887
C  C103  1  0.05440000  0.44560000  0.05440000  1.0 -0.1228378887
C  C104  1  0.44560000  0.05440000  0.44560000  1.0 -0.1228378887
C  C105  1  0.44560000  0.05440000  0.05440000  1.0 -0.1228378887
C  C106  1  0.05440000  0.44560000  0.44560000  1.0 -0.1228378887
C  C107  1  0.44560000  0.44560000  0.05440000  1.0 -0.1228378887
C  C108  1  0.05440000  0.05440000  0.44560000  1.0 -0.1228378887
C  C109  1  0.97370000  0.52630000  0.52630000  1.0 0.1256359559
C  C110  1  0.52630000  0.97370000  0.97370000  1.0 0.1256359559
C  C111  1  0.52630000  0.97370000  0.52630000  1.0 0.1256359559
C  C112  1  0.97370000  0.52630000  0.97370000  1.0 0.1256359559
C  C113  1  0.52630000  0.52630000  0.97370000  1.0 0.1256359559
C  C114  1  0.97370000  0.97370000  0.52630000  1.0 0.1256359559
C  C115  1  0.02630000  0.47370000  0.02630000  1.0 0.1256359559
C  C116  1  0.47370000  0.02630000  0.47370000  1.0 0.1256359559
C  C117  1  0.47370000  0.02630000  0.02630000  1.0 0.1256359559
C  C118  1  0.02630000  0.47370000  0.47370000  1.0 0.1256359559
C  C119  1  0.47370000  0.47370000  0.02630000  1.0 0.1256359559
C  C120  1  0.02630000  0.02630000  0.47370000  1.0 0.1256359559
C  C121  1  0.95380000  0.51350000  0.51350000  1.0 -0.1628882171
C  C122  1  0.51350000  0.95380000  0.01920000  1.0 -0.1628882171
C  C123  1  0.51350000  0.01920000  0.95380000  1.0 -0.1628882171
C  C124  1  0.01920000  0.51350000  0.51350000  1.0 -0.1628882171
C  C125  1  0.51350000  0.95380000  0.51350000  1.0 -0.1628882171
C  C126  1  0.01920000  0.51350000  0.95380000  1.0 -0.1628882171
C  C127  1  0.95380000  0.51350000  0.01920000  1.0 -0.1628882171
C  C128  1  0.51350000  0.01920000  0.51350000  1.0 -0.1628882171
C  C129  1  0.51350000  0.51350000  0.95380000  1.0 -0.1628882171
C  C130  1  0.95380000  0.01920000  0.51350000  1.0 -0.1628882171
C  C131  1  0.01920000  0.95380000  0.51350000  1.0 -0.1628882171
C  C132  1  0.51350000  0.51350000  0.01920000  1.0 -0.1628882171
C  C133  1  0.04620000  0.48650000  0.98080000  1.0 -0.1628882171
C  C134  1  0.48650000  0.04620000  0.48650000  1.0 -0.1628882171
C  C135  1  0.48650000  0.98080000  0.48650000  1.0 -0.1628882171
C  C136  1  0.98080000  0.48650000  0.04620000  1.0 -0.1628882171
C  C137  1  0.48650000  0.04620000  0.98080000  1.0 -0.1628882171
C  C138  1  0.98080000  0.48650000  0.48650000  1.0 -0.1628882171
C  C139  1  0.04620000  0.48650000  0.48650000  1.0 -0.1628882171
C  C140  1  0.48650000  0.98080000  0.04620000  1.0 -0.1628882171
C  C141  1  0.48650000  0.48650000  0.98080000  1.0 -0.1628882171
C  C142  1  0.04620000  0.98080000  0.48650000  1.0 -0.1628882171
C  C143  1  0.98080000  0.04620000  0.48650000  1.0 -0.1628882171
C  C144  1  0.48650000  0.48650000  0.04620000  1.0 -0.1628882171
C  C145  1  0.85270000  0.61530000  0.61530000  1.0 -0.0834271765
C  C146  1  0.61530000  0.85270000  0.91670000  1.0 -0.0834271765
C  C147  1  0.61530000  0.91670000  0.85270000  1.0 -0.0834271765
C  C148  1  0.91670000  0.61530000  0.61530000  1.0 -0.0834271765
C  C149  1  0.61530000  0.85270000  0.61530000  1.0 -0.0834271765
C  C150  1  0.91670000  0.61530000  0.85270000  1.0 -0.0834271765
C  C151  1  0.85270000  0.61530000  0.91670000  1.0 -0.0834271765
C  C152  1  0.61530000  0.91670000  0.61530000  1.0 -0.0834271765
C  C153  1  0.61530000  0.61530000  0.85270000  1.0 -0.0834271765
C  C154  1  0.85270000  0.91670000  0.61530000  1.0 -0.0834271765
C  C155  1  0.91670000  0.85270000  0.61530000  1.0 -0.0834271765
C  C156  1  0.61530000  0.61530000  0.91670000  1.0 -0.0834271765
C  C157  1  0.14730000  0.38470000  0.08330000  1.0 -0.0834271765
C  C158  1  0.38470000  0.14730000  0.38470000  1.0 -0.0834271765
C  C159  1  0.38470000  0.08330000  0.38470000  1.0 -0.0834271765
C  C160  1  0.08330000  0.38470000  0.14730000  1.0 -0.0834271765
C  C161  1  0.38470000  0.14730000  0.08330000  1.0 -0.0834271765
C  C162  1  0.08330000  0.38470000  0.38470000  1.0 -0.0834271765
C  C163  1  0.14730000  0.38470000  0.38470000  1.0 -0.0834271765
C  C164  1  0.38470000  0.08330000  0.14730000  1.0 -0.0834271765
C  C165  1  0.38470000  0.38470000  0.08330000  1.0 -0.0834271765
C  C166  1  0.14730000  0.08330000  0.38470000  1.0 -0.0834271765
C  C167  1  0.08330000  0.14730000  0.38470000  1.0 -0.0834271765
C  C168  1  0.38470000  0.38470000  0.14730000  1.0 -0.0834271765
C  C169  1  0.82590000  0.64210000  0.64210000  1.0 -0.0549394774
C  C170  1  0.64210000  0.82590000  0.88990000  1.0 -0.0549394774
C  C171  1  0.64210000  0.88990000  0.82590000  1.0 -0.0549394774
C  C172  1  0.88990000  0.64210000  0.64210000  1.0 -0.0549394774
C  C173  1  0.64210000  0.82590000  0.64210000  1.0 -0.0549394774
C  C174  1  0.88990000  0.64210000  0.82590000  1.0 -0.0549394774
C  C175  1  0.82590000  0.64210000  0.88990000  1.0 -0.0549394774
C  C176  1  0.64210000  0.88990000  0.64210000  1.0 -0.0549394774
C  C177  1  0.64210000  0.64210000  0.82590000  1.0 -0.0549394774
C  C178  1  0.82590000  0.88990000  0.64210000  1.0 -0.0549394774
C  C179  1  0.88990000  0.82590000  0.64210000  1.0 -0.0549394774
C  C180  1  0.64210000  0.64210000  0.88990000  1.0 -0.0549394774
C  C181  1  0.17410000  0.35790000  0.11010000  1.0 -0.0615030082
C  C182  1  0.35790000  0.17410000  0.35790000  1.0 -0.0549394774
C  C183  1  0.35790000  0.11010000  0.35790000  1.0 -0.0615030082
C  C184  1  0.11010000  0.35790000  0.17410000  1.0 -0.0615030082
C  C185  1  0.35790000  0.17410000  0.11010000  1.0 -0.0549394774
C  C186  1  0.11010000  0.35790000  0.35790000  1.0 -0.0615030082
C  C187  1  0.17410000  0.35790000  0.35790000  1.0 -0.0615030082
C  C188  1  0.35790000  0.11010000  0.17410000  1.0 -0.0549394774
C  C189  1  0.35790000  0.35790000  0.11010000  1.0 -0.0549394774
C  C190  1  0.17410000  0.11010000  0.35790000  1.0 -0.0615030082
C  C191  1  0.11010000  0.17410000  0.35790000  1.0 -0.0615030082
C  C192  1  0.35790000  0.35790000  0.17410000  1.0 -0.0549394774
O  O1  1  0.81000000  0.65500000  0.72500000  1.0 -0.2896959335
O  O2  1  0.65500000  0.81000000  0.81000000  1.0 -0.2896959335
O  O3  1  0.72500000  0.81000000  0.81000000  1.0 -0.2896959335
O  O4  1  0.81000000  0.72500000  0.65500000  1.0 -0.2896959335
O  O5  1  0.72500000  0.81000000  0.65500000  1.0 -0.2896959335
O  O6  1  0.81000000  0.65500000  0.81000000  1.0 -0.2896959335
O  O7  1  0.81000000  0.72500000  0.81000000  1.0 -0.2896959335
O  O8  1  0.65500000  0.81000000  0.72500000  1.0 -0.2896959335
O  O9  1  0.65500000  0.72500000  0.81000000  1.0 -0.2896959335
O  O10  1  0.81000000  0.81000000  0.65500000  1.0 -0.2896959335
O  O11  1  0.81000000  0.81000000  0.72500000  1.0 -0.2896959335
O  O12  1  0.72500000  0.65500000  0.81000000  1.0 -0.2896959335
O  O13  1  0.19000000  0.34500000  0.19000000  1.0 -0.2896959335
O  O14  1  0.34500000  0.19000000  0.27500000  1.0 -0.2896959335
O  O15  1  0.27500000  0.19000000  0.34500000  1.0 -0.2896959335
O  O16  1  0.19000000  0.27500000  0.19000000  1.0 -0.2896959335
O  O17  1  0.27500000  0.19000000  0.19000000  1.0 -0.2896959335
O  O18  1  0.19000000  0.34500000  0.27500000  1.0 -0.2896959335
O  O19  1  0.19000000  0.27500000  0.34500000  1.0 -0.2896959335
O  O20  1  0.34500000  0.19000000  0.19000000  1.0 -0.2896959335
O  O21  1  0.34500000  0.27500000  0.19000000  1.0 -0.2896959335
O  O22  1  0.19000000  0.19000000  0.27500000  1.0 -0.2896959335
O  O23  1  0.19000000  0.19000000  0.34500000  1.0 -0.2896959335
O  O24  1  0.27500000  0.34500000  0.19000000  1.0 -0.2896959335
O  O25  1  0.77700000  0.69380000  0.69380000  1.0 -0.2640172268
O  O26  1  0.69380000  0.77700000  0.83540000  1.0 -0.2640172268
O  O27  1  0.69380000  0.83540000  0.77700000  1.0 -0.2640172268
O  O28  1  0.83540000  0.69380000  0.69380000  1.0 -0.2640172268
O  O29  1  0.69380000  0.77700000  0.69380000  1.0 -0.2640172268
O  O30  1  0.83540000  0.69380000  0.77700000  1.0 -0.2640172268
O  O31  1  0.77700000  0.69380000  0.83540000  1.0 -0.2640172268
O  O32  1  0.69380000  0.83540000  0.69380000  1.0 -0.2640172268
O  O33  1  0.69380000  0.69380000  0.77700000  1.0 -0.2640172268
O  O34  1  0.77700000  0.83540000  0.69380000  1.0 -0.2640172268
O  O35  1  0.83540000  0.77700000  0.69380000  1.0 -0.2640172268
O  O36  1  0.69380000  0.69380000  0.83540000  1.0 -0.2640172268
O  O37  1  0.22300000  0.30620000  0.16460000  1.0 -0.2640172268
O  O38  1  0.30620000  0.22300000  0.30620000  1.0 -0.2640172268
O  O39  1  0.30620000  0.16460000  0.30620000  1.0 -0.2640172268
O  O40  1  0.16460000  0.30620000  0.22300000  1.0 -0.2640172268
O  O41  1  0.30620000  0.22300000  0.16460000  1.0 -0.2640172268
O  O42  1  0.16460000  0.30620000  0.30620000  1.0 -0.2640172268
O  O43  1  0.22300000  0.30620000  0.30620000  1.0 -0.2640172268
O  O44  1  0.30620000  0.16460000  0.22300000  1.0 -0.2640172268
O  O45  1  0.30620000  0.30620000  0.16460000  1.0 -0.2640172268
O  O46  1  0.22300000  0.16460000  0.30620000  1.0 -0.2640172268
O  O47  1  0.16460000  0.22300000  0.30620000  1.0 -0.2640172268
O  O48  1  0.30620000  0.30620000  0.22300000  1.0 -0.2640172268
O  O49  1  0.75000000  0.75000000  0.75000000  1.0 -0.6795915726
O  O50  1  0.25000000  0.25000000  0.25000000  1.0 -0.6795915726
