# DDEC6 charges by PACMAN v1.1 (https://github.com/mtap-research/PACMAN-charge/)
data_UJEGUL_FSR_pacman
_symmetry_space_group_name_H-M   'P 1'
_cell_length_a   10.88850000
_cell_length_b   12.54510000
_cell_length_c   15.85350000
_cell_angle_alpha   90.00000000
_cell_angle_beta   90.00000000
_cell_angle_gamma   90.00000000
_symmetry_Int_Tables_number   1
_chemical_formula_structural   Cu2H3C18SNO8
_chemical_formula_sum   'Cu8 H12 C72 S4 N4 O32'
_cell_volume   2165.54563402
_cell_formula_units_Z   4
loop_
 _symmetry_equiv_pos_site_id
 _symmetry_equiv_pos_as_xyz
  1  'x, y, z'
loop_
 _atom_site_type_symbol
 _atom_site_label
 _atom_site_symmetry_multiplicity
 _atom_site_fract_x
 _atom_site_fract_y
 _atom_site_fract_z
 _atom_site_occupancy
 _atom_site_charge
Cu  Cu1  1  0.50000000  0.83888000  0.35388000  1.0 0.9581051159
Cu  Cu2  1  0.00000000  0.33888000  0.14612000  1.0 0.9581051159
Cu  Cu3  1  0.00000000  0.66112000  0.85388000  1.0 0.9581051159
Cu  Cu4  1  0.50000000  0.16112000  0.64612000  1.0 0.9581051159
Cu  Cu5  1  0.13916000  0.50000000  0.00000000  1.0 1.1607903528
Cu  Cu6  1  0.86084000  0.50000000  0.00000000  1.0 1.1607903528
Cu  Cu7  1  0.63916000  0.00000000  0.50000000  1.0 1.1607903528
Cu  Cu8  1  0.36084000  0.00000000  0.50000000  1.0 1.1607903528
H  H1  1  0.31500000  0.20600000  0.22660000  1.0 0.1498227704
H  H2  1  0.68500000  0.20600000  0.22660000  1.0 0.1498227704
H  H3  1  0.81500000  0.70600000  0.27340000  1.0 0.1498227704
H  H4  1  0.81500000  0.29400000  0.72660000  1.0 0.1498227704
H  H5  1  0.68500000  0.79400000  0.77340000  1.0 0.1498227704
H  H6  1  0.31500000  0.79400000  0.77340000  1.0 0.1498227704
H  H7  1  0.18500000  0.29400000  0.72660000  1.0 0.1498227704
H  H8  1  0.18500000  0.70600000  0.27340000  1.0 0.1498227704
H  H9  1  0.50000000  0.38940000  0.06250000  1.0 0.1498227704
H  H10  1  0.00000000  0.88940000  0.43750000  1.0 0.1498227704
H  H11  1  0.00000000  0.11060000  0.56250000  1.0 0.1498227704
H  H12  1  0.50000000  0.61060000  0.93750000  1.0 0.1498227704
C  C1  1  0.26820000  0.34780000  0.10820000  1.0 0.6077953714
C  C2  1  0.73180000  0.34780000  0.10820000  1.0 0.6077953714
C  C3  1  0.76820000  0.84780000  0.39180000  1.0 0.6077953714
C  C4  1  0.76820000  0.15220000  0.60820000  1.0 0.6077953714
C  C5  1  0.73180000  0.65220000  0.89180000  1.0 0.6077953714
C  C6  1  0.26820000  0.65220000  0.89180000  1.0 0.6077953714
C  C7  1  0.23180000  0.15220000  0.60820000  1.0 0.6077953714
C  C8  1  0.23180000  0.84780000  0.39180000  1.0 0.6077953714
C  C9  1  0.38910000  0.30380000  0.14000000  1.0 0.0042038686
C  C10  1  0.61090000  0.30380000  0.14000000  1.0 0.0042038686
C  C11  1  0.88910000  0.80380000  0.36000000  1.0 0.0042038686
C  C12  1  0.88910000  0.19620000  0.64000000  1.0 0.0042038686
C  C13  1  0.61090000  0.69620000  0.86000000  1.0 0.0042038686
C  C14  1  0.38910000  0.69620000  0.86000000  1.0 0.0042038686
C  C15  1  0.11090000  0.19620000  0.64000000  1.0 0.0042038686
C  C16  1  0.11090000  0.80380000  0.36000000  1.0 0.0042038686
C  C17  1  0.38900000  0.22990000  0.20440000  1.0 -0.096634662
C  C18  1  0.61100000  0.22990000  0.20440000  1.0 -0.096634662
C  C19  1  0.88900000  0.72990000  0.29560000  1.0 -0.096634662
C  C20  1  0.88900000  0.27010000  0.70440000  1.0 -0.096634662
C  C21  1  0.61100000  0.77010000  0.79560000  1.0 -0.096634662
C  C22  1  0.38900000  0.77010000  0.79560000  1.0 -0.096634662
C  C23  1  0.11100000  0.27010000  0.70440000  1.0 -0.096634662
C  C24  1  0.11100000  0.72990000  0.29560000  1.0 -0.096634662
C  C25  1  0.50000000  0.19100000  0.23650000  1.0 -0.0431612346
C  C26  1  0.00000000  0.69100000  0.26350000  1.0 -0.0431612346
C  C27  1  0.00000000  0.30900000  0.73650000  1.0 -0.0431612346
C  C28  1  0.50000000  0.80900000  0.76350000  1.0 -0.0431612346
C  C29  1  0.50000000  0.34060000  0.10660000  1.0 -0.11678495
C  C30  1  0.00000000  0.84060000  0.39340000  1.0 -0.11678495
C  C31  1  0.00000000  0.15940000  0.60660000  1.0 -0.11678495
C  C32  1  0.50000000  0.65940000  0.89340000  1.0 -0.11678495
C  C33  1  0.43500000  0.65700000  0.24700000  1.0 0.0476255503
C  C34  1  0.56500000  0.65700000  0.24700000  1.0 0.0476255503
C  C35  1  0.93500000  0.15700000  0.25300000  1.0 0.0476255503
C  C36  1  0.93500000  0.84300000  0.74700000  1.0 0.0476255503
C  C37  1  0.56500000  0.34300000  0.75300000  1.0 0.0476255503
C  C38  1  0.43500000  0.34300000  0.75300000  1.0 0.0476255503
C  C39  1  0.06500000  0.84300000  0.74700000  1.0 0.0476255503
C  C40  1  0.06500000  0.15700000  0.25300000  1.0 0.0476255503
C  C41  1  0.45100000  0.58500000  0.18000000  1.0 0.0327924527
C  C42  1  0.54900000  0.58500000  0.18000000  1.0 0.0327924527
C  C43  1  0.95100000  0.08500000  0.32000000  1.0 0.0327924527
C  C44  1  0.95100000  0.91500000  0.68000000  1.0 0.0327924527
C  C45  1  0.54900000  0.41500000  0.82000000  1.0 0.0327924527
C  C46  1  0.45100000  0.41500000  0.82000000  1.0 0.0327924527
C  C47  1  0.04900000  0.91500000  0.68000000  1.0 0.0327924527
C  C48  1  0.04900000  0.08500000  0.32000000  1.0 0.0327924527
C  C49  1  0.54200000  0.60600000  0.12040000  1.0 0.0573539788
C  C50  1  0.45800000  0.60600000  0.12040000  1.0 0.0573539788
C  C51  1  0.04200000  0.10600000  0.37960000  1.0 0.0573539788
C  C52  1  0.04200000  0.89400000  0.62040000  1.0 0.0573539788
C  C53  1  0.45800000  0.39400000  0.87960000  1.0 0.0573539788
C  C54  1  0.54200000  0.39400000  0.87960000  1.0 0.0573539788
C  C55  1  0.95800000  0.89400000  0.62040000  1.0 0.0573539788
C  C56  1  0.95800000  0.10600000  0.37960000  1.0 0.0573539788
C  C57  1  0.59900000  0.70500000  0.11980000  1.0 -0.1141134214
C  C58  1  0.40100000  0.70500000  0.11980000  1.0 -0.1141134214
C  C59  1  0.09900000  0.20500000  0.38020000  1.0 -0.1141134214
C  C60  1  0.09900000  0.79500000  0.61980000  1.0 -0.1141134214
C  C61  1  0.40100000  0.29500000  0.88020000  1.0 -0.1141134214
C  C62  1  0.59900000  0.29500000  0.88020000  1.0 -0.1141134214
C  C63  1  0.90100000  0.79500000  0.61980000  1.0 -0.1141134214
C  C64  1  0.90100000  0.20500000  0.38020000  1.0 -0.1141134214
C  C65  1  0.58800000  0.77400000  0.18860000  1.0 0.0686335216
C  C66  1  0.41200000  0.77400000  0.18860000  1.0 0.0686335216
C  C67  1  0.08800000  0.27400000  0.31140000  1.0 0.0686335216
C  C68  1  0.08800000  0.72600000  0.68860000  1.0 0.0686335216
C  C69  1  0.41200000  0.22600000  0.81140000  1.0 0.0686335216
C  C70  1  0.58800000  0.22600000  0.81140000  1.0 0.0686335216
C  C71  1  0.91200000  0.72600000  0.68860000  1.0 0.0686335216
C  C72  1  0.91200000  0.27400000  0.31140000  1.0 0.0686335216
S  S1  1  0.50000000  0.09330000  0.31740000  1.0 1.2017935801
S  S2  1  0.00000000  0.59330000  0.18260000  1.0 1.2017935801
S  S3  1  0.00000000  0.40670000  0.81740000  1.0 1.2017935801
S  S4  1  0.50000000  0.90670000  0.68260000  1.0 1.2017935801
N  N1  1  0.50000000  0.74850000  0.25040000  1.0 -0.0431612346
N  N2  1  0.00000000  0.24850000  0.24960000  1.0 -0.0431612346
N  N3  1  0.00000000  0.75150000  0.75040000  1.0 -0.0431612346
N  N4  1  0.50000000  0.25150000  0.74960000  1.0 -0.0431612346
O  O1  1  0.50000000  0.99170000  0.27380000  1.0 -0.6055185658
O  O2  1  0.00000000  0.49170000  0.22620000  1.0 -0.6055185658
O  O3  1  0.00000000  0.50830000  0.77380000  1.0 -0.6055185658
O  O4  1  0.50000000  0.00830000  0.72620000  1.0 -0.6055185658
O  O5  1  0.38830000  0.10730000  0.36550000  1.0 -0.5946080399
O  O6  1  0.61170000  0.10730000  0.36550000  1.0 -0.5946080399
O  O7  1  0.88830000  0.60730000  0.13450000  1.0 -0.5951715422
O  O8  1  0.88830000  0.39270000  0.86550000  1.0 -0.5951715422
O  O9  1  0.61170000  0.89270000  0.63450000  1.0 -0.5951715422
O  O10  1  0.38830000  0.89270000  0.63450000  1.0 -0.5951715422
O  O11  1  0.11170000  0.39270000  0.86550000  1.0 -0.5951715422
O  O12  1  0.11170000  0.60730000  0.13450000  1.0 -0.5951715422
O  O13  1  0.67580000  0.81740000  0.35280000  1.0 -0.5098544669
O  O14  1  0.32420000  0.81740000  0.35280000  1.0 -0.5098544669
O  O15  1  0.17580000  0.31740000  0.14720000  1.0 -0.5098544669
O  O16  1  0.17580000  0.68260000  0.85280000  1.0 -0.5098544669
O  O17  1  0.32420000  0.18260000  0.64720000  1.0 -0.5098544669
O  O18  1  0.67580000  0.18260000  0.64720000  1.0 -0.5098544669
O  O19  1  0.82420000  0.68260000  0.85280000  1.0 -0.5098544669
O  O20  1  0.82420000  0.31740000  0.14720000  1.0 -0.5098544669
O  O21  1  0.27050000  0.41300000  0.04740000  1.0 -0.5196194363
O  O22  1  0.72950000  0.41300000  0.04740000  1.0 -0.5196194363
O  O23  1  0.77050000  0.91300000  0.45260000  1.0 -0.5196194363
O  O24  1  0.77050000  0.08700000  0.54740000  1.0 -0.5196194363
O  O25  1  0.72950000  0.58700000  0.95260000  1.0 -0.5196194363
O  O26  1  0.27050000  0.58700000  0.95260000  1.0 -0.5196194363
O  O27  1  0.22950000  0.08700000  0.54740000  1.0 -0.5196194363
O  O28  1  0.22950000  0.91300000  0.45260000  1.0 -0.5196194363
O  O29  1  0.50000000  0.90810000  0.46410000  1.0 -0.9278355551
O  O30  1  0.00000000  0.40810000  0.03590000  1.0 -0.9278355551
O  O31  1  0.00000000  0.59190000  0.96410000  1.0 -0.9278355551
O  O32  1  0.50000000  0.09190000  0.53590000  1.0 -0.9278355551
