# DDEC6 charges by PACMAN v1.1 (https://github.com/mtap-research/PACMAN-charge/)
data_UJILAA_FSR_pacman
_symmetry_space_group_name_H-M   'P 1'
_cell_length_a   26.64360000
_cell_length_b   26.64360000
_cell_length_c   26.64360000
_cell_angle_alpha   113.18200000
_cell_angle_beta   113.18200000
_cell_angle_gamma   113.18200000
_symmetry_Int_Tables_number   1
_chemical_formula_structural   Cu2(CN)3
_chemical_formula_sum   'Cu30 C45 N45'
_cell_volume   12156.56157756
_cell_formula_units_Z   15
loop_
 _symmetry_equiv_pos_site_id
 _symmetry_equiv_pos_as_xyz
  1  'x, y, z'
loop_
 _atom_site_type_symbol
 _atom_site_label
 _atom_site_symmetry_multiplicity
 _atom_site_fract_x
 _atom_site_fract_y
 _atom_site_fract_z
 _atom_site_occupancy
 _atom_site_charge
Cu  Cu1  1  0.95613000  0.15763000  0.13739000  1.0 0.1981480628
Cu  Cu2  1  0.15763000  0.13739000  0.95613000  1.0 0.2301914901
Cu  Cu3  1  0.13739000  0.95613000  0.15763000  1.0 0.1981480628
Cu  Cu4  1  0.91352000  0.31826000  0.24179000  1.0 0.5783327902
Cu  Cu5  1  0.31826000  0.24179000  0.91352000  1.0 0.5783327902
Cu  Cu6  1  0.24179000  0.91352000  0.31826000  1.0 0.5888240025
Cu  Cu7  1  0.01057000  0.45018000  0.48550000  1.0 0.5888240025
Cu  Cu8  1  0.45018000  0.48550000  0.01057000  1.0 0.616182296
Cu  Cu9  1  0.48550000  0.01057000  0.45018000  1.0 0.5783327902
Cu  Cu10  1  0.92384000  0.29304000  0.53401000  1.0 0.1888402363
Cu  Cu11  1  0.29304000  0.53401000  0.92384000  1.0 0.1888402363
Cu  Cu12  1  0.53401000  0.92384000  0.29304000  1.0 0.1888402363
Cu  Cu13  1  0.76877000  0.02903000  0.35963000  1.0 0.4811621989
Cu  Cu14  1  0.02903000  0.35963000  0.76877000  1.0 0.4811621989
Cu  Cu15  1  0.35963000  0.76877000  0.02903000  1.0 0.4811621989
Cu  Cu16  1  0.82676000  0.90496000  0.23224000  1.0 0.4104738072
Cu  Cu17  1  0.90496000  0.23224000  0.82676000  1.0 0.4104738072
Cu  Cu18  1  0.23224000  0.82676000  0.90496000  1.0 0.392369388
Cu  Cu19  1  0.98597000  0.00665000  0.18803000  1.0 0.609206824
Cu  Cu20  1  0.00665000  0.18803000  0.98597000  1.0 0.616182296
Cu  Cu21  1  0.18803000  0.98597000  0.00665000  1.0 0.609206824
Cu  Cu22  1  0.78448000  0.37551000  0.11468000  1.0 0.3093995884
Cu  Cu23  1  0.37551000  0.11468000  0.78448000  1.0 0.3035694942
Cu  Cu24  1  0.11468000  0.78448000  0.37551000  1.0 0.3093995884
Cu  Cu25  1  0.85142000  0.61000000  0.21795000  1.0 0.0484769478
Cu  Cu26  1  0.61000000  0.21795000  0.85142000  1.0 0.0601438865
Cu  Cu27  1  0.21795000  0.85142000  0.61000000  1.0 0.0405767834
Cu  Cu28  1  0.68677000  0.65323000  0.13490000  1.0 0.328003256
Cu  Cu29  1  0.65323000  0.13490000  0.68677000  1.0 0.328003256
Cu  Cu30  1  0.13490000  0.68677000  0.65323000  1.0 0.317106618
C  C1  1  0.91560000  0.20140000  0.16430000  1.0 0.2906110272
C  C2  1  0.20140000  0.16430000  0.91560000  1.0 0.2719828769
C  C3  1  0.16430000  0.91560000  0.20140000  1.0 0.2801331267
C  C4  1  0.98630000  0.39010000  0.35190000  1.0 0.1494150743
C  C5  1  0.39010000  0.35190000  0.98630000  1.0 0.1080978498
C  C6  1  0.35190000  0.98630000  0.39010000  1.0 0.1041402876
C  C7  1  0.94480000  0.35550000  0.51410000  1.0 0.2097429469
C  C8  1  0.35550000  0.51410000  0.94480000  1.0 0.1981480628
C  C9  1  0.51410000  0.94480000  0.35550000  1.0 0.2097429469
C  C10  1  0.85840000  0.19610000  0.46020000  1.0 0.1715407158
C  C11  1  0.19610000  0.46020000  0.85840000  1.0 0.1780220628
C  C12  1  0.46020000  0.85840000  0.19610000  1.0 0.1715407158
C  C13  1  0.80640000  0.95660000  0.29240000  1.0 0.0405767834
C  C14  1  0.95660000  0.29240000  0.80640000  1.0 0.026254342
C  C15  1  0.29240000  0.80640000  0.95660000  1.0 0.026254342
C  C16  1  0.90710000  0.95890000  0.23560000  1.0 0.1614185706
C  C17  1  0.95890000  0.23560000  0.90710000  1.0 0.1302233026
C  C18  1  0.23560000  0.90710000  0.95890000  1.0 0.1302233026
C  C19  1  0.96130000  0.09200000  0.15000000  1.0 0.2384966895
C  C20  1  0.09200000  0.15000000  0.96130000  1.0 0.2301914901
C  C21  1  0.15000000  0.96130000  0.09200000  1.0 0.2597162113
C  C22  1  0.83830000  0.35120000  0.16500000  1.0 0.2906110272
C  C23  1  0.35120000  0.16500000  0.83830000  1.0 0.2597162113
C  C24  1  0.16500000  0.83830000  0.35120000  1.0 0.2801331267
C  C25  1  0.80160000  0.45810000  0.15630000  1.0 0.1888402363
C  C26  1  0.45810000  0.15630000  0.80160000  1.0 0.1780220628
C  C27  1  0.15630000  0.80160000  0.45810000  1.0 0.1981480628
C  C28  1  0.67940000  0.26910000  0.95630000  1.0 0.3093995884
C  C29  1  0.26910000  0.95630000  0.67940000  1.0 0.317106618
C  C30  1  0.95630000  0.67940000  0.26910000  1.0 0.3093995884
C  C31  1  0.96670000  0.15790000  0.02260000  1.0 0.0768287316
C  C32  1  0.15790000  0.02260000  0.96670000  1.0 0.0601438865
C  C33  1  0.02260000  0.96670000  0.15790000  1.0 0.0601438865
C  C34  1  0.74360000  0.76010000  0.16320000  1.0 0.1888402363
C  C35  1  0.76010000  0.16320000  0.74360000  1.0 0.1888402363
C  C36  1  0.16320000  0.74360000  0.76010000  1.0 0.1715407158
C  C37  1  0.06470000  0.58210000  0.58700000  1.0 0.0405767834
C  C38  1  0.58210000  0.58700000  0.06470000  1.0 0.0673907012
C  C39  1  0.58700000  0.06470000  0.58210000  1.0 0.0102948895
C  C40  1  0.79230000  0.63190000  0.17510000  1.0 0.0405767834
C  C41  1  0.63190000  0.17510000  0.79230000  1.0 0.0102948895
C  C42  1  0.17510000  0.79230000  0.63190000  1.0 0.026254342
C  C43  1  0.96930000  0.34820000  0.67960000  1.0 0.2198532283
C  C44  1  0.34820000  0.67960000  0.96930000  1.0 0.2097429469
C  C45  1  0.67960000  0.96930000  0.34820000  1.0 0.2198532283
N  N1  1  0.93350000  0.25940000  0.20840000  1.0 -0.599637033
N  N2  1  0.25940000  0.20840000  0.93350000  1.0 -0.5661257222
N  N3  1  0.20840000  0.93350000  0.25940000  1.0 -0.599637033
N  N4  1  0.98050000  0.40900000  0.39370000  1.0 -0.5047837809
N  N5  1  0.40900000  0.39370000  0.98050000  1.0 -0.4792125985
N  N6  1  0.39370000  0.98050000  0.40900000  1.0 -0.4727035329
N  N7  1  0.98320000  0.38900000  0.50550000  1.0 -0.5661257222
N  N8  1  0.38900000  0.50550000  0.98320000  1.0 -0.5581768468
N  N9  1  0.50550000  0.98320000  0.38900000  1.0 -0.5581768468
N  N10  1  0.82130000  0.13240000  0.41610000  1.0 -0.4727035329
N  N11  1  0.13240000  0.41610000  0.82130000  1.0 -0.4792125985
N  N12  1  0.41610000  0.82130000  0.13240000  1.0 -0.4907593444
N  N13  1  0.79130000  0.98850000  0.32000000  1.0 -0.3701156691
N  N14  1  0.98850000  0.32000000  0.79130000  1.0 -0.3618329778
N  N15  1  0.32000000  0.79130000  0.98850000  1.0 -0.3618329778
N  N16  1  0.92160000  0.96030000  0.19930000  1.0 -0.5283190325
N  N17  1  0.96030000  0.19930000  0.92160000  1.0 -0.521672459
N  N18  1  0.19930000  0.92160000  0.96030000  1.0 -0.5109206453
N  N19  1  0.95970000  0.04640000  0.14980000  1.0 -0.5283190325
N  N20  1  0.04640000  0.14980000  0.95970000  1.0 -0.5283190325
N  N21  1  0.14980000  0.95970000  0.04640000  1.0 -0.5489901021
N  N22  1  0.86580000  0.33920000  0.19360000  1.0 -0.5417438463
N  N23  1  0.33920000  0.19360000  0.86580000  1.0 -0.4907593444
N  N24  1  0.19360000  0.86580000  0.33920000  1.0 -0.521672459
N  N25  1  0.80770000  0.49970000  0.18390000  1.0 -0.2187779486
N  N26  1  0.49970000  0.18390000  0.80770000  1.0 -0.2069895134
N  N27  1  0.18390000  0.80770000  0.49970000  1.0 -0.2187779486
N  N28  1  0.71680000  0.30800000  0.01620000  1.0 -0.4497733429
N  N29  1  0.30800000  0.01620000  0.71680000  1.0 -0.4497733429
N  N30  1  0.01620000  0.71680000  0.30800000  1.0 -0.4361247733
N  N31  1  0.95420000  0.15030000  0.05770000  1.0 -0.3186217085
N  N32  1  0.15030000  0.05770000  0.95420000  1.0 -0.3186217085
N  N33  1  0.05770000  0.95420000  0.15030000  1.0 -0.3117320851
N  N34  1  0.78000000  0.81920000  0.19820000  1.0 -0.3186217085
N  N35  1  0.81920000  0.19820000  0.78000000  1.0 -0.3186217085
N  N36  1  0.19820000  0.78000000  0.81920000  1.0 -0.3045744017
N  N37  1  0.03870000  0.52520000  0.54120000  1.0 -0.3492524341
N  N38  1  0.52520000  0.54120000  0.03870000  1.0 -0.3869392589
N  N39  1  0.54120000  0.03870000  0.52520000  1.0 -0.3186217085
N  N40  1  0.74280000  0.64540000  0.18230000  1.0 -0.2892411664
N  N41  1  0.64540000  0.18230000  0.74280000  1.0 -0.2726659789
N  N42  1  0.18230000  0.74280000  0.64540000  1.0 -0.2726659789
N  N43  1  0.95460000  0.32980000  0.63140000  1.0 -0.2815972681
N  N44  1  0.32980000  0.63140000  0.95460000  1.0 -0.2815972681
N  N45  1  0.63140000  0.95460000  0.32980000  1.0 -0.2815972681
