# DDEC6 charges by PACMAN v1.1 (https://github.com/mtap-research/PACMAN-charge/)
data_UJOJEK02_FSR_pacman
_symmetry_space_group_name_H-M   'P 1'
_cell_length_a   13.49170000
_cell_length_b   13.49170000
_cell_length_c   8.06440000
_cell_angle_alpha   90.00000000
_cell_angle_beta   90.00000000
_cell_angle_gamma   120.00000000
_symmetry_Int_Tables_number   1
_chemical_formula_structural   Mn4H21C15(N2O)6
_chemical_formula_sum   'Mn8 H42 C30 N24 O12'
_cell_volume   1271.26486455
_cell_formula_units_Z   2
loop_
 _symmetry_equiv_pos_site_id
 _symmetry_equiv_pos_as_xyz
  1  'x, y, z'
loop_
 _atom_site_type_symbol
 _atom_site_label
 _atom_site_symmetry_multiplicity
 _atom_site_fract_x
 _atom_site_fract_y
 _atom_site_fract_z
 _atom_site_occupancy
 _atom_site_charge
Mn  Mn1  1  0.33333333  0.66666667  0.57888000  1.0 0.1030702709
Mn  Mn2  1  0.66666667  0.33333333  0.07888000  1.0 0.1093710648
Mn  Mn3  1  0.30259000  0.33801000  0.95420000  1.0 0.852807027
Mn  Mn4  1  0.69741000  0.66199000  0.45420000  1.0 0.852807027
Mn  Mn5  1  0.66199000  0.96458000  0.95420000  1.0 0.852807027
Mn  Mn6  1  0.03542000  0.69741000  0.95420000  1.0 0.852807027
Mn  Mn7  1  0.96458000  0.30259000  0.45420000  1.0 0.852807027
Mn  Mn8  1  0.33801000  0.03542000  0.45420000  1.0 0.852807027
H  H1  1  0.28680000  0.19840000  0.56070000  1.0 0.2994961981
H  H2  1  0.71320000  0.80160000  0.06070000  1.0 0.2994961981
H  H3  1  0.80160000  0.08840000  0.56070000  1.0 0.2994961981
H  H4  1  0.91160000  0.71320000  0.56070000  1.0 0.2994961981
H  H5  1  0.08840000  0.28680000  0.06070000  1.0 0.2994961981
H  H6  1  0.19840000  0.91160000  0.06070000  1.0 0.2994961981
H  H7  1  0.41170000  0.25650000  0.55440000  1.0 0.2994961981
H  H8  1  0.58830000  0.74350000  0.05440000  1.0 0.2994961981
H  H9  1  0.74350000  0.15520000  0.55440000  1.0 0.2994961981
H  H10  1  0.84480000  0.58830000  0.55440000  1.0 0.2994961981
H  H11  1  0.15520000  0.41170000  0.05440000  1.0 0.2994961981
H  H12  1  0.25650000  0.84480000  0.05440000  1.0 0.2994961981
H  H13  1  0.42270000  0.28630000  0.29040000  1.0 0.1093710648
H  H14  1  0.57730000  0.71370000  0.79040000  1.0 0.1093710648
H  H15  1  0.71370000  0.13640000  0.29040000  1.0 0.1093710648
H  H16  1  0.86360000  0.57730000  0.29040000  1.0 0.1093710648
H  H17  1  0.13640000  0.42270000  0.79040000  1.0 0.1093710648
H  H18  1  0.28630000  0.86360000  0.79040000  1.0 0.1093710648
H  H19  1  0.44370000  0.46110000  0.19890000  1.0 0.2867353081
H  H20  1  0.55630000  0.53890000  0.69890000  1.0 0.2867353081
H  H21  1  0.53890000  0.98260000  0.19890000  1.0 0.2867353081
H  H22  1  0.01740000  0.55630000  0.19890000  1.0 0.2867353081
H  H23  1  0.98260000  0.44370000  0.69890000  1.0 0.2867353081
H  H24  1  0.46110000  0.01740000  0.69890000  1.0 0.2867353081
H  H25  1  0.34950000  0.48420000  0.20450000  1.0 0.2867353081
H  H26  1  0.65050000  0.51580000  0.70450000  1.0 0.2867353081
H  H27  1  0.51580000  0.86530000  0.20450000  1.0 0.2867353081
H  H28  1  0.13470000  0.65050000  0.20450000  1.0 0.2867353081
H  H29  1  0.86530000  0.34950000  0.70450000  1.0 0.2867353081
H  H30  1  0.48420000  0.13470000  0.70450000  1.0 0.2867353081
H  H31  1  0.23770000  0.32210000  0.34880000  1.0 0.1206889569
H  H32  1  0.76230000  0.67790000  0.84880000  1.0 0.1206889569
H  H33  1  0.67790000  0.91560000  0.34880000  1.0 0.1206889569
H  H34  1  0.08440000  0.76230000  0.34880000  1.0 0.1206889569
H  H35  1  0.91560000  0.23770000  0.84880000  1.0 0.1206889569
H  H36  1  0.32210000  0.08440000  0.84880000  1.0 0.1206889569
H  H37  1  0.35320000  0.39730000  0.44390000  1.0 0.1093710648
H  H38  1  0.64680000  0.60270000  0.94390000  1.0 0.1093710648
H  H39  1  0.60270000  0.95590000  0.44390000  1.0 0.1093710648
H  H40  1  0.04410000  0.64680000  0.44390000  1.0 0.1093710648
H  H41  1  0.95590000  0.35320000  0.94390000  1.0 0.1093710648
H  H42  1  0.39730000  0.04410000  0.94390000  1.0 0.1093710648
C  C1  1  0.53517000  0.32237000  0.95090000  1.0 0.0132610852
C  C2  1  0.46483000  0.67763000  0.45090000  1.0 0.0132610852
C  C3  1  0.67763000  0.21280000  0.95090000  1.0 0.0132610852
C  C4  1  0.78720000  0.46483000  0.95090000  1.0 0.0132610852
C  C5  1  0.21280000  0.53517000  0.45090000  1.0 0.0132610852
C  C6  1  0.32237000  0.78720000  0.45090000  1.0 0.0132610852
C  C7  1  0.35398000  0.55983000  0.72340000  1.0 0.0394535258
C  C8  1  0.64602000  0.44017000  0.22340000  1.0 0.0394535258
C  C9  1  0.44017000  0.79415000  0.72340000  1.0 0.0394535258
C  C10  1  0.20585000  0.64602000  0.72340000  1.0 0.0394535258
C  C11  1  0.79415000  0.35398000  0.22340000  1.0 0.0394535258
C  C12  1  0.55983000  0.20585000  0.22340000  1.0 0.0394535258
C  C13  1  0.26591000  0.15691000  0.22050000  1.0 0.5670437633
C  C14  1  0.73409000  0.84309000  0.72050000  1.0 0.5670437633
C  C15  1  0.84309000  0.10900000  0.22050000  1.0 0.5670437633
C  C16  1  0.89100000  0.73409000  0.22050000  1.0 0.5670437633
C  C17  1  0.10900000  0.26591000  0.72050000  1.0 0.5670437633
C  C18  1  0.15691000  0.89100000  0.72050000  1.0 0.5670437633
C  C19  1  0.34531000  0.25425000  0.33590000  1.0 -0.0161080531
C  C20  1  0.65469000  0.74575000  0.83590000  1.0 -0.0161080531
C  C21  1  0.74575000  0.09106000  0.33590000  1.0 -0.0161080531
C  C22  1  0.90894000  0.65469000  0.33590000  1.0 -0.0161080531
C  C23  1  0.09106000  0.34531000  0.83590000  1.0 -0.0161080531
C  C24  1  0.25425000  0.90894000  0.83590000  1.0 -0.0161080531
C  C25  1  0.31980000  0.35290000  0.34400000  1.0 -0.0572683581
C  C26  1  0.68020000  0.64710000  0.84400000  1.0 -0.0572683581
C  C27  1  0.64710000  0.96690000  0.34400000  1.0 -0.0572683581
C  C28  1  0.03310000  0.68020000  0.34400000  1.0 -0.0572683581
C  C29  1  0.96690000  0.31980000  0.84400000  1.0 -0.0572683581
C  C30  1  0.35290000  0.03310000  0.84400000  1.0 -0.0572683581
N  N1  1  0.34703000  0.20836000  0.50000000  1.0 -0.5552873791
N  N2  1  0.65297000  0.79164000  0.00000000  1.0 -0.5552873791
N  N3  1  0.79164000  0.13867000  0.50000000  1.0 -0.5552873791
N  N4  1  0.86133000  0.65297000  0.50000000  1.0 -0.5552873791
N  N5  1  0.13867000  0.34703000  0.00000000  1.0 -0.5552873791
N  N6  1  0.20836000  0.86133000  0.00000000  1.0 -0.5552873791
N  N7  1  0.36693000  0.42807000  0.19720000  1.0 -0.5322800359
N  N8  1  0.63307000  0.57193000  0.69720000  1.0 -0.5322800359
N  N9  1  0.57193000  0.93886000  0.19720000  1.0 -0.5322800359
N  N10  1  0.06114000  0.63307000  0.19720000  1.0 -0.5322800359
N  N11  1  0.93886000  0.36693000  0.69720000  1.0 -0.5322800359
N  N12  1  0.42807000  0.06114000  0.69720000  1.0 -0.5322800359
N  N13  1  0.45563000  0.32038000  0.89410000  1.0 -0.4088281175
N  N14  1  0.54437000  0.67962000  0.39410000  1.0 -0.4088281175
N  N15  1  0.67962000  0.13525000  0.89410000  1.0 -0.4088281175
N  N16  1  0.86475000  0.54437000  0.89410000  1.0 -0.4088281175
N  N17  1  0.13525000  0.45563000  0.39410000  1.0 -0.4088281175
N  N18  1  0.32038000  0.86475000  0.39410000  1.0 -0.4088281175
N  N19  1  0.36820000  0.49931000  0.80910000  1.0 -0.4199868521
N  N20  1  0.63180000  0.50069000  0.30910000  1.0 -0.4199868521
N  N21  1  0.50069000  0.86889000  0.80910000  1.0 -0.4199868521
N  N22  1  0.13111000  0.63180000  0.80910000  1.0 -0.4199868521
N  N23  1  0.86889000  0.36820000  0.30910000  1.0 -0.4199868521
N  N24  1  0.49931000  0.13111000  0.30910000  1.0 -0.4199868521
O  O1  1  0.22856000  0.18034000  0.09360000  1.0 -0.5071659665
O  O2  1  0.77144000  0.81966000  0.59360000  1.0 -0.5071659665
O  O3  1  0.81966000  0.04822000  0.09360000  1.0 -0.5071659665
O  O4  1  0.95178000  0.77144000  0.09360000  1.0 -0.5071659665
O  O5  1  0.04822000  0.22856000  0.59360000  1.0 -0.5071659665
O  O6  1  0.18034000  0.95178000  0.59360000  1.0 -0.5071659665
O  O7  1  0.24225000  0.05669000  0.25590000  1.0 -0.5229416272
O  O8  1  0.75775000  0.94331000  0.75590000  1.0 -0.5229416272
O  O9  1  0.94331000  0.18556000  0.25590000  1.0 -0.5229416272
O  O10  1  0.81444000  0.75775000  0.25590000  1.0 -0.5229416272
O  O11  1  0.18556000  0.24225000  0.75590000  1.0 -0.5229416272
O  O12  1  0.05669000  0.81444000  0.75590000  1.0 -0.5229416272
