# DDEC6 charges by PACMAN v1.1 (https://github.com/mtap-research/PACMAN-charge/)
data_UJOJIO02_FSR_pacman
_symmetry_space_group_name_H-M   'P 1'
_cell_length_a   13.51140000
_cell_length_b   13.51140000
_cell_length_c   8.05890000
_cell_angle_alpha   90.00000000
_cell_angle_beta   90.00000000
_cell_angle_gamma   120.00000000
_symmetry_Int_Tables_number   1
_chemical_formula_structural   Mn4H21C15(N2O)6
_chemical_formula_sum   'Mn8 H42 C30 N24 O12'
_cell_volume   1274.11051858
_cell_formula_units_Z   2
loop_
 _symmetry_equiv_pos_site_id
 _symmetry_equiv_pos_as_xyz
  1  'x, y, z'
loop_
 _atom_site_type_symbol
 _atom_site_label
 _atom_site_symmetry_multiplicity
 _atom_site_fract_x
 _atom_site_fract_y
 _atom_site_fract_z
 _atom_site_occupancy
 _atom_site_charge
Mn  Mn1  1  0.33333333  0.66666667  0.92125000  1.0 0.1019724373
Mn  Mn2  1  0.66666667  0.33333333  0.42125000  1.0 0.1019724373
Mn  Mn3  1  0.30247000  0.33808000  0.54568000  1.0 0.8542696574
Mn  Mn4  1  0.69753000  0.66192000  0.04568000  1.0 0.8542696574
Mn  Mn5  1  0.66192000  0.96439000  0.54568000  1.0 0.8542696574
Mn  Mn6  1  0.03561000  0.69753000  0.54568000  1.0 0.8542696574
Mn  Mn7  1  0.96439000  0.30247000  0.04568000  1.0 0.8542696574
Mn  Mn8  1  0.33808000  0.03561000  0.04568000  1.0 0.8542696574
H  H1  1  0.41120000  0.25590000  0.94480000  1.0 0.2999250803
H  H2  1  0.58880000  0.74410000  0.44480000  1.0 0.2999250803
H  H3  1  0.74410000  0.15530000  0.94480000  1.0 0.2999250803
H  H4  1  0.84470000  0.58880000  0.94480000  1.0 0.2999250803
H  H5  1  0.15530000  0.41120000  0.44480000  1.0 0.2999250803
H  H6  1  0.25590000  0.84470000  0.44480000  1.0 0.2999250803
H  H7  1  0.28640000  0.19770000  0.93910000  1.0 0.2999250803
H  H8  1  0.71360000  0.80230000  0.43910000  1.0 0.2999250803
H  H9  1  0.80230000  0.08870000  0.93910000  1.0 0.2999250803
H  H10  1  0.91130000  0.71360000  0.93910000  1.0 0.2999250803
H  H11  1  0.08870000  0.28640000  0.43910000  1.0 0.2999250803
H  H12  1  0.19770000  0.91130000  0.43910000  1.0 0.2999250803
H  H13  1  0.42270000  0.28650000  0.20860000  1.0 0.1100827593
H  H14  1  0.57730000  0.71350000  0.70860000  1.0 0.1100827593
H  H15  1  0.71350000  0.13620000  0.20860000  1.0 0.1100827593
H  H16  1  0.86380000  0.57730000  0.20860000  1.0 0.1100827593
H  H17  1  0.13620000  0.42270000  0.70860000  1.0 0.1100827593
H  H18  1  0.28650000  0.86380000  0.70860000  1.0 0.1100827593
H  H19  1  0.34990000  0.48410000  0.29470000  1.0 0.2879404762
H  H20  1  0.65010000  0.51590000  0.79470000  1.0 0.2879404762
H  H21  1  0.51590000  0.86580000  0.29470000  1.0 0.2879404762
H  H22  1  0.13420000  0.65010000  0.29470000  1.0 0.2879404762
H  H23  1  0.86580000  0.34990000  0.79470000  1.0 0.2879404762
H  H24  1  0.48410000  0.13420000  0.79470000  1.0 0.2879404762
H  H25  1  0.44370000  0.46060000  0.30040000  1.0 0.2879404762
H  H26  1  0.55630000  0.53940000  0.80040000  1.0 0.2879404762
H  H27  1  0.53940000  0.98310000  0.30040000  1.0 0.2879404762
H  H28  1  0.01690000  0.55630000  0.30040000  1.0 0.2879404762
H  H29  1  0.98310000  0.44370000  0.80040000  1.0 0.2879404762
H  H30  1  0.46060000  0.01690000  0.80040000  1.0 0.2879404762
H  H31  1  0.35280000  0.39660000  0.05500000  1.0 0.1100827593
H  H32  1  0.64720000  0.60340000  0.55500000  1.0 0.1100827593
H  H33  1  0.60340000  0.95620000  0.05500000  1.0 0.1100827593
H  H34  1  0.04380000  0.64720000  0.05500000  1.0 0.1100827593
H  H35  1  0.95620000  0.35280000  0.55500000  1.0 0.1100827593
H  H36  1  0.39660000  0.04380000  0.55500000  1.0 0.1100827593
H  H37  1  0.23760000  0.32150000  0.15060000  1.0 0.1215173591
H  H38  1  0.76240000  0.67850000  0.65060000  1.0 0.1215173591
H  H39  1  0.67850000  0.91610000  0.15060000  1.0 0.1215173591
H  H40  1  0.08390000  0.76240000  0.15060000  1.0 0.1215173591
H  H41  1  0.91610000  0.23760000  0.65060000  1.0 0.1215173591
H  H42  1  0.32150000  0.08390000  0.65060000  1.0 0.1215173591
C  C1  1  0.53511000  0.32253000  0.54880000  1.0 0.0183745084
C  C2  1  0.46489000  0.67747000  0.04880000  1.0 0.0183745084
C  C3  1  0.67747000  0.21258000  0.54880000  1.0 0.0183745084
C  C4  1  0.78742000  0.46489000  0.54880000  1.0 0.0183745084
C  C5  1  0.21258000  0.53511000  0.04880000  1.0 0.0183745084
C  C6  1  0.32253000  0.78742000  0.04880000  1.0 0.0183745084
C  C7  1  0.35407000  0.55993000  0.77650000  1.0 0.0423498727
C  C8  1  0.64593000  0.44007000  0.27650000  1.0 0.0423498727
C  C9  1  0.44007000  0.79414000  0.77650000  1.0 0.0423498727
C  C10  1  0.20586000  0.64593000  0.77650000  1.0 0.0423498727
C  C11  1  0.79414000  0.35407000  0.27650000  1.0 0.0423498727
C  C12  1  0.55993000  0.20586000  0.27650000  1.0 0.0423498727
C  C13  1  0.26635000  0.15693000  0.27990000  1.0 0.5675156851
C  C14  1  0.73365000  0.84307000  0.77990000  1.0 0.5675156851
C  C15  1  0.84307000  0.10942000  0.27990000  1.0 0.5675156851
C  C16  1  0.89058000  0.73365000  0.27990000  1.0 0.5675156851
C  C17  1  0.10942000  0.26635000  0.77990000  1.0 0.5675156851
C  C18  1  0.15693000  0.89058000  0.77990000  1.0 0.5675156851
C  C19  1  0.34533000  0.25423000  0.16350000  1.0 -0.0178956208
C  C20  1  0.65467000  0.74577000  0.66350000  1.0 -0.0178956208
C  C21  1  0.74577000  0.09110000  0.16350000  1.0 -0.0178956208
C  C22  1  0.90890000  0.65467000  0.16350000  1.0 -0.0178956208
C  C23  1  0.09110000  0.34533000  0.66350000  1.0 -0.0178956208
C  C24  1  0.25423000  0.90890000  0.66350000  1.0 -0.0178956208
C  C25  1  0.31960000  0.35242000  0.15510000  1.0 -0.0623285595
C  C26  1  0.68040000  0.64758000  0.65510000  1.0 -0.0623285595
C  C27  1  0.64758000  0.96718000  0.15510000  1.0 -0.0623285595
C  C28  1  0.03282000  0.68040000  0.15510000  1.0 -0.0623285595
C  C29  1  0.96718000  0.31960000  0.65510000  1.0 -0.0623285595
C  C30  1  0.35242000  0.03282000  0.65510000  1.0 -0.0623285595
N  N1  1  0.34674000  0.20787000  0.99970000  1.0 -0.555858032
N  N2  1  0.65326000  0.79213000  0.49970000  1.0 -0.555858032
N  N3  1  0.79213000  0.13887000  0.99970000  1.0 -0.555858032
N  N4  1  0.86113000  0.65326000  0.99970000  1.0 -0.555858032
N  N5  1  0.13887000  0.34674000  0.49970000  1.0 -0.555858032
N  N6  1  0.20787000  0.86113000  0.49970000  1.0 -0.555858032
N  N7  1  0.36706000  0.42788000  0.30220000  1.0 -0.5338401418
N  N8  1  0.63294000  0.57212000  0.80220000  1.0 -0.5338401418
N  N9  1  0.57212000  0.93918000  0.30220000  1.0 -0.5338401418
N  N10  1  0.06082000  0.63294000  0.30220000  1.0 -0.535038219
N  N11  1  0.93918000  0.36706000  0.80220000  1.0 -0.5338401418
N  N12  1  0.42788000  0.06082000  0.80220000  1.0 -0.5338401418
N  N13  1  0.45571000  0.32051000  0.60580000  1.0 -0.4108739754
N  N14  1  0.54429000  0.67949000  0.10580000  1.0 -0.4108739754
N  N15  1  0.67949000  0.13520000  0.60580000  1.0 -0.4108739754
N  N16  1  0.86480000  0.54429000  0.60580000  1.0 -0.4108739754
N  N17  1  0.13520000  0.45571000  0.10580000  1.0 -0.4108739754
N  N18  1  0.32051000  0.86480000  0.10580000  1.0 -0.4108739754
N  N19  1  0.36818000  0.49968000  0.69040000  1.0 -0.4222850661
N  N20  1  0.63182000  0.50032000  0.19040000  1.0 -0.4222850661
N  N21  1  0.50032000  0.86850000  0.69040000  1.0 -0.4222850661
N  N22  1  0.13150000  0.63182000  0.69040000  1.0 -0.4222850661
N  N23  1  0.86850000  0.36818000  0.19040000  1.0 -0.4222850661
N  N24  1  0.49968000  0.13150000  0.19040000  1.0 -0.4222850661
O  O1  1  0.22890000  0.18047000  0.40650000  1.0 -0.5079634349
O  O2  1  0.77110000  0.81953000  0.90650000  1.0 -0.5079634349
O  O3  1  0.81953000  0.04843000  0.40650000  1.0 -0.5079634349
O  O4  1  0.95157000  0.77110000  0.40650000  1.0 -0.5079634349
O  O5  1  0.04843000  0.22890000  0.90650000  1.0 -0.5079634349
O  O6  1  0.18047000  0.95157000  0.90650000  1.0 -0.5079634349
O  O7  1  0.24345000  0.05717000  0.24514000  1.0 -0.5226700168
O  O8  1  0.75655000  0.94283000  0.74514000  1.0 -0.5226700168
O  O9  1  0.94283000  0.18628000  0.24514000  1.0 -0.5226700168
O  O10  1  0.81372000  0.75655000  0.24514000  1.0 -0.5226700168
O  O11  1  0.18628000  0.24345000  0.74514000  1.0 -0.5226700168
O  O12  1  0.05717000  0.81372000  0.74514000  1.0 -0.5226700168
