# DDEC6 charges by PACMAN v1.1 (https://github.com/mtap-research/PACMAN-charge/)
data_UJOJEK_FSR_pacman
_symmetry_space_group_name_H-M   'P 1'
_cell_length_a   13.51050000
_cell_length_b   13.51050000
_cell_length_c   8.04630000
_cell_angle_alpha   90.00000000
_cell_angle_beta   90.00000000
_cell_angle_gamma   120.00000000
_symmetry_Int_Tables_number   1
_chemical_formula_structural   Mn4H21C15(N2O)6
_chemical_formula_sum   'Mn8 H42 C30 N24 O12'
_cell_volume   1271.94899399
_cell_formula_units_Z   2
loop_
 _symmetry_equiv_pos_site_id
 _symmetry_equiv_pos_as_xyz
  1  'x, y, z'
loop_
 _atom_site_type_symbol
 _atom_site_label
 _atom_site_symmetry_multiplicity
 _atom_site_fract_x
 _atom_site_fract_y
 _atom_site_fract_z
 _atom_site_occupancy
 _atom_site_charge
Mn  Mn1  1  0.33333333  0.66666667  0.57877000  1.0 0.1029450419
Mn  Mn2  1  0.66666667  0.33333333  0.07877000  1.0 0.1095494853
Mn  Mn3  1  0.30249000  0.33811000  0.95433000  1.0 0.8540329459
Mn  Mn4  1  0.69751000  0.66189000  0.45433000  1.0 0.8540329459
Mn  Mn5  1  0.66189000  0.96438000  0.95433000  1.0 0.8540329459
Mn  Mn6  1  0.03562000  0.69751000  0.95433000  1.0 0.8540329459
Mn  Mn7  1  0.96438000  0.30249000  0.45433000  1.0 0.8540329459
Mn  Mn8  1  0.33811000  0.03562000  0.45433000  1.0 0.8540329459
H  H1  1  0.28610000  0.19780000  0.56060000  1.0 0.3003422044
H  H2  1  0.71390000  0.80220000  0.06060000  1.0 0.3003422044
H  H3  1  0.80220000  0.08830000  0.56060000  1.0 0.3003422044
H  H4  1  0.91170000  0.71390000  0.56060000  1.0 0.3003422044
H  H5  1  0.08830000  0.28610000  0.06060000  1.0 0.3003422044
H  H6  1  0.19780000  0.91170000  0.06060000  1.0 0.3003422044
H  H7  1  0.41100000  0.25600000  0.55540000  1.0 0.3003422044
H  H8  1  0.58900000  0.74400000  0.05540000  1.0 0.3003422044
H  H9  1  0.74400000  0.15500000  0.55540000  1.0 0.3003422044
H  H10  1  0.84500000  0.58900000  0.55540000  1.0 0.3003422044
H  H11  1  0.15500000  0.41100000  0.05540000  1.0 0.3003422044
H  H12  1  0.25600000  0.84500000  0.05540000  1.0 0.3003422044
H  H13  1  0.42300000  0.28640000  0.29120000  1.0 0.1095494853
H  H14  1  0.57700000  0.71360000  0.79120000  1.0 0.1095494853
H  H15  1  0.71360000  0.13660000  0.29120000  1.0 0.1095494853
H  H16  1  0.86340000  0.57700000  0.29120000  1.0 0.1095494853
H  H17  1  0.13660000  0.42300000  0.79120000  1.0 0.1095494853
H  H18  1  0.28640000  0.86340000  0.79120000  1.0 0.1095494853
H  H19  1  0.44350000  0.46040000  0.19980000  1.0 0.2876477065
H  H20  1  0.55650000  0.53960000  0.69980000  1.0 0.2876477065
H  H21  1  0.53960000  0.98310000  0.19980000  1.0 0.2876477065
H  H22  1  0.01690000  0.55650000  0.19980000  1.0 0.2876477065
H  H23  1  0.98310000  0.44350000  0.69980000  1.0 0.2876477065
H  H24  1  0.46040000  0.01690000  0.69980000  1.0 0.2876477065
H  H25  1  0.34960000  0.48370000  0.20560000  1.0 0.2876477065
H  H26  1  0.65040000  0.51630000  0.70560000  1.0 0.2876477065
H  H27  1  0.51630000  0.86590000  0.20560000  1.0 0.2876477065
H  H28  1  0.13410000  0.65040000  0.20560000  1.0 0.2876477065
H  H29  1  0.86590000  0.34960000  0.70560000  1.0 0.2876477065
H  H30  1  0.48370000  0.13410000  0.70560000  1.0 0.2876477065
H  H31  1  0.23770000  0.32150000  0.34920000  1.0 0.1202930483
H  H32  1  0.76230000  0.67850000  0.84920000  1.0 0.1202930483
H  H33  1  0.67850000  0.91620000  0.34920000  1.0 0.1202930483
H  H34  1  0.08380000  0.76230000  0.34920000  1.0 0.1202930483
H  H35  1  0.91620000  0.23770000  0.84920000  1.0 0.1202930483
H  H36  1  0.32150000  0.08380000  0.84920000  1.0 0.1202930483
H  H37  1  0.35290000  0.39660000  0.44490000  1.0 0.1095494853
H  H38  1  0.64710000  0.60340000  0.94490000  1.0 0.1095494853
H  H39  1  0.60340000  0.95630000  0.44490000  1.0 0.1095494853
H  H40  1  0.04370000  0.64710000  0.44490000  1.0 0.1095494853
H  H41  1  0.95630000  0.35290000  0.94490000  1.0 0.1095494853
H  H42  1  0.39660000  0.04370000  0.94490000  1.0 0.1095494853
C  C1  1  0.53506000  0.32246000  0.95120000  1.0 0.0135917596
C  C2  1  0.46494000  0.67754000  0.45120000  1.0 0.0135917596
C  C3  1  0.67754000  0.21260000  0.95120000  1.0 0.0135917596
C  C4  1  0.78740000  0.46494000  0.95120000  1.0 0.0135917596
C  C5  1  0.21260000  0.53506000  0.45120000  1.0 0.0135917596
C  C6  1  0.32246000  0.78740000  0.45120000  1.0 0.0135917596
C  C7  1  0.35410000  0.55990000  0.72370000  1.0 0.0381170236
C  C8  1  0.64590000  0.44010000  0.22370000  1.0 0.0381170236
C  C9  1  0.44010000  0.79420000  0.72370000  1.0 0.0381170236
C  C10  1  0.20580000  0.64590000  0.72370000  1.0 0.0381170236
C  C11  1  0.79420000  0.35410000  0.22370000  1.0 0.0381170236
C  C12  1  0.55990000  0.20580000  0.22370000  1.0 0.0381170236
C  C13  1  0.26690000  0.15740000  0.21990000  1.0 0.5664245012
C  C14  1  0.73310000  0.84260000  0.71990000  1.0 0.5664245012
C  C15  1  0.84260000  0.10950000  0.21990000  1.0 0.5664245012
C  C16  1  0.89050000  0.73310000  0.21990000  1.0 0.5664245012
C  C17  1  0.10950000  0.26690000  0.71990000  1.0 0.5664245012
C  C18  1  0.15740000  0.89050000  0.71990000  1.0 0.5664245012
C  C19  1  0.34550000  0.25420000  0.33610000  1.0 -0.0207547703
C  C20  1  0.65450000  0.74580000  0.83610000  1.0 -0.0207547703
C  C21  1  0.74580000  0.09130000  0.33610000  1.0 -0.0207547703
C  C22  1  0.90870000  0.65450000  0.33610000  1.0 -0.0207547703
C  C23  1  0.09130000  0.34550000  0.83610000  1.0 -0.0207547703
C  C24  1  0.25420000  0.90870000  0.83610000  1.0 -0.0207547703
C  C25  1  0.31970000  0.35240000  0.34450000  1.0 -0.0563163512
C  C26  1  0.68030000  0.64760000  0.84450000  1.0 -0.0563163512
C  C27  1  0.64760000  0.96730000  0.34450000  1.0 -0.0563163512
C  C28  1  0.03270000  0.68030000  0.34450000  1.0 -0.0563163512
C  C29  1  0.96730000  0.31970000  0.84450000  1.0 -0.0563163512
C  C30  1  0.35240000  0.03270000  0.84450000  1.0 -0.0563163512
N  N1  1  0.34660000  0.20800000  0.50020000  1.0 -0.5554809846
N  N2  1  0.65340000  0.79200000  0.00020000  1.0 -0.5554809846
N  N3  1  0.79200000  0.13860000  0.50020000  1.0 -0.5554809846
N  N4  1  0.86140000  0.65340000  0.50020000  1.0 -0.5554809846
N  N5  1  0.13860000  0.34660000  0.00020000  1.0 -0.5554809846
N  N6  1  0.20800000  0.86140000  0.00020000  1.0 -0.5554809846
N  N7  1  0.36680000  0.42757000  0.19800000  1.0 -0.5341107624
N  N8  1  0.63320000  0.57243000  0.69800000  1.0 -0.5341107624
N  N9  1  0.57243000  0.93923000  0.19800000  1.0 -0.5341107624
N  N10  1  0.06077000  0.63320000  0.19800000  1.0 -0.5341107624
N  N11  1  0.93923000  0.36680000  0.69800000  1.0 -0.5341107624
N  N12  1  0.42757000  0.06077000  0.69800000  1.0 -0.5341107624
N  N13  1  0.45590000  0.32080000  0.89390000  1.0 -0.4092719036
N  N14  1  0.54410000  0.67920000  0.39390000  1.0 -0.4092719036
N  N15  1  0.67920000  0.13510000  0.89390000  1.0 -0.4092719036
N  N16  1  0.86490000  0.54410000  0.89390000  1.0 -0.4092719036
N  N17  1  0.13510000  0.45590000  0.39390000  1.0 -0.4092719036
N  N18  1  0.32080000  0.86490000  0.39390000  1.0 -0.4092719036
N  N19  1  0.36840000  0.50000000  0.81000000  1.0 -0.4188078818
N  N20  1  0.63160000  0.50000000  0.31000000  1.0 -0.4188078818
N  N21  1  0.50000000  0.86840000  0.81000000  1.0 -0.4188078818
N  N22  1  0.13160000  0.63160000  0.81000000  1.0 -0.4188078818
N  N23  1  0.86840000  0.36840000  0.31000000  1.0 -0.4188078818
N  N24  1  0.50000000  0.13160000  0.31000000  1.0 -0.4188078818
O  O1  1  0.22935000  0.18085000  0.09350000  1.0 -0.5035189467
O  O2  1  0.77065000  0.81915000  0.59350000  1.0 -0.5035189467
O  O3  1  0.81915000  0.04850000  0.09350000  1.0 -0.5035189467
O  O4  1  0.95150000  0.77065000  0.09350000  1.0 -0.5035189467
O  O5  1  0.04850000  0.22935000  0.59350000  1.0 -0.5035189467
O  O6  1  0.18085000  0.95150000  0.59350000  1.0 -0.5035189467
O  O7  1  0.24407000  0.05720000  0.25410000  1.0 -0.5246922252
O  O8  1  0.75593000  0.94280000  0.75410000  1.0 -0.5246922252
O  O9  1  0.94280000  0.18687000  0.25410000  1.0 -0.5246922252
O  O10  1  0.81313000  0.75593000  0.25410000  1.0 -0.5246922252
O  O11  1  0.18687000  0.24407000  0.75410000  1.0 -0.5246922252
O  O12  1  0.05720000  0.81313000  0.75410000  1.0 -0.5246922252
