# DDEC6 charges by PACMAN v1.1 (https://github.com/mtap-research/PACMAN-charge/)
data_UJOJAG_FSR_pacman
_symmetry_space_group_name_H-M   'P 1'
_cell_length_a   13.47500000
_cell_length_b   13.47500000
_cell_length_c   8.02910000
_cell_angle_alpha   90.00000000
_cell_angle_beta   90.00000000
_cell_angle_gamma   120.00000000
_symmetry_Int_Tables_number   1
_chemical_formula_structural   Mn4H21C15(N2O)6
_chemical_formula_sum   'Mn8 H42 C30 N24 O12'
_cell_volume   1262.56878059
_cell_formula_units_Z   2
loop_
 _symmetry_equiv_pos_site_id
 _symmetry_equiv_pos_as_xyz
  1  'x, y, z'
loop_
 _atom_site_type_symbol
 _atom_site_label
 _atom_site_symmetry_multiplicity
 _atom_site_fract_x
 _atom_site_fract_y
 _atom_site_fract_z
 _atom_site_occupancy
 _atom_site_charge
Mn  Mn1  1  0.33333333  0.66666667  0.57900000  1.0 0.1030061028
Mn  Mn2  1  0.66666667  0.33333333  0.07900000  1.0 0.1030061028
Mn  Mn3  1  0.30265000  0.33739000  0.95416000  1.0 0.8520629599
Mn  Mn4  1  0.69735000  0.66261000  0.45416000  1.0 0.8520629599
Mn  Mn5  1  0.66261000  0.96526000  0.95416000  1.0 0.8520629599
Mn  Mn6  1  0.03474000  0.69735000  0.95416000  1.0 0.8520629599
Mn  Mn7  1  0.96526000  0.30265000  0.45416000  1.0 0.8520629599
Mn  Mn8  1  0.33739000  0.03474000  0.45416000  1.0 0.8520629599
H  H1  1  0.28610000  0.19770000  0.56290000  1.0 0.3054640784
H  H2  1  0.71390000  0.80230000  0.06290000  1.0 0.3054640784
H  H3  1  0.80230000  0.08840000  0.56290000  1.0 0.3054640784
H  H4  1  0.91160000  0.71390000  0.56290000  1.0 0.3054640784
H  H5  1  0.08840000  0.28610000  0.06290000  1.0 0.3054640784
H  H6  1  0.19770000  0.91160000  0.06290000  1.0 0.3054640784
H  H7  1  0.41130000  0.25610000  0.55570000  1.0 0.2970465019
H  H8  1  0.58870000  0.74390000  0.05570000  1.0 0.2970465019
H  H9  1  0.74390000  0.15520000  0.55570000  1.0 0.2970465019
H  H10  1  0.84480000  0.58870000  0.55570000  1.0 0.2970465019
H  H11  1  0.15520000  0.41130000  0.05570000  1.0 0.2970465019
H  H12  1  0.25610000  0.84480000  0.05570000  1.0 0.2970465019
H  H13  1  0.42110000  0.28500000  0.28980000  1.0 0.1091781029
H  H14  1  0.57890000  0.71500000  0.78980000  1.0 0.1091781029
H  H15  1  0.71500000  0.13610000  0.28980000  1.0 0.1091781029
H  H16  1  0.86390000  0.57890000  0.28980000  1.0 0.1091781029
H  H17  1  0.13610000  0.42110000  0.78980000  1.0 0.1091781029
H  H18  1  0.28500000  0.86390000  0.78980000  1.0 0.1091781029
H  H19  1  0.44370000  0.46070000  0.20040000  1.0 0.2875464751
H  H20  1  0.55630000  0.53930000  0.70040000  1.0 0.2875464751
H  H21  1  0.53930000  0.98300000  0.20040000  1.0 0.2875464751
H  H22  1  0.01700000  0.55630000  0.20040000  1.0 0.2875464751
H  H23  1  0.98300000  0.44370000  0.70040000  1.0 0.2875464751
H  H24  1  0.46070000  0.01700000  0.70040000  1.0 0.2875464751
H  H25  1  0.34950000  0.48410000  0.20530000  1.0 0.2875464751
H  H26  1  0.65050000  0.51590000  0.70530000  1.0 0.2875464751
H  H27  1  0.51590000  0.86540000  0.20530000  1.0 0.2875464751
H  H28  1  0.13460000  0.65050000  0.20530000  1.0 0.2875464751
H  H29  1  0.86540000  0.34950000  0.70530000  1.0 0.2875464751
H  H30  1  0.48410000  0.13460000  0.70530000  1.0 0.2875464751
H  H31  1  0.23680000  0.32190000  0.34990000  1.0 0.1205222104
H  H32  1  0.76320000  0.67810000  0.84990000  1.0 0.1205222104
H  H33  1  0.67810000  0.91490000  0.34990000  1.0 0.1205222104
H  H34  1  0.08510000  0.76320000  0.34990000  1.0 0.1205222104
H  H35  1  0.91490000  0.23680000  0.84990000  1.0 0.1205222104
H  H36  1  0.32190000  0.08510000  0.84990000  1.0 0.1205222104
H  H37  1  0.35250000  0.39650000  0.44590000  1.0 0.1091781029
H  H38  1  0.64750000  0.60350000  0.94590000  1.0 0.1091781029
H  H39  1  0.60350000  0.95600000  0.44590000  1.0 0.1091781029
H  H40  1  0.04400000  0.64750000  0.44590000  1.0 0.1091781029
H  H41  1  0.95600000  0.35250000  0.94590000  1.0 0.1091781029
H  H42  1  0.39650000  0.04400000  0.94590000  1.0 0.1091781029
C  C1  1  0.53497000  0.32188000  0.94990000  1.0 0.0141788057
C  C2  1  0.46503000  0.67812000  0.44990000  1.0 0.0141788057
C  C3  1  0.67812000  0.21309000  0.94990000  1.0 0.0141788057
C  C4  1  0.78691000  0.46503000  0.94990000  1.0 0.0141788057
C  C5  1  0.21309000  0.53497000  0.44990000  1.0 0.0141788057
C  C6  1  0.32188000  0.78691000  0.44990000  1.0 0.0141788057
C  C7  1  0.35407000  0.55960000  0.72430000  1.0 0.0400951548
C  C8  1  0.64593000  0.44040000  0.22430000  1.0 0.0400951548
C  C9  1  0.44040000  0.79447000  0.72430000  1.0 0.0400951548
C  C10  1  0.20553000  0.64593000  0.72430000  1.0 0.0400951548
C  C11  1  0.79447000  0.35407000  0.22430000  1.0 0.0400951548
C  C12  1  0.55960000  0.20553000  0.22430000  1.0 0.0400951548
C  C13  1  0.26342000  0.15580000  0.22150000  1.0 0.5653431608
C  C14  1  0.73658000  0.84420000  0.72150000  1.0 0.5653431608
C  C15  1  0.84420000  0.10762000  0.22150000  1.0 0.5653431608
C  C16  1  0.89238000  0.73658000  0.22150000  1.0 0.5653431608
C  C17  1  0.10762000  0.26342000  0.72150000  1.0 0.5653431608
C  C18  1  0.15580000  0.89238000  0.72150000  1.0 0.5653431608
C  C19  1  0.34394000  0.25337000  0.33640000  1.0 -0.0163017311
C  C20  1  0.65606000  0.74663000  0.83640000  1.0 -0.0163017311
C  C21  1  0.74663000  0.09057000  0.33640000  1.0 -0.0163017311
C  C22  1  0.90943000  0.65606000  0.33640000  1.0 -0.0163017311
C  C23  1  0.09057000  0.34394000  0.83640000  1.0 -0.0163017311
C  C24  1  0.25337000  0.90943000  0.83640000  1.0 -0.0163017311
C  C25  1  0.31899000  0.35239000  0.34530000  1.0 -0.05737435
C  C26  1  0.68101000  0.64761000  0.84530000  1.0 -0.05737435
C  C27  1  0.64761000  0.96660000  0.34530000  1.0 -0.05737435
C  C28  1  0.03340000  0.68101000  0.34530000  1.0 -0.05737435
C  C29  1  0.96660000  0.31899000  0.84530000  1.0 -0.05737435
C  C30  1  0.35239000  0.03340000  0.84530000  1.0 -0.05737435
N  N1  1  0.34632000  0.20777000  0.50150000  1.0 -0.5554327176
N  N2  1  0.65368000  0.79223000  0.00150000  1.0 -0.5554327176
N  N3  1  0.79223000  0.13855000  0.50150000  1.0 -0.5543600724
N  N4  1  0.86145000  0.65368000  0.50150000  1.0 -0.5554327176
N  N5  1  0.13855000  0.34632000  0.00150000  1.0 -0.5554327176
N  N6  1  0.20777000  0.86145000  0.00150000  1.0 -0.5554327176
N  N7  1  0.36683000  0.42781000  0.19820000  1.0 -0.5343921786
N  N8  1  0.63317000  0.57219000  0.69820000  1.0 -0.5343921786
N  N9  1  0.57219000  0.93902000  0.19820000  1.0 -0.5343921786
N  N10  1  0.06098000  0.63317000  0.19820000  1.0 -0.5343921786
N  N11  1  0.93902000  0.36683000  0.69820000  1.0 -0.5343921786
N  N12  1  0.42781000  0.06098000  0.69820000  1.0 -0.5343921786
N  N13  1  0.45553000  0.31973000  0.89260000  1.0 -0.4122012065
N  N14  1  0.54447000  0.68027000  0.39260000  1.0 -0.4122012065
N  N15  1  0.68027000  0.13580000  0.89260000  1.0 -0.4122012065
N  N16  1  0.86420000  0.54447000  0.89260000  1.0 -0.4122012065
N  N17  1  0.13580000  0.45553000  0.39260000  1.0 -0.4122012065
N  N18  1  0.31973000  0.86420000  0.39260000  1.0 -0.4122012065
N  N19  1  0.36777000  0.49852000  0.80870000  1.0 -0.4233011211
N  N20  1  0.63223000  0.50148000  0.30870000  1.0 -0.4233011211
N  N21  1  0.50148000  0.86925000  0.80870000  1.0 -0.4233011211
N  N22  1  0.13075000  0.63223000  0.80870000  1.0 -0.4233011211
N  N23  1  0.86925000  0.36777000  0.30870000  1.0 -0.4233011211
N  N24  1  0.49852000  0.13075000  0.30870000  1.0 -0.4233011211
O  O1  1  0.22656000  0.17902000  0.09350000  1.0 -0.501818285
O  O2  1  0.77344000  0.82098000  0.59350000  1.0 -0.501818285
O  O3  1  0.82098000  0.04754000  0.09350000  1.0 -0.501818285
O  O4  1  0.95246000  0.77344000  0.09350000  1.0 -0.501818285
O  O5  1  0.04754000  0.22656000  0.59350000  1.0 -0.501818285
O  O6  1  0.17902000  0.95246000  0.59350000  1.0 -0.501818285
O  O7  1  0.23911000  0.05498000  0.25740000  1.0 -0.52185458
O  O8  1  0.76089000  0.94502000  0.75740000  1.0 -0.52185458
O  O9  1  0.94502000  0.18413000  0.25740000  1.0 -0.52185458
O  O10  1  0.81587000  0.76089000  0.25740000  1.0 -0.52185458
O  O11  1  0.18413000  0.23911000  0.75740000  1.0 -0.52185458
O  O12  1  0.05498000  0.81587000  0.75740000  1.0 -0.52185458
