# DDEC6 charges by PACMAN v1.1 (https://github.com/mtap-research/PACMAN-charge/)
data_UJOJIO06_ASR_pacman
_symmetry_space_group_name_H-M   'P 1'
_cell_length_a   13.52140000
_cell_length_b   13.52140000
_cell_length_c   8.06860000
_cell_angle_alpha   90.00000000
_cell_angle_beta   90.00000000
_cell_angle_gamma   120.00000000
_symmetry_Int_Tables_number   1
_chemical_formula_structural   Mn4H21C15(N2O)6
_chemical_formula_sum   'Mn8 H42 C30 N24 O12'
_cell_volume   1277.53303402
_cell_formula_units_Z   2
loop_
 _symmetry_equiv_pos_site_id
 _symmetry_equiv_pos_as_xyz
  1  'x, y, z'
loop_
 _atom_site_type_symbol
 _atom_site_label
 _atom_site_symmetry_multiplicity
 _atom_site_fract_x
 _atom_site_fract_y
 _atom_site_fract_z
 _atom_site_occupancy
 _atom_site_charge
Mn  Mn1  1  0.33333333  0.66666667  0.92189000  1.0 0.1120215327
Mn  Mn2  1  0.66666667  0.33333333  0.42189000  1.0 0.1120215327
Mn  Mn3  1  0.30139000  0.33802000  0.54531000  1.0 0.8550954346
Mn  Mn4  1  0.69861000  0.66198000  0.04531000  1.0 0.8550954346
Mn  Mn5  1  0.66198000  0.96337000  0.54531000  1.0 0.8550954346
Mn  Mn6  1  0.03663000  0.69861000  0.54531000  1.0 0.8550954346
Mn  Mn7  1  0.96337000  0.30139000  0.04531000  1.0 0.8550954346
Mn  Mn8  1  0.33802000  0.03663000  0.04531000  1.0 0.8550954346
H  H1  1  0.41120000  0.25670000  0.94590000  1.0 0.2961771671
H  H2  1  0.58880000  0.74330000  0.44590000  1.0 0.2961771671
H  H3  1  0.74330000  0.15450000  0.94590000  1.0 0.2961771671
H  H4  1  0.84550000  0.58880000  0.94590000  1.0 0.2961771671
H  H5  1  0.15450000  0.41120000  0.44590000  1.0 0.2961771671
H  H6  1  0.25670000  0.84550000  0.44590000  1.0 0.2961771671
H  H7  1  0.28650000  0.19870000  0.94040000  1.0 0.3051270132
H  H8  1  0.71350000  0.80130000  0.44040000  1.0 0.3051270132
H  H9  1  0.80130000  0.08780000  0.94040000  1.0 0.3051270132
H  H10  1  0.91220000  0.71350000  0.94040000  1.0 0.3051270132
H  H11  1  0.08780000  0.28650000  0.44040000  1.0 0.3051270132
H  H12  1  0.19870000  0.91220000  0.44040000  1.0 0.3051270132
H  H13  1  0.42310000  0.28720000  0.20840000  1.0 0.1120215327
H  H14  1  0.57690000  0.71280000  0.70840000  1.0 0.1120215327
H  H15  1  0.71280000  0.13590000  0.20840000  1.0 0.1120215327
H  H16  1  0.86410000  0.57690000  0.20840000  1.0 0.1120215327
H  H17  1  0.13590000  0.42310000  0.70840000  1.0 0.1120215327
H  H18  1  0.28720000  0.86410000  0.70840000  1.0 0.1120215327
H  H19  1  0.34820000  0.48340000  0.29560000  1.0 0.2863464986
H  H20  1  0.65180000  0.51660000  0.79560000  1.0 0.2863464986
H  H21  1  0.51660000  0.86480000  0.29560000  1.0 0.2863464986
H  H22  1  0.13520000  0.65180000  0.29560000  1.0 0.2863464986
H  H23  1  0.86480000  0.34820000  0.79560000  1.0 0.2863464986
H  H24  1  0.48340000  0.13520000  0.79560000  1.0 0.2863464986
H  H25  1  0.44250000  0.46080000  0.30200000  1.0 0.2863464986
H  H26  1  0.55750000  0.53920000  0.80200000  1.0 0.2863464986
H  H27  1  0.53920000  0.98170000  0.30200000  1.0 0.2863464986
H  H28  1  0.01830000  0.55750000  0.30200000  1.0 0.2863464986
H  H29  1  0.98170000  0.44250000  0.80200000  1.0 0.2863464986
H  H30  1  0.46080000  0.01830000  0.80200000  1.0 0.2863464986
H  H31  1  0.35270000  0.39700000  0.05700000  1.0 0.1120215327
H  H32  1  0.64730000  0.60300000  0.55700000  1.0 0.1120215327
H  H33  1  0.60300000  0.95570000  0.05700000  1.0 0.1120215327
H  H34  1  0.04430000  0.64730000  0.05700000  1.0 0.1120215327
H  H35  1  0.95570000  0.35270000  0.55700000  1.0 0.1120215327
H  H36  1  0.39700000  0.04430000  0.55700000  1.0 0.1120215327
H  H37  1  0.23750000  0.32130000  0.15170000  1.0 0.1215124611
H  H38  1  0.76250000  0.67870000  0.65170000  1.0 0.1215124611
H  H39  1  0.67870000  0.91620000  0.15170000  1.0 0.1215124611
H  H40  1  0.08380000  0.76250000  0.15170000  1.0 0.1215124611
H  H41  1  0.91620000  0.23750000  0.65170000  1.0 0.1215124611
H  H42  1  0.32130000  0.08380000  0.65170000  1.0 0.1215124611
C  C1  1  0.53482000  0.32273000  0.54860000  1.0 0.011778848
C  C2  1  0.46518000  0.67727000  0.04860000  1.0 0.011778848
C  C3  1  0.67727000  0.21209000  0.54860000  1.0 0.011778848
C  C4  1  0.78791000  0.46518000  0.54860000  1.0 0.011778848
C  C5  1  0.21209000  0.53482000  0.04860000  1.0 0.011778848
C  C6  1  0.32273000  0.78791000  0.04860000  1.0 0.011778848
C  C7  1  0.35370000  0.55990000  0.77660000  1.0 0.0357889158
C  C8  1  0.64630000  0.44010000  0.27660000  1.0 0.0357889158
C  C9  1  0.44010000  0.79380000  0.77660000  1.0 0.0357889158
C  C10  1  0.20620000  0.64630000  0.77660000  1.0 0.0357889158
C  C11  1  0.79380000  0.35370000  0.27660000  1.0 0.0357889158
C  C12  1  0.55990000  0.20620000  0.27660000  1.0 0.0357889158
C  C13  1  0.26770000  0.15790000  0.28030000  1.0 0.5678796256
C  C14  1  0.73230000  0.84210000  0.78030000  1.0 0.5678796256
C  C15  1  0.84210000  0.10980000  0.28030000  1.0 0.5678796256
C  C16  1  0.89020000  0.73230000  0.28030000  1.0 0.5678796256
C  C17  1  0.10980000  0.26770000  0.78030000  1.0 0.5678796256
C  C18  1  0.15790000  0.89020000  0.78030000  1.0 0.5678796256
C  C19  1  0.34560000  0.25470000  0.16390000  1.0 -0.0193366955
C  C20  1  0.65440000  0.74530000  0.66390000  1.0 -0.0193366955
C  C21  1  0.74530000  0.09090000  0.16390000  1.0 -0.0193366955
C  C22  1  0.90910000  0.65440000  0.16390000  1.0 -0.0193366955
C  C23  1  0.09090000  0.34560000  0.66390000  1.0 -0.0193366955
C  C24  1  0.25470000  0.90910000  0.66390000  1.0 -0.0193366955
C  C25  1  0.31950000  0.35250000  0.15670000  1.0 -0.0581712986
C  C26  1  0.68050000  0.64750000  0.65670000  1.0 -0.0581712986
C  C27  1  0.64750000  0.96700000  0.15670000  1.0 -0.0581712986
C  C28  1  0.03300000  0.68050000  0.15670000  1.0 -0.0581712986
C  C29  1  0.96700000  0.31950000  0.65670000  1.0 -0.0581712986
C  C30  1  0.35250000  0.03300000  0.65670000  1.0 -0.0581712986
N  N1  1  0.34680000  0.20870000  0.00070000  1.0 -0.5537876899
N  N2  1  0.65320000  0.79130000  0.50070000  1.0 -0.5537876899
N  N3  1  0.79130000  0.13810000  0.00070000  1.0 -0.5537876899
N  N4  1  0.86190000  0.65320000  0.00070000  1.0 -0.5537876899
N  N5  1  0.13810000  0.34680000  0.50070000  1.0 -0.5537876899
N  N6  1  0.20870000  0.86190000  0.50070000  1.0 -0.5537876899
N  N7  1  0.36580000  0.42760000  0.30330000  1.0 -0.5301477875
N  N8  1  0.63420000  0.57240000  0.80330000  1.0 -0.5301477875
N  N9  1  0.57240000  0.93820000  0.30330000  1.0 -0.5301477875
N  N10  1  0.06180000  0.63420000  0.30330000  1.0 -0.5301477875
N  N11  1  0.93820000  0.36580000  0.80330000  1.0 -0.5301477875
N  N12  1  0.42760000  0.06180000  0.80330000  1.0 -0.5301477875
N  N13  1  0.45600000  0.32140000  0.60370000  1.0 -0.4070352232
N  N14  1  0.54400000  0.67860000  0.10370000  1.0 -0.4070352232
N  N15  1  0.67860000  0.13460000  0.60370000  1.0 -0.4070352232
N  N16  1  0.86540000  0.54400000  0.60370000  1.0 -0.4070352232
N  N17  1  0.13460000  0.45600000  0.10370000  1.0 -0.4070352232
N  N18  1  0.32140000  0.86540000  0.10370000  1.0 -0.4070352232
N  N19  1  0.36800000  0.50000000  0.69100000  1.0 -0.4199032402
N  N20  1  0.63200000  0.50000000  0.19100000  1.0 -0.4199032402
N  N21  1  0.50000000  0.86800000  0.69100000  1.0 -0.4199032402
N  N22  1  0.13200000  0.63200000  0.69100000  1.0 -0.4199032402
N  N23  1  0.86800000  0.36800000  0.19100000  1.0 -0.4199032402
N  N24  1  0.50000000  0.13200000  0.19100000  1.0 -0.4199032402
O  O1  1  0.23003000  0.18142000  0.40680000  1.0 -0.5089063163
O  O2  1  0.76997000  0.81858000  0.90680000  1.0 -0.5089063163
O  O3  1  0.81858000  0.04861000  0.40680000  1.0 -0.5089063163
O  O4  1  0.95139000  0.76997000  0.40680000  1.0 -0.5089063163
O  O5  1  0.04861000  0.23003000  0.90680000  1.0 -0.5089063163
O  O6  1  0.18142000  0.95139000  0.90680000  1.0 -0.5089063163
O  O7  1  0.24578000  0.05806000  0.24680000  1.0 -0.5301477875
O  O8  1  0.75422000  0.94194000  0.74680000  1.0 -0.5301477875
O  O9  1  0.94194000  0.18772000  0.24680000  1.0 -0.5301477875
O  O10  1  0.81228000  0.75422000  0.24680000  1.0 -0.5301477875
O  O11  1  0.18772000  0.24578000  0.74680000  1.0 -0.5301477875
O  O12  1  0.05806000  0.81228000  0.74680000  1.0 -0.5301477875
