# DDEC6 charges by PACMAN v1.1 (https://github.com/mtap-research/PACMAN-charge/)
data_UJOJIO05_FSR_pacman
_symmetry_space_group_name_H-M   'P 1'
_cell_length_a   13.53290000
_cell_length_b   13.53290000
_cell_length_c   8.08160000
_cell_angle_alpha   90.00000000
_cell_angle_beta   90.00000000
_cell_angle_gamma   120.00000000
_symmetry_Int_Tables_number   1
_chemical_formula_structural   Mn4H21C15(N2O)6
_chemical_formula_sum   'Mn8 H42 C30 N24 O12'
_cell_volume   1281.76889478
_cell_formula_units_Z   2
loop_
 _symmetry_equiv_pos_site_id
 _symmetry_equiv_pos_as_xyz
  1  'x, y, z'
loop_
 _atom_site_type_symbol
 _atom_site_label
 _atom_site_symmetry_multiplicity
 _atom_site_fract_x
 _atom_site_fract_y
 _atom_site_fract_z
 _atom_site_occupancy
 _atom_site_charge
Mn  Mn1  1  0.33333333  0.66666667  0.92237000  1.0 0.1100395943
Mn  Mn2  1  0.66666667  0.33333333  0.42237000  1.0 0.1100395943
Mn  Mn3  1  0.30086000  0.33799000  0.54514000  1.0 0.8550473285
Mn  Mn4  1  0.69914000  0.66201000  0.04514000  1.0 0.8550473285
Mn  Mn5  1  0.66201000  0.96287000  0.54514000  1.0 0.8550473285
Mn  Mn6  1  0.03713000  0.69914000  0.54514000  1.0 0.8550473285
Mn  Mn7  1  0.96287000  0.30086000  0.04514000  1.0 0.8550473285
Mn  Mn8  1  0.33799000  0.03713000  0.04514000  1.0 0.8550473285
H  H1  1  0.41110000  0.25700000  0.94600000  1.0 0.2885954942
H  H2  1  0.58890000  0.74300000  0.44600000  1.0 0.2885954942
H  H3  1  0.74300000  0.15410000  0.94600000  1.0 0.2885954942
H  H4  1  0.84590000  0.58890000  0.94600000  1.0 0.2885954942
H  H5  1  0.15410000  0.41110000  0.44600000  1.0 0.2885954942
H  H6  1  0.25700000  0.84590000  0.44600000  1.0 0.2885954942
H  H7  1  0.28650000  0.19910000  0.94050000  1.0 0.3053417576
H  H8  1  0.71350000  0.80090000  0.44050000  1.0 0.3053417576
H  H9  1  0.80090000  0.08740000  0.94050000  1.0 0.3044930828
H  H10  1  0.91260000  0.71350000  0.94050000  1.0 0.3053417576
H  H11  1  0.08740000  0.28650000  0.44050000  1.0 0.3053417576
H  H12  1  0.19910000  0.91260000  0.44050000  1.0 0.3053417576
H  H13  1  0.42290000  0.28740000  0.20840000  1.0 0.1100395943
H  H14  1  0.57710000  0.71260000  0.70840000  1.0 0.1100395943
H  H15  1  0.71260000  0.13550000  0.20840000  1.0 0.1100395943
H  H16  1  0.86450000  0.57710000  0.20840000  1.0 0.1100395943
H  H17  1  0.13550000  0.42290000  0.70840000  1.0 0.1100395943
H  H18  1  0.28740000  0.86450000  0.70840000  1.0 0.1100395943
H  H19  1  0.34820000  0.48380000  0.29620000  1.0 0.2885954942
H  H20  1  0.65180000  0.51620000  0.79620000  1.0 0.2885954942
H  H21  1  0.51620000  0.86440000  0.29620000  1.0 0.2885954942
H  H22  1  0.13560000  0.65180000  0.29620000  1.0 0.2885954942
H  H23  1  0.86440000  0.34820000  0.79620000  1.0 0.2885954942
H  H24  1  0.48380000  0.13560000  0.79620000  1.0 0.2885954942
H  H25  1  0.44240000  0.46110000  0.30290000  1.0 0.2885954942
H  H26  1  0.55760000  0.53890000  0.80290000  1.0 0.2885954942
H  H27  1  0.53890000  0.98130000  0.30290000  1.0 0.2885954942
H  H28  1  0.01870000  0.55760000  0.30290000  1.0 0.2885954942
H  H29  1  0.98130000  0.44240000  0.80290000  1.0 0.2885954942
H  H30  1  0.46110000  0.01870000  0.80290000  1.0 0.2885954942
H  H31  1  0.35290000  0.39770000  0.05790000  1.0 0.1100395943
H  H32  1  0.64710000  0.60230000  0.55790000  1.0 0.1100395943
H  H33  1  0.60230000  0.95520000  0.05790000  1.0 0.1100395943
H  H34  1  0.04480000  0.64710000  0.05790000  1.0 0.1100395943
H  H35  1  0.95520000  0.35290000  0.55790000  1.0 0.1100395943
H  H36  1  0.39770000  0.04480000  0.55790000  1.0 0.1100395943
H  H37  1  0.23770000  0.32200000  0.15230000  1.0 0.1204850507
H  H38  1  0.76230000  0.67800000  0.65230000  1.0 0.1204850507
H  H39  1  0.67800000  0.91570000  0.15230000  1.0 0.1204850507
H  H40  1  0.08430000  0.76230000  0.15230000  1.0 0.1204850507
H  H41  1  0.91570000  0.23770000  0.65230000  1.0 0.1204850507
H  H42  1  0.32200000  0.08430000  0.65230000  1.0 0.1204850507
C  C1  1  0.53474000  0.32295000  0.54790000  1.0 0.0155455502
C  C2  1  0.46526000  0.67705000  0.04790000  1.0 0.0155455502
C  C3  1  0.67705000  0.21179000  0.54790000  1.0 0.0155455502
C  C4  1  0.78821000  0.46526000  0.54790000  1.0 0.0155455502
C  C5  1  0.21179000  0.53474000  0.04790000  1.0 0.0155455502
C  C6  1  0.32295000  0.78821000  0.04790000  1.0 0.0155455502
C  C7  1  0.35360000  0.55970000  0.77670000  1.0 0.0413941202
C  C8  1  0.64640000  0.44030000  0.27670000  1.0 0.0413941202
C  C9  1  0.44030000  0.79390000  0.77670000  1.0 0.0413941202
C  C10  1  0.20610000  0.64640000  0.77670000  1.0 0.0413941202
C  C11  1  0.79390000  0.35360000  0.27670000  1.0 0.0413941202
C  C12  1  0.55970000  0.20610000  0.27670000  1.0 0.0413941202
C  C13  1  0.26710000  0.15810000  0.28000000  1.0 0.5683780146
C  C14  1  0.73290000  0.84190000  0.78000000  1.0 0.5683780146
C  C15  1  0.84190000  0.10900000  0.28000000  1.0 0.5683780146
C  C16  1  0.89100000  0.73290000  0.28000000  1.0 0.5683780146
C  C17  1  0.10900000  0.26710000  0.78000000  1.0 0.5683780146
C  C18  1  0.15810000  0.89100000  0.78000000  1.0 0.5683780146
C  C19  1  0.34550000  0.25520000  0.16380000  1.0 -0.0156794889
C  C20  1  0.65450000  0.74480000  0.66380000  1.0 -0.0156794889
C  C21  1  0.74480000  0.09030000  0.16380000  1.0 -0.0156794889
C  C22  1  0.90970000  0.65450000  0.16380000  1.0 -0.0156794889
C  C23  1  0.09030000  0.34550000  0.66380000  1.0 -0.0156794889
C  C24  1  0.25520000  0.90970000  0.66380000  1.0 -0.0156794889
C  C25  1  0.31960000  0.35310000  0.15740000  1.0 -0.0618324148
C  C26  1  0.68040000  0.64690000  0.65740000  1.0 -0.0618324148
C  C27  1  0.64690000  0.96650000  0.15740000  1.0 -0.0618324148
C  C28  1  0.03350000  0.68040000  0.15740000  1.0 -0.0618324148
C  C29  1  0.96650000  0.31960000  0.65740000  1.0 -0.0618324148
C  C30  1  0.35310000  0.03350000  0.65740000  1.0 -0.0618324148
N  N1  1  0.34670000  0.20900000  0.00070000  1.0 -0.5531018841
N  N2  1  0.65330000  0.79100000  0.50070000  1.0 -0.5531018841
N  N3  1  0.79100000  0.13770000  0.00070000  1.0 -0.5531018841
N  N4  1  0.86230000  0.65330000  0.00070000  1.0 -0.5531018841
N  N5  1  0.13770000  0.34670000  0.50070000  1.0 -0.5531018841
N  N6  1  0.20900000  0.86230000  0.50070000  1.0 -0.5531018841
N  N7  1  0.36580000  0.42797000  0.30390000  1.0 -0.5301147766
N  N8  1  0.63420000  0.57203000  0.80390000  1.0 -0.5301147766
N  N9  1  0.57203000  0.93783000  0.30390000  1.0 -0.5301147766
N  N10  1  0.06217000  0.63420000  0.30390000  1.0 -0.5301147766
N  N11  1  0.93783000  0.36580000  0.80390000  1.0 -0.5301147766
N  N12  1  0.42797000  0.06217000  0.80390000  1.0 -0.5301147766
N  N13  1  0.45560000  0.32180000  0.60250000  1.0 -0.409529643
N  N14  1  0.54440000  0.67820000  0.10250000  1.0 -0.409529643
N  N15  1  0.67820000  0.13380000  0.60250000  1.0 -0.409529643
N  N16  1  0.86620000  0.54440000  0.60250000  1.0 -0.409529643
N  N17  1  0.13380000  0.45560000  0.10250000  1.0 -0.409529643
N  N18  1  0.32180000  0.86620000  0.10250000  1.0 -0.409529643
N  N19  1  0.36740000  0.49980000  0.69220000  1.0 -0.4203416275
N  N20  1  0.63260000  0.50020000  0.19220000  1.0 -0.4203416275
N  N21  1  0.50020000  0.86760000  0.69220000  1.0 -0.4203416275
N  N22  1  0.13240000  0.63260000  0.69220000  1.0 -0.4203416275
N  N23  1  0.86760000  0.36740000  0.19220000  1.0 -0.4203416275
N  N24  1  0.49980000  0.13240000  0.19220000  1.0 -0.4203416275
O  O1  1  0.22937000  0.18133000  0.40590000  1.0 -0.5078813004
O  O2  1  0.77063000  0.81867000  0.90590000  1.0 -0.5078813004
O  O3  1  0.81867000  0.04804000  0.40590000  1.0 -0.5078813004
O  O4  1  0.95196000  0.77063000  0.40590000  1.0 -0.5078813004
O  O5  1  0.04804000  0.22937000  0.90590000  1.0 -0.5078813004
O  O6  1  0.18133000  0.95196000  0.90590000  1.0 -0.5078813004
O  O7  1  0.24559000  0.05855000  0.24630000  1.0 -0.5301147766
O  O8  1  0.75441000  0.94145000  0.74630000  1.0 -0.5301147766
O  O9  1  0.94145000  0.18704000  0.24630000  1.0 -0.5301147766
O  O10  1  0.81296000  0.75441000  0.24630000  1.0 -0.5301147766
O  O11  1  0.18704000  0.24559000  0.74630000  1.0 -0.5301147766
O  O12  1  0.05855000  0.81296000  0.74630000  1.0 -0.5301147766
