# DDEC6 charges by PACMAN v1.1 (https://github.com/mtap-research/PACMAN-charge/)
data_UJOJOU_ASR_pacman
_symmetry_space_group_name_H-M   'P 1'
_cell_length_a   13.48730000
_cell_length_b   13.48730000
_cell_length_c   8.02560000
_cell_angle_alpha   90.00000000
_cell_angle_beta   90.00000000
_cell_angle_gamma   120.00000000
_symmetry_Int_Tables_number   1
_chemical_formula_structural   Mn4H21C15(N2O)6
_chemical_formula_sum   'Mn8 H42 C30 N24 O12'
_cell_volume   1264.32340480
_cell_formula_units_Z   2
loop_
 _symmetry_equiv_pos_site_id
 _symmetry_equiv_pos_as_xyz
  1  'x, y, z'
loop_
 _atom_site_type_symbol
 _atom_site_label
 _atom_site_symmetry_multiplicity
 _atom_site_fract_x
 _atom_site_fract_y
 _atom_site_fract_z
 _atom_site_occupancy
 _atom_site_charge
Mn  Mn1  1  0.33333333  0.66666667  0.92447000  1.0 0.0939845608
Mn  Mn2  1  0.66666667  0.33333333  0.42447000  1.0 0.0939845608
Mn  Mn3  1  0.30158000  0.33859000  0.54474000  1.0 0.8521762954
Mn  Mn4  1  0.69842000  0.66141000  0.04474000  1.0 0.8521762954
Mn  Mn5  1  0.66141000  0.96299000  0.54474000  1.0 0.8521762954
Mn  Mn6  1  0.03701000  0.69842000  0.54474000  1.0 0.8521762954
Mn  Mn7  1  0.96299000  0.30158000  0.04474000  1.0 0.8521762954
Mn  Mn8  1  0.33859000  0.03701000  0.04474000  1.0 0.8521762954
H  H1  1  0.41350000  0.25820000  0.94470000  1.0 0.297314571
H  H2  1  0.58650000  0.74180000  0.44470000  1.0 0.297314571
H  H3  1  0.74180000  0.15530000  0.94470000  1.0 0.297314571
H  H4  1  0.84470000  0.58650000  0.94470000  1.0 0.297314571
H  H5  1  0.15530000  0.41350000  0.44470000  1.0 0.297314571
H  H6  1  0.25820000  0.84470000  0.44470000  1.0 0.297314571
H  H7  1  0.28850000  0.20020000  0.93600000  1.0 0.3089209364
H  H8  1  0.71150000  0.79980000  0.43600000  1.0 0.3089209364
H  H9  1  0.79980000  0.08830000  0.93600000  1.0 0.3089209364
H  H10  1  0.91170000  0.71150000  0.93600000  1.0 0.3089209364
H  H11  1  0.08830000  0.28850000  0.43600000  1.0 0.3089209364
H  H12  1  0.20020000  0.91170000  0.43600000  1.0 0.3089209364
H  H13  1  0.42190000  0.28660000  0.21040000  1.0 0.1090813743
H  H14  1  0.57810000  0.71340000  0.71040000  1.0 0.1090813743
H  H15  1  0.71340000  0.13530000  0.21040000  1.0 0.1090813743
H  H16  1  0.86470000  0.57810000  0.21040000  1.0 0.1090813743
H  H17  1  0.13530000  0.42190000  0.71040000  1.0 0.1090813743
H  H18  1  0.28660000  0.86470000  0.71040000  1.0 0.1090813743
H  H19  1  0.34910000  0.48490000  0.29370000  1.0 0.2868185904
H  H20  1  0.65090000  0.51510000  0.79370000  1.0 0.2868185904
H  H21  1  0.51510000  0.86420000  0.29370000  1.0 0.2868185904
H  H22  1  0.13580000  0.65090000  0.29370000  1.0 0.2868185904
H  H23  1  0.86420000  0.34910000  0.79370000  1.0 0.2868185904
H  H24  1  0.48490000  0.13580000  0.79370000  1.0 0.2868185904
H  H25  1  0.44340000  0.46200000  0.30010000  1.0 0.2868185904
H  H26  1  0.55660000  0.53800000  0.80010000  1.0 0.2868185904
H  H27  1  0.53800000  0.98140000  0.30010000  1.0 0.2868185904
H  H28  1  0.01860000  0.55660000  0.30010000  1.0 0.2868185904
H  H29  1  0.98140000  0.44340000  0.80010000  1.0 0.2868185904
H  H30  1  0.46200000  0.01860000  0.80010000  1.0 0.2868185904
H  H31  1  0.35490000  0.39870000  0.05360000  1.0 0.1090813743
H  H32  1  0.64510000  0.60130000  0.55360000  1.0 0.1090813743
H  H33  1  0.60130000  0.95620000  0.05360000  1.0 0.1090813743
H  H34  1  0.04380000  0.64510000  0.05360000  1.0 0.1090813743
H  H35  1  0.95620000  0.35490000  0.55360000  1.0 0.1090813743
H  H36  1  0.39870000  0.04380000  0.55360000  1.0 0.1090813743
H  H37  1  0.23840000  0.32400000  0.14710000  1.0 0.1212713139
H  H38  1  0.76160000  0.67600000  0.64710000  1.0 0.1212713139
H  H39  1  0.67600000  0.91440000  0.14710000  1.0 0.1212713139
H  H40  1  0.08560000  0.76160000  0.14710000  1.0 0.1212713139
H  H41  1  0.91440000  0.23840000  0.64710000  1.0 0.1212713139
H  H42  1  0.32400000  0.08560000  0.64710000  1.0 0.1212713139
C  C1  1  0.53366000  0.32224000  0.54860000  1.0 0.0170964382
C  C2  1  0.46634000  0.67776000  0.04860000  1.0 0.0170964382
C  C3  1  0.67776000  0.21142000  0.54860000  1.0 0.0170964382
C  C4  1  0.78858000  0.46634000  0.54860000  1.0 0.0170964382
C  C5  1  0.21142000  0.53366000  0.04860000  1.0 0.0170964382
C  C6  1  0.32224000  0.78858000  0.04860000  1.0 0.0170964382
C  C7  1  0.35340000  0.55970000  0.77860000  1.0 0.0442092057
C  C8  1  0.64660000  0.44030000  0.27860000  1.0 0.0442092057
C  C9  1  0.44030000  0.79370000  0.77860000  1.0 0.0442092057
C  C10  1  0.20630000  0.64660000  0.77860000  1.0 0.0442092057
C  C11  1  0.79370000  0.35340000  0.27860000  1.0 0.0442092057
C  C12  1  0.55970000  0.20630000  0.27860000  1.0 0.0442092057
C  C13  1  0.26440000  0.15780000  0.27730000  1.0 0.5673720108
C  C14  1  0.73560000  0.84220000  0.77730000  1.0 0.5673720108
C  C15  1  0.84220000  0.10660000  0.27730000  1.0 0.5673720108
C  C16  1  0.89340000  0.73560000  0.27730000  1.0 0.5673720108
C  C17  1  0.10660000  0.26440000  0.77730000  1.0 0.5673720108
C  C18  1  0.15780000  0.89340000  0.77730000  1.0 0.5673720108
C  C19  1  0.34500000  0.25510000  0.16310000  1.0 -0.0196494277
C  C20  1  0.65500000  0.74490000  0.66310000  1.0 -0.0196494277
C  C21  1  0.74490000  0.08990000  0.16310000  1.0 -0.0196494277
C  C22  1  0.91010000  0.65500000  0.16310000  1.0 -0.0196494277
C  C23  1  0.08990000  0.34500000  0.66310000  1.0 -0.0196494277
C  C24  1  0.25510000  0.91010000  0.66310000  1.0 -0.0196494277
C  C25  1  0.32040000  0.35430000  0.15350000  1.0 -0.0608003346
C  C26  1  0.67960000  0.64570000  0.65350000  1.0 -0.0608003346
C  C27  1  0.64570000  0.96610000  0.15350000  1.0 -0.0608003346
C  C28  1  0.03390000  0.67960000  0.15350000  1.0 -0.0608003346
C  C29  1  0.96610000  0.32040000  0.65350000  1.0 -0.0608003346
C  C30  1  0.35430000  0.03390000  0.65350000  1.0 -0.0608003346
N  N1  1  0.34820000  0.20990000  0.99820000  1.0 -0.5563658608
N  N2  1  0.65180000  0.79010000  0.49820000  1.0 -0.5563658608
N  N3  1  0.79010000  0.13830000  0.99820000  1.0 -0.5563658608
N  N4  1  0.86170000  0.65180000  0.99820000  1.0 -0.5563658608
N  N5  1  0.13830000  0.34820000  0.49820000  1.0 -0.5563658608
N  N6  1  0.20990000  0.86170000  0.49820000  1.0 -0.5563658608
N  N7  1  0.36661000  0.42887000  0.30120000  1.0 -0.5345343007
N  N8  1  0.63339000  0.57113000  0.80120000  1.0 -0.5345343007
N  N9  1  0.57113000  0.93774000  0.30120000  1.0 -0.5357347263
N  N10  1  0.06226000  0.63339000  0.30120000  1.0 -0.5345343007
N  N11  1  0.93774000  0.36661000  0.80120000  1.0 -0.5345343007
N  N12  1  0.42887000  0.06226000  0.80120000  1.0 -0.5345343007
N  N13  1  0.45440000  0.32060000  0.60390000  1.0 -0.4198153477
N  N14  1  0.54560000  0.67940000  0.10390000  1.0 -0.4198153477
N  N15  1  0.67940000  0.13380000  0.60390000  1.0 -0.4198153477
N  N16  1  0.86620000  0.54560000  0.60390000  1.0 -0.4198153477
N  N17  1  0.13380000  0.45440000  0.10390000  1.0 -0.4140897526
N  N18  1  0.32060000  0.86620000  0.10390000  1.0 -0.4198153477
N  N19  1  0.36670000  0.49920000  0.69290000  1.0 -0.4198153477
N  N20  1  0.63330000  0.50080000  0.19290000  1.0 -0.4198153477
N  N21  1  0.50080000  0.86750000  0.69290000  1.0 -0.4198153477
N  N22  1  0.13250000  0.63330000  0.69290000  1.0 -0.4198153477
N  N23  1  0.86750000  0.36670000  0.19290000  1.0 -0.4198153477
N  N24  1  0.49920000  0.13250000  0.19290000  1.0 -0.4198153477
O  O1  1  0.22616000  0.18084000  0.40370000  1.0 -0.4994007382
O  O2  1  0.77384000  0.81916000  0.90370000  1.0 -0.4994007382
O  O3  1  0.81916000  0.04532000  0.40370000  1.0 -0.4994007382
O  O4  1  0.95468000  0.77384000  0.40370000  1.0 -0.4994007382
O  O5  1  0.04532000  0.22616000  0.90370000  1.0 -0.4994007382
O  O6  1  0.18084000  0.95468000  0.90370000  1.0 -0.4994007382
O  O7  1  0.24023000  0.05707000  0.24220000  1.0 -0.5218617254
O  O8  1  0.75977000  0.94293000  0.74220000  1.0 -0.5218617254
O  O9  1  0.94293000  0.18316000  0.24220000  1.0 -0.5218617254
O  O10  1  0.81684000  0.75977000  0.24220000  1.0 -0.5218617254
O  O11  1  0.18316000  0.24023000  0.74220000  1.0 -0.5218617254
O  O12  1  0.05707000  0.81684000  0.74220000  1.0 -0.5218617254
