# DDEC6 charges by PACMAN v1.1 (https://github.com/mtap-research/PACMAN-charge/)
data_UJOKIP03_ASR_pacman
_symmetry_space_group_name_H-M   'P 1'
_cell_length_a   13.53920000
_cell_length_b   13.53920000
_cell_length_c   8.06920000
_cell_angle_alpha   90.00000000
_cell_angle_beta   90.00000000
_cell_angle_gamma   120.00000000
_symmetry_Int_Tables_number   1
_chemical_formula_structural   Mn3CrH21C15(N2O)6
_chemical_formula_sum   'Mn6 Cr2 H42 C30 N24 O12'
_cell_volume   1280.99406865
_cell_formula_units_Z   2
loop_
 _symmetry_equiv_pos_site_id
 _symmetry_equiv_pos_as_xyz
  1  'x, y, z'
loop_
 _atom_site_type_symbol
 _atom_site_label
 _atom_site_symmetry_multiplicity
 _atom_site_fract_x
 _atom_site_fract_y
 _atom_site_fract_z
 _atom_site_occupancy
 _atom_site_charge
Mn  Mn1  1  0.29673000  0.33238000  0.54381000  1.0 0.8362657932
Mn  Mn2  1  0.70327000  0.66762000  0.04381000  1.0 0.8362657932
Mn  Mn3  1  0.66762000  0.96435000  0.54381000  1.0 0.8362657932
Mn  Mn4  1  0.03565000  0.70327000  0.54381000  1.0 0.8362657932
Mn  Mn5  1  0.96435000  0.29673000  0.04381000  1.0 0.8362657932
Mn  Mn6  1  0.33238000  0.03565000  0.04381000  1.0 0.8362657932
Cr  Cr1  1  0.33333333  0.66666667  0.92440000  1.0 0.7333100346
Cr  Cr2  1  0.66666667  0.33333333  0.42440000  1.0 0.7333100346
H  H1  1  0.40410000  0.25270000  0.94260000  1.0 0.2917495178
H  H2  1  0.59590000  0.74730000  0.44260000  1.0 0.2917495178
H  H3  1  0.74730000  0.15140000  0.94260000  1.0 0.2917495178
H  H4  1  0.84860000  0.59590000  0.94260000  1.0 0.2917495178
H  H5  1  0.15140000  0.40410000  0.44260000  1.0 0.2917495178
H  H6  1  0.25270000  0.84860000  0.44260000  1.0 0.2917495178
H  H7  1  0.27960000  0.19460000  0.93960000  1.0 0.3028575835
H  H8  1  0.72040000  0.80540000  0.43960000  1.0 0.3028575835
H  H9  1  0.80540000  0.08500000  0.93960000  1.0 0.3028575835
H  H10  1  0.91500000  0.72040000  0.93960000  1.0 0.3028575835
H  H11  1  0.08500000  0.27960000  0.43960000  1.0 0.3028575835
H  H12  1  0.19460000  0.91500000  0.43960000  1.0 0.3028575835
H  H13  1  0.41800000  0.28370000  0.20740000  1.0 0.1080566664
H  H14  1  0.58200000  0.71630000  0.70740000  1.0 0.1080566664
H  H15  1  0.71630000  0.13430000  0.20740000  1.0 0.1080566664
H  H16  1  0.86570000  0.58200000  0.20740000  1.0 0.1080566664
H  H17  1  0.13430000  0.41800000  0.70740000  1.0 0.1080566664
H  H18  1  0.28370000  0.86570000  0.70740000  1.0 0.1080566664
H  H19  1  0.34790000  0.48110000  0.29680000  1.0 0.2826611928
H  H20  1  0.65210000  0.51890000  0.79680000  1.0 0.2826611928
H  H21  1  0.51890000  0.86680000  0.29680000  1.0 0.2826611928
H  H22  1  0.13320000  0.65210000  0.29680000  1.0 0.2826611928
H  H23  1  0.86680000  0.34790000  0.79680000  1.0 0.2826611928
H  H24  1  0.48110000  0.13320000  0.79680000  1.0 0.2826611928
H  H25  1  0.44020000  0.45560000  0.30240000  1.0 0.2826611928
H  H26  1  0.55980000  0.54440000  0.80240000  1.0 0.2826611928
H  H27  1  0.54440000  0.98460000  0.30240000  1.0 0.2826611928
H  H28  1  0.01540000  0.55980000  0.30240000  1.0 0.2826611928
H  H29  1  0.98460000  0.44020000  0.80240000  1.0 0.2826611928
H  H30  1  0.45560000  0.01540000  0.80240000  1.0 0.2826611928
H  H31  1  0.34810000  0.39370000  0.05760000  1.0 0.1080566664
H  H32  1  0.65190000  0.60630000  0.55760000  1.0 0.1080566664
H  H33  1  0.60630000  0.95440000  0.05760000  1.0 0.1080566664
H  H34  1  0.04560000  0.65190000  0.05760000  1.0 0.1080566664
H  H35  1  0.95440000  0.34810000  0.55760000  1.0 0.1080566664
H  H36  1  0.39370000  0.04560000  0.55760000  1.0 0.1080566664
H  H37  1  0.23380000  0.31890000  0.15450000  1.0 0.1192762461
H  H38  1  0.76620000  0.68110000  0.65450000  1.0 0.1192762461
H  H39  1  0.68110000  0.91490000  0.15450000  1.0 0.1192762461
H  H40  1  0.08510000  0.76620000  0.15450000  1.0 0.1192762461
H  H41  1  0.91490000  0.23380000  0.65450000  1.0 0.1192762461
H  H42  1  0.31890000  0.08510000  0.65450000  1.0 0.1192762461
C  C1  1  0.53070000  0.31950000  0.56130000  1.0 -0.1446151379
C  C2  1  0.46930000  0.68050000  0.06130000  1.0 -0.1453837249
C  C3  1  0.68050000  0.21120000  0.56130000  1.0 -0.1446151379
C  C4  1  0.78880000  0.46930000  0.56130000  1.0 -0.1446151379
C  C5  1  0.21120000  0.53070000  0.06130000  1.0 -0.1453837249
C  C6  1  0.31950000  0.78880000  0.06130000  1.0 -0.1453837249
C  C7  1  0.35410000  0.55490000  0.77310000  1.0 -0.1152693026
C  C8  1  0.64590000  0.44510000  0.27310000  1.0 -0.1152693026
C  C9  1  0.44510000  0.79920000  0.77310000  1.0 -0.1152693026
C  C10  1  0.20080000  0.64590000  0.77310000  1.0 -0.1152693026
C  C11  1  0.79920000  0.35410000  0.27310000  1.0 -0.1152693026
C  C12  1  0.55490000  0.20080000  0.27310000  1.0 -0.1152693026
C  C13  1  0.26150000  0.15410000  0.28030000  1.0 0.5661801007
C  C14  1  0.73850000  0.84590000  0.78030000  1.0 0.5661801007
C  C15  1  0.84590000  0.10740000  0.28030000  1.0 0.5661801007
C  C16  1  0.89260000  0.73850000  0.28030000  1.0 0.5661801007
C  C17  1  0.10740000  0.26150000  0.78030000  1.0 0.5661801007
C  C18  1  0.15410000  0.89260000  0.78030000  1.0 0.5661801007
C  C19  1  0.34060000  0.25200000  0.16340000  1.0 -0.0192221337
C  C20  1  0.65940000  0.74800000  0.66340000  1.0 -0.0192221337
C  C21  1  0.74800000  0.08860000  0.16340000  1.0 -0.0192221337
C  C22  1  0.91140000  0.65940000  0.16340000  1.0 -0.0192221337
C  C23  1  0.08860000  0.34060000  0.66340000  1.0 -0.0192221337
C  C24  1  0.25200000  0.91140000  0.66340000  1.0 -0.0192221337
C  C25  1  0.31570000  0.34950000  0.15770000  1.0 -0.056692263
C  C26  1  0.68430000  0.65050000  0.65770000  1.0 -0.056692263
C  C27  1  0.65050000  0.96620000  0.15770000  1.0 -0.056692263
C  C28  1  0.03380000  0.68430000  0.15770000  1.0 -0.056692263
C  C29  1  0.96620000  0.31570000  0.65770000  1.0 -0.056692263
C  C30  1  0.34950000  0.03380000  0.65770000  1.0 -0.056692263
N  N1  1  0.34040000  0.20500000  0.99870000  1.0 -0.554556987
N  N2  1  0.65960000  0.79500000  0.49870000  1.0 -0.5553122255
N  N3  1  0.79500000  0.13540000  0.99870000  1.0 -0.554556987
N  N4  1  0.86460000  0.65960000  0.99870000  1.0 -0.554556987
N  N5  1  0.13540000  0.34040000  0.49870000  1.0 -0.554556987
N  N6  1  0.20500000  0.86460000  0.49870000  1.0 -0.554556987
N  N7  1  0.36390000  0.42420000  0.30370000  1.0 -0.5316193792
N  N8  1  0.63610000  0.57580000  0.80370000  1.0 -0.5316193792
N  N9  1  0.57580000  0.93970000  0.30370000  1.0 -0.5316193792
N  N10  1  0.06030000  0.63610000  0.30370000  1.0 -0.5354390833
N  N11  1  0.93970000  0.36390000  0.80370000  1.0 -0.5316193792
N  N12  1  0.42420000  0.06030000  0.80370000  1.0 -0.5316193792
N  N13  1  0.45060000  0.31740000  0.61260000  1.0 -0.3482921991
N  N14  1  0.54940000  0.68260000  0.11260000  1.0 -0.3444993588
N  N15  1  0.68260000  0.13320000  0.61260000  1.0 -0.3482921991
N  N16  1  0.86680000  0.54940000  0.61260000  1.0 -0.3482921991
N  N17  1  0.13320000  0.45060000  0.11260000  1.0 -0.3444993588
N  N18  1  0.31740000  0.86680000  0.11260000  1.0 -0.3482921991
N  N19  1  0.36490000  0.49410000  0.68870000  1.0 -0.3482921991
N  N20  1  0.63510000  0.50590000  0.18870000  1.0 -0.3482921991
N  N21  1  0.50590000  0.87080000  0.68870000  1.0 -0.3482921991
N  N22  1  0.12920000  0.63510000  0.68870000  1.0 -0.3482921991
N  N23  1  0.87080000  0.36490000  0.18870000  1.0 -0.3482921991
N  N24  1  0.49410000  0.12920000  0.18870000  1.0 -0.3482921991
O  O1  1  0.22590000  0.17690000  0.40670000  1.0 -0.4921401534
O  O2  1  0.77410000  0.82310000  0.90670000  1.0 -0.4921401534
O  O3  1  0.82310000  0.04900000  0.40670000  1.0 -0.4921401534
O  O4  1  0.95100000  0.77410000  0.40670000  1.0 -0.4921401534
O  O5  1  0.04900000  0.22590000  0.90670000  1.0 -0.4921401534
O  O6  1  0.17690000  0.95100000  0.90670000  1.0 -0.4921401534
O  O7  1  0.23970000  0.05330000  0.24530000  1.0 -0.5316193792
O  O8  1  0.76030000  0.94670000  0.74530000  1.0 -0.5316193792
O  O9  1  0.94670000  0.18640000  0.24530000  1.0 -0.5316193792
O  O10  1  0.81360000  0.76030000  0.24530000  1.0 -0.5316193792
O  O11  1  0.18640000  0.23970000  0.74530000  1.0 -0.5316193792
O  O12  1  0.05330000  0.81360000  0.74530000  1.0 -0.5316193792
