# DDEC6 charges by PACMAN v1.1 (https://github.com/mtap-research/PACMAN-charge/)
data_UJOKIP_FSR_pacman
_symmetry_space_group_name_H-M   'P 1'
_cell_length_a   13.61440000
_cell_length_b   13.61440000
_cell_length_c   8.18420000
_cell_angle_alpha   90.00000000
_cell_angle_beta   90.00000000
_cell_angle_gamma   120.00000000
_symmetry_Int_Tables_number   1
_chemical_formula_structural   Mn3CrH21C15(N2O)6
_chemical_formula_sum   'Mn6 Cr2 H42 C30 N24 O12'
_cell_volume   1313.72322616
_cell_formula_units_Z   2
loop_
 _symmetry_equiv_pos_site_id
 _symmetry_equiv_pos_as_xyz
  1  'x, y, z'
loop_
 _atom_site_type_symbol
 _atom_site_label
 _atom_site_symmetry_multiplicity
 _atom_site_fract_x
 _atom_site_fract_y
 _atom_site_fract_z
 _atom_site_occupancy
 _atom_site_charge
Mn  Mn1  1  0.29539000  0.33438000  0.54368000  1.0 0.8448031512
Mn  Mn2  1  0.70461000  0.66562000  0.04368000  1.0 0.8448031512
Mn  Mn3  1  0.66562000  0.96101000  0.54368000  1.0 0.8448031512
Mn  Mn4  1  0.03899000  0.70461000  0.54368000  1.0 0.8448031512
Mn  Mn5  1  0.96101000  0.29539000  0.04368000  1.0 0.8448031512
Mn  Mn6  1  0.33438000  0.03899000  0.04368000  1.0 0.8448031512
Cr  Cr1  1  0.33333333  0.66666667  0.92497000  1.0 0.7379442719
Cr  Cr2  1  0.66666667  0.33333333  0.42497000  1.0 0.7379442719
H  H1  1  0.40950000  0.25790000  0.95100000  1.0 0.2903043198
H  H2  1  0.59050000  0.74210000  0.45100000  1.0 0.2903043198
H  H3  1  0.74210000  0.15160000  0.95100000  1.0 0.2903043198
H  H4  1  0.84840000  0.59050000  0.95100000  1.0 0.2903043198
H  H5  1  0.15160000  0.40950000  0.45100000  1.0 0.2903043198
H  H6  1  0.25790000  0.84840000  0.45100000  1.0 0.2903043198
H  H7  1  0.28580000  0.20150000  0.94480000  1.0 0.299433546
H  H8  1  0.71420000  0.79850000  0.44480000  1.0 0.299433546
H  H9  1  0.79850000  0.08430000  0.94480000  1.0 0.299433546
H  H10  1  0.91570000  0.71420000  0.94480000  1.0 0.299433546
H  H11  1  0.08430000  0.28580000  0.44480000  1.0 0.299433546
H  H12  1  0.20150000  0.91570000  0.44480000  1.0 0.299433546
H  H13  1  0.42090000  0.28710000  0.21050000  1.0 0.1077710916
H  H14  1  0.57910000  0.71290000  0.71050000  1.0 0.1077710916
H  H15  1  0.71290000  0.13380000  0.21050000  1.0 0.1077710916
H  H16  1  0.86620000  0.57910000  0.21050000  1.0 0.1077710916
H  H17  1  0.13380000  0.42090000  0.71050000  1.0 0.1077710916
H  H18  1  0.28710000  0.86620000  0.71050000  1.0 0.1077710916
H  H19  1  0.34640000  0.48150000  0.30020000  1.0 0.2824126399
H  H20  1  0.65360000  0.51850000  0.80020000  1.0 0.2824126399
H  H21  1  0.51850000  0.86490000  0.30020000  1.0 0.2824126399
H  H22  1  0.13510000  0.65360000  0.30020000  1.0 0.2824126399
H  H23  1  0.86490000  0.34640000  0.80020000  1.0 0.2824126399
H  H24  1  0.48150000  0.13510000  0.80020000  1.0 0.2824126399
H  H25  1  0.43910000  0.45780000  0.30840000  1.0 0.2824126399
H  H26  1  0.56090000  0.54220000  0.80840000  1.0 0.2824126399
H  H27  1  0.54220000  0.98130000  0.30840000  1.0 0.2824126399
H  H28  1  0.01870000  0.56090000  0.30840000  1.0 0.2824126399
H  H29  1  0.98130000  0.43910000  0.80840000  1.0 0.2824126399
H  H30  1  0.45780000  0.01870000  0.80840000  1.0 0.2824126399
H  H31  1  0.35230000  0.39790000  0.06440000  1.0 0.1077710916
H  H32  1  0.64770000  0.60210000  0.56440000  1.0 0.1077710916
H  H33  1  0.60210000  0.95440000  0.06440000  1.0 0.1077710916
H  H34  1  0.04560000  0.64770000  0.06440000  1.0 0.1077710916
H  H35  1  0.95440000  0.35230000  0.56440000  1.0 0.1077710916
H  H36  1  0.39790000  0.04560000  0.56440000  1.0 0.1077710916
H  H37  1  0.23710000  0.32180000  0.15530000  1.0 0.1196823833
H  H38  1  0.76290000  0.67820000  0.65530000  1.0 0.1196823833
H  H39  1  0.67820000  0.91530000  0.15530000  1.0 0.1196823833
H  H40  1  0.08470000  0.76290000  0.15530000  1.0 0.1196823833
H  H41  1  0.91530000  0.23710000  0.65530000  1.0 0.1196823833
H  H42  1  0.32180000  0.08470000  0.65530000  1.0 0.1196823833
C  C1  1  0.52980000  0.32110000  0.55430000  1.0 -0.1347223255
C  C2  1  0.47020000  0.67890000  0.05430000  1.0 -0.1355801854
C  C3  1  0.67890000  0.20870000  0.55430000  1.0 -0.1347223255
C  C4  1  0.79130000  0.47020000  0.55430000  1.0 -0.1355801854
C  C5  1  0.20870000  0.52980000  0.05430000  1.0 -0.1355801854
C  C6  1  0.32110000  0.79130000  0.05430000  1.0 -0.1355801854
C  C7  1  0.35400000  0.55570000  0.77590000  1.0 -0.1079948056
C  C8  1  0.64600000  0.44430000  0.27590000  1.0 -0.1079948056
C  C9  1  0.44430000  0.79830000  0.77590000  1.0 -0.1079948056
C  C10  1  0.20170000  0.64600000  0.77590000  1.0 -0.1079948056
C  C11  1  0.79830000  0.35400000  0.27590000  1.0 -0.1079948056
C  C12  1  0.55570000  0.20170000  0.27590000  1.0 -0.1079948056
C  C13  1  0.26670000  0.15900000  0.28040000  1.0 0.5687501596
C  C14  1  0.73330000  0.84100000  0.78040000  1.0 0.5687501596
C  C15  1  0.84100000  0.10770000  0.28040000  1.0 0.5687501596
C  C16  1  0.89230000  0.73330000  0.28040000  1.0 0.5687501596
C  C17  1  0.10770000  0.26670000  0.78040000  1.0 0.5687501596
C  C18  1  0.15900000  0.89230000  0.78040000  1.0 0.5687501596
C  C19  1  0.34400000  0.25530000  0.16670000  1.0 -0.0263547887
C  C20  1  0.65600000  0.74470000  0.66666667  1.0 -0.0263547887
C  C21  1  0.74470000  0.08870000  0.16670000  1.0 -0.0263547887
C  C22  1  0.91130000  0.65600000  0.16670000  1.0 -0.0263547887
C  C23  1  0.08870000  0.34400000  0.66666667  1.0 -0.0263547887
C  C24  1  0.25530000  0.91130000  0.66666667  1.0 -0.0263547887
C  C25  1  0.31840000  0.35260000  0.16160000  1.0 -0.0600345522
C  C26  1  0.68160000  0.64740000  0.66160000  1.0 -0.0600345522
C  C27  1  0.64740000  0.96580000  0.16160000  1.0 -0.0600345522
C  C28  1  0.03420000  0.68160000  0.16160000  1.0 -0.0600345522
C  C29  1  0.96580000  0.31840000  0.66160000  1.0 -0.0600345522
C  C30  1  0.35260000  0.03420000  0.66160000  1.0 -0.0600345522
N  N1  1  0.34520000  0.21020000  0.00430000  1.0 -0.556565586
N  N2  1  0.65480000  0.78980000  0.50430000  1.0 -0.556565586
N  N3  1  0.78980000  0.13500000  0.00430000  1.0 -0.556565586
N  N4  1  0.86500000  0.65480000  0.00430000  1.0 -0.556565586
N  N5  1  0.13500000  0.34520000  0.50430000  1.0 -0.556565586
N  N6  1  0.21020000  0.86500000  0.50430000  1.0 -0.556565586
N  N7  1  0.36310000  0.42550000  0.30770000  1.0 -0.5309743219
N  N8  1  0.63690000  0.57450000  0.80770000  1.0 -0.5309743219
N  N9  1  0.57450000  0.93760000  0.30770000  1.0 -0.5309743219
N  N10  1  0.06240000  0.63690000  0.30770000  1.0 -0.5309743219
N  N11  1  0.93760000  0.36310000  0.80770000  1.0 -0.5309743219
N  N12  1  0.42550000  0.06240000  0.80770000  1.0 -0.5309743219
N  N13  1  0.44950000  0.31950000  0.60270000  1.0 -0.3511229215
N  N14  1  0.55050000  0.68050000  0.10270000  1.0 -0.3511229215
N  N15  1  0.68050000  0.13000000  0.60270000  1.0 -0.3511229215
N  N16  1  0.87000000  0.55050000  0.60270000  1.0 -0.3511229215
N  N17  1  0.13000000  0.44950000  0.10270000  1.0 -0.3511229215
N  N18  1  0.31950000  0.87000000  0.10270000  1.0 -0.3511229215
N  N19  1  0.36590000  0.49520000  0.69190000  1.0 -0.3511229215
N  N20  1  0.63410000  0.50480000  0.19190000  1.0 -0.3511229215
N  N21  1  0.50480000  0.87070000  0.69190000  1.0 -0.3511229215
N  N22  1  0.12930000  0.63410000  0.69190000  1.0 -0.3511229215
N  N23  1  0.87070000  0.36590000  0.19190000  1.0 -0.3511229215
N  N24  1  0.49520000  0.12930000  0.19190000  1.0 -0.3511229215
O  O1  1  0.22850000  0.18060000  0.40460000  1.0 -0.4988839957
O  O2  1  0.77150000  0.81940000  0.90460000  1.0 -0.4988839957
O  O3  1  0.81940000  0.04790000  0.40460000  1.0 -0.4988839957
O  O4  1  0.95210000  0.77150000  0.40460000  1.0 -0.4988839957
O  O5  1  0.04790000  0.22850000  0.90460000  1.0 -0.4988839957
O  O6  1  0.18060000  0.95210000  0.90460000  1.0 -0.4988839957
O  O7  1  0.24460000  0.05900000  0.24610000  1.0 -0.5309743219
O  O8  1  0.75540000  0.94100000  0.74610000  1.0 -0.5309743219
O  O9  1  0.94100000  0.18560000  0.24610000  1.0 -0.5309743219
O  O10  1  0.81440000  0.75540000  0.24610000  1.0 -0.5309743219
O  O11  1  0.18560000  0.24460000  0.74610000  1.0 -0.5309743219
O  O12  1  0.05900000  0.81440000  0.74610000  1.0 -0.5309743219
