# DDEC6 charges by PACMAN v1.1 (https://github.com/mtap-research/PACMAN-charge/)
data_UJOKIP04_FSR_pacman
_symmetry_space_group_name_H-M   'P 1'
_cell_length_a   13.55540000
_cell_length_b   13.55540000
_cell_length_c   8.13510000
_cell_angle_alpha   90.00000000
_cell_angle_beta   90.00000000
_cell_angle_gamma   120.00000000
_symmetry_Int_Tables_number   1
_chemical_formula_structural   Mn3CrH21C15(N2O)6
_chemical_formula_sum   'Mn6 Cr2 H42 C30 N24 O12'
_cell_volume   1294.54813245
_cell_formula_units_Z   2
loop_
 _symmetry_equiv_pos_site_id
 _symmetry_equiv_pos_as_xyz
  1  'x, y, z'
loop_
 _atom_site_type_symbol
 _atom_site_label
 _atom_site_symmetry_multiplicity
 _atom_site_fract_x
 _atom_site_fract_y
 _atom_site_fract_z
 _atom_site_occupancy
 _atom_site_charge
Mn  Mn1  1  0.29470000  0.33115000  0.54450000  1.0 0.8385486803
Mn  Mn2  1  0.70530000  0.66885000  0.04450000  1.0 0.8385486803
Mn  Mn3  1  0.66885000  0.96355000  0.54450000  1.0 0.8385486803
Mn  Mn4  1  0.03645000  0.70530000  0.54450000  1.0 0.8385486803
Mn  Mn5  1  0.96355000  0.29470000  0.04450000  1.0 0.8385486803
Mn  Mn6  1  0.33115000  0.03645000  0.04450000  1.0 0.8385486803
Cr  Cr1  1  0.33333333  0.66666667  0.92300000  1.0 0.7343561253
Cr  Cr2  1  0.66666667  0.33333333  0.42300000  1.0 0.7354234061
H  H1  1  0.40250000  0.25470000  0.94520000  1.0 0.2906666598
H  H2  1  0.59750000  0.74530000  0.44520000  1.0 0.2906666598
H  H3  1  0.74530000  0.14780000  0.94520000  1.0 0.2906666598
H  H4  1  0.85220000  0.59750000  0.94520000  1.0 0.2906666598
H  H5  1  0.14780000  0.40250000  0.44520000  1.0 0.2906666598
H  H6  1  0.25470000  0.85220000  0.44520000  1.0 0.2906666598
H  H7  1  0.27800000  0.19650000  0.94220000  1.0 0.3016249738
H  H8  1  0.72200000  0.80350000  0.44220000  1.0 0.3016249738
H  H9  1  0.80350000  0.08150000  0.94220000  1.0 0.3016249738
H  H10  1  0.91850000  0.72200000  0.94220000  1.0 0.3016249738
H  H11  1  0.08150000  0.27800000  0.44220000  1.0 0.3016249738
H  H12  1  0.19650000  0.91850000  0.44220000  1.0 0.3016249738
H  H13  1  0.41660000  0.28470000  0.20840000  1.0 0.1033313474
H  H14  1  0.58340000  0.71530000  0.70840000  1.0 0.1033313474
H  H15  1  0.71530000  0.13190000  0.20840000  1.0 0.1033313474
H  H16  1  0.86810000  0.58340000  0.20840000  1.0 0.1033313474
H  H17  1  0.13190000  0.41660000  0.70840000  1.0 0.1033313474
H  H18  1  0.28470000  0.86810000  0.70840000  1.0 0.1033313474
H  H19  1  0.34590000  0.47980000  0.29810000  1.0 0.2833745829
H  H20  1  0.65410000  0.52020000  0.79810000  1.0 0.2833745829
H  H21  1  0.52020000  0.86610000  0.29810000  1.0 0.2833745829
H  H22  1  0.13390000  0.65410000  0.29810000  1.0 0.2833745829
H  H23  1  0.86610000  0.34590000  0.79810000  1.0 0.2833745829
H  H24  1  0.47980000  0.13390000  0.79810000  1.0 0.2833745829
H  H25  1  0.43790000  0.45420000  0.30340000  1.0 0.2833745829
H  H26  1  0.56210000  0.54580000  0.80340000  1.0 0.2833745829
H  H27  1  0.54580000  0.98370000  0.30340000  1.0 0.2833745829
H  H28  1  0.01630000  0.56210000  0.30340000  1.0 0.2833745829
H  H29  1  0.98370000  0.43790000  0.80340000  1.0 0.2833745829
H  H30  1  0.45420000  0.01630000  0.80340000  1.0 0.2833745829
H  H31  1  0.34530000  0.39300000  0.06210000  1.0 0.107090523
H  H32  1  0.65470000  0.60700000  0.56210000  1.0 0.107090523
H  H33  1  0.60700000  0.95230000  0.06210000  1.0 0.107090523
H  H34  1  0.04770000  0.65470000  0.06210000  1.0 0.107090523
H  H35  1  0.95230000  0.34530000  0.56210000  1.0 0.107090523
H  H36  1  0.39300000  0.04770000  0.56210000  1.0 0.107090523
H  H37  1  0.23180000  0.31770000  0.15930000  1.0 0.1177104018
H  H38  1  0.76820000  0.68230000  0.65930000  1.0 0.1177104018
H  H39  1  0.68230000  0.91410000  0.15930000  1.0 0.1177104018
H  H40  1  0.08590000  0.76820000  0.15930000  1.0 0.1177104018
H  H41  1  0.91410000  0.23180000  0.65930000  1.0 0.1177104018
H  H42  1  0.31770000  0.08590000  0.65930000  1.0 0.1177104018
C  C1  1  0.53130000  0.32100000  0.55950000  1.0 -0.1427121211
C  C2  1  0.46870000  0.67900000  0.05950000  1.0 -0.1427121211
C  C3  1  0.67900000  0.21030000  0.55950000  1.0 -0.1427121211
C  C4  1  0.78970000  0.46870000  0.55950000  1.0 -0.1427121211
C  C5  1  0.21030000  0.53130000  0.05950000  1.0 -0.1427121211
C  C6  1  0.32100000  0.78970000  0.05950000  1.0 -0.1427121211
C  C7  1  0.35200000  0.55350000  0.77280000  1.0 -0.1125366339
C  C8  1  0.64800000  0.44650000  0.27280000  1.0 -0.1125366339
C  C9  1  0.44650000  0.79850000  0.77280000  1.0 -0.1125366339
C  C10  1  0.20150000  0.64800000  0.77280000  1.0 -0.1125366339
C  C11  1  0.79850000  0.35200000  0.27280000  1.0 -0.1125366339
C  C12  1  0.55350000  0.20150000  0.27280000  1.0 -0.1125366339
C  C13  1  0.26120000  0.15460000  0.28130000  1.0 0.5596019826
C  C14  1  0.73880000  0.84540000  0.78130000  1.0 0.5596019826
C  C15  1  0.84540000  0.10660000  0.28130000  1.0 0.5596019826
C  C16  1  0.89340000  0.73880000  0.28130000  1.0 0.5596019826
C  C17  1  0.10660000  0.26120000  0.78130000  1.0 0.5596019826
C  C18  1  0.15460000  0.89340000  0.78130000  1.0 0.5596019826
C  C19  1  0.33900000  0.25270000  0.16550000  1.0 -0.0254698512
C  C20  1  0.66100000  0.74730000  0.66550000  1.0 -0.0254698512
C  C21  1  0.74730000  0.08630000  0.16550000  1.0 -0.0254698512
C  C22  1  0.91370000  0.66100000  0.16550000  1.0 -0.0254698512
C  C23  1  0.08630000  0.33900000  0.66550000  1.0 -0.0254698512
C  C24  1  0.25270000  0.91370000  0.66550000  1.0 -0.0254698512
C  C25  1  0.31360000  0.34870000  0.16150000  1.0 -0.0594285601
C  C26  1  0.68640000  0.65130000  0.66150000  1.0 -0.0594285601
C  C27  1  0.65130000  0.96490000  0.16150000  1.0 -0.0594285601
C  C28  1  0.03510000  0.68640000  0.16150000  1.0 -0.0594285601
C  C29  1  0.96490000  0.31360000  0.66150000  1.0 -0.0594285601
C  C30  1  0.34870000  0.03510000  0.66150000  1.0 -0.0594285601
N  N1  1  0.33880000  0.20670000  0.00060000  1.0 -0.5554952819
N  N2  1  0.66120000  0.79330000  0.50060000  1.0 -0.5554952819
N  N3  1  0.79330000  0.13210000  0.00060000  1.0 -0.5554952819
N  N4  1  0.86790000  0.66120000  0.00060000  1.0 -0.5554952819
N  N5  1  0.13210000  0.33880000  0.50060000  1.0 -0.5554952819
N  N6  1  0.20670000  0.86790000  0.50060000  1.0 -0.5554952819
N  N7  1  0.36170000  0.42290000  0.30500000  1.0 -0.5312702456
N  N8  1  0.63830000  0.57710000  0.80500000  1.0 -0.5312702456
N  N9  1  0.57710000  0.93880000  0.30500000  1.0 -0.5312702456
N  N10  1  0.06120000  0.63830000  0.30500000  1.0 -0.5312702456
N  N11  1  0.93880000  0.36170000  0.80500000  1.0 -0.5312702456
N  N12  1  0.42290000  0.06120000  0.80500000  1.0 -0.5312702456
N  N13  1  0.45210000  0.31930000  0.61110000  1.0 -0.3491104194
N  N14  1  0.54790000  0.68070000  0.11110000  1.0 -0.3491104194
N  N15  1  0.68070000  0.13280000  0.61110000  1.0 -0.3491104194
N  N16  1  0.86720000  0.54790000  0.61110000  1.0 -0.3491104194
N  N17  1  0.13280000  0.45210000  0.11110000  1.0 -0.3491104194
N  N18  1  0.31930000  0.86720000  0.11110000  1.0 -0.3491104194
N  N19  1  0.36160000  0.49240000  0.69090000  1.0 -0.3491104194
N  N20  1  0.63840000  0.50760000  0.19090000  1.0 -0.3491104194
N  N21  1  0.50760000  0.86920000  0.69090000  1.0 -0.3491104194
N  N22  1  0.13080000  0.63840000  0.69090000  1.0 -0.3491104194
N  N23  1  0.86920000  0.36160000  0.19090000  1.0 -0.3491104194
N  N24  1  0.49240000  0.13080000  0.19090000  1.0 -0.3491104194
O  O1  1  0.22680000  0.17680000  0.40730000  1.0 -0.4862274725
O  O2  1  0.77320000  0.82320000  0.90730000  1.0 -0.4862274725
O  O3  1  0.82320000  0.05000000  0.40730000  1.0 -0.4862274725
O  O4  1  0.95000000  0.77320000  0.40730000  1.0 -0.4862274725
O  O5  1  0.05000000  0.22680000  0.90730000  1.0 -0.4862274725
O  O6  1  0.17680000  0.95000000  0.90730000  1.0 -0.4862274725
O  O7  1  0.23750000  0.05460000  0.24490000  1.0 -0.5189259845
O  O8  1  0.76250000  0.94540000  0.74490000  1.0 -0.5189259845
O  O9  1  0.94540000  0.18290000  0.24490000  1.0 -0.5189259845
O  O10  1  0.81710000  0.76250000  0.24490000  1.0 -0.5189259845
O  O11  1  0.18290000  0.23750000  0.74490000  1.0 -0.5189259845
O  O12  1  0.05460000  0.81710000  0.74490000  1.0 -0.5189259845
