# DDEC6 charges by PACMAN v1.1 (https://github.com/mtap-research/PACMAN-charge/)
data_UJOWIA_ASR_pacman
_symmetry_space_group_name_H-M   'P 1'
_cell_length_a   19.39370000
_cell_length_b   19.39370000
_cell_length_c   19.39370000
_cell_angle_alpha   143.51900000
_cell_angle_beta   143.51900000
_cell_angle_gamma   52.54770000
_symmetry_Int_Tables_number   1
_chemical_formula_structural   Co2W(CN)8
_chemical_formula_sum   'Co4 W2 C16 N16'
_cell_volume   2563.24368513
_cell_formula_units_Z   2
loop_
 _symmetry_equiv_pos_site_id
 _symmetry_equiv_pos_as_xyz
  1  'x, y, z'
loop_
 _atom_site_type_symbol
 _atom_site_label
 _atom_site_symmetry_multiplicity
 _atom_site_fract_x
 _atom_site_fract_y
 _atom_site_fract_z
 _atom_site_occupancy
 _atom_site_charge
Co  Co1  1  0.87500000  0.12500000  0.25000000  1.0 0.6826353405
Co  Co2  1  0.87500000  0.12500000  0.75000000  1.0 0.6608629956
Co  Co3  1  0.87500000  0.62500000  0.75000000  1.0 0.6608629956
Co  Co4  1  0.37500000  0.12500000  0.25000000  1.0 0.6608629956
W  W1  1  0.75000000  0.25000000  0.50000000  1.0 0.2599151467
W  W2  1  0.00000000  0.00000000  0.00000000  1.0 0.2669556771
C  C1  1  0.69247000  0.06617000  0.29490000  1.0 -0.0484978578
C  C2  1  0.81617000  0.02127000  0.87370000  1.0 -0.0484978578
C  C3  1  0.77127000  0.39757000  0.70510000  1.0 -0.0484978578
C  C4  1  0.14757000  0.94247000  0.12630000  1.0 -0.0484978578
C  C5  1  0.05753000  0.18383000  0.20510000  1.0 -0.0484978578
C  C6  1  0.93383000  0.22873000  0.62630000  1.0 -0.0484978578
C  C7  1  0.97873000  0.85243000  0.79490000  1.0 -0.0484978578
C  C8  1  0.60243000  0.30753000  0.37370000  1.0 -0.0445054605
C  C9  1  0.77518000  0.20070000  0.37502000  1.0 0.2392645155
C  C10  1  0.95070000  0.07568000  0.92552000  1.0 0.2347723876
C  C11  1  0.82568000  0.40016000  0.62498000  1.0 0.2392645155
C  C12  1  0.15016000  0.02518000  0.07448000  1.0 0.2347723876
C  C13  1  0.97482000  0.04930000  0.12498000  1.0 0.2392645155
C  C14  1  0.79930000  0.17432000  0.57448000  1.0 0.2392645155
C  C15  1  0.92432000  0.84984000  0.87502000  1.0 0.2347723876
C  C16  1  0.59984000  0.22482000  0.42552000  1.0 0.2392645155
N  N1  1  0.79459000  0.17983000  0.31780000  1.0 -0.4674430966
N  N2  1  0.92983000  0.11203000  0.88524000  1.0 -0.4674430966
N  N3  1  0.86203000  0.47679000  0.68220000  1.0 -0.4674430966
N  N4  1  0.22679000  0.04459000  0.11476000  1.0 -0.4648173119
N  N5  1  0.95541000  0.07017000  0.18220000  1.0 -0.4674430966
N  N6  1  0.82017000  0.13797000  0.61476000  1.0 -0.4674430966
N  N7  1  0.88797000  0.77321000  0.81780000  1.0 -0.4674430966
N  N8  1  0.52321000  0.20541000  0.38524000  1.0 -0.4674430966
N  N9  1  0.66104000  0.96903000  0.18719000  1.0 -0.1214781798
N  N10  1  0.71903000  0.03184000  0.80799000  1.0 -0.1214781798
N  N11  1  0.78184000  0.47385000  0.81281000  1.0 -0.1214781798
N  N12  1  0.22385000  0.91104000  0.19201000  1.0 -0.1214781798
N  N13  1  0.08896000  0.28097000  0.31281000  1.0 -0.1214781798
N  N14  1  0.03097000  0.21816000  0.69201000  1.0 -0.1214781798
N  N15  1  0.96816000  0.77615000  0.68719000  1.0 -0.1214781798
N  N16  1  0.52615000  0.33896000  0.30799000  1.0 -0.1214781798
