# DDEC6 charges by PACMAN v1.1 (https://github.com/mtap-research/PACMAN-charge/)
data_UJUPUM_ion_pacman
_symmetry_space_group_name_H-M   'P 1'
_cell_length_a   19.38330000
_cell_length_b   19.38330000
_cell_length_c   19.38330000
_cell_angle_alpha   109.47100000
_cell_angle_beta   109.47100000
_cell_angle_gamma   109.47100000
_symmetry_Int_Tables_number   1
_chemical_formula_structural   Zn7B3H60C24N48(OF3)4
_chemical_formula_sum   'Zn14 B6 H120 C48 N96 O8 F24'
_cell_volume   5606.15123436
_cell_formula_units_Z   2
loop_
 _symmetry_equiv_pos_site_id
 _symmetry_equiv_pos_as_xyz
  1  'x, y, z'
loop_
 _atom_site_type_symbol
 _atom_site_label
 _atom_site_symmetry_multiplicity
 _atom_site_fract_x
 _atom_site_fract_y
 _atom_site_fract_z
 _atom_site_occupancy
 _atom_site_charge
Zn  Zn1  1  0.62500000  0.37500000  0.25000000  1.0 0.7173081334
Zn  Zn2  1  0.12500000  0.75000000  0.87500000  1.0 0.7173081334
Zn  Zn3  1  0.37500000  0.25000000  0.62500000  1.0 0.7173081334
Zn  Zn4  1  0.25000000  0.62500000  0.37500000  1.0 0.7173081334
Zn  Zn5  1  0.75000000  0.87500000  0.12500000  1.0 0.7173081334
Zn  Zn6  1  0.87500000  0.12500000  0.75000000  1.0 0.7173081334
Zn  Zn7  1  0.39354000  0.39354000  0.39354000  1.0 0.6931164359
Zn  Zn8  1  0.00000000  0.60646000  0.50000000  1.0 0.6931164359
Zn  Zn9  1  0.50000000  0.00000000  0.60646000  1.0 0.6931164359
Zn  Zn10  1  0.60646000  0.50000000  0.00000000  1.0 0.6931164359
Zn  Zn11  1  0.50000000  0.00000000  0.10646000  1.0 0.6931164359
Zn  Zn12  1  0.10646000  0.50000000  0.00000000  1.0 0.6931164359
Zn  Zn13  1  0.00000000  0.10646000  0.50000000  1.0 0.6931164359
Zn  Zn14  1  0.89354000  0.89354000  0.89354000  1.0 0.6931164359
B  B1  1  0.25000000  0.12500000  0.87500000  1.0 0.8579589322
B  B2  1  0.87500000  0.25000000  0.12500000  1.0 0.8579589322
B  B3  1  0.62500000  0.75000000  0.37500000  1.0 0.8579589322
B  B4  1  0.37500000  0.62500000  0.75000000  1.0 0.8579589322
B  B5  1  0.12500000  0.87500000  0.25000000  1.0 0.8579589322
B  B6  1  0.75000000  0.37500000  0.62500000  1.0 0.8579589322
H  H1  1  0.55320000  0.37380000  0.44620000  1.0 0.1510302419
H  H2  1  0.92760000  0.55380000  0.60700000  1.0 0.1510302419
H  H3  1  0.57240000  0.17940000  0.62620000  1.0 0.1510302419
H  H4  1  0.32060000  0.89300000  0.44680000  1.0 0.1510302419
H  H5  1  0.55380000  0.60700000  0.92760000  1.0 0.1510302419
H  H6  1  0.62620000  0.57240000  0.17940000  1.0 0.1510302419
H  H7  1  0.89300000  0.44680000  0.32060000  1.0 0.1510302419
H  H8  1  0.44620000  0.55320000  0.37380000  1.0 0.1510302419
H  H9  1  0.37380000  0.44620000  0.55320000  1.0 0.1510302419
H  H10  1  0.39300000  0.82060000  0.94680000  1.0 0.1510302419
H  H11  1  0.05380000  0.42760000  0.10700000  1.0 0.1510302419
H  H12  1  0.10700000  0.05380000  0.42760000  1.0 0.1510302419
H  H13  1  0.67940000  0.07240000  0.12620000  1.0 0.1510302419
H  H14  1  0.82060000  0.94680000  0.39300000  1.0 0.1510302419
H  H15  1  0.12620000  0.67940000  0.07240000  1.0 0.1510302419
H  H16  1  0.94680000  0.39300000  0.82060000  1.0 0.1510302419
H  H17  1  0.07240000  0.12620000  0.67940000  1.0 0.1510302419
H  H18  1  0.42760000  0.10700000  0.05380000  1.0 0.1510302419
H  H19  1  0.60700000  0.92760000  0.55380000  1.0 0.1510302419
H  H20  1  0.87380000  0.05320000  0.94620000  1.0 0.1510302419
H  H21  1  0.17940000  0.62620000  0.57240000  1.0 0.1510302419
H  H22  1  0.94620000  0.87380000  0.05320000  1.0 0.1510302419
H  H23  1  0.44680000  0.32060000  0.89300000  1.0 0.1510302419
H  H24  1  0.05320000  0.94620000  0.87380000  1.0 0.1510302419
H  H25  1  0.57930000  0.32390000  0.38760000  1.0 0.1743465279
H  H26  1  0.93630000  0.61240000  0.69170000  1.0 0.1743465279
H  H27  1  0.56370000  0.25540000  0.67610000  1.0 0.1743465279
H  H28  1  0.24460000  0.80830000  0.42070000  1.0 0.1743465279
H  H29  1  0.61240000  0.69170000  0.93630000  1.0 0.1743465279
H  H30  1  0.67610000  0.56370000  0.25540000  1.0 0.1743465279
H  H31  1  0.80830000  0.42070000  0.24460000  1.0 0.1743465279
H  H32  1  0.38760000  0.57930000  0.32390000  1.0 0.1743465279
H  H33  1  0.32390000  0.38760000  0.57930000  1.0 0.1743465279
H  H34  1  0.30830000  0.74460000  0.92070000  1.0 0.1743465279
H  H35  1  0.11240000  0.43630000  0.19170000  1.0 0.1743465279
H  H36  1  0.19170000  0.11240000  0.43630000  1.0 0.1743465279
H  H37  1  0.75540000  0.06370000  0.17610000  1.0 0.1743465279
H  H38  1  0.74460000  0.92070000  0.30830000  1.0 0.1743465279
H  H39  1  0.17610000  0.75540000  0.06370000  1.0 0.1743465279
H  H40  1  0.92070000  0.30830000  0.74460000  1.0 0.1743465279
H  H41  1  0.06370000  0.17610000  0.75540000  1.0 0.1743465279
H  H42  1  0.43630000  0.19170000  0.11240000  1.0 0.1743465279
H  H43  1  0.69170000  0.93630000  0.61240000  1.0 0.1743465279
H  H44  1  0.82390000  0.07930000  0.88760000  1.0 0.1743465279
H  H45  1  0.25540000  0.67610000  0.56370000  1.0 0.1743465279
H  H46  1  0.88760000  0.82390000  0.07930000  1.0 0.1743465279
H  H47  1  0.42070000  0.24460000  0.80830000  1.0 0.1743465279
H  H48  1  0.07930000  0.88760000  0.82390000  1.0 0.1743465279
H  H49  1  0.63390000  0.42270000  0.44320000  1.0 0.1510302419
H  H50  1  0.97950000  0.55680000  0.69070000  1.0 0.1510302419
H  H51  1  0.52050000  0.21120000  0.57730000  1.0 0.1510302419
H  H52  1  0.28880000  0.80930000  0.36610000  1.0 0.1510302419
H  H53  1  0.55680000  0.69070000  0.97950000  1.0 0.1510302419
H  H54  1  0.57730000  0.52050000  0.21120000  1.0 0.1510302419
H  H55  1  0.80930000  0.36610000  0.28880000  1.0 0.1510302419
H  H56  1  0.44320000  0.63390000  0.42270000  1.0 0.1510302419
H  H57  1  0.42270000  0.44320000  0.63390000  1.0 0.1510302419
H  H58  1  0.30930000  0.78880000  0.86610000  1.0 0.1510302419
H  H59  1  0.05680000  0.47950000  0.19070000  1.0 0.1510302419
H  H60  1  0.19070000  0.05680000  0.47950000  1.0 0.1510302419
H  H61  1  0.71120000  0.02050000  0.07730000  1.0 0.1510302419
H  H62  1  0.78880000  0.86610000  0.30930000  1.0 0.1510302419
H  H63  1  0.07730000  0.71120000  0.02050000  1.0 0.1510302419
H  H64  1  0.86610000  0.30930000  0.78880000  1.0 0.1510302419
H  H65  1  0.02050000  0.07730000  0.71120000  1.0 0.1510302419
H  H66  1  0.47950000  0.19070000  0.05680000  1.0 0.1510302419
H  H67  1  0.69070000  0.97950000  0.55680000  1.0 0.1510302419
H  H68  1  0.92270000  0.13390000  0.94320000  1.0 0.1510302419
H  H69  1  0.21120000  0.57730000  0.52050000  1.0 0.1510302419
H  H70  1  0.94320000  0.92270000  0.13390000  1.0 0.1510302419
H  H71  1  0.36610000  0.28880000  0.80930000  1.0 0.1510302419
H  H72  1  0.13390000  0.94320000  0.92270000  1.0 0.1510302419
H  H73  1  0.24600000  0.24600000  0.28400000  1.0 0.0867337367
H  H74  1  0.96200000  0.71600000  0.46200000  1.0 0.0867337367
H  H75  1  0.53800000  0.00000000  0.75400000  1.0 0.0867337367
H  H76  1  0.50000000  0.03800000  0.75400000  1.0 0.0867337367
H  H77  1  0.71600000  0.46200000  0.96200000  1.0 0.0867337367
H  H78  1  0.75400000  0.53800000  0.00000000  1.0 0.0867337367
H  H79  1  0.03800000  0.75400000  0.50000000  1.0 0.0867337367
H  H80  1  0.28400000  0.24600000  0.24600000  1.0 0.0867337367
H  H81  1  0.24600000  0.28400000  0.24600000  1.0 0.0867337367
H  H82  1  0.53800000  0.00000000  0.25400000  1.0 0.0867337367
H  H83  1  0.21600000  0.46200000  0.96200000  1.0 0.0867337367
H  H84  1  0.96200000  0.21600000  0.46200000  1.0 0.0867337367
H  H85  1  0.50000000  0.03800000  0.25400000  1.0 0.0867337367
H  H86  1  0.00000000  0.25400000  0.53800000  1.0 0.0867337367
H  H87  1  0.25400000  0.50000000  0.03800000  1.0 0.0867337367
H  H88  1  0.25400000  0.53800000  0.00000000  1.0 0.0867337367
H  H89  1  0.03800000  0.25400000  0.50000000  1.0 0.0867337367
H  H90  1  0.46200000  0.96200000  0.21600000  1.0 0.0867337367
H  H91  1  0.46200000  0.96200000  0.71600000  1.0 0.0867337367
H  H92  1  0.74600000  0.74600000  0.78400000  1.0 0.0867337367
H  H93  1  0.00000000  0.75400000  0.53800000  1.0 0.0867337367
H  H94  1  0.78400000  0.74600000  0.74600000  1.0 0.0867337367
H  H95  1  0.75400000  0.50000000  0.03800000  1.0 0.0867337367
H  H96  1  0.74600000  0.78400000  0.74600000  1.0 0.0867337367
H  H97  1  0.27130000  0.27130000  0.23340000  1.0 0.0867337367
H  H98  1  0.03790000  0.76660000  0.53790000  1.0 0.0867337367
H  H99  1  0.46210000  0.00000000  0.72870000  1.0 0.0867337367
H  H100  1  0.50000000  0.96210000  0.72870000  1.0 0.0867337367
H  H101  1  0.76660000  0.53790000  0.03790000  1.0 0.0867337367
H  H102  1  0.72870000  0.46210000  0.00000000  1.0 0.0867337367
H  H103  1  0.96210000  0.72870000  0.50000000  1.0 0.0867337367
H  H104  1  0.23340000  0.27130000  0.27130000  1.0 0.0867337367
H  H105  1  0.27130000  0.23340000  0.27130000  1.0 0.0867337367
H  H106  1  0.46210000  0.00000000  0.22870000  1.0 0.0867337367
H  H107  1  0.26660000  0.53790000  0.03790000  1.0 0.0867337367
H  H108  1  0.03790000  0.26660000  0.53790000  1.0 0.0867337367
H  H109  1  0.50000000  0.96210000  0.22870000  1.0 0.0867337367
H  H110  1  0.00000000  0.22870000  0.46210000  1.0 0.0867337367
H  H111  1  0.22870000  0.50000000  0.96210000  1.0 0.0867337367
H  H112  1  0.22870000  0.46210000  0.00000000  1.0 0.0867337367
H  H113  1  0.96210000  0.22870000  0.50000000  1.0 0.0867337367
H  H114  1  0.53790000  0.03790000  0.26660000  1.0 0.0867337367
H  H115  1  0.53790000  0.03790000  0.76660000  1.0 0.0867337367
H  H116  1  0.77130000  0.77130000  0.73340000  1.0 0.0867337367
H  H117  1  0.00000000  0.72870000  0.46210000  1.0 0.0867337367
H  H118  1  0.73340000  0.77130000  0.77130000  1.0 0.0867337367
H  H119  1  0.72870000  0.50000000  0.96210000  1.0 0.0867337367
H  H120  1  0.77130000  0.73340000  0.77130000  1.0 0.0867337367
C  C1  1  0.52570000  0.38260000  0.34110000  1.0 0.3054349592
C  C2  1  0.04150000  0.65890000  0.68460000  1.0 0.3054349592
C  C3  1  0.45850000  0.14310000  0.61740000  1.0 0.3054349592
C  C4  1  0.35690000  0.81540000  0.47430000  1.0 0.3054349592
C  C5  1  0.65890000  0.68460000  0.04150000  1.0 0.3054349592
C  C6  1  0.61740000  0.45850000  0.14310000  1.0 0.3054349592
C  C7  1  0.81540000  0.47430000  0.35690000  1.0 0.3054349592
C  C8  1  0.34110000  0.52570000  0.38260000  1.0 0.3054349592
C  C9  1  0.38260000  0.34110000  0.52570000  1.0 0.3054349592
C  C10  1  0.31540000  0.85690000  0.97430000  1.0 0.3054349592
C  C11  1  0.15890000  0.54150000  0.18460000  1.0 0.3054349592
C  C12  1  0.18460000  0.15890000  0.54150000  1.0 0.3054349592
C  C13  1  0.64310000  0.95850000  0.11740000  1.0 0.3054349592
C  C14  1  0.85690000  0.97430000  0.31540000  1.0 0.3054349592
C  C15  1  0.11740000  0.64310000  0.95850000  1.0 0.3054349592
C  C16  1  0.97430000  0.31540000  0.85690000  1.0 0.3054349592
C  C17  1  0.95850000  0.11740000  0.64310000  1.0 0.3054349592
C  C18  1  0.54150000  0.18460000  0.15890000  1.0 0.3054349592
C  C19  1  0.68460000  0.04150000  0.65890000  1.0 0.3054349592
C  C20  1  0.88260000  0.02570000  0.84110000  1.0 0.3054349592
C  C21  1  0.14310000  0.61740000  0.45850000  1.0 0.3054349592
C  C22  1  0.84110000  0.88260000  0.02570000  1.0 0.3054349592
C  C23  1  0.47430000  0.35690000  0.81540000  1.0 0.3054349592
C  C24  1  0.02570000  0.84110000  0.88260000  1.0 0.3054349592
C  C25  1  0.57750000  0.37510000  0.41060000  1.0 -0.5236855974
C  C26  1  0.96450000  0.58940000  0.66690000  1.0 -0.5236855974
C  C27  1  0.53550000  0.20240000  0.62490000  1.0 -0.5236855974
C  C28  1  0.29760000  0.83310000  0.42250000  1.0 -0.5236855974
C  C29  1  0.58940000  0.66690000  0.96450000  1.0 -0.5236855974
C  C30  1  0.62490000  0.53550000  0.20240000  1.0 -0.5236855974
C  C31  1  0.83310000  0.42250000  0.29760000  1.0 -0.5236855974
C  C32  1  0.41060000  0.57750000  0.37510000  1.0 -0.5236855974
C  C33  1  0.37510000  0.41060000  0.57750000  1.0 -0.5236855974
C  C34  1  0.33310000  0.79760000  0.92250000  1.0 -0.5236855974
C  C35  1  0.08940000  0.46450000  0.16690000  1.0 -0.5236855974
C  C36  1  0.16690000  0.08940000  0.46450000  1.0 -0.5236855974
C  C37  1  0.70240000  0.03550000  0.12490000  1.0 -0.5236855974
C  C38  1  0.79760000  0.92250000  0.33310000  1.0 -0.5236855974
C  C39  1  0.12490000  0.70240000  0.03550000  1.0 -0.5236855974
C  C40  1  0.92250000  0.33310000  0.79760000  1.0 -0.5236855974
C  C41  1  0.03550000  0.12490000  0.70240000  1.0 -0.5236855974
C  C42  1  0.46450000  0.16690000  0.08940000  1.0 -0.5236855974
C  C43  1  0.66690000  0.96450000  0.58940000  1.0 -0.5236855974
C  C44  1  0.87510000  0.07750000  0.91060000  1.0 -0.5236855974
C  C45  1  0.20240000  0.62490000  0.53550000  1.0 -0.5236855974
C  C46  1  0.91060000  0.87510000  0.07750000  1.0 -0.5236855974
C  C47  1  0.42250000  0.29760000  0.83310000  1.0 -0.5236855974
C  C48  1  0.07750000  0.91060000  0.87510000  1.0 -0.5236855974
N  N1  1  0.53990000  0.38620000  0.27950000  1.0 -0.2815401882
N  N2  1  0.10670000  0.72050000  0.76040000  1.0 -0.2815401882
N  N3  1  0.39330000  0.15370000  0.61380000  1.0 -0.2815401882
N  N4  1  0.34630000  0.73960000  0.46010000  1.0 -0.2815401882
N  N5  1  0.72050000  0.76040000  0.10670000  1.0 -0.2815401882
N  N6  1  0.61380000  0.39330000  0.15370000  1.0 -0.2815401882
N  N7  1  0.73960000  0.46010000  0.34630000  1.0 -0.2815401882
N  N8  1  0.27950000  0.53990000  0.38620000  1.0 -0.2815401882
N  N9  1  0.38620000  0.27950000  0.53990000  1.0 -0.2815401882
N  N10  1  0.23960000  0.84630000  0.96010000  1.0 -0.2815401882
N  N11  1  0.22050000  0.60670000  0.26040000  1.0 -0.2815401882
N  N12  1  0.26040000  0.22050000  0.60670000  1.0 -0.2815401882
N  N13  1  0.65370000  0.89330000  0.11380000  1.0 -0.2815401882
N  N14  1  0.84630000  0.96010000  0.23960000  1.0 -0.2815401882
N  N15  1  0.11380000  0.65370000  0.89330000  1.0 -0.2815401882
N  N16  1  0.96010000  0.23960000  0.84630000  1.0 -0.2815401882
N  N17  1  0.89330000  0.11380000  0.65370000  1.0 -0.2815401882
N  N18  1  0.60670000  0.26040000  0.22050000  1.0 -0.2815401882
N  N19  1  0.76040000  0.10670000  0.72050000  1.0 -0.2815401882
N  N20  1  0.88620000  0.03990000  0.77950000  1.0 -0.2815401882
N  N21  1  0.15370000  0.61380000  0.39330000  1.0 -0.2815401882
N  N22  1  0.77950000  0.88620000  0.03990000  1.0 -0.2815401882
N  N23  1  0.46010000  0.34630000  0.73960000  1.0 -0.2815401882
N  N24  1  0.03990000  0.77950000  0.88620000  1.0 -0.2815401882
N  N25  1  0.45890000  0.39420000  0.33270000  1.0 -0.3206375879
N  N26  1  0.06150000  0.66730000  0.62620000  1.0 -0.3206375879
N  N27  1  0.43850000  0.06470000  0.60580000  1.0 -0.3206375879
N  N28  1  0.43530000  0.87380000  0.54110000  1.0 -0.3206375879
N  N29  1  0.66730000  0.62620000  0.06150000  1.0 -0.3206375879
N  N30  1  0.60580000  0.43850000  0.06470000  1.0 -0.3206375879
N  N31  1  0.87380000  0.54110000  0.43530000  1.0 -0.3206375879
N  N32  1  0.33270000  0.45890000  0.39420000  1.0 -0.3206375879
N  N33  1  0.39420000  0.33270000  0.45890000  1.0 -0.3206375879
N  N34  1  0.37380000  0.93530000  0.04110000  1.0 -0.3206375879
N  N35  1  0.16730000  0.56150000  0.12620000  1.0 -0.3206375879
N  N36  1  0.12620000  0.16730000  0.56150000  1.0 -0.3206375879
N  N37  1  0.56470000  0.93850000  0.10580000  1.0 -0.3206375879
N  N38  1  0.93530000  0.04110000  0.37380000  1.0 -0.3206375879
N  N39  1  0.10580000  0.56470000  0.93850000  1.0 -0.3206375879
N  N40  1  0.04110000  0.37380000  0.93530000  1.0 -0.3206375879
N  N41  1  0.93850000  0.10580000  0.56470000  1.0 -0.3206375879
N  N42  1  0.56150000  0.12620000  0.16730000  1.0 -0.3206375879
N  N43  1  0.62620000  0.06150000  0.66730000  1.0 -0.3206375879
N  N44  1  0.89420000  0.95890000  0.83270000  1.0 -0.3206375879
N  N45  1  0.06470000  0.60580000  0.43850000  1.0 -0.3206375879
N  N46  1  0.83270000  0.89420000  0.95890000  1.0 -0.3206375879
N  N47  1  0.54110000  0.43530000  0.87380000  1.0 -0.3206375879
N  N48  1  0.95890000  0.83270000  0.89420000  1.0 -0.3206375879
N  N49  1  0.48100000  0.40140000  0.23520000  1.0 -0.013947546
N  N50  1  0.16620000  0.76480000  0.74580000  1.0 -0.013947546
N  N51  1  0.33380000  0.07960000  0.59860000  1.0 -0.013947546
N  N52  1  0.42040000  0.75420000  0.51900000  1.0 -0.013947546
N  N53  1  0.76480000  0.74580000  0.16620000  1.0 -0.013947546
N  N54  1  0.59860000  0.33380000  0.07960000  1.0 -0.013947546
N  N55  1  0.75420000  0.51900000  0.42040000  1.0 -0.013947546
N  N56  1  0.23520000  0.48100000  0.40140000  1.0 -0.013947546
N  N57  1  0.40140000  0.23520000  0.48100000  1.0 -0.013947546
N  N58  1  0.25420000  0.92040000  0.01900000  1.0 -0.013947546
N  N59  1  0.26480000  0.66620000  0.24580000  1.0 -0.013947546
N  N60  1  0.24580000  0.26480000  0.66620000  1.0 -0.013947546
N  N61  1  0.57960000  0.83380000  0.09860000  1.0 -0.013947546
N  N62  1  0.92040000  0.01900000  0.25420000  1.0 -0.013947546
N  N63  1  0.09860000  0.57960000  0.83380000  1.0 -0.013947546
N  N64  1  0.01900000  0.25420000  0.92040000  1.0 -0.013947546
N  N65  1  0.83380000  0.09860000  0.57960000  1.0 -0.013947546
N  N66  1  0.66620000  0.24580000  0.26480000  1.0 -0.013947546
N  N67  1  0.74580000  0.16620000  0.76480000  1.0 -0.013947546
N  N68  1  0.90140000  0.98100000  0.73520000  1.0 -0.013947546
N  N69  1  0.07960000  0.59860000  0.33380000  1.0 -0.013947546
N  N70  1  0.73520000  0.90140000  0.98100000  1.0 -0.013947546
N  N71  1  0.51900000  0.42040000  0.75420000  1.0 -0.013947546
N  N72  1  0.98100000  0.73520000  0.90140000  1.0 -0.013947546
N  N73  1  0.43710000  0.41010000  0.27140000  1.0 0.0006055646
N  N74  1  0.13870000  0.72860000  0.66570000  1.0 0.0006055646
N  N75  1  0.36130000  0.02700000  0.58990000  1.0 0.0006055646
N  N76  1  0.47300000  0.83430000  0.56290000  1.0 0.0006055646
N  N77  1  0.72860000  0.66570000  0.13870000  1.0 0.0006055646
N  N78  1  0.58990000  0.36130000  0.02700000  1.0 0.0006055646
N  N79  1  0.83430000  0.56290000  0.47300000  1.0 0.0006055646
N  N80  1  0.27140000  0.43710000  0.41010000  1.0 0.0006055646
N  N81  1  0.41010000  0.27140000  0.43710000  1.0 0.0006055646
N  N82  1  0.33430000  0.97300000  0.06290000  1.0 0.0006055646
N  N83  1  0.22860000  0.63870000  0.16570000  1.0 0.0006055646
N  N84  1  0.16570000  0.22860000  0.63870000  1.0 0.0006055646
N  N85  1  0.52700000  0.86130000  0.08990000  1.0 0.0006055646
N  N86  1  0.97300000  0.06290000  0.33430000  1.0 0.0006055646
N  N87  1  0.08990000  0.52700000  0.86130000  1.0 0.0006055646
N  N88  1  0.06290000  0.33430000  0.97300000  1.0 0.0006055646
N  N89  1  0.86130000  0.08990000  0.52700000  1.0 0.0006055646
N  N90  1  0.63870000  0.16570000  0.22860000  1.0 0.0006055646
N  N91  1  0.66570000  0.13870000  0.72860000  1.0 0.0006055646
N  N92  1  0.91010000  0.93710000  0.77140000  1.0 0.0006055646
N  N93  1  0.02700000  0.58990000  0.36130000  1.0 0.0006055646
N  N94  1  0.77140000  0.91010000  0.93710000  1.0 0.0006055646
N  N95  1  0.56290000  0.47300000  0.83430000  1.0 0.0006055646
N  N96  1  0.93710000  0.77140000  0.91010000  1.0 0.0006055646
O  O1  1  0.28400000  0.28400000  0.28400000  1.0 -0.2128355129
O  O2  1  0.00000000  0.71600000  0.50000000  1.0 -0.2128355129
O  O3  1  0.50000000  0.00000000  0.71600000  1.0 -0.2128355129
O  O4  1  0.71600000  0.50000000  0.00000000  1.0 -0.2128355129
O  O5  1  0.50000000  0.00000000  0.21600000  1.0 -0.2128355129
O  O6  1  0.21600000  0.50000000  0.00000000  1.0 -0.2128355129
O  O7  1  0.00000000  0.21600000  0.50000000  1.0 -0.2128355129
O  O8  1  0.78400000  0.78400000  0.78400000  1.0 -0.2128355129
F  F1  1  0.17620000  0.11150000  0.86410000  1.0 -0.3700144966
F  F2  1  0.32380000  0.18790000  0.93530000  1.0 -0.3700144966
F  F3  1  0.24740000  0.13590000  0.81210000  1.0 -0.3700144966
F  F4  1  0.25260000  0.06470000  0.88850000  1.0 -0.3700144966
F  F5  1  0.81210000  0.24740000  0.13590000  1.0 -0.3700144966
F  F6  1  0.93530000  0.32380000  0.18790000  1.0 -0.3700144966
F  F7  1  0.86410000  0.17620000  0.11150000  1.0 -0.3700144966
F  F8  1  0.88850000  0.25260000  0.06470000  1.0 -0.3700144966
F  F9  1  0.61150000  0.67620000  0.36410000  1.0 -0.3700144966
F  F10  1  0.56470000  0.75260000  0.38850000  1.0 -0.3700144966
F  F11  1  0.63590000  0.74740000  0.31210000  1.0 -0.3700144966
F  F12  1  0.68790000  0.82380000  0.43530000  1.0 -0.3700144966
F  F13  1  0.43530000  0.68790000  0.82380000  1.0 -0.3700144966
F  F14  1  0.38850000  0.56470000  0.75260000  1.0 -0.3700144966
F  F15  1  0.31210000  0.63590000  0.74740000  1.0 -0.3700144966
F  F16  1  0.36410000  0.61150000  0.67620000  1.0 -0.3700144966
F  F17  1  0.13590000  0.81210000  0.24740000  1.0 -0.3700144966
F  F18  1  0.18790000  0.93530000  0.32380000  1.0 -0.3700144966
F  F19  1  0.11150000  0.86410000  0.17620000  1.0 -0.3700144966
F  F20  1  0.06470000  0.88850000  0.25260000  1.0 -0.3700144966
F  F21  1  0.75260000  0.38850000  0.56470000  1.0 -0.3700144966
F  F22  1  0.82380000  0.43530000  0.68790000  1.0 -0.3700144966
F  F23  1  0.67620000  0.36410000  0.61150000  1.0 -0.3700144966
F  F24  1  0.74740000  0.31210000  0.63590000  1.0 -0.3700144966
