# DDEC6 charges by PACMAN v1.1 (https://github.com/mtap-research/PACMAN-charge/)
data_UKAZEM_FSR_pacman
_symmetry_space_group_name_H-M   'P 1'
_cell_length_a   16.96300000
_cell_length_b   18.28300000
_cell_length_c   18.37300000
_cell_angle_alpha   90.00000000
_cell_angle_beta   90.00000000
_cell_angle_gamma   90.00000000
_symmetry_Int_Tables_number   1
_chemical_formula_structural   MnCu3C9ClO18
_chemical_formula_sum   'Mn4 Cu12 C36 Cl4 O72'
_cell_volume   5698.10170132
_cell_formula_units_Z   4
loop_
 _symmetry_equiv_pos_site_id
 _symmetry_equiv_pos_as_xyz
  1  'x, y, z'
loop_
 _atom_site_type_symbol
 _atom_site_label
 _atom_site_symmetry_multiplicity
 _atom_site_fract_x
 _atom_site_fract_y
 _atom_site_fract_z
 _atom_site_occupancy
 _atom_site_charge
Mn  Mn1  1  0.89610000  0.59293000  0.11003000  1.0 1.0284293655
Mn  Mn2  1  0.60390000  0.40707000  0.61003000  1.0 1.0284293655
Mn  Mn3  1  0.10390000  0.09293000  0.38997000  1.0 1.0284293655
Mn  Mn4  1  0.39610000  0.90707000  0.88997000  1.0 1.0284293655
Cu  Cu1  1  0.63589000  0.70162000  0.94345000  1.0 0.9601752821
Cu  Cu2  1  0.86411000  0.29838000  0.44345000  1.0 0.9601752821
Cu  Cu3  1  0.36411000  0.20162000  0.55655000  1.0 0.9601752821
Cu  Cu4  1  0.13589000  0.79838000  0.05655000  1.0 0.9601752821
Cu  Cu5  1  0.70096000  0.55640000  0.86594000  1.0 0.9407852504
Cu  Cu6  1  0.79904000  0.44360000  0.36594000  1.0 0.9407852504
Cu  Cu7  1  0.29904000  0.05640000  0.63406000  1.0 0.9407852504
Cu  Cu8  1  0.20096000  0.94360000  0.13406000  1.0 0.9407852504
Cu  Cu9  1  0.55242000  0.64719000  0.79333000  1.0 0.9601752821
Cu  Cu10  1  0.94758000  0.35281000  0.29333000  1.0 0.9601752821
Cu  Cu11  1  0.44758000  0.14719000  0.70667000  1.0 0.9601752821
Cu  Cu12  1  0.05242000  0.85281000  0.20667000  1.0 0.9601752821
C  C1  1  0.75530000  0.67280000  0.03510000  1.0 0.5498267262
C  C2  1  0.74470000  0.32720000  0.53510000  1.0 0.5498267262
C  C3  1  0.24470000  0.17280000  0.46490000  1.0 0.5498267262
C  C4  1  0.25530000  0.82720000  0.96490000  1.0 0.5498267262
C  C5  1  0.72540000  0.59330000  0.00920000  1.0 0.3365075566
C  C6  1  0.77460000  0.40670000  0.50920000  1.0 0.3365075566
C  C7  1  0.27460000  0.09330000  0.49080000  1.0 0.3365075566
C  C8  1  0.22540000  0.90670000  0.99080000  1.0 0.3339111272
C  C9  1  0.79650000  0.54670000  0.97700000  1.0 0.5616322393
C  C10  1  0.70350000  0.45330000  0.47700000  1.0 0.5616322393
C  C11  1  0.20350000  0.04670000  0.52300000  1.0 0.5616322393
C  C12  1  0.29650000  0.95330000  0.02300000  1.0 0.5616322393
C  C13  1  0.68140000  0.48330000  0.73840000  1.0 0.5498267262
C  C14  1  0.81860000  0.51670000  0.23840000  1.0 0.5498267262
C  C15  1  0.31860000  0.98330000  0.76160000  1.0 0.5498267262
C  C16  1  0.18140000  0.01670000  0.26160000  1.0 0.5498267262
C  C17  1  0.59480000  0.50370000  0.76430000  1.0 0.3365075566
C  C18  1  0.90520000  0.49630000  0.26430000  1.0 0.3365075566
C  C19  1  0.40520000  0.00370000  0.73570000  1.0 0.3365075566
C  C20  1  0.09480000  0.99630000  0.23570000  1.0 0.3365075566
C  C21  1  0.54810000  0.53250000  0.69890000  1.0 0.5498267262
C  C22  1  0.95190000  0.46750000  0.19890000  1.0 0.5616322393
C  C23  1  0.45190000  0.03250000  0.80110000  1.0 0.5498267262
C  C24  1  0.04810000  0.96750000  0.30110000  1.0 0.5616322393
C  C25  1  0.47330000  0.77250000  0.81780000  1.0 0.5498267262
C  C26  1  0.02670000  0.22750000  0.31780000  1.0 0.5498267262
C  C27  1  0.52670000  0.27250000  0.68220000  1.0 0.5498267262
C  C28  1  0.97330000  0.72750000  0.18220000  1.0 0.5498267262
C  C29  1  0.48590000  0.74320000  0.89370000  1.0 0.2810028035
C  C30  1  0.01410000  0.25680000  0.39370000  1.0 0.2810028035
C  C31  1  0.51410000  0.24320000  0.60630000  1.0 0.2810028035
C  C32  1  0.98590000  0.75680000  0.10630000  1.0 0.2810028035
C  C33  1  0.51980000  0.80360000  0.94350000  1.0 0.5660823051
C  C34  1  0.98020000  0.19640000  0.44350000  1.0 0.5660823051
C  C35  1  0.48020000  0.30360000  0.55650000  1.0 0.5660823051
C  C36  1  0.01980000  0.69640000  0.05650000  1.0 0.5616322393
Cl  Cl1  1  0.70540000  0.69780000  0.82040000  1.0 -0.6738364038
Cl  Cl2  1  0.79460000  0.30220000  0.32040000  1.0 -0.6757451531
Cl  Cl3  1  0.29460000  0.19780000  0.67960000  1.0 -0.6738364038
Cl  Cl4  1  0.20540000  0.80220000  0.17960000  1.0 -0.6757451531
O  O1  1  0.80890000  0.67460000  0.07930000  1.0 -0.3795944352
O  O2  1  0.69110000  0.32540000  0.57930000  1.0 -0.3795944352
O  O3  1  0.19110000  0.17460000  0.42070000  1.0 -0.3795944352
O  O4  1  0.30890000  0.82540000  0.92070000  1.0 -0.3795944352
O  O5  1  0.72040000  0.72570000  0.00750000  1.0 -0.4215668228
O  O6  1  0.77960000  0.27430000  0.50750000  1.0 -0.4215668228
O  O7  1  0.27960000  0.22570000  0.49250000  1.0 -0.4215668228
O  O8  1  0.22040000  0.77430000  0.99250000  1.0 -0.4215668228
O  O9  1  0.69260000  0.55620000  0.07290000  1.0 -0.2997286592
O  O10  1  0.80740000  0.44380000  0.57290000  1.0 -0.2997286592
O  O11  1  0.30740000  0.05620000  0.42710000  1.0 -0.2997286592
O  O12  1  0.19260000  0.94380000  0.92710000  1.0 -0.2997286592
O  O13  1  0.66900000  0.59910000  0.95690000  1.0 -0.5514471989
O  O14  1  0.83100000  0.40090000  0.45690000  1.0 -0.5514471989
O  O15  1  0.33100000  0.09910000  0.54310000  1.0 -0.5514471989
O  O16  1  0.16900000  0.90090000  0.04310000  1.0 -0.5514471989
O  O17  1  0.84940000  0.53000000  0.02360000  1.0 -0.438209248
O  O18  1  0.65060000  0.47000000  0.52360000  1.0 -0.438209248
O  O19  1  0.15060000  0.03000000  0.47640000  1.0 -0.438209248
O  O20  1  0.34940000  0.97000000  0.97640000  1.0 -0.438209248
O  O21  1  0.79400000  0.52880000  0.91470000  1.0 -0.3997396764
O  O22  1  0.70600000  0.47120000  0.41470000  1.0 -0.3997396764
O  O23  1  0.20600000  0.02880000  0.58530000  1.0 -0.3944123921
O  O24  1  0.29400000  0.97120000  0.08530000  1.0 -0.3997396764
O  O25  1  0.69130000  0.44940000  0.68250000  1.0 -0.3635695588
O  O26  1  0.80870000  0.55060000  0.18250000  1.0 -0.3635695588
O  O27  1  0.30870000  0.94940000  0.81750000  1.0 -0.3635695588
O  O28  1  0.19130000  0.05060000  0.31750000  1.0 -0.3635695588
O  O29  1  0.73640000  0.50130000  0.78290000  1.0 -0.4295768228
O  O30  1  0.76360000  0.49870000  0.28290000  1.0 -0.4295768228
O  O31  1  0.26360000  0.00130000  0.71710000  1.0 -0.4295768228
O  O32  1  0.23640000  0.99870000  0.21710000  1.0 -0.4295768228
O  O33  1  0.55930000  0.44190000  0.79160000  1.0 -0.2997286592
O  O34  1  0.94070000  0.55810000  0.29160000  1.0 -0.2997286592
O  O35  1  0.44070000  0.94190000  0.70840000  1.0 -0.2997286592
O  O36  1  0.05930000  0.05810000  0.20840000  1.0 -0.2997286592
O  O37  1  0.59990000  0.55490000  0.81770000  1.0 -0.5514471989
O  O38  1  0.90010000  0.44510000  0.31770000  1.0 -0.5514471989
O  O39  1  0.40010000  0.05490000  0.68230000  1.0 -0.5514471989
O  O40  1  0.09990000  0.94510000  0.18230000  1.0 -0.5514471989
O  O41  1  0.53050000  0.49290000  0.64940000  1.0 -0.3795944352
O  O42  1  0.96950000  0.50710000  0.14940000  1.0 -0.3795944352
O  O43  1  0.46950000  0.99290000  0.85060000  1.0 -0.3795944352
O  O44  1  0.03050000  0.00710000  0.35060000  1.0 -0.3795944352
O  O45  1  0.52980000  0.60090000  0.70260000  1.0 -0.4529082265
O  O46  1  0.97020000  0.39910000  0.20260000  1.0 -0.4529082265
O  O47  1  0.47020000  0.10090000  0.79740000  1.0 -0.4529082265
O  O48  1  0.02980000  0.89910000  0.29740000  1.0 -0.4529082265
O  O49  1  0.43670000  0.83070000  0.80950000  1.0 -0.3997396764
O  O50  1  0.06330000  0.16930000  0.30950000  1.0 -0.3997396764
O  O51  1  0.56330000  0.33070000  0.69050000  1.0 -0.3997396764
O  O52  1  0.93670000  0.66930000  0.19050000  1.0 -0.4121375379
O  O53  1  0.49870000  0.73610000  0.76630000  1.0 -0.4121375379
O  O54  1  0.00130000  0.26390000  0.26630000  1.0 -0.4121375379
O  O55  1  0.50130000  0.23610000  0.73370000  1.0 -0.4121375379
O  O56  1  0.99870000  0.76390000  0.23370000  1.0 -0.4121375379
O  O57  1  0.41370000  0.71590000  0.91940000  1.0 -0.2748114404
O  O58  1  0.08630000  0.28410000  0.41940000  1.0 -0.2748114404
O  O59  1  0.58630000  0.21590000  0.58060000  1.0 -0.2763244447
O  O60  1  0.91370000  0.78410000  0.08060000  1.0 -0.2763244447
O  O61  1  0.53980000  0.68370000  0.89030000  1.0 -0.5838550862
O  O62  1  0.96020000  0.31630000  0.39030000  1.0 -0.5838550862
O  O63  1  0.46020000  0.18370000  0.60970000  1.0 -0.5838550862
O  O64  1  0.03980000  0.81630000  0.10970000  1.0 -0.5838550862
O  O65  1  0.47980000  0.85800000  0.95660000  1.0 -0.4215668228
O  O66  1  0.02020000  0.14200000  0.45660000  1.0 -0.4215668228
O  O67  1  0.52020000  0.35800000  0.54340000  1.0 -0.4215668228
O  O68  1  0.97980000  0.64200000  0.04340000  1.0 -0.4215668228
O  O69  1  0.58610000  0.79170000  0.96950000  1.0 -0.438209248
O  O70  1  0.91390000  0.20830000  0.46950000  1.0 -0.438209248
O  O71  1  0.41390000  0.29170000  0.53050000  1.0 -0.438209248
O  O72  1  0.08610000  0.70830000  0.03050000  1.0 -0.438209248
