# DDEC6 charges by PACMAN v1.1 (https://github.com/mtap-research/PACMAN-charge/)
data_UKOLOV_ASR_pacman
_symmetry_space_group_name_H-M   'P 1'
_cell_length_a   19.33660000
_cell_length_b   19.33660000
_cell_length_c   19.33660000
_cell_angle_alpha   109.47100000
_cell_angle_beta   109.47100000
_cell_angle_gamma   109.47100000
_symmetry_Int_Tables_number   1
_chemical_formula_structural   Zn8H24C42N2O25
_chemical_formula_sum   'Zn32 H96 C168 N8 O100'
_cell_volume   5565.72824145
_cell_formula_units_Z   4
loop_
 _symmetry_equiv_pos_site_id
 _symmetry_equiv_pos_as_xyz
  1  'x, y, z'
loop_
 _atom_site_type_symbol
 _atom_site_label
 _atom_site_symmetry_multiplicity
 _atom_site_fract_x
 _atom_site_fract_y
 _atom_site_fract_z
 _atom_site_occupancy
 _atom_site_charge
Zn  Zn1  1  0.05353000  0.59404000  0.61587000  1.0 0.4873836751
Zn  Zn2  1  0.61587000  0.05353000  0.59404000  1.0 0.4873836751
Zn  Zn3  1  0.59404000  0.61587000  0.05353000  1.0 0.4873836751
Zn  Zn4  1  0.52183000  0.56234000  0.11587000  1.0 0.4873836751
Zn  Zn5  1  0.97817000  0.09404000  0.04051000  1.0 0.4873836751
Zn  Zn6  1  0.55353000  0.93766000  0.45949000  1.0 0.4873836751
Zn  Zn7  1  0.11587000  0.52183000  0.56234000  1.0 0.4873836751
Zn  Zn8  1  0.04051000  0.97817000  0.09404000  1.0 0.4873836751
Zn  Zn9  1  0.45949000  0.55353000  0.93766000  1.0 0.4873836751
Zn  Zn10  1  0.56234000  0.11587000  0.52183000  1.0 0.4873836751
Zn  Zn11  1  0.09404000  0.04051000  0.97817000  1.0 0.4873836751
Zn  Zn12  1  0.93766000  0.45949000  0.55353000  1.0 0.4873836751
Zn  Zn13  1  0.94647000  0.40596000  0.38413000  1.0 0.4873836751
Zn  Zn14  1  0.38413000  0.94647000  0.40596000  1.0 0.4873836751
Zn  Zn15  1  0.40596000  0.38413000  0.94647000  1.0 0.4873836751
Zn  Zn16  1  0.47817000  0.43766000  0.88413000  1.0 0.4873836751
Zn  Zn17  1  0.02183000  0.90596000  0.95949000  1.0 0.4873836751
Zn  Zn18  1  0.44647000  0.06234000  0.54051000  1.0 0.4873836751
Zn  Zn19  1  0.88413000  0.47817000  0.43766000  1.0 0.4873836751
Zn  Zn20  1  0.95949000  0.02183000  0.90596000  1.0 0.4873836751
Zn  Zn21  1  0.54051000  0.44647000  0.06234000  1.0 0.4873836751
Zn  Zn22  1  0.43766000  0.88413000  0.47817000  1.0 0.4873836751
Zn  Zn23  1  0.90596000  0.95949000  0.02183000  1.0 0.4873836751
Zn  Zn24  1  0.06234000  0.54051000  0.44647000  1.0 0.4873836751
Zn  Zn25  1  0.00000000  0.59300000  0.50000000  1.0 0.4432447643
Zn  Zn26  1  0.50000000  0.00000000  0.59300000  1.0 0.4432447643
Zn  Zn27  1  0.59300000  0.50000000  0.00000000  1.0 0.4432447643
Zn  Zn28  1  0.40700000  0.50000000  0.00000000  1.0 0.4432447643
Zn  Zn29  1  0.09300000  0.09300000  0.09300000  1.0 0.4432447643
Zn  Zn30  1  0.50000000  0.00000000  0.40700000  1.0 0.4432447643
Zn  Zn31  1  0.00000000  0.40700000  0.50000000  1.0 0.4432447643
Zn  Zn32  1  0.90700000  0.90700000  0.90700000  1.0 0.4432447643
H  H1  1  0.32090000  0.73830000  0.58360000  1.0 0.1195004299
H  H2  1  0.58360000  0.32090000  0.73830000  1.0 0.1195004299
H  H3  1  0.73830000  0.58360000  0.32090000  1.0 0.1195004299
H  H4  1  0.34530000  0.26270000  0.08360000  1.0 0.1195004299
H  H5  1  0.15470000  0.23830000  0.91740000  1.0 0.1195004299
H  H6  1  0.82090000  0.23730000  0.58260000  1.0 0.1195004299
H  H7  1  0.08360000  0.34530000  0.26270000  1.0 0.1195004299
H  H8  1  0.91740000  0.15470000  0.23830000  1.0 0.1195004299
H  H9  1  0.58260000  0.82090000  0.23730000  1.0 0.1195004299
H  H10  1  0.26270000  0.08360000  0.34530000  1.0 0.1195004299
H  H11  1  0.23830000  0.91740000  0.15470000  1.0 0.1195004299
H  H12  1  0.23730000  0.58260000  0.82090000  1.0 0.1195004299
H  H13  1  0.67910000  0.26170000  0.41640000  1.0 0.1195004299
H  H14  1  0.41640000  0.67910000  0.26170000  1.0 0.1195004299
H  H15  1  0.26170000  0.41640000  0.67910000  1.0 0.1195004299
H  H16  1  0.65470000  0.73730000  0.91640000  1.0 0.1195004299
H  H17  1  0.84530000  0.76170000  0.08260000  1.0 0.1195004299
H  H18  1  0.17910000  0.76270000  0.41740000  1.0 0.1195004299
H  H19  1  0.91640000  0.65470000  0.73730000  1.0 0.1195004299
H  H20  1  0.08260000  0.84530000  0.76170000  1.0 0.1195004299
H  H21  1  0.41740000  0.17910000  0.76270000  1.0 0.1195004299
H  H22  1  0.73730000  0.91640000  0.65470000  1.0 0.1195004299
H  H23  1  0.76170000  0.08260000  0.84530000  1.0 0.1195004299
H  H24  1  0.76270000  0.41740000  0.17910000  1.0 0.1195004299
H  H25  1  0.44870000  0.86260000  0.66370000  1.0 0.1088206411
H  H26  1  0.66370000  0.44870000  0.86260000  1.0 0.1088206411
H  H27  1  0.86260000  0.66370000  0.44870000  1.0 0.1088206411
H  H28  1  0.30110000  0.21500000  0.16370000  1.0 0.1088206411
H  H29  1  0.19890000  0.36260000  0.91390000  1.0 0.1088206411
H  H30  1  0.94870000  0.28500000  0.58610000  1.0 0.1088206411
H  H31  1  0.16370000  0.30110000  0.21500000  1.0 0.1088206411
H  H32  1  0.91390000  0.19890000  0.36260000  1.0 0.1088206411
H  H33  1  0.58610000  0.94870000  0.28500000  1.0 0.1088206411
H  H34  1  0.21500000  0.16370000  0.30110000  1.0 0.1088206411
H  H35  1  0.36260000  0.91390000  0.19890000  1.0 0.1088206411
H  H36  1  0.28500000  0.58610000  0.94870000  1.0 0.1088206411
H  H37  1  0.55130000  0.13740000  0.33630000  1.0 0.1088206411
H  H38  1  0.33630000  0.55130000  0.13740000  1.0 0.1088206411
H  H39  1  0.13740000  0.33630000  0.55130000  1.0 0.1088206411
H  H40  1  0.69890000  0.78500000  0.83630000  1.0 0.1088206411
H  H41  1  0.80110000  0.63740000  0.08610000  1.0 0.1088206411
H  H42  1  0.05130000  0.71500000  0.41390000  1.0 0.1088206411
H  H43  1  0.83630000  0.69890000  0.78500000  1.0 0.1088206411
H  H44  1  0.08610000  0.80110000  0.63740000  1.0 0.1088206411
H  H45  1  0.41390000  0.05130000  0.71500000  1.0 0.1088206411
H  H46  1  0.78500000  0.83630000  0.69890000  1.0 0.1088206411
H  H47  1  0.63740000  0.08610000  0.80110000  1.0 0.1088206411
H  H48  1  0.71500000  0.41390000  0.05130000  1.0 0.1088206411
H  H49  1  0.36700000  0.96760000  0.80860000  1.0 0.1195004299
H  H50  1  0.80860000  0.36700000  0.96760000  1.0 0.1195004299
H  H51  1  0.96760000  0.80860000  0.36700000  1.0 0.1195004299
H  H52  1  0.34100000  0.44160000  0.30860000  1.0 0.1195004299
H  H53  1  0.15900000  0.46760000  0.10060000  1.0 0.1195004299
H  H54  1  0.86700000  0.05840000  0.39940000  1.0 0.1195004299
H  H55  1  0.30860000  0.34100000  0.44160000  1.0 0.1195004299
H  H56  1  0.10060000  0.15900000  0.46760000  1.0 0.1195004299
H  H57  1  0.39940000  0.86700000  0.05840000  1.0 0.1195004299
H  H58  1  0.44160000  0.30860000  0.34100000  1.0 0.1195004299
H  H59  1  0.46760000  0.10060000  0.15900000  1.0 0.1195004299
H  H60  1  0.05840000  0.39940000  0.86700000  1.0 0.1195004299
H  H61  1  0.63300000  0.03240000  0.19140000  1.0 0.1195004299
H  H62  1  0.19140000  0.63300000  0.03240000  1.0 0.1195004299
H  H63  1  0.03240000  0.19140000  0.63300000  1.0 0.1195004299
H  H64  1  0.65900000  0.55840000  0.69140000  1.0 0.1195004299
H  H65  1  0.84100000  0.53240000  0.89940000  1.0 0.1195004299
H  H66  1  0.13300000  0.94160000  0.60060000  1.0 0.1195004299
H  H67  1  0.69140000  0.65900000  0.55840000  1.0 0.1195004299
H  H68  1  0.89940000  0.84100000  0.53240000  1.0 0.1195004299
H  H69  1  0.60060000  0.13300000  0.94160000  1.0 0.1195004299
H  H70  1  0.55840000  0.69140000  0.65900000  1.0 0.1195004299
H  H71  1  0.53240000  0.89940000  0.84100000  1.0 0.1195004299
H  H72  1  0.94160000  0.60060000  0.13300000  1.0 0.1195004299
H  H73  1  0.23390000  0.84410000  0.72480000  1.0 0.1088206411
H  H74  1  0.72480000  0.23390000  0.84410000  1.0 0.1088206411
H  H75  1  0.84410000  0.72480000  0.23390000  1.0 0.1088206411
H  H76  1  0.38070000  0.49090000  0.22480000  1.0 0.1088206411
H  H77  1  0.11930000  0.34410000  0.11020000  1.0 0.1088206411
H  H78  1  0.73390000  0.00910000  0.38980000  1.0 0.1088206411
H  H79  1  0.22480000  0.38070000  0.49090000  1.0 0.1088206411
H  H80  1  0.11020000  0.11930000  0.34410000  1.0 0.1088206411
H  H81  1  0.38980000  0.73390000  0.00910000  1.0 0.1088206411
H  H82  1  0.49090000  0.22480000  0.38070000  1.0 0.1088206411
H  H83  1  0.34410000  0.11020000  0.11930000  1.0 0.1088206411
H  H84  1  0.00910000  0.38980000  0.73390000  1.0 0.1088206411
H  H85  1  0.76610000  0.15590000  0.27520000  1.0 0.1088206411
H  H86  1  0.27520000  0.76610000  0.15590000  1.0 0.1088206411
H  H87  1  0.15590000  0.27520000  0.76610000  1.0 0.1088206411
H  H88  1  0.61930000  0.50910000  0.77520000  1.0 0.1088206411
H  H89  1  0.88070000  0.65590000  0.88980000  1.0 0.1088206411
H  H90  1  0.26610000  0.99090000  0.61020000  1.0 0.1088206411
H  H91  1  0.77520000  0.61930000  0.50910000  1.0 0.1088206411
H  H92  1  0.88980000  0.88070000  0.65590000  1.0 0.1088206411
H  H93  1  0.61020000  0.26610000  0.99090000  1.0 0.1088206411
H  H94  1  0.50910000  0.77520000  0.61930000  1.0 0.1088206411
H  H95  1  0.65590000  0.88980000  0.88070000  1.0 0.1088206411
H  H96  1  0.99090000  0.61020000  0.26610000  1.0 0.1088206411
C  C1  1  0.26510000  0.77620000  0.64770000  1.0 -0.067642896
C  C2  1  0.64770000  0.26510000  0.77620000  1.0 -0.067642896
C  C3  1  0.77620000  0.64770000  0.26510000  1.0 -0.067642896
C  C4  1  0.37150000  0.38260000  0.14770000  1.0 -0.067642896
C  C5  1  0.12850000  0.27620000  0.01110000  1.0 -0.067642896
C  C6  1  0.76510000  0.11740000  0.48890000  1.0 -0.067642896
C  C7  1  0.14770000  0.37150000  0.38260000  1.0 -0.067642896
C  C8  1  0.01110000  0.12850000  0.27620000  1.0 -0.067642896
C  C9  1  0.48890000  0.76510000  0.11740000  1.0 -0.067642896
C  C10  1  0.38260000  0.14770000  0.37150000  1.0 -0.067642896
C  C11  1  0.27620000  0.01110000  0.12850000  1.0 -0.067642896
C  C12  1  0.11740000  0.48890000  0.76510000  1.0 -0.067642896
C  C13  1  0.73490000  0.22380000  0.35230000  1.0 -0.067642896
C  C14  1  0.35230000  0.73490000  0.22380000  1.0 -0.067642896
C  C15  1  0.22380000  0.35230000  0.73490000  1.0 -0.067642896
C  C16  1  0.62850000  0.61740000  0.85230000  1.0 -0.067642896
C  C17  1  0.87150000  0.72380000  0.98890000  1.0 -0.067642896
C  C18  1  0.23490000  0.88260000  0.51110000  1.0 -0.067642896
C  C19  1  0.85230000  0.62850000  0.61740000  1.0 -0.067642896
C  C20  1  0.98890000  0.87150000  0.72380000  1.0 -0.067642896
C  C21  1  0.51110000  0.23490000  0.88260000  1.0 -0.067642896
C  C22  1  0.61740000  0.85230000  0.62850000  1.0 -0.067642896
C  C23  1  0.72380000  0.98890000  0.87150000  1.0 -0.067642896
C  C24  1  0.88260000  0.51110000  0.23490000  1.0 -0.067642896
C  C25  1  0.32940000  0.78470000  0.63010000  1.0 -0.0932039934
C  C26  1  0.63010000  0.32940000  0.78470000  1.0 -0.0932039934
C  C27  1  0.78470000  0.63010000  0.32940000  1.0 -0.0932039934
C  C28  1  0.34540000  0.30070000  0.13010000  1.0 -0.0932039934
C  C29  1  0.15460000  0.28470000  0.95530000  1.0 -0.0932039934
C  C30  1  0.82940000  0.19930000  0.54470000  1.0 -0.0932039934
C  C31  1  0.13010000  0.34540000  0.30070000  1.0 -0.0932039934
C  C32  1  0.95530000  0.15460000  0.28470000  1.0 -0.0932039934
C  C33  1  0.54470000  0.82940000  0.19930000  1.0 -0.0932039934
C  C34  1  0.30070000  0.13010000  0.34540000  1.0 -0.0932039934
C  C35  1  0.28470000  0.95530000  0.15460000  1.0 -0.0932039934
C  C36  1  0.19930000  0.54470000  0.82940000  1.0 -0.0932039934
C  C37  1  0.67060000  0.21530000  0.36990000  1.0 -0.0932039934
C  C38  1  0.36990000  0.67060000  0.21530000  1.0 -0.0932039934
C  C39  1  0.21530000  0.36990000  0.67060000  1.0 -0.0932039934
C  C40  1  0.65460000  0.69930000  0.86990000  1.0 -0.0932039934
C  C41  1  0.84540000  0.71530000  0.04470000  1.0 -0.0932039934
C  C42  1  0.17060000  0.80070000  0.45530000  1.0 -0.0932039934
C  C43  1  0.86990000  0.65460000  0.69930000  1.0 -0.0932039934
C  C44  1  0.04470000  0.84540000  0.71530000  1.0 -0.0932039934
C  C45  1  0.45530000  0.17060000  0.80070000  1.0 -0.0932039934
C  C46  1  0.69930000  0.86990000  0.65460000  1.0 -0.0932039934
C  C47  1  0.71530000  0.04470000  0.84540000  1.0 -0.0932039934
C  C48  1  0.80070000  0.45530000  0.17060000  1.0 -0.0932039934
C  C49  1  0.40530000  0.85820000  0.67770000  1.0 -0.1779125839
C  C50  1  0.67770000  0.40530000  0.85820000  1.0 -0.1779125839
C  C51  1  0.85820000  0.67770000  0.40530000  1.0 -0.1779125839
C  C52  1  0.31950000  0.27240000  0.17770000  1.0 -0.1779125839
C  C53  1  0.18050000  0.35820000  0.95290000  1.0 -0.1779125839
C  C54  1  0.90530000  0.22760000  0.54710000  1.0 -0.1779125839
C  C55  1  0.17770000  0.31950000  0.27240000  1.0 -0.1779125839
C  C56  1  0.95290000  0.18050000  0.35820000  1.0 -0.1779125839
C  C57  1  0.54710000  0.90530000  0.22760000  1.0 -0.1779125839
C  C58  1  0.27240000  0.17770000  0.31950000  1.0 -0.1779125839
C  C59  1  0.35820000  0.95290000  0.18050000  1.0 -0.1779125839
C  C60  1  0.22760000  0.54710000  0.90530000  1.0 -0.1779125839
C  C61  1  0.59470000  0.14180000  0.32230000  1.0 -0.1779125839
C  C62  1  0.32230000  0.59470000  0.14180000  1.0 -0.1779125839
C  C63  1  0.14180000  0.32230000  0.59470000  1.0 -0.1779125839
C  C64  1  0.68050000  0.72760000  0.82230000  1.0 -0.1779125839
C  C65  1  0.81950000  0.64180000  0.04710000  1.0 -0.1779125839
C  C66  1  0.09470000  0.77240000  0.45290000  1.0 -0.1779125839
C  C67  1  0.82230000  0.68050000  0.72760000  1.0 -0.1779125839
C  C68  1  0.04710000  0.81950000  0.64180000  1.0 -0.1779125839
C  C69  1  0.45290000  0.09470000  0.77240000  1.0 -0.1779125839
C  C70  1  0.72760000  0.82230000  0.68050000  1.0 -0.1779125839
C  C71  1  0.64180000  0.04710000  0.81950000  1.0 -0.1779125839
C  C72  1  0.77240000  0.45290000  0.09470000  1.0 -0.1779125839
C  C73  1  0.41970000  0.92510000  0.74480000  1.0 0.1590629459
C  C74  1  0.74480000  0.41970000  0.92510000  1.0 0.1590629459
C  C75  1  0.92510000  0.74480000  0.41970000  1.0 0.1590629459
C  C76  1  0.31970000  0.32510000  0.24480000  1.0 0.1590629459
C  C77  1  0.18030000  0.42510000  0.00540000  1.0 0.1590629459
C  C78  1  0.91970000  0.17490000  0.49460000  1.0 0.1590629459
C  C79  1  0.24480000  0.31970000  0.32510000  1.0 0.1590629459
C  C80  1  0.00540000  0.18030000  0.42510000  1.0 0.1590629459
C  C81  1  0.49460000  0.91970000  0.17490000  1.0 0.1590629459
C  C82  1  0.32510000  0.24480000  0.31970000  1.0 0.1590629459
C  C83  1  0.42510000  0.00540000  0.18030000  1.0 0.1590629459
C  C84  1  0.17490000  0.49460000  0.91970000  1.0 0.1590629459
C  C85  1  0.58030000  0.07490000  0.25520000  1.0 0.1590629459
C  C86  1  0.25520000  0.58030000  0.07490000  1.0 0.1590629459
C  C87  1  0.07490000  0.25520000  0.58030000  1.0 0.1590629459
C  C88  1  0.68030000  0.67490000  0.75520000  1.0 0.1590629459
C  C89  1  0.81970000  0.57490000  0.99460000  1.0 0.1590629459
C  C90  1  0.08030000  0.82510000  0.50540000  1.0 0.1590629459
C  C91  1  0.75520000  0.68030000  0.67490000  1.0 0.1590629459
C  C92  1  0.99460000  0.81970000  0.57490000  1.0 0.1590629459
C  C93  1  0.50540000  0.08030000  0.82510000  1.0 0.1590629459
C  C94  1  0.67490000  0.75520000  0.68030000  1.0 0.1590629459
C  C95  1  0.57490000  0.99460000  0.81970000  1.0 0.1590629459
C  C96  1  0.82510000  0.50540000  0.08030000  1.0 0.1590629459
C  C97  1  0.35740000  0.92030000  0.76230000  1.0 -0.1779125839
C  C98  1  0.76230000  0.35740000  0.92030000  1.0 -0.1779125839
C  C99  1  0.92030000  0.76230000  0.35740000  1.0 -0.1779125839
C  C100  1  0.34200000  0.40490000  0.26230000  1.0 -0.1779125839
C  C101  1  0.15800000  0.42030000  0.06290000  1.0 -0.1779125839
C  C102  1  0.85740000  0.09510000  0.43710000  1.0 -0.1779125839
C  C103  1  0.26230000  0.34200000  0.40490000  1.0 -0.1779125839
C  C104  1  0.06290000  0.15800000  0.42030000  1.0 -0.1779125839
C  C105  1  0.43710000  0.85740000  0.09510000  1.0 -0.1779125839
C  C106  1  0.40490000  0.26230000  0.34200000  1.0 -0.1779125839
C  C107  1  0.42030000  0.06290000  0.15800000  1.0 -0.1779125839
C  C108  1  0.09510000  0.43710000  0.85740000  1.0 -0.1779125839
C  C109  1  0.64260000  0.07970000  0.23770000  1.0 -0.1779125839
C  C110  1  0.23770000  0.64260000  0.07970000  1.0 -0.1779125839
C  C111  1  0.07970000  0.23770000  0.64260000  1.0 -0.1779125839
C  C112  1  0.65800000  0.59510000  0.73770000  1.0 -0.1779125839
C  C113  1  0.84200000  0.57970000  0.93710000  1.0 -0.1779125839
C  C114  1  0.14260000  0.90490000  0.56290000  1.0 -0.1779125839
C  C115  1  0.73770000  0.65800000  0.59510000  1.0 -0.1779125839
C  C116  1  0.93710000  0.84200000  0.57970000  1.0 -0.1779125839
C  C117  1  0.56290000  0.14260000  0.90490000  1.0 -0.1779125839
C  C118  1  0.59510000  0.73770000  0.65800000  1.0 -0.1779125839
C  C119  1  0.57970000  0.93710000  0.84200000  1.0 -0.1779125839
C  C120  1  0.90490000  0.56290000  0.14260000  1.0 -0.1779125839
C  C121  1  0.27840000  0.84620000  0.71320000  1.0 -0.0932039934
C  C122  1  0.71320000  0.27840000  0.84620000  1.0 -0.0932039934
C  C123  1  0.84620000  0.71320000  0.27840000  1.0 -0.0932039934
C  C124  1  0.36700000  0.43480000  0.21320000  1.0 -0.0932039934
C  C125  1  0.13300000  0.34620000  0.06780000  1.0 -0.0932039934
C  C126  1  0.77840000  0.06520000  0.43220000  1.0 -0.0932039934
C  C127  1  0.21320000  0.36700000  0.43480000  1.0 -0.0932039934
C  C128  1  0.06780000  0.13300000  0.34620000  1.0 -0.0932039934
C  C129  1  0.43220000  0.77840000  0.06520000  1.0 -0.0932039934
C  C130  1  0.43480000  0.21320000  0.36700000  1.0 -0.0932039934
C  C131  1  0.34620000  0.06780000  0.13300000  1.0 -0.0932039934
C  C132  1  0.06520000  0.43220000  0.77840000  1.0 -0.0932039934
C  C133  1  0.72160000  0.15380000  0.28680000  1.0 -0.0932039934
C  C134  1  0.28680000  0.72160000  0.15380000  1.0 -0.0932039934
C  C135  1  0.15380000  0.28680000  0.72160000  1.0 -0.0932039934
C  C136  1  0.63300000  0.56520000  0.78680000  1.0 -0.0932039934
C  C137  1  0.86700000  0.65380000  0.93220000  1.0 -0.0932039934
C  C138  1  0.22160000  0.93480000  0.56780000  1.0 -0.0932039934
C  C139  1  0.78680000  0.63300000  0.56520000  1.0 -0.0932039934
C  C140  1  0.93220000  0.86700000  0.65380000  1.0 -0.0932039934
C  C141  1  0.56780000  0.22160000  0.93480000  1.0 -0.0932039934
C  C142  1  0.56520000  0.78680000  0.63300000  1.0 -0.0932039934
C  C143  1  0.65380000  0.93220000  0.86700000  1.0 -0.0932039934
C  C144  1  0.93480000  0.56780000  0.22160000  1.0 -0.0932039934
C  C145  1  0.18160000  0.69740000  0.60020000  1.0 0.3754192817
C  C146  1  0.60020000  0.18160000  0.69740000  1.0 0.3754192817
C  C147  1  0.69740000  0.60020000  0.18160000  1.0 0.3754192817
C  C148  1  0.40280000  0.41860000  0.10020000  1.0 0.3754192817
C  C149  1  0.09720000  0.19740000  0.01580000  1.0 0.3754192817
C  C150  1  0.68160000  0.08140000  0.48420000  1.0 0.3754192817
C  C151  1  0.10020000  0.40280000  0.41860000  1.0 0.3754192817
C  C152  1  0.01580000  0.09720000  0.19740000  1.0 0.3754192817
C  C153  1  0.48420000  0.68160000  0.08140000  1.0 0.3754192817
C  C154  1  0.41860000  0.10020000  0.40280000  1.0 0.3754192817
C  C155  1  0.19740000  0.01580000  0.09720000  1.0 0.3754192817
C  C156  1  0.08140000  0.48420000  0.68160000  1.0 0.3754192817
C  C157  1  0.81840000  0.30260000  0.39980000  1.0 0.3754192817
C  C158  1  0.39980000  0.81840000  0.30260000  1.0 0.3754192817
C  C159  1  0.30260000  0.39980000  0.81840000  1.0 0.3754192817
C  C160  1  0.59720000  0.58140000  0.89980000  1.0 0.3754192817
C  C161  1  0.90280000  0.80260000  0.98420000  1.0 0.3754192817
C  C162  1  0.31840000  0.91860000  0.51580000  1.0 0.3754192817
C  C163  1  0.89980000  0.59720000  0.58140000  1.0 0.3754192817
C  C164  1  0.98420000  0.90280000  0.80260000  1.0 0.3754192817
C  C165  1  0.51580000  0.31840000  0.91860000  1.0 0.3754192817
C  C166  1  0.58140000  0.89980000  0.59720000  1.0 0.3754192817
C  C167  1  0.80260000  0.98420000  0.90280000  1.0 0.3754192817
C  C168  1  0.91860000  0.51580000  0.31840000  1.0 0.3754192817
N  N1  1  0.50000000  0.00000000  0.79600000  1.0 -0.1886746403
N  N2  1  0.79600000  0.50000000  0.00000000  1.0 -0.1886746403
N  N3  1  0.00000000  0.79600000  0.50000000  1.0 -0.1886746403
N  N4  1  0.29600000  0.29600000  0.29600000  1.0 -0.1886746403
N  N5  1  0.20400000  0.50000000  0.00000000  1.0 -0.1886746403
N  N6  1  0.00000000  0.20400000  0.50000000  1.0 -0.1886746403
N  N7  1  0.50000000  0.00000000  0.20400000  1.0 -0.1886746403
N  N8  1  0.70400000  0.70400000  0.70400000  1.0 -0.1886746403
O  O1  1  0.11320000  0.69300000  0.58580000  1.0 -0.2095646527
O  O2  1  0.58580000  0.11320000  0.69300000  1.0 -0.2095646527
O  O3  1  0.69300000  0.58580000  0.11320000  1.0 -0.2095646527
O  O4  1  0.39280000  0.47260000  0.08580000  1.0 -0.2095646527
O  O5  1  0.10720000  0.19300000  0.07980000  1.0 -0.2095646527
O  O6  1  0.61320000  0.02740000  0.42020000  1.0 -0.2095646527
O  O7  1  0.08580000  0.39280000  0.47260000  1.0 -0.2095646527
O  O8  1  0.07980000  0.10720000  0.19300000  1.0 -0.2095646527
O  O9  1  0.42020000  0.61320000  0.02740000  1.0 -0.2095646527
O  O10  1  0.47260000  0.08580000  0.39280000  1.0 -0.2095646527
O  O11  1  0.19300000  0.07980000  0.10720000  1.0 -0.2095646527
O  O12  1  0.02740000  0.42020000  0.61320000  1.0 -0.2095646527
O  O13  1  0.88680000  0.30700000  0.41420000  1.0 -0.2095646527
O  O14  1  0.41420000  0.88680000  0.30700000  1.0 -0.2095646527
O  O15  1  0.30700000  0.41420000  0.88680000  1.0 -0.2095646527
O  O16  1  0.60720000  0.52740000  0.91420000  1.0 -0.2095646527
O  O17  1  0.89280000  0.80700000  0.92020000  1.0 -0.2095646527
O  O18  1  0.38680000  0.97260000  0.57980000  1.0 -0.2095646527
O  O19  1  0.91420000  0.60720000  0.52740000  1.0 -0.2095646527
O  O20  1  0.92020000  0.89280000  0.80700000  1.0 -0.2095646527
O  O21  1  0.57980000  0.38680000  0.97260000  1.0 -0.2095646527
O  O22  1  0.52740000  0.91420000  0.60720000  1.0 -0.2095646527
O  O23  1  0.80700000  0.92020000  0.89280000  1.0 -0.2095646527
O  O24  1  0.97260000  0.57980000  0.38680000  1.0 -0.2095646527
O  O25  1  0.11710000  0.55930000  0.68640000  1.0 -0.2095646527
O  O26  1  0.68640000  0.11710000  0.55930000  1.0 -0.2095646527
O  O27  1  0.55930000  0.68640000  0.11710000  1.0 -0.2095646527
O  O28  1  0.62710000  0.56930000  0.18640000  1.0 -0.2095646527
O  O29  1  0.87290000  0.05930000  0.94220000  1.0 -0.2095646527
O  O30  1  0.61710000  0.93070000  0.55780000  1.0 -0.2095646527
O  O31  1  0.18640000  0.62710000  0.56930000  1.0 -0.2095646527
O  O32  1  0.94220000  0.87290000  0.05930000  1.0 -0.2095646527
O  O33  1  0.55780000  0.61710000  0.93070000  1.0 -0.2095646527
O  O34  1  0.56930000  0.18640000  0.62710000  1.0 -0.2095646527
O  O35  1  0.05930000  0.94220000  0.87290000  1.0 -0.2095646527
O  O36  1  0.93070000  0.55780000  0.61710000  1.0 -0.2095646527
O  O37  1  0.88290000  0.44070000  0.31360000  1.0 -0.2095646527
O  O38  1  0.31360000  0.88290000  0.44070000  1.0 -0.2095646527
O  O39  1  0.44070000  0.31360000  0.88290000  1.0 -0.2095646527
O  O40  1  0.37290000  0.43070000  0.81360000  1.0 -0.2095646527
O  O41  1  0.12710000  0.94070000  0.05780000  1.0 -0.2095646527
O  O42  1  0.38290000  0.06930000  0.44220000  1.0 -0.2095646527
O  O43  1  0.81360000  0.37290000  0.43070000  1.0 -0.2095646527
O  O44  1  0.05780000  0.12710000  0.94070000  1.0 -0.2095646527
O  O45  1  0.44220000  0.38290000  0.06930000  1.0 -0.2095646527
O  O46  1  0.43070000  0.81360000  0.37290000  1.0 -0.2095646527
O  O47  1  0.94070000  0.05780000  0.12710000  1.0 -0.2095646527
O  O48  1  0.06930000  0.44220000  0.38290000  1.0 -0.2095646527
O  O49  1  0.00000000  0.50000000  0.50000000  1.0 -0.6884006917
O  O50  1  0.50000000  0.00000000  0.50000000  1.0 -0.6884006917
O  O51  1  0.50000000  0.50000000  0.00000000  1.0 -0.6884006917
O  O52  1  0.00000000  0.00000000  0.00000000  1.0 -0.6884006917
O  O53  1  0.13870000  0.69310000  0.63420000  1.0 -0.2095646527
O  O54  1  0.63420000  0.13870000  0.69310000  1.0 -0.2095646527
O  O55  1  0.69310000  0.63420000  0.13870000  1.0 -0.2095646527
O  O56  1  0.44110000  0.49550000  0.13420000  1.0 -0.2095646527
O  O57  1  0.05890000  0.19310000  0.05440000  1.0 -0.2095646527
O  O58  1  0.63870000  0.00450000  0.44560000  1.0 -0.2095646527
O  O59  1  0.13420000  0.44110000  0.49550000  1.0 -0.2095646527
O  O60  1  0.05440000  0.05890000  0.19310000  1.0 -0.2095646527
O  O61  1  0.44560000  0.63870000  0.00450000  1.0 -0.2095646527
O  O62  1  0.49550000  0.13420000  0.44110000  1.0 -0.2095646527
O  O63  1  0.19310000  0.05440000  0.05890000  1.0 -0.2095646527
O  O64  1  0.00450000  0.44560000  0.63870000  1.0 -0.2095646527
O  O65  1  0.86130000  0.30690000  0.36580000  1.0 -0.2095646527
O  O66  1  0.36580000  0.86130000  0.30690000  1.0 -0.2095646527
O  O67  1  0.30690000  0.36580000  0.86130000  1.0 -0.2095646527
O  O68  1  0.55890000  0.50450000  0.86580000  1.0 -0.2095646527
O  O69  1  0.94110000  0.80690000  0.94560000  1.0 -0.2095646527
O  O70  1  0.36130000  0.99550000  0.55440000  1.0 -0.2095646527
O  O71  1  0.86580000  0.55890000  0.50450000  1.0 -0.2095646527
O  O72  1  0.94560000  0.94110000  0.80690000  1.0 -0.2155243664
O  O73  1  0.55440000  0.36130000  0.99550000  1.0 -0.2095646527
O  O74  1  0.50450000  0.86580000  0.55890000  1.0 -0.2095646527
O  O75  1  0.80690000  0.94560000  0.94110000  1.0 -0.2155243664
O  O76  1  0.99550000  0.55440000  0.36130000  1.0 -0.2095646527
O  O77  1  0.16940000  0.64460000  0.53040000  1.0 -0.2095646527
O  O78  1  0.53040000  0.16940000  0.64460000  1.0 -0.2095646527
O  O79  1  0.64460000  0.53040000  0.16940000  1.0 -0.2095646527
O  O80  1  0.38580000  0.36100000  0.03040000  1.0 -0.2095646527
O  O81  1  0.11420000  0.14460000  0.97520000  1.0 -0.2095646527
O  O82  1  0.66940000  0.13900000  0.52480000  1.0 -0.2095646527
O  O83  1  0.03040000  0.38580000  0.36100000  1.0 -0.2095646527
O  O84  1  0.97520000  0.11420000  0.14460000  1.0 -0.2095646527
O  O85  1  0.52480000  0.66940000  0.13900000  1.0 -0.2095646527
O  O86  1  0.36100000  0.03040000  0.38580000  1.0 -0.2095646527
O  O87  1  0.14460000  0.97520000  0.11420000  1.0 -0.2095646527
O  O88  1  0.13900000  0.52480000  0.66940000  1.0 -0.2095646527
O  O89  1  0.83060000  0.35540000  0.46960000  1.0 -0.2095646527
O  O90  1  0.46960000  0.83060000  0.35540000  1.0 -0.2095646527
O  O91  1  0.35540000  0.46960000  0.83060000  1.0 -0.2095646527
O  O92  1  0.61420000  0.63900000  0.96960000  1.0 -0.2095646527
O  O93  1  0.88580000  0.85540000  0.02480000  1.0 -0.2095646527
O  O94  1  0.33060000  0.86100000  0.47520000  1.0 -0.2095646527
O  O95  1  0.96960000  0.61420000  0.63900000  1.0 -0.2095646527
O  O96  1  0.02480000  0.88580000  0.85540000  1.0 -0.2095646527
O  O97  1  0.47520000  0.33060000  0.86100000  1.0 -0.2095646527
O  O98  1  0.63900000  0.96960000  0.61420000  1.0 -0.2095646527
O  O99  1  0.85540000  0.02480000  0.88580000  1.0 -0.2095646527
O  O100  1  0.86100000  0.47520000  0.33060000  1.0 -0.2095646527
