# DDEC6 charges by PACMAN v1.1 (https://github.com/mtap-research/PACMAN-charge/)
data_UKOXUO_FSR_pacman
_symmetry_space_group_name_H-M   'P 1'
_cell_length_a   13.14060000
_cell_length_b   13.14060000
_cell_length_c   13.61990000
_cell_angle_alpha   90.00000000
_cell_angle_beta   90.00000000
_cell_angle_gamma   120.00000000
_symmetry_Int_Tables_number   1
_chemical_formula_structural   Cd5H72(C5N7)6
_chemical_formula_sum   'Cd10 H144 C60 N84'
_cell_volume   2036.73694725
_cell_formula_units_Z   2
loop_
 _symmetry_equiv_pos_site_id
 _symmetry_equiv_pos_as_xyz
  1  'x, y, z'
loop_
 _atom_site_type_symbol
 _atom_site_label
 _atom_site_symmetry_multiplicity
 _atom_site_fract_x
 _atom_site_fract_y
 _atom_site_fract_z
 _atom_site_occupancy
 _atom_site_charge
Cd  Cd1  1  0.33333333  0.66666667  0.39869000  1.0 0.669246061
Cd  Cd2  1  0.66666667  0.33333333  0.89869000  1.0 0.669246061
Cd  Cd3  1  0.33333333  0.66666667  0.10131000  1.0 0.669246061
Cd  Cd4  1  0.66666667  0.33333333  0.60131000  1.0 0.669246061
Cd  Cd5  1  0.00000000  0.50000000  0.50000000  1.0 0.6074227426
Cd  Cd6  1  0.50000000  0.00000000  0.00000000  1.0 0.6074227426
Cd  Cd7  1  0.50000000  0.50000000  0.50000000  1.0 0.6074227426
Cd  Cd8  1  0.00000000  0.50000000  0.00000000  1.0 0.6074227426
Cd  Cd9  1  0.50000000  0.00000000  0.50000000  1.0 0.6074227426
Cd  Cd10  1  0.50000000  0.50000000  0.00000000  1.0 0.6074227426
H  H1  1  0.96580000  0.27740000  0.63590000  1.0 0.1146014727
H  H2  1  0.68840000  0.96580000  0.13590000  1.0 0.1146014727
H  H3  1  0.72260000  0.68840000  0.63590000  1.0 0.1146014727
H  H4  1  0.03420000  0.72260000  0.13590000  1.0 0.1146014727
H  H5  1  0.31160000  0.03420000  0.63590000  1.0 0.1146014727
H  H6  1  0.27740000  0.31160000  0.13590000  1.0 0.1146014727
H  H7  1  0.72260000  0.03420000  0.86410000  1.0 0.1146014727
H  H8  1  0.68840000  0.72260000  0.36410000  1.0 0.1146014727
H  H9  1  0.96580000  0.68840000  0.86410000  1.0 0.1146014727
H  H10  1  0.27740000  0.96580000  0.36410000  1.0 0.1146014727
H  H11  1  0.31160000  0.27740000  0.86410000  1.0 0.1146014727
H  H12  1  0.03420000  0.31160000  0.36410000  1.0 0.1146014727
H  H13  1  0.03420000  0.72260000  0.36410000  1.0 0.1146014727
H  H14  1  0.31160000  0.03420000  0.86410000  1.0 0.1146014727
H  H15  1  0.27740000  0.31160000  0.36410000  1.0 0.1146014727
H  H16  1  0.96580000  0.27740000  0.86410000  1.0 0.1146014727
H  H17  1  0.68840000  0.96580000  0.36410000  1.0 0.1146014727
H  H18  1  0.72260000  0.68840000  0.86410000  1.0 0.1146014727
H  H19  1  0.27740000  0.96580000  0.13590000  1.0 0.1146014727
H  H20  1  0.31160000  0.27740000  0.63590000  1.0 0.1146014727
H  H21  1  0.03420000  0.31160000  0.13590000  1.0 0.1146014727
H  H22  1  0.72260000  0.03420000  0.63590000  1.0 0.1146014727
H  H23  1  0.68840000  0.72260000  0.13590000  1.0 0.1146014727
H  H24  1  0.96580000  0.68840000  0.63590000  1.0 0.1146014727
H  H25  1  0.99820000  0.18020000  0.61270000  1.0 0.0953569918
H  H26  1  0.81800000  0.99820000  0.11270000  1.0 0.0953569918
H  H27  1  0.81980000  0.81800000  0.61270000  1.0 0.0953569918
H  H28  1  0.00180000  0.81980000  0.11270000  1.0 0.0953569918
H  H29  1  0.18200000  0.00180000  0.61270000  1.0 0.0953569918
H  H30  1  0.18020000  0.18200000  0.11270000  1.0 0.0953569918
H  H31  1  0.81980000  0.00180000  0.88730000  1.0 0.0953569918
H  H32  1  0.81800000  0.81980000  0.38730000  1.0 0.0953569918
H  H33  1  0.99820000  0.81800000  0.88730000  1.0 0.0953569918
H  H34  1  0.18020000  0.99820000  0.38730000  1.0 0.0953569918
H  H35  1  0.18200000  0.18020000  0.88730000  1.0 0.0953569918
H  H36  1  0.00180000  0.18200000  0.38730000  1.0 0.0953569918
H  H37  1  0.00180000  0.81980000  0.38730000  1.0 0.0953569918
H  H38  1  0.18200000  0.00180000  0.88730000  1.0 0.0953569918
H  H39  1  0.18020000  0.18200000  0.38730000  1.0 0.0953569918
H  H40  1  0.99820000  0.18020000  0.88730000  1.0 0.0953569918
H  H41  1  0.81800000  0.99820000  0.38730000  1.0 0.0953569918
H  H42  1  0.81980000  0.81800000  0.88730000  1.0 0.0953569918
H  H43  1  0.18020000  0.99820000  0.11270000  1.0 0.0953569918
H  H44  1  0.18200000  0.18020000  0.61270000  1.0 0.0953569918
H  H45  1  0.00180000  0.18200000  0.11270000  1.0 0.0953569918
H  H46  1  0.81980000  0.00180000  0.61270000  1.0 0.0953569918
H  H47  1  0.81800000  0.81980000  0.11270000  1.0 0.0953569918
H  H48  1  0.99820000  0.81800000  0.61270000  1.0 0.0953569918
H  H49  1  0.04450000  0.25480000  0.70910000  1.0 0.0655112344
H  H50  1  0.78970000  0.04450000  0.20910000  1.0 0.0655112344
H  H51  1  0.74520000  0.78970000  0.70910000  1.0 0.0655112344
H  H52  1  0.95550000  0.74520000  0.20910000  1.0 0.0655112344
H  H53  1  0.21030000  0.95550000  0.70910000  1.0 0.0655112344
H  H54  1  0.25480000  0.21030000  0.20910000  1.0 0.0655112344
H  H55  1  0.74520000  0.95550000  0.79090000  1.0 0.0655112344
H  H56  1  0.78970000  0.74520000  0.29090000  1.0 0.0655112344
H  H57  1  0.04450000  0.78970000  0.79090000  1.0 0.0655112344
H  H58  1  0.25480000  0.04450000  0.29090000  1.0 0.0655112344
H  H59  1  0.21030000  0.25480000  0.79090000  1.0 0.0655112344
H  H60  1  0.95550000  0.21030000  0.29090000  1.0 0.0655112344
H  H61  1  0.95550000  0.74520000  0.29090000  1.0 0.0655112344
H  H62  1  0.21030000  0.95550000  0.79090000  1.0 0.0655112344
H  H63  1  0.25480000  0.21030000  0.29090000  1.0 0.0655112344
H  H64  1  0.04450000  0.25480000  0.79090000  1.0 0.0655112344
H  H65  1  0.78970000  0.04450000  0.29090000  1.0 0.0655112344
H  H66  1  0.74520000  0.78970000  0.79090000  1.0 0.0655112344
H  H67  1  0.25480000  0.04450000  0.20910000  1.0 0.0655112344
H  H68  1  0.21030000  0.25480000  0.70910000  1.0 0.0655112344
H  H69  1  0.95550000  0.21030000  0.20910000  1.0 0.0655112344
H  H70  1  0.74520000  0.95550000  0.70910000  1.0 0.0655112344
H  H71  1  0.78970000  0.74520000  0.20910000  1.0 0.0655112344
H  H72  1  0.04450000  0.78970000  0.70910000  1.0 0.0655112344
H  H73  1  0.64770000  0.17440000  0.28180000  1.0 0.006087615
H  H74  1  0.47330000  0.64770000  0.78180000  1.0 0.006087615
H  H75  1  0.82560000  0.47330000  0.28180000  1.0 0.006087615
H  H76  1  0.35230000  0.82560000  0.78180000  1.0 0.006087615
H  H77  1  0.52670000  0.35230000  0.28180000  1.0 0.006087615
H  H78  1  0.17440000  0.52670000  0.78180000  1.0 0.006087615
H  H79  1  0.82560000  0.35230000  0.21820000  1.0 0.006087615
H  H80  1  0.47330000  0.82560000  0.71820000  1.0 0.006087615
H  H81  1  0.64770000  0.47330000  0.21820000  1.0 0.006087615
H  H82  1  0.17440000  0.64770000  0.71820000  1.0 0.006087615
H  H83  1  0.52670000  0.17440000  0.21820000  1.0 0.006087615
H  H84  1  0.35230000  0.52670000  0.71820000  1.0 0.006087615
H  H85  1  0.35230000  0.82560000  0.71820000  1.0 0.006087615
H  H86  1  0.52670000  0.35230000  0.21820000  1.0 0.006087615
H  H87  1  0.17440000  0.52670000  0.71820000  1.0 0.006087615
H  H88  1  0.64770000  0.17440000  0.21820000  1.0 0.006087615
H  H89  1  0.47330000  0.64770000  0.71820000  1.0 0.006087615
H  H90  1  0.82560000  0.47330000  0.21820000  1.0 0.006087615
H  H91  1  0.17440000  0.64770000  0.78180000  1.0 0.006087615
H  H92  1  0.52670000  0.17440000  0.28180000  1.0 0.006087615
H  H93  1  0.35230000  0.52670000  0.78180000  1.0 0.006087615
H  H94  1  0.82560000  0.35230000  0.28180000  1.0 0.006087615
H  H95  1  0.47330000  0.82560000  0.78180000  1.0 0.006087615
H  H96  1  0.64770000  0.47330000  0.28180000  1.0 0.006087615
H  H97  1  0.52840000  0.17440000  0.28470000  1.0 0.006087615
H  H98  1  0.35400000  0.52840000  0.78470000  1.0 0.0027665001
H  H99  1  0.82560000  0.35400000  0.28470000  1.0 0.006087615
H  H100  1  0.47160000  0.82560000  0.78470000  1.0 0.006087615
H  H101  1  0.64600000  0.47160000  0.28470000  1.0 0.006087615
H  H102  1  0.17440000  0.64600000  0.78470000  1.0 0.0027665001
H  H103  1  0.82560000  0.47160000  0.21530000  1.0 0.006087615
H  H104  1  0.35400000  0.82560000  0.71530000  1.0 0.0027665001
H  H105  1  0.52840000  0.35400000  0.21530000  1.0 0.0027665001
H  H106  1  0.17440000  0.52840000  0.71530000  1.0 0.0027665001
H  H107  1  0.64600000  0.17440000  0.21530000  1.0 0.006087615
H  H108  1  0.47160000  0.64600000  0.71530000  1.0 0.006087615
H  H109  1  0.47160000  0.82560000  0.71530000  1.0 0.006087615
H  H110  1  0.64600000  0.47160000  0.21530000  1.0 0.006087615
H  H111  1  0.17440000  0.64600000  0.71530000  1.0 0.0027665001
H  H112  1  0.52840000  0.17440000  0.21530000  1.0 0.006087615
H  H113  1  0.35400000  0.52840000  0.71530000  1.0 0.0027665001
H  H114  1  0.82560000  0.35400000  0.21530000  1.0 0.006087615
H  H115  1  0.17440000  0.52840000  0.78470000  1.0 0.0027665001
H  H116  1  0.64600000  0.17440000  0.28470000  1.0 0.006087615
H  H117  1  0.47160000  0.64600000  0.78470000  1.0 0.006087615
H  H118  1  0.82560000  0.47160000  0.28470000  1.0 0.006087615
H  H119  1  0.35400000  0.82560000  0.78470000  1.0 0.0027665001
H  H120  1  0.52840000  0.35400000  0.28470000  1.0 0.0027665001
H  H121  1  0.58540000  0.17440000  0.18360000  1.0 -0.0102573373
H  H122  1  0.41100000  0.58540000  0.68360000  1.0 -0.0102573373
H  H123  1  0.82560000  0.41100000  0.18360000  1.0 -0.0102573373
H  H124  1  0.41460000  0.82560000  0.68360000  1.0 -0.0102573373
H  H125  1  0.58900000  0.41460000  0.18360000  1.0 -0.0102573373
H  H126  1  0.17440000  0.58900000  0.68360000  1.0 -0.0102573373
H  H127  1  0.82560000  0.41460000  0.31640000  1.0 -0.0102573373
H  H128  1  0.41100000  0.82560000  0.81640000  1.0 -0.0102573373
H  H129  1  0.58540000  0.41100000  0.31640000  1.0 -0.0102573373
H  H130  1  0.17440000  0.58540000  0.81640000  1.0 -0.0102573373
H  H131  1  0.58900000  0.17440000  0.31640000  1.0 -0.0102573373
H  H132  1  0.41460000  0.58900000  0.81640000  1.0 -0.0102573373
H  H133  1  0.41460000  0.82560000  0.81640000  1.0 -0.0102573373
H  H134  1  0.58900000  0.41460000  0.31640000  1.0 -0.0102573373
H  H135  1  0.17440000  0.58900000  0.81640000  1.0 -0.0102573373
H  H136  1  0.58540000  0.17440000  0.31640000  1.0 -0.0102573373
H  H137  1  0.41100000  0.58540000  0.81640000  1.0 -0.0102573373
H  H138  1  0.82560000  0.41100000  0.31640000  1.0 -0.0102573373
H  H139  1  0.17440000  0.58540000  0.68360000  1.0 -0.0102573373
H  H140  1  0.58900000  0.17440000  0.18360000  1.0 -0.0102573373
H  H141  1  0.41460000  0.58900000  0.68360000  1.0 -0.0102573373
H  H142  1  0.82560000  0.41460000  0.18360000  1.0 -0.0102573373
H  H143  1  0.41100000  0.82560000  0.68360000  1.0 -0.0102573373
H  H144  1  0.58540000  0.41100000  0.18360000  1.0 -0.0102573373
C  C1  1  0.13700000  0.34810000  0.58590000  1.0 0.1300128272
C  C2  1  0.78890000  0.13700000  0.08590000  1.0 0.1300128272
C  C3  1  0.65190000  0.78890000  0.58590000  1.0 0.1300128272
C  C4  1  0.86300000  0.65190000  0.08590000  1.0 0.1300128272
C  C5  1  0.21110000  0.86300000  0.58590000  1.0 0.1300128272
C  C6  1  0.34810000  0.21110000  0.08590000  1.0 0.1300128272
C  C7  1  0.65190000  0.86300000  0.91410000  1.0 0.1300128272
C  C8  1  0.78890000  0.65190000  0.41410000  1.0 0.1300128272
C  C9  1  0.13700000  0.78890000  0.91410000  1.0 0.1300128272
C  C10  1  0.34810000  0.13700000  0.41410000  1.0 0.1300128272
C  C11  1  0.21110000  0.34810000  0.91410000  1.0 0.1300128272
C  C12  1  0.86300000  0.21110000  0.41410000  1.0 0.1300128272
C  C13  1  0.86300000  0.65190000  0.41410000  1.0 0.1300128272
C  C14  1  0.21110000  0.86300000  0.91410000  1.0 0.1300128272
C  C15  1  0.34810000  0.21110000  0.41410000  1.0 0.1300128272
C  C16  1  0.13700000  0.34810000  0.91410000  1.0 0.1300128272
C  C17  1  0.78890000  0.13700000  0.41410000  1.0 0.1300128272
C  C18  1  0.65190000  0.78890000  0.91410000  1.0 0.1300128272
C  C19  1  0.34810000  0.13700000  0.08590000  1.0 0.1300128272
C  C20  1  0.21110000  0.34810000  0.58590000  1.0 0.1300128272
C  C21  1  0.86300000  0.21110000  0.08590000  1.0 0.1300128272
C  C22  1  0.65190000  0.86300000  0.58590000  1.0 0.1300128272
C  C23  1  0.78890000  0.65190000  0.08590000  1.0 0.1300128272
C  C24  1  0.13700000  0.78890000  0.58590000  1.0 0.1300128272
C  C25  1  0.02590000  0.25640000  0.64110000  1.0 -0.2271281963
C  C26  1  0.76950000  0.02590000  0.14110000  1.0 -0.2271281963
C  C27  1  0.74360000  0.76950000  0.64110000  1.0 -0.2271281963
C  C28  1  0.97410000  0.74360000  0.14110000  1.0 -0.2271281963
C  C29  1  0.23050000  0.97410000  0.64110000  1.0 -0.2271281963
C  C30  1  0.25640000  0.23050000  0.14110000  1.0 -0.2271281963
C  C31  1  0.74360000  0.97410000  0.85890000  1.0 -0.2271281963
C  C32  1  0.76950000  0.74360000  0.35890000  1.0 -0.2271281963
C  C33  1  0.02590000  0.76950000  0.85890000  1.0 -0.2271281963
C  C34  1  0.25640000  0.02590000  0.35890000  1.0 -0.2271281963
C  C35  1  0.23050000  0.25640000  0.85890000  1.0 -0.2271281963
C  C36  1  0.97410000  0.23050000  0.35890000  1.0 -0.2271281963
C  C37  1  0.97410000  0.74360000  0.35890000  1.0 -0.2271281963
C  C38  1  0.23050000  0.97410000  0.85890000  1.0 -0.2271281963
C  C39  1  0.25640000  0.23050000  0.35890000  1.0 -0.2271281963
C  C40  1  0.02590000  0.25640000  0.85890000  1.0 -0.2271281963
C  C41  1  0.76950000  0.02590000  0.35890000  1.0 -0.2271281963
C  C42  1  0.74360000  0.76950000  0.85890000  1.0 -0.2271281963
C  C43  1  0.25640000  0.02590000  0.14110000  1.0 -0.2271281963
C  C44  1  0.23050000  0.25640000  0.64110000  1.0 -0.2271281963
C  C45  1  0.97410000  0.23050000  0.14110000  1.0 -0.2271281963
C  C46  1  0.74360000  0.97410000  0.64110000  1.0 -0.2271281963
C  C47  1  0.76950000  0.74360000  0.14110000  1.0 -0.2271281963
C  C48  1  0.02590000  0.76950000  0.64110000  1.0 -0.2271281963
C  C49  1  0.50825000  0.01650000  0.25000000  1.0 0.307200003
C  C50  1  0.49175000  0.50825000  0.75000000  1.0 0.307200003
C  C51  1  0.98350000  0.49175000  0.25000000  1.0 0.307200003
C  C52  1  0.49175000  0.98350000  0.75000000  1.0 0.307200003
C  C53  1  0.50825000  0.49175000  0.25000000  1.0 0.307200003
C  C54  1  0.01650000  0.50825000  0.75000000  1.0 0.307200003
C  C55  1  0.57315000  0.14630000  0.25000000  1.0 -0.4016057517
C  C56  1  0.42685000  0.57315000  0.75000000  1.0 -0.4016057517
C  C57  1  0.85370000  0.42685000  0.25000000  1.0 -0.4016057517
C  C58  1  0.42685000  0.85370000  0.75000000  1.0 -0.4016057517
C  C59  1  0.57315000  0.42685000  0.25000000  1.0 -0.4016057517
C  C60  1  0.14630000  0.57315000  0.75000000  1.0 -0.4016057517
N  N1  1  0.13930000  0.44110000  0.53220000  1.0 -0.1577625009
N  N2  1  0.69820000  0.13930000  0.03220000  1.0 -0.1577625009
N  N3  1  0.55890000  0.69820000  0.53220000  1.0 -0.154894592
N  N4  1  0.86070000  0.55890000  0.03220000  1.0 -0.154894592
N  N5  1  0.30180000  0.86070000  0.53220000  1.0 -0.154894592
N  N6  1  0.44110000  0.30180000  0.03220000  1.0 -0.154894592
N  N7  1  0.55890000  0.86070000  0.96780000  1.0 -0.154894592
N  N8  1  0.69820000  0.55890000  0.46780000  1.0 -0.154894592
N  N9  1  0.13930000  0.69820000  0.96780000  1.0 -0.1577625009
N  N10  1  0.44110000  0.13930000  0.46780000  1.0 -0.1577625009
N  N11  1  0.30180000  0.44110000  0.96780000  1.0 -0.154894592
N  N12  1  0.86070000  0.30180000  0.46780000  1.0 -0.154894592
N  N13  1  0.86070000  0.55890000  0.46780000  1.0 -0.154894592
N  N14  1  0.30180000  0.86070000  0.96780000  1.0 -0.154894592
N  N15  1  0.44110000  0.30180000  0.46780000  1.0 -0.154894592
N  N16  1  0.13930000  0.44110000  0.96780000  1.0 -0.1577625009
N  N17  1  0.69820000  0.13930000  0.46780000  1.0 -0.154894592
N  N18  1  0.55890000  0.69820000  0.96780000  1.0 -0.154894592
N  N19  1  0.44110000  0.13930000  0.03220000  1.0 -0.1577625009
N  N20  1  0.30180000  0.44110000  0.53220000  1.0 -0.154894592
N  N21  1  0.86070000  0.30180000  0.03220000  1.0 -0.154894592
N  N22  1  0.55890000  0.86070000  0.53220000  1.0 -0.154894592
N  N23  1  0.69820000  0.55890000  0.03220000  1.0 -0.154894592
N  N24  1  0.13930000  0.69820000  0.53220000  1.0 -0.1577625009
N  N25  1  0.24785000  0.49570000  0.49960000  1.0 -0.0011570191
N  N26  1  0.75215000  0.24785000  0.99960000  1.0 0.0027665001
N  N27  1  0.50430000  0.75215000  0.49960000  1.0 -0.0011570191
N  N28  1  0.75215000  0.50430000  0.99960000  1.0 0.0027665001
N  N29  1  0.24785000  0.75215000  0.49960000  1.0 -0.0011570191
N  N30  1  0.49570000  0.24785000  0.99960000  1.0 0.0027665001
N  N31  1  0.50430000  0.75215000  0.00040000  1.0 0.0027665001
N  N32  1  0.75215000  0.50430000  0.50040000  1.0 0.0027665001
N  N33  1  0.24785000  0.75215000  0.00040000  1.0 -0.0011570191
N  N34  1  0.49570000  0.24785000  0.50040000  1.0 0.0027665001
N  N35  1  0.24785000  0.49570000  0.00040000  1.0 -0.0011570191
N  N36  1  0.75215000  0.24785000  0.50040000  1.0 0.0027665001
N  N37  1  0.41945000  0.83890000  0.29760000  1.0 -0.1577625009
N  N38  1  0.58055000  0.41945000  0.79760000  1.0 -0.1577625009
N  N39  1  0.16110000  0.58055000  0.29760000  1.0 -0.1577625009
N  N40  1  0.58055000  0.16110000  0.79760000  1.0 -0.1577625009
N  N41  1  0.41945000  0.58055000  0.29760000  1.0 -0.1577625009
N  N42  1  0.83890000  0.41945000  0.79760000  1.0 -0.1577625009
N  N43  1  0.16110000  0.58055000  0.20240000  1.0 -0.1577625009
N  N44  1  0.58055000  0.16110000  0.70240000  1.0 -0.1577625009
N  N45  1  0.41945000  0.58055000  0.20240000  1.0 -0.1577625009
N  N46  1  0.83890000  0.41945000  0.70240000  1.0 -0.1577625009
N  N47  1  0.41945000  0.83890000  0.20240000  1.0 -0.1577625009
N  N48  1  0.58055000  0.41945000  0.70240000  1.0 -0.1577625009
N  N49  1  0.47465000  0.94930000  0.33050000  1.0 -0.207090516
N  N50  1  0.52535000  0.47465000  0.83050000  1.0 -0.207090516
N  N51  1  0.05070000  0.52535000  0.33050000  1.0 -0.207090516
N  N52  1  0.52535000  0.05070000  0.83050000  1.0 -0.207090516
N  N53  1  0.47465000  0.52535000  0.33050000  1.0 -0.207090516
N  N54  1  0.94930000  0.47465000  0.83050000  1.0 -0.207090516
N  N55  1  0.05070000  0.52535000  0.16950000  1.0 -0.207090516
N  N56  1  0.52535000  0.05070000  0.66950000  1.0 -0.207090516
N  N57  1  0.47465000  0.52535000  0.16950000  1.0 -0.207090516
N  N58  1  0.94930000  0.47465000  0.66950000  1.0 -0.207090516
N  N59  1  0.47465000  0.94930000  0.16950000  1.0 -0.207090516
N  N60  1  0.52535000  0.47465000  0.66950000  1.0 -0.207090516
N  N61  1  0.23850000  0.35320000  0.58620000  1.0 -0.0810919594
N  N62  1  0.88530000  0.23850000  0.08620000  1.0 -0.0810919594
N  N63  1  0.64680000  0.88530000  0.58620000  1.0 -0.0810919594
N  N64  1  0.76150000  0.64680000  0.08620000  1.0 -0.0810919594
N  N65  1  0.11470000  0.76150000  0.58620000  1.0 -0.0810919594
N  N66  1  0.35320000  0.11470000  0.08620000  1.0 -0.0810919594
N  N67  1  0.64680000  0.76150000  0.91380000  1.0 -0.0810919594
N  N68  1  0.88530000  0.64680000  0.41380000  1.0 -0.0810919594
N  N69  1  0.23850000  0.88530000  0.91380000  1.0 -0.0810919594
N  N70  1  0.35320000  0.23850000  0.41380000  1.0 -0.0810919594
N  N71  1  0.11470000  0.35320000  0.91380000  1.0 -0.0810919594
N  N72  1  0.76150000  0.11470000  0.41380000  1.0 -0.0810919594
N  N73  1  0.76150000  0.64680000  0.41380000  1.0 -0.0810919594
N  N74  1  0.11470000  0.76150000  0.91380000  1.0 -0.0810919594
N  N75  1  0.35320000  0.11470000  0.41380000  1.0 -0.0810919594
N  N76  1  0.23850000  0.35320000  0.91380000  1.0 -0.0810919594
N  N77  1  0.88530000  0.23850000  0.41380000  1.0 -0.0810919594
N  N78  1  0.64680000  0.88530000  0.91380000  1.0 -0.0810919594
N  N79  1  0.35320000  0.23850000  0.08620000  1.0 -0.0810919594
N  N80  1  0.11470000  0.35320000  0.58620000  1.0 -0.0810919594
N  N81  1  0.76150000  0.11470000  0.08620000  1.0 -0.0810919594
N  N82  1  0.64680000  0.76150000  0.58620000  1.0 -0.0810919594
N  N83  1  0.88530000  0.64680000  0.08620000  1.0 -0.0810919594
N  N84  1  0.23850000  0.88530000  0.58620000  1.0 -0.0810919594
