# DDEC6 charges by PACMAN v1.1 (https://github.com/mtap-research/PACMAN-charge/)
data_UKOZOL_ASR_pacman
_symmetry_space_group_name_H-M   'P 1'
_cell_length_a   16.11220000
_cell_length_b   19.13010000
_cell_length_c   19.94910000
_cell_angle_alpha   113.35900000
_cell_angle_beta   103.86200000
_cell_angle_gamma   91.93400000
_symmetry_Int_Tables_number   1
_chemical_formula_structural   Ca3H72C74(NO10)2
_chemical_formula_sum   'Ca6 H144 C148 N4 O40'
_cell_volume   5423.02414697
_cell_formula_units_Z   2
loop_
 _symmetry_equiv_pos_site_id
 _symmetry_equiv_pos_as_xyz
  1  'x, y, z'
loop_
 _atom_site_type_symbol
 _atom_site_label
 _atom_site_symmetry_multiplicity
 _atom_site_fract_x
 _atom_site_fract_y
 _atom_site_fract_z
 _atom_site_occupancy
 _atom_site_charge
Ca  Ca1  1  0.79003000  0.39967000  0.60853000  1.0 1.3323554748
Ca  Ca2  1  0.62253000  0.25502000  0.59029000  1.0 1.3530041331
Ca  Ca3  1  0.40622000  0.31532000  0.65729000  1.0 1.3826665038
Ca  Ca4  1  0.20997000  0.60033000  0.39147000  1.0 1.3323554748
Ca  Ca5  1  0.37747000  0.74498000  0.40971000  1.0 1.3530041331
Ca  Ca6  1  0.59378000  0.68468000  0.34271000  1.0 1.3826665038
H  H1  1  0.72720000  0.08880000  0.04300000  1.0 0.1379091023
H  H2  1  0.63240000  0.10740000  0.03650000  1.0 0.1304363721
H  H3  1  0.68690000  0.10220000  0.11040000  1.0 0.1304363721
H  H4  1  0.47030000  0.88320000  0.82080000  1.0 0.1304363721
H  H5  1  0.51510000  0.80910000  0.80500000  1.0 0.1304363721
H  H6  1  0.43890000  0.81880000  0.84280000  1.0 0.1379091023
H  H7  1  0.71590000  0.79580000  0.05170000  1.0 0.1304363721
H  H8  1  0.69820000  0.85830000  0.12430000  1.0 0.1185619393
H  H9  1  0.62520000  0.79040000  0.06650000  1.0 0.1185619393
H  H10  1  0.76740000  0.03560000  0.14370000  1.0 0.097414771
H  H11  1  0.76930000  0.95600000  0.14980000  1.0 0.097414771
H  H12  1  0.59150000  0.05700000  0.28130000  1.0 0.1304363721
H  H13  1  0.62360000  0.16050000  0.39810000  1.0 0.1185619393
H  H14  1  0.85460000  0.21160000  0.37990000  1.0 0.1185619393
H  H15  1  0.82400000  0.11130000  0.26050000  1.0 0.1304363721
H  H16  1  0.53970000  0.06330000  0.95000000  1.0 0.0919833498
H  H17  1  0.48460000  0.98970000  0.88030000  1.0 0.097414771
H  H18  1  0.67700000  0.03670000  0.78200000  1.0 0.1379091023
H  H19  1  0.65320000  0.11380000  0.71730000  1.0 0.1123439779
H  H20  1  0.44910000  0.17620000  0.79200000  1.0 0.1185619393
H  H21  1  0.47260000  0.10280000  0.86030000  1.0 0.1304363721
H  H22  1  0.49840000  0.74030000  0.89270000  1.0 0.097414771
H  H23  1  0.57910000  0.72880000  0.94810000  1.0 0.097414771
H  H24  1  0.67050000  0.67160000  0.74900000  1.0 0.1379091023
H  H25  1  0.67010000  0.54480000  0.67270000  1.0 0.1304363721
H  H26  1  0.51460000  0.48120000  0.77220000  1.0 0.097414771
H  H27  1  0.51740000  0.60690000  0.85100000  1.0 0.1185619393
H  H28  1  0.13760000  0.24780000  0.05220000  1.0 0.1379091023
H  H29  1  0.20260000  0.22960000  0.11330000  1.0 0.1304363721
H  H30  1  0.23030000  0.23180000  0.04390000  1.0 0.1304363721
H  H31  1  0.02110000  0.03050000  0.79660000  1.0 0.1304363721
H  H32  1  0.00950000  0.94780000  0.79420000  1.0 0.1304363721
H  H33  1  0.94380000  0.00430000  0.82040000  1.0 0.1474967205
H  H34  1  0.15770000  0.89990000  0.00700000  1.0 0.1304363721
H  H35  1  0.20920000  0.96850000  0.08300000  1.0 0.1304363721
H  H36  1  0.11020000  0.94420000  0.06810000  1.0 0.1379091023
H  H37  1  0.27920000  0.15310000  0.12950000  1.0 0.097414771
H  H38  1  0.27900000  0.06670000  0.11750000  1.0 0.0919833498
H  H39  1  0.16410000  0.15140000  0.30130000  1.0 0.1474967205
H  H40  1  0.24970000  0.19140000  0.42340000  1.0 0.1185619393
H  H41  1  0.45920000  0.18050000  0.35050000  1.0 0.1185619393
H  H42  1  0.37390000  0.14280000  0.22790000  1.0 0.1304363721
H  H43  1  0.08720000  0.14150000  0.85550000  1.0 0.097414771
H  H44  1  0.11100000  0.21130000  0.93590000  1.0 0.097414771
H  H45  1  0.82950000  0.17020000  0.83700000  1.0 0.1304363721
H  H46  1  0.76860000  0.22980000  0.76020000  1.0 0.1185619393
H  H47  1  0.99810000  0.31390000  0.76890000  1.0 0.1304363721
H  H48  1  0.06350000  0.25990000  0.84750000  1.0 0.1185619393
H  H49  1  0.96690000  0.90150000  0.87190000  1.0 0.0919833498
H  H50  1  0.02150000  0.88110000  0.93650000  1.0 0.097414771
H  H51  1  0.92540000  0.78530000  0.85320000  1.0 0.1185619393
H  H52  1  0.85880000  0.65990000  0.78450000  1.0 0.1185619393
H  H53  1  0.03490000  0.61520000  0.67300000  1.0 0.1304363721
H  H54  1  0.10160000  0.74100000  0.73900000  1.0 0.1304363721
H  H55  1  0.52960000  0.06720000  0.42210000  1.0 0.1123439779
H  H56  1  0.56730000  0.98990000  0.39080000  1.0 0.1123439779
H  H57  1  0.51050000  0.00170000  0.44720000  1.0 0.0919833498
H  H58  1  0.76320000  0.10340000  0.61310000  1.0 0.1185619393
H  H59  1  0.74510000  0.03520000  0.63480000  1.0 0.0919833498
H  H60  1  0.80440000  0.02820000  0.58120000  1.0 0.0919833498
H  H61  1  0.61230000  0.91490000  0.45730000  1.0 0.0566151791
H  H62  1  0.71080000  0.91140000  0.48660000  1.0 0.0785643308
H  H63  1  0.65020000  0.91980000  0.53940000  1.0 0.0785643308
H  H64  1  0.76700000  0.11970000  0.62760000  1.0 0.1185619393
H  H65  1  0.72310000  0.04150000  0.62000000  1.0 0.097414771
H  H66  1  0.78360000  0.04160000  0.56910000  1.0 0.0919833498
H  H67  1  0.54280000  0.05520000  0.42720000  1.0 0.1185619393
H  H68  1  0.55810000  0.97380000  0.37390000  1.0 0.1123439779
H  H69  1  0.49740000  0.98100000  0.42640000  1.0 0.097414771
H  H70  1  0.67620000  0.92530000  0.50930000  1.0 0.0566151791
H  H71  1  0.57720000  0.90160000  0.46780000  1.0 0.069660058
H  H72  1  0.64340000  0.90080000  0.42140000  1.0 0.0785643308
H  H73  1  0.27280000  0.91120000  0.95700000  1.0 0.1379091023
H  H74  1  0.36760000  0.89260000  0.96350000  1.0 0.1304363721
H  H75  1  0.31310000  0.89780000  0.88960000  1.0 0.1304363721
H  H76  1  0.52970000  0.11680000  0.17920000  1.0 0.1304363721
H  H77  1  0.48490000  0.19090000  0.19500000  1.0 0.1304363721
H  H78  1  0.56110000  0.18120000  0.15720000  1.0 0.1379091023
H  H79  1  0.28410000  0.20420000  0.94830000  1.0 0.1304363721
H  H80  1  0.30180000  0.14170000  0.87570000  1.0 0.1185619393
H  H81  1  0.37480000  0.20960000  0.93350000  1.0 0.1185619393
H  H82  1  0.23260000  0.96440000  0.85630000  1.0 0.097414771
H  H83  1  0.23070000  0.04400000  0.85020000  1.0 0.097414771
H  H84  1  0.40850000  0.94300000  0.71870000  1.0 0.1304363721
H  H85  1  0.37640000  0.83950000  0.60190000  1.0 0.1185619393
H  H86  1  0.14540000  0.78840000  0.62010000  1.0 0.1185619393
H  H87  1  0.17600000  0.88870000  0.73950000  1.0 0.1304363721
H  H88  1  0.46030000  0.93670000  0.05000000  1.0 0.0919833498
H  H89  1  0.51540000  0.01030000  0.11970000  1.0 0.097414771
H  H90  1  0.32300000  0.96330000  0.21800000  1.0 0.1379091023
H  H91  1  0.34680000  0.88620000  0.28270000  1.0 0.1123439779
H  H92  1  0.55090000  0.82380000  0.20800000  1.0 0.1185619393
H  H93  1  0.52740000  0.89720000  0.13970000  1.0 0.1304363721
H  H94  1  0.50160000  0.25970000  0.10730000  1.0 0.097414771
H  H95  1  0.42090000  0.27120000  0.05190000  1.0 0.097414771
H  H96  1  0.32950000  0.32840000  0.25100000  1.0 0.1379091023
H  H97  1  0.32990000  0.45520000  0.32730000  1.0 0.1304363721
H  H98  1  0.48540000  0.51880000  0.22780000  1.0 0.097414771
H  H99  1  0.48260000  0.39310000  0.14900000  1.0 0.1185619393
H  H100  1  0.86240000  0.75220000  0.94780000  1.0 0.1379091023
H  H101  1  0.79740000  0.77040000  0.88670000  1.0 0.1304363721
H  H102  1  0.76970000  0.76820000  0.95610000  1.0 0.1304363721
H  H103  1  0.97890000  0.96950000  0.20340000  1.0 0.1304363721
H  H104  1  0.99050000  0.05220000  0.20580000  1.0 0.1304363721
H  H105  1  0.05620000  0.99570000  0.17960000  1.0 0.1474967205
H  H106  1  0.84230000  0.10010000  0.99300000  1.0 0.1304363721
H  H107  1  0.79080000  0.03150000  0.91700000  1.0 0.1304363721
H  H108  1  0.88980000  0.05580000  0.93190000  1.0 0.1379091023
H  H109  1  0.72080000  0.84690000  0.87050000  1.0 0.097414771
H  H110  1  0.72100000  0.93330000  0.88250000  1.0 0.0919833498
H  H111  1  0.83590000  0.84860000  0.69870000  1.0 0.1474967205
H  H112  1  0.75030000  0.80860000  0.57660000  1.0 0.1185619393
H  H113  1  0.54080000  0.81950000  0.64950000  1.0 0.1185619393
H  H114  1  0.62610000  0.85720000  0.77210000  1.0 0.1304363721
H  H115  1  0.91280000  0.85850000  0.14450000  1.0 0.097414771
H  H116  1  0.88900000  0.78870000  0.06410000  1.0 0.097414771
H  H117  1  0.17050000  0.82980000  0.16300000  1.0 0.1304363721
H  H118  1  0.23140000  0.77020000  0.23980000  1.0 0.1185619393
H  H119  1  0.00190000  0.68610000  0.23110000  1.0 0.1304363721
H  H120  1  0.93650000  0.74010000  0.15250000  1.0 0.1185619393
H  H121  1  0.03310000  0.09850000  0.12810000  1.0 0.097414771
H  H122  1  0.97850000  0.11890000  0.06350000  1.0 0.097414771
H  H123  1  0.07460000  0.21470000  0.14680000  1.0 0.1185619393
H  H124  1  0.14120000  0.34010000  0.21550000  1.0 0.1185619393
H  H125  1  0.96510000  0.38480000  0.32700000  1.0 0.1304363721
H  H126  1  0.89840000  0.25900000  0.26100000  1.0 0.1304363721
H  H127  1  0.47040000  0.93280000  0.57790000  1.0 0.1123439779
H  H128  1  0.43270000  0.01010000  0.60920000  1.0 0.1123439779
H  H129  1  0.48950000  0.99830000  0.55280000  1.0 0.0919833498
H  H130  1  0.23680000  0.89660000  0.38690000  1.0 0.1185619393
H  H131  1  0.25490000  0.96480000  0.36520000  1.0 0.0919833498
H  H132  1  0.19560000  0.97180000  0.41880000  1.0 0.0919833498
H  H133  1  0.38770000  0.08510000  0.54270000  1.0 0.0566151791
H  H134  1  0.28920000  0.08860000  0.51340000  1.0 0.0785643308
H  H135  1  0.34980000  0.08020000  0.46060000  1.0 0.0785643308
H  H136  1  0.23300000  0.88030000  0.37240000  1.0 0.1185619393
H  H137  1  0.27690000  0.95850000  0.38000000  1.0 0.097414771
H  H138  1  0.21640000  0.95840000  0.43090000  1.0 0.0785643308
H  H139  1  0.45720000  0.94480000  0.57280000  1.0 0.1185619393
H  H140  1  0.44190000  0.02620000  0.62610000  1.0 0.1123439779
H  H141  1  0.50260000  0.01900000  0.57360000  1.0 0.097414771
H  H142  1  0.32380000  0.07470000  0.49070000  1.0 0.0566151791
H  H143  1  0.42280000  0.09840000  0.53220000  1.0 0.069660058
H  H144  1  0.35660000  0.09920000  0.57860000  1.0 0.0785643308
C  C1  1  0.67170000  0.95210000  0.06086000  1.0 -0.0603587189
C  C2  1  0.64220000  0.99760000  0.02280000  1.0 0.0785643308
C  C3  1  0.57900000  0.96320000  0.95180000  1.0 -0.053689378
C  C4  1  0.55220000  0.88440000  0.91699000  1.0 0.0785643308
C  C5  1  0.58560000  0.83870000  0.95525000  1.0 -0.0603587189
C  C6  1  0.64290000  0.87240000  0.02819000  1.0 0.0785643308
C  C7  1  0.67510000  0.08150000  0.05610000  1.0 -0.4743325955
C  C8  1  0.48830000  0.84530000  0.83930000  1.0 -0.4783825126
C  C9  1  0.67330000  0.82490000  0.07160000  1.0 -0.4783825126
C  C10  1  0.73190000  0.99090000  0.13870000  1.0 -0.0689765836
C  C11  1  0.70510000  0.07470000  0.25890000  1.0 0.2500166648
C  C12  1  0.64440000  0.08870000  0.30060000  1.0 -0.2367330997
C  C13  1  0.66440000  0.15020000  0.37070000  1.0 -0.0883031658
C  C14  1  0.74140000  0.19590000  0.40070000  1.0 -0.0391124592
C  C15  1  0.80110000  0.18060000  0.35940000  1.0 -0.0794666712
C  C16  1  0.78330000  0.12040000  0.28800000  1.0 -0.2367330997
C  C17  1  0.76130000  0.26180000  0.47750000  1.0 0.5810331457
C  C18  1  0.54250000  0.01270000  0.91270000  1.0 -0.0603587189
C  C19  1  0.57710000  0.06370000  0.82910000  1.0 0.2422022277
C  C20  1  0.63160000  0.06550000  0.78500000  1.0 -0.2592051225
C  C21  1  0.61630000  0.11130000  0.74600000  1.0 -0.1749858803
C  C22  1  0.55050000  0.15250000  0.74750000  1.0 -0.053689378
C  C23  1  0.49560000  0.14870000  0.79070000  1.0 -0.0883031658
C  C24  1  0.50930000  0.10470000  0.83130000  1.0 -0.2304227858
C  C25  1  0.53260000  0.19880000  0.70130000  1.0 0.5878153496
C  C26  1  0.56060000  0.75340000  0.91390000  1.0 -0.0689765836
C  C27  1  0.59500000  0.65210000  0.80880000  1.0 0.2561461084
C  C28  1  0.63980000  0.63300000  0.75450000  1.0 -0.2099764815
C  C29  1  0.63890000  0.55700000  0.70850000  1.0 -0.0689765836
C  C30  1  0.59310000  0.49860000  0.71430000  1.0 -0.0794666712
C  C31  1  0.54720000  0.51960000  0.76790000  1.0 -0.0794666712
C  C32  1  0.54820000  0.59470000  0.81500000  1.0 -0.2304227858
C  C33  1  0.59600000  0.41640000  0.66750000  1.0 0.6205738836
C  C34  1  0.17280000  0.08220000  0.04669000  1.0 -0.053689378
C  C35  1  0.14980000  0.13430000  0.01560000  1.0 0.069660058
C  C36  1  0.09450000  0.10760000  0.94150000  1.0 -0.053689378
C  C37  1  0.05870000  0.03090000  0.90210000  1.0 0.069660058
C  C38  1  0.07570000  0.98040000  0.93750000  1.0 -0.053689378
C  C39  1  0.13370000  0.00490000  0.00820000  1.0 0.0785643308
C  C40  1  0.18310000  0.21840000  0.06030000  1.0 -0.4783825126
C  C41  1  0.00320000  0.00060000  0.82090000  1.0 -0.4783825126
C  C42  1  0.15460000  0.94930000  0.04500000  1.0 -0.4783825126
C  C43  1  0.24300000  0.10690000  0.12043000  1.0 -0.0689765836
C  C44  1  0.26070000  0.14440000  0.25238000  1.0 0.2422022277
C  C45  1  0.22390000  0.15820000  0.31110000  1.0 -0.2200913686
C  C46  1  0.27540000  0.18210000  0.38410000  1.0 -0.0992715306
C  C47  1  0.36430000  0.19260000  0.40050000  1.0 -0.0603587189
C  C48  1  0.39940000  0.17610000  0.34120000  1.0 -0.0992715306
C  C49  1  0.34830000  0.15270000  0.26730000  1.0 -0.2304227858
C  C50  1  0.42160000  0.22020000  0.48050000  1.0 0.5878153496
C  C51  1  0.07500000  0.16190000  0.90450000  1.0 -0.0689765836
C  C52  1  0.95260000  0.20730000  0.84930000  1.0 0.2422022277
C  C53  1  0.86460000  0.19920000  0.82370000  1.0 -0.2200913686
C  C54  1  0.82850000  0.23520000  0.77730000  1.0 -0.1088333524
C  C55  1  0.87740000  0.27820000  0.75590000  1.0 -0.0391124592
C  C56  1  0.96350000  0.28510000  0.78280000  1.0 -0.0794666712
C  C57  1  0.00360000  0.25230000  0.82940000  1.0 -0.2200913686
C  C58  1  0.83790000  0.31630000  0.70450000  1.0 0.5810331457
C  C59  1  0.02520000  0.90010000  0.89870000  1.0 -0.0794666712
C  C60  1  0.02350000  0.77510000  0.80640000  1.0 0.2422022277
C  C61  1  0.94940000  0.75090000  0.81770000  1.0 -0.2304227858
C  C62  1  0.90970000  0.67520000  0.77650000  1.0 -0.0794666712
C  C63  1  0.94260000  0.62410000  0.72600000  1.0 -0.0237430607
C  C64  1  0.01340000  0.64940000  0.71080000  1.0 -0.0794666712
C  C65  1  0.05390000  0.72480000  0.75050000  1.0 -0.2200913686
C  C66  1  0.89470000  0.54150000  0.68270000  1.0 0.5438486093
C  C67  1  0.55280000  0.02670000  0.43410000  1.0 -0.2592051225
C  C68  1  0.63240000  0.05980000  0.50000000  1.0 0.2777179682
C  C69  1  0.75430000  0.04850000  0.59520000  1.0 -0.2200913686
C  C70  1  0.66180000  0.93370000  0.50090000  1.0 -0.1359530932
C  C71  1  0.74160000  0.06790000  0.59280000  1.0 -0.2200913686
C  C72  1  0.67160000  0.06920000  0.53800000  1.0 0.2561461084
C  C73  1  0.54890000  0.00390000  0.42240000  1.0 -0.2720753795
C  C74  1  0.63050000  0.92680000  0.46910000  1.0 -0.1325898415
C  C75  1  0.32830000  0.04790000  0.93914000  1.0 -0.0603587189
C  C76  1  0.35780000  0.00240000  0.97720000  1.0 0.0785643308
C  C77  1  0.42100000  0.03680000  0.04820000  1.0 -0.053689378
C  C78  1  0.44780000  0.11560000  0.08301000  1.0 0.0785643308
C  C79  1  0.41440000  0.16130000  0.04475000  1.0 -0.0603587189
C  C80  1  0.35710000  0.12760000  0.97181000  1.0 0.0785643308
C  C81  1  0.32490000  0.91850000  0.94390000  1.0 -0.4743325955
C  C82  1  0.51170000  0.15470000  0.16070000  1.0 -0.4783825126
C  C83  1  0.32670000  0.17510000  0.92840000  1.0 -0.4783825126
C  C84  1  0.26810000  0.00910000  0.86130000  1.0 -0.0689765836
C  C85  1  0.29490000  0.92530000  0.74110000  1.0 0.2500166648
C  C86  1  0.35560000  0.91130000  0.69940000  1.0 -0.2367330997
C  C87  1  0.33560000  0.84980000  0.62930000  1.0 -0.0883031658
C  C88  1  0.25860000  0.80410000  0.59930000  1.0 -0.0391124592
C  C89  1  0.19890000  0.81940000  0.64060000  1.0 -0.0794666712
C  C90  1  0.21670000  0.87960000  0.71200000  1.0 -0.2367330997
C  C91  1  0.23870000  0.73820000  0.52250000  1.0 0.5810331457
C  C92  1  0.45750000  0.98730000  0.08730000  1.0 -0.0603587189
C  C93  1  0.42290000  0.93630000  0.17090000  1.0 0.2422022277
C  C94  1  0.36840000  0.93450000  0.21500000  1.0 -0.2538220382
C  C95  1  0.38370000  0.88870000  0.25400000  1.0 -0.1749858803
C  C96  1  0.44950000  0.84750000  0.25250000  1.0 -0.053689378
C  C97  1  0.50440000  0.85130000  0.20930000  1.0 -0.0883031658
C  C98  1  0.49070000  0.89530000  0.16870000  1.0 -0.2304227858
C  C99  1  0.46740000  0.80120000  0.29870000  1.0 0.5878153496
C  C100  1  0.43940000  0.24660000  0.08610000  1.0 -0.0689765836
C  C101  1  0.40500000  0.34790000  0.19120000  1.0 0.2561461084
C  C102  1  0.36020000  0.36700000  0.24550000  1.0 -0.2099764815
C  C103  1  0.36110000  0.44300000  0.29150000  1.0 -0.0689765836
C  C104  1  0.40690000  0.50140000  0.28570000  1.0 -0.0794666712
C  C105  1  0.45280000  0.48040000  0.23210000  1.0 -0.0794666712
C  C106  1  0.45180000  0.40530000  0.18500000  1.0 -0.2304227858
C  C107  1  0.40400000  0.58360000  0.33250000  1.0 0.6205738836
C  C108  1  0.82720000  0.91780000  0.95331000  1.0 -0.053689378
C  C109  1  0.85020000  0.86570000  0.98440000  1.0 0.069660058
C  C110  1  0.90550000  0.89240000  0.05850000  1.0 -0.053689378
C  C111  1  0.94130000  0.96910000  0.09790000  1.0 0.069660058
C  C112  1  0.92430000  0.01960000  0.06250000  1.0 -0.053689378
C  C113  1  0.86630000  0.99510000  0.99180000  1.0 0.0785643308
C  C114  1  0.81690000  0.78160000  0.93970000  1.0 -0.4783825126
C  C115  1  0.99680000  0.99940000  0.17910000  1.0 -0.4743325955
C  C116  1  0.84540000  0.05070000  0.95500000  1.0 -0.4783825126
C  C117  1  0.75700000  0.89310000  0.87957000  1.0 -0.0603587189
C  C118  1  0.73930000  0.85560000  0.74762000  1.0 0.2422022277
C  C119  1  0.77610000  0.84180000  0.68890000  1.0 -0.2200913686
C  C120  1  0.72460000  0.81790000  0.61590000  1.0 -0.0992715306
C  C121  1  0.63570000  0.80740000  0.59950000  1.0 -0.0603587189
C  C122  1  0.60060000  0.82390000  0.65880000  1.0 -0.0992715306
C  C123  1  0.65170000  0.84730000  0.73270000  1.0 -0.2304227858
C  C124  1  0.57840000  0.77980000  0.51950000  1.0 0.5878153496
C  C125  1  0.92500000  0.83810000  0.09550000  1.0 -0.0689765836
C  C126  1  0.04740000  0.79270000  0.15070000  1.0 0.2422022277
C  C127  1  0.13540000  0.80080000  0.17630000  1.0 -0.2200913686
C  C128  1  0.17150000  0.76480000  0.22270000  1.0 -0.1088333524
C  C129  1  0.12260000  0.72180000  0.24410000  1.0 -0.0391124592
C  C130  1  0.03650000  0.71490000  0.21720000  1.0 -0.0794666712
C  C131  1  0.99640000  0.74770000  0.17060000  1.0 -0.2200913686
C  C132  1  0.16210000  0.68370000  0.29550000  1.0 0.5810331457
C  C133  1  0.97480000  0.09990000  0.10130000  1.0 -0.0689765836
C  C134  1  0.97650000  0.22490000  0.19360000  1.0 0.2422022277
C  C135  1  0.05060000  0.24910000  0.18230000  1.0 -0.2304227858
C  C136  1  0.09030000  0.32480000  0.22350000  1.0 -0.0794666712
C  C137  1  0.05740000  0.37590000  0.27400000  1.0 -0.0237430607
C  C138  1  0.98660000  0.35060000  0.28920000  1.0 -0.0794666712
C  C139  1  0.94610000  0.27520000  0.24950000  1.0 -0.2200913686
C  C140  1  0.10530000  0.45850000  0.31730000  1.0 0.5438486093
C  C141  1  0.44720000  0.97330000  0.56590000  1.0 -0.2592051225
C  C142  1  0.36760000  0.94020000  0.50000000  1.0 0.2777179682
C  C143  1  0.24570000  0.95150000  0.40480000  1.0 -0.2200913686
C  C144  1  0.33820000  0.06630000  0.49910000  1.0 -0.1359530932
C  C145  1  0.25840000  0.93210000  0.40720000  1.0 -0.2200913686
C  C146  1  0.32840000  0.93080000  0.46200000  1.0 0.2561461084
C  C147  1  0.45110000  0.99610000  0.57760000  1.0 -0.2720753795
C  C148  1  0.36950000  0.07320000  0.53090000  1.0 -0.1325898415
N  N1  1  0.67980000  0.01620000  0.53000000  1.0 0.0785643308
N  N2  1  0.62230000  0.00620000  0.48240000  1.0 0.0785643308
N  N3  1  0.32020000  0.98380000  0.47000000  1.0 0.0785643308
N  N4  1  0.37770000  0.99380000  0.51760000  1.0 0.0785643308
O  O1  1  0.67711000  0.01358000  0.18934000  1.0 -0.1968432426
O  O2  1  0.59793000  0.01883000  0.86827000  1.0 -0.1921916203
O  O3  1  0.60329000  0.72868000  0.85411000  1.0 -0.2099764815
O  O4  1  0.83390000  0.30375000  0.50417000  1.0 -0.5888359494
O  O5  1  0.70504000  0.27441000  0.51352000  1.0 -0.6549034959
O  O6  1  0.46880000  0.23460000  0.70610000  1.0 -0.6717432535
O  O7  1  0.58250000  0.20030000  0.66340000  1.0 -0.5970991051
O  O8  1  0.65024000  0.40011000  0.62850000  1.0 -0.6389699823
O  O9  1  0.54536000  0.36488000  0.66597000  1.0 -0.681075657
O  O10  1  0.20432000  0.12168000  0.18151000  1.0 -0.1921916203
O  O11  1  0.98589000  0.17110000  0.89491000  1.0 -0.1921916203
O  O12  1  0.06681000  0.84886000  0.84575000  1.0 -0.1968432426
O  O13  1  0.50030000  0.22324000  0.49054000  1.0 -0.5970991051
O  O14  1  0.38360000  0.23970000  0.53202000  1.0 -0.6717432535
O  O15  1  0.88390000  0.35680000  0.69050000  1.0 -0.5177341348
O  O16  1  0.75770000  0.30230000  0.67850000  1.0 -0.6268471128
O  O17  1  0.83040000  0.52618000  0.70070000  1.0 -0.5888359494
O  O18  1  0.92120000  0.49360000  0.63430000  1.0 -0.4981827683
O  O19  1  0.65580000  0.12990000  0.52800000  1.0 -0.4348072058
O  O20  1  0.65600000  0.13150000  0.54270000  1.0 -0.4193502016
O  O21  1  0.32289000  0.98642000  0.81066000  1.0 -0.1968432426
O  O22  1  0.40207000  0.98117000  0.13173000  1.0 -0.1921916203
O  O23  1  0.39671000  0.27132000  0.14589000  1.0 -0.2099764815
O  O24  1  0.16610000  0.69625000  0.49583000  1.0 -0.5888359494
O  O25  1  0.29496000  0.72559000  0.48648000  1.0 -0.6549034959
O  O26  1  0.53120000  0.76540000  0.29390000  1.0 -0.6717432535
O  O27  1  0.41750000  0.79970000  0.33660000  1.0 -0.5970991051
O  O28  1  0.34976000  0.59989000  0.37150000  1.0 -0.6389699823
O  O29  1  0.45464000  0.63512000  0.33403000  1.0 -0.681075657
O  O30  1  0.79568000  0.87832000  0.81849000  1.0 -0.1921916203
O  O31  1  0.01411000  0.82890000  0.10509000  1.0 -0.1921916203
O  O32  1  0.93319000  0.15114000  0.15425000  1.0 -0.1968432426
O  O33  1  0.49970000  0.77676000  0.50946000  1.0 -0.5970991051
O  O34  1  0.61640000  0.76030000  0.46798000  1.0 -0.6717432535
O  O35  1  0.11610000  0.64320000  0.30950000  1.0 -0.5177341348
O  O36  1  0.24230000  0.69770000  0.32150000  1.0 -0.6268471128
O  O37  1  0.16960000  0.47382000  0.29930000  1.0 -0.5888359494
O  O38  1  0.07880000  0.50640000  0.36570000  1.0 -0.4981827683
O  O39  1  0.34420000  0.87010000  0.47200000  1.0 -0.4348072058
O  O40  1  0.34400000  0.86850000  0.45730000  1.0 -0.4193502016
