# DDEC6 charges by PACMAN v1.1 (https://github.com/mtap-research/PACMAN-charge/)
data_UKUDEL_FSR_pacman
_symmetry_space_group_name_H-M   'P 1'
_cell_length_a   14.70800000
_cell_length_b   14.70800000
_cell_length_c   14.70800000
_cell_angle_alpha   60.00000000
_cell_angle_beta   60.00000000
_cell_angle_gamma   60.00000000
_symmetry_Int_Tables_number   1
_chemical_formula_structural   Zr3C24O19
_chemical_formula_sum   'Zr6 C48 O38'
_cell_volume   2249.81011890
_cell_formula_units_Z   2
loop_
 _symmetry_equiv_pos_site_id
 _symmetry_equiv_pos_as_xyz
  1  'x, y, z'
loop_
 _atom_site_type_symbol
 _atom_site_label
 _atom_site_symmetry_multiplicity
 _atom_site_fract_x
 _atom_site_fract_y
 _atom_site_fract_z
 _atom_site_occupancy
 _atom_site_charge
Zr  Zr1  1  0.11680000  0.11680000  0.88320000  1.0 2.2532894499
Zr  Zr2  1  0.88320000  0.88320000  0.11680000  1.0 2.2532894499
Zr  Zr3  1  0.88320000  0.11680000  0.88320000  1.0 2.2532894499
Zr  Zr4  1  0.11680000  0.88320000  0.11680000  1.0 2.2532894499
Zr  Zr5  1  0.11680000  0.88320000  0.88320000  1.0 2.2532894499
Zr  Zr6  1  0.88320000  0.11680000  0.11680000  1.0 2.2532894499
C  C1  1  0.99700000  0.29700000  0.00300000  1.0 0.5602923072
C  C2  1  0.29700000  0.99700000  0.70300000  1.0 0.5602923072
C  C3  1  0.00300000  0.70300000  0.99700000  1.0 0.5602923072
C  C4  1  0.00300000  0.29700000  0.70300000  1.0 0.5602923072
C  C5  1  0.99700000  0.70300000  0.29700000  1.0 0.5602923072
C  C6  1  0.99700000  0.00300000  0.70300000  1.0 0.5602923072
C  C7  1  0.29700000  0.70300000  0.00300000  1.0 0.5602923072
C  C8  1  0.70300000  0.29700000  0.99700000  1.0 0.5602923072
C  C9  1  0.00300000  0.99700000  0.29700000  1.0 0.5602923072
C  C10  1  0.70300000  0.99700000  0.00300000  1.0 0.5602923072
C  C11  1  0.29700000  0.00300000  0.99700000  1.0 0.5602923072
C  C12  1  0.70300000  0.00300000  0.29700000  1.0 0.5602923072
C  C13  1  0.98000000  0.40000000  0.02000000  1.0 -0.0374075221
C  C14  1  0.40000000  0.98000000  0.60000000  1.0 -0.0374075221
C  C15  1  0.02000000  0.60000000  0.98000000  1.0 -0.0348357571
C  C16  1  0.02000000  0.40000000  0.60000000  1.0 -0.0374075221
C  C17  1  0.98000000  0.60000000  0.40000000  1.0 -0.0374075221
C  C18  1  0.98000000  0.02000000  0.60000000  1.0 -0.0374075221
C  C19  1  0.40000000  0.60000000  0.02000000  1.0 -0.0374075221
C  C20  1  0.60000000  0.40000000  0.98000000  1.0 -0.0374075221
C  C21  1  0.02000000  0.98000000  0.40000000  1.0 -0.0348357571
C  C22  1  0.60000000  0.98000000  0.02000000  1.0 -0.0374075221
C  C23  1  0.40000000  0.02000000  0.98000000  1.0 -0.0374075221
C  C24  1  0.60000000  0.02000000  0.40000000  1.0 -0.0374075221
C  C25  1  0.95860000  0.50980000  0.92260000  1.0 0.0069511182
C  C26  1  0.50980000  0.95860000  0.60900000  1.0 0.0069511182
C  C27  1  0.92260000  0.60900000  0.95860000  1.0 0.0041267865
C  C28  1  0.92260000  0.50980000  0.60900000  1.0 0.0069511182
C  C29  1  0.95860000  0.60900000  0.50980000  1.0 0.0069511182
C  C30  1  0.95860000  0.92260000  0.60900000  1.0 0.0069511182
C  C31  1  0.50980000  0.60900000  0.92260000  1.0 0.0069511182
C  C32  1  0.60900000  0.50980000  0.95860000  1.0 0.0041267865
C  C33  1  0.92260000  0.95860000  0.50980000  1.0 0.0069511182
C  C34  1  0.60900000  0.95860000  0.92260000  1.0 0.0069511182
C  C35  1  0.50980000  0.92260000  0.95860000  1.0 0.0041267865
C  C36  1  0.60900000  0.92260000  0.50980000  1.0 0.0041267865
C  C37  1  0.04140000  0.49020000  0.07740000  1.0 0.0069511182
C  C38  1  0.49020000  0.04140000  0.39100000  1.0 0.0069511182
C  C39  1  0.07740000  0.39100000  0.04140000  1.0 0.0041267865
C  C40  1  0.07740000  0.49020000  0.39100000  1.0 0.0041267865
C  C41  1  0.04140000  0.39100000  0.49020000  1.0 0.0041267865
C  C42  1  0.04140000  0.07740000  0.39100000  1.0 0.0069511182
C  C43  1  0.49020000  0.39100000  0.07740000  1.0 0.0041267865
C  C44  1  0.39100000  0.49020000  0.04140000  1.0 0.0069511182
C  C45  1  0.07740000  0.04140000  0.49020000  1.0 0.0069511182
C  C46  1  0.39100000  0.04140000  0.07740000  1.0 0.0041267865
C  C47  1  0.49020000  0.07740000  0.04140000  1.0 0.0069511182
C  C48  1  0.39100000  0.07740000  0.49020000  1.0 0.0069511182
O  O1  1  0.05880000  0.05880000  0.05880000  1.0 -1.0313664092
O  O2  1  0.05880000  0.05880000  0.82360000  1.0 -1.0313664092
O  O3  1  0.05880000  0.82360000  0.05880000  1.0 -1.0313664092
O  O4  1  0.82360000  0.05880000  0.05880000  1.0 -1.0313664092
O  O5  1  0.94120000  0.94120000  0.94120000  1.0 -1.0385809256
O  O6  1  0.94120000  0.94120000  0.17640000  1.0 -1.0385809256
O  O7  1  0.94120000  0.17640000  0.94120000  1.0 -1.0385809256
O  O8  1  0.17640000  0.94120000  0.94120000  1.0 -1.0385809256
O  O9  1  0.08400000  0.26000000  0.91600000  1.0 -0.5664937907
O  O10  1  0.26000000  0.08400000  0.74000000  1.0 -0.5664937907
O  O11  1  0.91600000  0.74000000  0.08400000  1.0 -0.5664937907
O  O12  1  0.91600000  0.26000000  0.74000000  1.0 -0.5664937907
O  O13  1  0.08400000  0.74000000  0.26000000  1.0 -0.5664937907
O  O14  1  0.08400000  0.91600000  0.74000000  1.0 -0.5664937907
O  O15  1  0.26000000  0.74000000  0.91600000  1.0 -0.5664937907
O  O16  1  0.74000000  0.26000000  0.08400000  1.0 -0.5664937907
O  O17  1  0.91600000  0.08400000  0.26000000  1.0 -0.5664937907
O  O18  1  0.74000000  0.08400000  0.91600000  1.0 -0.5664937907
O  O19  1  0.26000000  0.91600000  0.08400000  1.0 -0.5664937907
O  O20  1  0.74000000  0.91600000  0.26000000  1.0 -0.5664937907
O  O21  1  0.91000000  0.26000000  0.09000000  1.0 -0.5395429943
O  O22  1  0.26000000  0.91000000  0.74000000  1.0 -0.5395429943
O  O23  1  0.09000000  0.74000000  0.91000000  1.0 -0.5395429943
O  O24  1  0.09000000  0.26000000  0.74000000  1.0 -0.5395429943
O  O25  1  0.91000000  0.74000000  0.26000000  1.0 -0.5395429943
O  O26  1  0.91000000  0.09000000  0.74000000  1.0 -0.5395429943
O  O27  1  0.26000000  0.74000000  0.09000000  1.0 -0.5395429943
O  O28  1  0.74000000  0.26000000  0.91000000  1.0 -0.5395429943
O  O29  1  0.09000000  0.91000000  0.26000000  1.0 -0.5395429943
O  O30  1  0.74000000  0.91000000  0.09000000  1.0 -0.5395429943
O  O31  1  0.26000000  0.09000000  0.91000000  1.0 -0.5395429943
O  O32  1  0.74000000  0.09000000  0.26000000  1.0 -0.5395429943
O  O33  1  0.21800000  0.21800000  0.78200000  1.0 0.2649658607
O  O34  1  0.78200000  0.78200000  0.21800000  1.0 0.2692718791
O  O35  1  0.78200000  0.21800000  0.78200000  1.0 0.2692718791
O  O36  1  0.21800000  0.78200000  0.21800000  1.0 0.2692718791
O  O37  1  0.21800000  0.78200000  0.78200000  1.0 0.2692718791
O  O38  1  0.78200000  0.21800000  0.21800000  1.0 0.2692718791
