# DDEC6 charges by PACMAN v1.1 (https://github.com/mtap-research/PACMAN-charge/)
data_UKUPUL_FSR_pacman
_symmetry_space_group_name_H-M   'P 1'
_cell_length_a   16.16900000
_cell_length_b   16.16900000
_cell_length_c   18.19900000
_cell_angle_alpha   90.00000000
_cell_angle_beta   90.00000000
_cell_angle_gamma   90.00000000
_symmetry_Int_Tables_number   1
_chemical_formula_structural   V9Si4H16C8N4O27
_chemical_formula_sum   'V36 Si16 H64 C32 N16 O108'
_cell_volume   4757.88397364
_cell_formula_units_Z   4
loop_
 _symmetry_equiv_pos_site_id
 _symmetry_equiv_pos_as_xyz
  1  'x, y, z'
loop_
 _atom_site_type_symbol
 _atom_site_label
 _atom_site_symmetry_multiplicity
 _atom_site_fract_x
 _atom_site_fract_y
 _atom_site_fract_z
 _atom_site_occupancy
 _atom_site_charge
V  V1  1  0.99580000  0.17754000  0.13593000  1.0 1.9405072759
V  V2  1  0.00420000  0.82246000  0.13593000  1.0 1.9405072759
V  V3  1  0.17754000  0.00420000  0.86407000  1.0 1.9405072759
V  V4  1  0.82246000  0.99580000  0.86407000  1.0 1.9405072759
V  V5  1  0.50420000  0.67754000  0.36407000  1.0 1.9405072759
V  V6  1  0.49580000  0.32246000  0.36407000  1.0 1.9405072759
V  V7  1  0.32246000  0.50420000  0.63593000  1.0 1.9405072759
V  V8  1  0.67754000  0.49580000  0.63593000  1.0 1.9405072759
V  V9  1  0.00000000  0.00000000  0.20302000  1.0 1.9487858991
V  V10  1  0.00000000  0.00000000  0.79698000  1.0 1.9487858991
V  V11  1  0.50000000  0.50000000  0.29698000  1.0 1.9487858991
V  V12  1  0.50000000  0.50000000  0.70302000  1.0 1.9487858991
V  V13  1  0.82468000  0.16897000  0.99990000  1.0 1.9729254673
V  V14  1  0.17532000  0.83103000  0.99990000  1.0 1.9729254673
V  V15  1  0.16897000  0.17532000  0.00010000  1.0 1.9729254673
V  V16  1  0.83103000  0.82468000  0.00010000  1.0 1.9729254673
V  V17  1  0.67532000  0.66897000  0.50010000  1.0 1.9729254673
V  V18  1  0.32468000  0.33103000  0.50010000  1.0 1.9729254673
V  V19  1  0.33103000  0.67532000  0.49990000  1.0 1.9729254673
V  V20  1  0.66897000  0.32468000  0.49990000  1.0 1.9729254673
V  V21  1  0.75315000  0.99543000  0.00755000  1.0 1.8171489219
V  V22  1  0.24685000  0.00457000  0.00755000  1.0 1.8149330596
V  V23  1  0.99543000  0.24685000  0.99245000  1.0 1.8171489219
V  V24  1  0.00457000  0.75315000  0.99245000  1.0 1.8171489219
V  V25  1  0.74685000  0.49543000  0.49245000  1.0 1.8171489219
V  V26  1  0.25315000  0.50457000  0.49245000  1.0 1.8171489219
V  V27  1  0.50457000  0.74685000  0.50755000  1.0 1.8171489219
V  V28  1  0.49543000  0.25315000  0.50755000  1.0 1.8171489219
V  V29  1  0.78610000  0.74860000  0.27242000  1.0 1.903709961
V  V30  1  0.21390000  0.25140000  0.27242000  1.0 1.903709961
V  V31  1  0.74860000  0.21390000  0.72758000  1.0 1.903709961
V  V32  1  0.25140000  0.78610000  0.72758000  1.0 1.903709961
V  V33  1  0.71390000  0.24860000  0.22758000  1.0 1.903709961
V  V34  1  0.28610000  0.75140000  0.22758000  1.0 1.903709961
V  V35  1  0.75140000  0.71390000  0.77242000  1.0 1.903709961
V  V36  1  0.24860000  0.28610000  0.77242000  1.0 1.903709961
Si  Si1  1  0.82300000  0.90700000  0.16230000  1.0 1.7543960279
Si  Si2  1  0.17700000  0.09300000  0.16230000  1.0 1.7543960279
Si  Si3  1  0.90700000  0.17700000  0.83770000  1.0 1.7630762902
Si  Si4  1  0.09300000  0.82300000  0.83770000  1.0 1.7543960279
Si  Si5  1  0.67700000  0.40700000  0.33770000  1.0 1.7543960279
Si  Si6  1  0.32300000  0.59300000  0.33770000  1.0 1.7543960279
Si  Si7  1  0.59300000  0.67700000  0.66230000  1.0 1.7543960279
Si  Si8  1  0.40700000  0.32300000  0.66230000  1.0 1.7543960279
Si  Si9  1  0.82010000  0.08540000  0.16220000  1.0 1.7630762902
Si  Si10  1  0.17990000  0.91460000  0.16220000  1.0 1.7630762902
Si  Si11  1  0.08540000  0.17990000  0.83780000  1.0 1.7630762902
Si  Si12  1  0.91460000  0.82010000  0.83780000  1.0 1.7630762902
Si  Si13  1  0.67990000  0.58540000  0.33780000  1.0 1.7630762902
Si  Si14  1  0.32010000  0.41460000  0.33780000  1.0 1.7630762902
Si  Si15  1  0.41460000  0.67990000  0.66220000  1.0 1.7630762902
Si  Si16  1  0.58540000  0.32010000  0.66220000  1.0 1.7630762902
H  H1  1  0.71120000  0.92700000  0.29310000  1.0 0.0909050428
H  H2  1  0.28880000  0.07300000  0.29310000  1.0 0.0909050428
H  H3  1  0.92700000  0.28880000  0.70690000  1.0 0.0909050428
H  H4  1  0.07300000  0.71120000  0.70690000  1.0 0.0909050428
H  H5  1  0.78880000  0.42700000  0.20690000  1.0 0.0909050428
H  H6  1  0.21120000  0.57300000  0.20690000  1.0 0.0909050428
H  H7  1  0.57300000  0.78880000  0.79310000  1.0 0.0909050428
H  H8  1  0.42700000  0.21120000  0.79310000  1.0 0.0909050428
H  H9  1  0.75650000  0.92180000  0.36880000  1.0 0.0909050428
H  H10  1  0.24350000  0.07820000  0.36880000  1.0 0.0909050428
H  H11  1  0.92180000  0.24350000  0.63120000  1.0 0.0909050428
H  H12  1  0.07820000  0.75650000  0.63120000  1.0 0.0909050428
H  H13  1  0.74350000  0.42180000  0.13120000  1.0 0.0996092795
H  H14  1  0.25650000  0.57820000  0.13120000  1.0 0.0996092795
H  H15  1  0.57820000  0.74350000  0.86880000  1.0 0.0909050428
H  H16  1  0.42180000  0.25650000  0.86880000  1.0 0.0909050428
H  H17  1  0.58470000  0.93740000  0.35380000  1.0 0.0996092795
H  H18  1  0.41530000  0.06260000  0.35380000  1.0 0.0996092795
H  H19  1  0.93740000  0.41530000  0.64620000  1.0 0.0996092795
H  H20  1  0.06260000  0.58470000  0.64620000  1.0 0.0996092795
H  H21  1  0.91530000  0.43740000  0.14620000  1.0 0.0996092795
H  H22  1  0.08470000  0.56260000  0.14620000  1.0 0.0996092795
H  H23  1  0.56260000  0.91530000  0.85380000  1.0 0.0996092795
H  H24  1  0.43740000  0.08470000  0.85380000  1.0 0.0996092795
H  H25  1  0.63030000  0.93280000  0.42920000  1.0 0.1121296491
H  H26  1  0.36970000  0.06720000  0.42920000  1.0 0.1121296491
H  H27  1  0.93280000  0.36970000  0.57080000  1.0 0.1121296491
H  H28  1  0.06720000  0.63030000  0.57080000  1.0 0.1121296491
H  H29  1  0.86970000  0.43280000  0.07080000  1.0 0.1121296491
H  H30  1  0.13030000  0.56720000  0.07080000  1.0 0.1121296491
H  H31  1  0.56720000  0.86970000  0.92920000  1.0 0.1121296491
H  H32  1  0.43280000  0.13030000  0.92920000  1.0 0.1121296491
H  H33  1  0.58210000  0.06430000  0.39190000  1.0 0.1190116148
H  H34  1  0.41790000  0.93570000  0.39190000  1.0 0.1190116148
H  H35  1  0.06430000  0.41790000  0.60810000  1.0 0.1190116148
H  H36  1  0.93570000  0.58210000  0.60810000  1.0 0.1190116148
H  H37  1  0.91790000  0.56430000  0.10810000  1.0 0.1190116148
H  H38  1  0.08210000  0.43570000  0.10810000  1.0 0.1190116148
H  H39  1  0.43570000  0.91790000  0.89190000  1.0 0.1190116148
H  H40  1  0.56430000  0.08210000  0.89190000  1.0 0.1190116148
H  H41  1  0.67100000  0.06010000  0.42480000  1.0 0.1190116148
H  H42  1  0.32900000  0.93990000  0.42480000  1.0 0.1190116148
H  H43  1  0.06010000  0.32900000  0.57520000  1.0 0.1190116148
H  H44  1  0.93990000  0.67100000  0.57520000  1.0 0.1190116148
H  H45  1  0.82900000  0.56010000  0.07520000  1.0 0.1190116148
H  H46  1  0.17100000  0.43990000  0.07520000  1.0 0.1190116148
H  H47  1  0.43990000  0.82900000  0.92480000  1.0 0.1190116148
H  H48  1  0.56010000  0.17100000  0.92480000  1.0 0.1190116148
H  H49  1  0.63080000  0.07190000  0.28670000  1.0 0.1121296491
H  H50  1  0.36920000  0.92810000  0.28670000  1.0 0.1121296491
H  H51  1  0.07190000  0.36920000  0.71330000  1.0 0.1121296491
H  H52  1  0.92810000  0.63080000  0.71330000  1.0 0.1121296491
H  H53  1  0.86920000  0.57190000  0.21330000  1.0 0.1121296491
H  H54  1  0.13080000  0.42810000  0.21330000  1.0 0.1121296491
H  H55  1  0.42810000  0.86920000  0.78670000  1.0 0.1121296491
H  H56  1  0.57190000  0.13080000  0.78670000  1.0 0.1121296491
H  H57  1  0.71980000  0.06480000  0.31780000  1.0 0.0996092795
H  H58  1  0.28020000  0.93520000  0.31780000  1.0 0.0996092795
H  H59  1  0.06480000  0.28020000  0.68220000  1.0 0.0996092795
H  H60  1  0.93520000  0.71980000  0.68220000  1.0 0.0996092795
H  H61  1  0.78020000  0.56480000  0.18220000  1.0 0.0996092795
H  H62  1  0.21980000  0.43520000  0.18220000  1.0 0.0996092795
H  H63  1  0.43520000  0.78020000  0.81780000  1.0 0.0996092795
H  H64  1  0.56480000  0.21980000  0.81780000  1.0 0.0996092795
C  C1  1  0.70600000  0.90710000  0.34320000  1.0 -0.0515945392
C  C2  1  0.29400000  0.09290000  0.34320000  1.0 -0.0515945392
C  C3  1  0.90710000  0.29400000  0.65680000  1.0 -0.0515945392
C  C4  1  0.09290000  0.70600000  0.65680000  1.0 -0.0515945392
C  C5  1  0.79400000  0.40710000  0.15680000  1.0 -0.0515945392
C  C6  1  0.20600000  0.59290000  0.15680000  1.0 -0.0515945392
C  C7  1  0.59290000  0.79400000  0.84320000  1.0 -0.0515945392
C  C8  1  0.40710000  0.20600000  0.84320000  1.0 -0.0515945392
C  C9  1  0.63510000  0.95290000  0.37900000  1.0 -0.147967117
C  C10  1  0.36490000  0.04710000  0.37900000  1.0 -0.147967117
C  C11  1  0.95290000  0.36490000  0.62100000  1.0 -0.147967117
C  C12  1  0.04710000  0.63510000  0.62100000  1.0 -0.147967117
C  C13  1  0.86490000  0.45290000  0.12100000  1.0 -0.147967117
C  C14  1  0.13510000  0.54710000  0.12100000  1.0 -0.147967117
C  C15  1  0.54710000  0.86490000  0.87900000  1.0 -0.147967117
C  C16  1  0.45290000  0.13510000  0.87900000  1.0 -0.147967117
C  C17  1  0.63800000  0.04530000  0.38230000  1.0 -0.1919404847
C  C18  1  0.36200000  0.95470000  0.38230000  1.0 -0.1919404847
C  C19  1  0.04530000  0.36200000  0.61770000  1.0 -0.1919404847
C  C20  1  0.95470000  0.63800000  0.61770000  1.0 -0.1919404847
C  C21  1  0.86200000  0.54530000  0.11770000  1.0 -0.1919404847
C  C22  1  0.13800000  0.45470000  0.11770000  1.0 -0.1919404847
C  C23  1  0.45470000  0.86200000  0.88230000  1.0 -0.1919404847
C  C24  1  0.54530000  0.13800000  0.88230000  1.0 -0.1919404847
C  C25  1  0.66500000  0.08710000  0.32800000  1.0 -0.0256777194
C  C26  1  0.33500000  0.91290000  0.32800000  1.0 -0.0256777194
C  C27  1  0.08710000  0.33500000  0.67200000  1.0 -0.0256777194
C  C28  1  0.91290000  0.66500000  0.67200000  1.0 -0.0256777194
C  C29  1  0.83500000  0.58710000  0.17200000  1.0 -0.0247252957
C  C30  1  0.16500000  0.41290000  0.17200000  1.0 -0.0256777194
C  C31  1  0.41290000  0.83500000  0.82800000  1.0 -0.0256777194
C  C32  1  0.58710000  0.16500000  0.82800000  1.0 -0.0256777194
N  N1  1  0.70000000  0.81530000  0.34110000  1.0 -0.4834028949
N  N2  1  0.30000000  0.18470000  0.34110000  1.0 -0.4834028949
N  N3  1  0.81530000  0.30000000  0.65890000  1.0 -0.4834028949
N  N4  1  0.18470000  0.70000000  0.65890000  1.0 -0.4834028949
N  N5  1  0.80000000  0.31530000  0.15890000  1.0 -0.4834028949
N  N6  1  0.20000000  0.68470000  0.15890000  1.0 -0.4834028949
N  N7  1  0.68470000  0.80000000  0.84110000  1.0 -0.4834028949
N  N8  1  0.31530000  0.20000000  0.84110000  1.0 -0.4834028949
N  N9  1  0.67430000  0.17390000  0.32360000  1.0 -0.464073344
N  N10  1  0.32570000  0.82610000  0.32360000  1.0 -0.4657548884
N  N11  1  0.17390000  0.32570000  0.67640000  1.0 -0.464073344
N  N12  1  0.82610000  0.67430000  0.67640000  1.0 -0.4657548884
N  N13  1  0.82570000  0.67390000  0.17640000  1.0 -0.464073344
N  N14  1  0.17430000  0.32610000  0.17640000  1.0 -0.464073344
N  N15  1  0.32610000  0.82570000  0.82360000  1.0 -0.4657548884
N  N16  1  0.67390000  0.17430000  0.82360000  1.0 -0.464073344
O  O1  1  0.91520000  0.20260000  0.06400000  1.0 -1.047560366
O  O2  1  0.08480000  0.79740000  0.06400000  1.0 -1.047560366
O  O3  1  0.20260000  0.08480000  0.93600000  1.0 -1.047560366
O  O4  1  0.79740000  0.91520000  0.93600000  1.0 -1.047560366
O  O5  1  0.58480000  0.70260000  0.43600000  1.0 -1.047560366
O  O6  1  0.41520000  0.29740000  0.43600000  1.0 -1.047560366
O  O7  1  0.29740000  0.58480000  0.56400000  1.0 -1.047560366
O  O8  1  0.70260000  0.41520000  0.56400000  1.0 -1.047560366
O  O9  1  0.00000000  0.00000000  0.29290000  1.0 -0.6659019907
O  O10  1  0.00000000  0.00000000  0.70710000  1.0 -0.6659019907
O  O11  1  0.50000000  0.50000000  0.20710000  1.0 -0.6659019907
O  O12  1  0.50000000  0.50000000  0.79290000  1.0 -0.6659019907
O  O13  1  0.79120000  0.99750000  0.19440000  1.0 -0.8589113821
O  O14  1  0.20880000  0.00250000  0.19440000  1.0 -0.8589113821
O  O15  1  0.99750000  0.20880000  0.80560000  1.0 -0.8589113821
O  O16  1  0.00250000  0.79120000  0.80560000  1.0 -0.8589113821
O  O17  1  0.70880000  0.49750000  0.30560000  1.0 -0.8589113821
O  O18  1  0.29120000  0.50250000  0.30560000  1.0 -0.8589113821
O  O19  1  0.50250000  0.70880000  0.69440000  1.0 -0.8589113821
O  O20  1  0.49750000  0.29120000  0.69440000  1.0 -0.8589113821
O  O21  1  0.99100000  0.24940000  0.19520000  1.0 -0.572623307
O  O22  1  0.00900000  0.75060000  0.19520000  1.0 -0.572623307
O  O23  1  0.24940000  0.00900000  0.80480000  1.0 -0.572623307
O  O24  1  0.75060000  0.99100000  0.80480000  1.0 -0.572623307
O  O25  1  0.50900000  0.74940000  0.30480000  1.0 -0.572623307
O  O26  1  0.49100000  0.25060000  0.30480000  1.0 -0.572623307
O  O27  1  0.25060000  0.50900000  0.69520000  1.0 -0.572623307
O  O28  1  0.74940000  0.49100000  0.69520000  1.0 -0.572623307
O  O29  1  0.65390000  0.99440000  0.00970000  1.0 -0.6447054167
O  O30  1  0.34610000  0.00560000  0.00970000  1.0 -0.6447054167
O  O31  1  0.99440000  0.34610000  0.99030000  1.0 -0.6455143262
O  O32  1  0.00560000  0.65390000  0.99030000  1.0 -0.6455143262
O  O33  1  0.84610000  0.49440000  0.49030000  1.0 -0.6455143262
O  O34  1  0.15390000  0.50560000  0.49030000  1.0 -0.6447054167
O  O35  1  0.50560000  0.84610000  0.50970000  1.0 -0.6447054167
O  O36  1  0.49440000  0.15390000  0.50970000  1.0 -0.6455143262
O  O37  1  0.75680000  0.24070000  0.00020000  1.0 -0.6029421409
O  O38  1  0.24320000  0.75930000  0.00020000  1.0 -0.6029421409
O  O39  1  0.24070000  0.24320000  0.99980000  1.0 -0.6029421409
O  O40  1  0.75930000  0.75680000  0.99980000  1.0 -0.6029421409
O  O41  1  0.74320000  0.74070000  0.49980000  1.0 -0.6029421409
O  O42  1  0.25680000  0.25930000  0.49980000  1.0 -0.6029421409
O  O43  1  0.25930000  0.74320000  0.50020000  1.0 -0.6029421409
O  O44  1  0.74070000  0.25680000  0.50020000  1.0 -0.6029421409
O  O45  1  0.78160000  0.83330000  0.20280000  1.0 -0.8867046256
O  O46  1  0.21840000  0.16670000  0.20280000  1.0 -0.8867046256
O  O47  1  0.83330000  0.21840000  0.79720000  1.0 -0.8867046256
O  O48  1  0.16670000  0.78160000  0.79720000  1.0 -0.8867046256
O  O49  1  0.71840000  0.33333333  0.29720000  1.0 -0.8867046256
O  O50  1  0.28160000  0.66666667  0.29720000  1.0 -0.8867046256
O  O51  1  0.66666667  0.71840000  0.70280000  1.0 -0.8867046256
O  O52  1  0.33333333  0.28160000  0.70280000  1.0 -0.8867046256
O  O53  1  0.79320000  0.08580000  0.07450000  1.0 -1.0025262405
O  O54  1  0.20680000  0.91420000  0.07450000  1.0 -1.0025262405
O  O55  1  0.08580000  0.20680000  0.92550000  1.0 -1.0025262405
O  O56  1  0.91420000  0.79320000  0.92550000  1.0 -1.0025262405
O  O57  1  0.70680000  0.58580000  0.42550000  1.0 -1.0025262405
O  O58  1  0.29320000  0.41420000  0.42550000  1.0 -1.0025262405
O  O59  1  0.41420000  0.70680000  0.57450000  1.0 -1.0025262405
O  O60  1  0.58580000  0.29320000  0.57450000  1.0 -1.0025262405
O  O61  1  0.79980000  0.90850000  0.07600000  1.0 -0.9907017295
O  O62  1  0.20020000  0.09150000  0.07600000  1.0 -0.9907017295
O  O63  1  0.90850000  0.20020000  0.92400000  1.0 -0.9907017295
O  O64  1  0.09150000  0.79980000  0.92400000  1.0 -0.9907017295
O  O65  1  0.70020000  0.40850000  0.42400000  1.0 -0.9907017295
O  O66  1  0.29980000  0.59150000  0.42400000  1.0 -0.9907017295
O  O67  1  0.59150000  0.70020000  0.57600000  1.0 -0.9907017295
O  O68  1  0.40850000  0.29980000  0.57600000  1.0 -0.9907017295
O  O69  1  0.92200000  0.08620000  0.16390000  1.0 -1.0085977186
O  O70  1  0.07800000  0.91380000  0.16390000  1.0 -1.0085977186
O  O71  1  0.08620000  0.07800000  0.83610000  1.0 -1.0085977186
O  O72  1  0.91380000  0.92200000  0.83610000  1.0 -1.0085977186
O  O73  1  0.57800000  0.58620000  0.33610000  1.0 -1.0085977186
O  O74  1  0.42200000  0.41380000  0.33610000  1.0 -1.0085977186
O  O75  1  0.41380000  0.57800000  0.66390000  1.0 -1.0085977186
O  O76  1  0.58620000  0.42200000  0.66390000  1.0 -1.0085977186
O  O77  1  0.92580000  0.91130000  0.17260000  1.0 -1.0240689685
O  O78  1  0.07420000  0.08870000  0.17260000  1.0 -1.0240689685
O  O79  1  0.91130000  0.07420000  0.82740000  1.0 -1.0240689685
O  O80  1  0.08870000  0.92580000  0.82740000  1.0 -1.0240689685
O  O81  1  0.57420000  0.41130000  0.32740000  1.0 -1.0240689685
O  O82  1  0.42580000  0.58870000  0.32740000  1.0 -1.0240689685
O  O83  1  0.58870000  0.57420000  0.67260000  1.0 -1.0240689685
O  O84  1  0.41130000  0.42580000  0.67260000  1.0 -1.0240689685
O  O85  1  0.07460000  0.20720000  0.06050000  1.0 -1.047560366
O  O86  1  0.92540000  0.79280000  0.06050000  1.0 -1.047560366
O  O87  1  0.20720000  0.92540000  0.93950000  1.0 -1.047560366
O  O88  1  0.79280000  0.07460000  0.93950000  1.0 -1.047560366
O  O89  1  0.42540000  0.70720000  0.43950000  1.0 -1.047560366
O  O90  1  0.57460000  0.29280000  0.43950000  1.0 -1.047560366
O  O91  1  0.29280000  0.42540000  0.56050000  1.0 -1.047560366
O  O92  1  0.70720000  0.57460000  0.56050000  1.0 -1.047560366
O  O93  1  0.86950000  0.74890000  0.32360000  1.0 -0.7137169485
O  O94  1  0.13050000  0.25110000  0.32360000  1.0 -0.7137169485
O  O95  1  0.74890000  0.13050000  0.67640000  1.0 -0.7137169485
O  O96  1  0.25110000  0.86950000  0.67640000  1.0 -0.7137169485
O  O97  1  0.63050000  0.24890000  0.17640000  1.0 -0.7137169485
O  O98  1  0.36950000  0.75110000  0.17640000  1.0 -0.7137169485
O  O99  1  0.75110000  0.63050000  0.82360000  1.0 -0.7137169485
O  O100  1  0.24890000  0.36950000  0.82360000  1.0 -0.7137169485
O  O101  1  0.78180000  0.16260000  0.20640000  1.0 -0.8733098899
O  O102  1  0.21820000  0.83740000  0.20640000  1.0 -0.8733098899
O  O103  1  0.16260000  0.21820000  0.79360000  1.0 -0.8733098899
O  O104  1  0.83740000  0.78180000  0.79360000  1.0 -0.8733098899
O  O105  1  0.71820000  0.66260000  0.29360000  1.0 -0.8733098899
O  O106  1  0.28180000  0.33740000  0.29360000  1.0 -0.8733098899
O  O107  1  0.33740000  0.71820000  0.70640000  1.0 -0.8733098899
O  O108  1  0.66260000  0.28180000  0.70640000  1.0 -0.8733098899
