# DDEC6 charges by PACMAN v1.1 (https://github.com/mtap-research/PACMAN-charge/)
data_ULAQAB_ASR_pacman
_symmetry_space_group_name_H-M   'P 1'
_cell_length_a   11.80400000
_cell_length_b   24.81000000
_cell_length_c   18.56190000
_cell_angle_alpha   90.00000000
_cell_angle_beta   122.93800000
_cell_angle_gamma   90.00000000
_symmetry_Int_Tables_number   1
_chemical_formula_structural   ZnH27(C3O)12
_chemical_formula_sum   'Zn4 H108 C144 O48'
_cell_volume   4562.20320201
_cell_formula_units_Z   4
loop_
 _symmetry_equiv_pos_site_id
 _symmetry_equiv_pos_as_xyz
  1  'x, y, z'
loop_
 _atom_site_type_symbol
 _atom_site_label
 _atom_site_symmetry_multiplicity
 _atom_site_fract_x
 _atom_site_fract_y
 _atom_site_fract_z
 _atom_site_occupancy
 _atom_site_charge
Zn  Zn1  1  0.09416000  0.33314000  0.00702000  1.0 0.9449930313
Zn  Zn2  1  0.90584000  0.83314000  0.49298000  1.0 0.9474910619
Zn  Zn3  1  0.90584000  0.66686000  0.99298000  1.0 0.9449930313
Zn  Zn4  1  0.09416000  0.16686000  0.50702000  1.0 0.9474910619
H  H1  1  0.33940000  0.40420000  0.26650000  1.0 0.1307648144
H  H2  1  0.66060000  0.90420000  0.23350000  1.0 0.1307648144
H  H3  1  0.66060000  0.59580000  0.73350000  1.0 0.1307648144
H  H4  1  0.33940000  0.09580000  0.76650000  1.0 0.1307648144
H  H5  1  0.33500000  0.34120000  0.26640000  1.0 0.1502759938
H  H6  1  0.66500000  0.84120000  0.23360000  1.0 0.1502759938
H  H7  1  0.66500000  0.65880000  0.73360000  1.0 0.1502759938
H  H8  1  0.33500000  0.15880000  0.76640000  1.0 0.1502759938
H  H9  1  0.18090000  0.55290000  0.20070000  1.0 0.1307648144
H  H10  1  0.81910000  0.05290000  0.29930000  1.0 0.1307648144
H  H11  1  0.81910000  0.44710000  0.79930000  1.0 0.1307648144
H  H12  1  0.18090000  0.94710000  0.70070000  1.0 0.1307648144
H  H13  1  0.04000000  0.52810000  0.17190000  1.0 0.1401967971
H  H14  1  0.96000000  0.02810000  0.32810000  1.0 0.1401967971
H  H15  1  0.96000000  0.47190000  0.82810000  1.0 0.1401967971
H  H16  1  0.04000000  0.97190000  0.67190000  1.0 0.1401967971
H  H17  1  0.17680000  0.46580000  0.24680000  1.0 0.1401967971
H  H18  1  0.82320000  0.96580000  0.25320000  1.0 0.1401967971
H  H19  1  0.82320000  0.53420000  0.75320000  1.0 0.1401967971
H  H20  1  0.17680000  0.03420000  0.74680000  1.0 0.1401967971
H  H21  1  0.29110000  0.47830000  0.52580000  1.0 0.1307648144
H  H22  1  0.70890000  0.97830000  0.97420000  1.0 0.1307648144
H  H23  1  0.70890000  0.52170000  0.47420000  1.0 0.1307648144
H  H24  1  0.29110000  0.02170000  0.02580000  1.0 0.1307648144
H  H25  1  0.11340000  0.58810000  0.40630000  1.0 0.1307648144
H  H26  1  0.88660000  0.08810000  0.09370000  1.0 0.1307648144
H  H27  1  0.88660000  0.41190000  0.59370000  1.0 0.1307648144
H  H28  1  0.11340000  0.91190000  0.90630000  1.0 0.1307648144
H  H29  1  0.01830000  0.55140000  0.48250000  1.0 0.1307648144
H  H30  1  0.98170000  0.05140000  0.01750000  1.0 0.1307648144
H  H31  1  0.98170000  0.44860000  0.51750000  1.0 0.1307648144
H  H32  1  0.01830000  0.94860000  0.98250000  1.0 0.1307648144
H  H33  1  0.02030000  0.55220000  0.60650000  1.0 0.1307648144
H  H34  1  0.97970000  0.05220000  0.89350000  1.0 0.1307648144
H  H35  1  0.97970000  0.44780000  0.39350000  1.0 0.1307648144
H  H36  1  0.02030000  0.94780000  0.10650000  1.0 0.1307648144
H  H37  1  0.40570000  0.59380000  0.73700000  1.0 0.1401967971
H  H38  1  0.59430000  0.09380000  0.76300000  1.0 0.1401967971
H  H39  1  0.59430000  0.40620000  0.26300000  1.0 0.1401967971
H  H40  1  0.40570000  0.90620000  0.23700000  1.0 0.1401967971
H  H41  1  0.40430000  0.59390000  0.61380000  1.0 0.122721714
H  H42  1  0.59570000  0.09390000  0.88620000  1.0 0.122721714
H  H43  1  0.59570000  0.40610000  0.38620000  1.0 0.122721714
H  H44  1  0.40430000  0.90610000  0.11380000  1.0 0.122721714
H  H45  1  0.12670000  0.56590000  0.75540000  1.0 0.1502759938
H  H46  1  0.87330000  0.06590000  0.74460000  1.0 0.1502759938
H  H47  1  0.87330000  0.43410000  0.24460000  1.0 0.1502759938
H  H48  1  0.12670000  0.93410000  0.25540000  1.0 0.1502759938
H  H49  1  0.28000000  0.55030000  0.80820000  1.0 0.1502759938
H  H50  1  0.72000000  0.05030000  0.69180000  1.0 0.1502759938
H  H51  1  0.72000000  0.44970000  0.19180000  1.0 0.1502759938
H  H52  1  0.28000000  0.94970000  0.30820000  1.0 0.1502759938
H  H53  1  0.23720000  0.61110000  0.79170000  1.0 0.1552972468
H  H54  1  0.76280000  0.11110000  0.70830000  1.0 0.1552972468
H  H55  1  0.76280000  0.38890000  0.20830000  1.0 0.1552972468
H  H56  1  0.23720000  0.88890000  0.29170000  1.0 0.1552972468
H  H57  1  0.14610000  0.68690000  0.53370000  1.0 0.1307648144
H  H58  1  0.85390000  0.18690000  0.96630000  1.0 0.1307648144
H  H59  1  0.85390000  0.31310000  0.46630000  1.0 0.1307648144
H  H60  1  0.14610000  0.81310000  0.03370000  1.0 0.1307648144
H  H61  1  0.23790000  0.73180000  0.53170000  1.0 0.1307648144
H  H62  1  0.76210000  0.23180000  0.96830000  1.0 0.1307648144
H  H63  1  0.76210000  0.26820000  0.46830000  1.0 0.1307648144
H  H64  1  0.23790000  0.76820000  0.03170000  1.0 0.1307648144
H  H65  1  0.46440000  0.79140000  0.41310000  1.0 0.1401967971
H  H66  1  0.53560000  0.29140000  0.08690000  1.0 0.1401967971
H  H67  1  0.53560000  0.20860000  0.58690000  1.0 0.1401967971
H  H68  1  0.46440000  0.70860000  0.91310000  1.0 0.1401967971
H  H69  1  0.52940000  0.79490000  0.51260000  1.0 0.1401967971
H  H70  1  0.47060000  0.29490000  0.98740000  1.0 0.1401967971
H  H71  1  0.47060000  0.20510000  0.48740000  1.0 0.1401967971
H  H72  1  0.52940000  0.70510000  0.01260000  1.0 0.1401967971
H  H73  1  0.33690000  0.74570000  0.44600000  1.0 0.1502759938
H  H74  1  0.66310000  0.24570000  0.05400000  1.0 0.1502759938
H  H75  1  0.66310000  0.25430000  0.55400000  1.0 0.1502759938
H  H76  1  0.33690000  0.75430000  0.94600000  1.0 0.1502759938
H  H77  1  0.45300000  0.56630000  0.47920000  1.0 0.1401967971
H  H78  1  0.54700000  0.06630000  0.02080000  1.0 0.1401967971
H  H79  1  0.54700000  0.43370000  0.52080000  1.0 0.1401967971
H  H80  1  0.45300000  0.93370000  0.97920000  1.0 0.1401967971
H  H81  1  0.50250000  0.57960000  0.34730000  1.0 0.1307648144
H  H82  1  0.49750000  0.07960000  0.15270000  1.0 0.1307648144
H  H83  1  0.49750000  0.42040000  0.65270000  1.0 0.1307648144
H  H84  1  0.50250000  0.92040000  0.84730000  1.0 0.1307648144
H  H85  1  0.54190000  0.56330000  0.24180000  1.0 0.1307648144
H  H86  1  0.45810000  0.06330000  0.25820000  1.0 0.1307648144
H  H87  1  0.45810000  0.43670000  0.75820000  1.0 0.1307648144
H  H88  1  0.54190000  0.93670000  0.74180000  1.0 0.1307648144
H  H89  1  0.88370000  0.64510000  0.36990000  1.0 0.1307648144
H  H90  1  0.11630000  0.14510000  0.13010000  1.0 0.1401967971
H  H91  1  0.11630000  0.35490000  0.63010000  1.0 0.1401967971
H  H92  1  0.88370000  0.85490000  0.86990000  1.0 0.1307648144
H  H93  1  0.84830000  0.66040000  0.47820000  1.0 0.1401967971
H  H94  1  0.15170000  0.16040000  0.02180000  1.0 0.1401967971
H  H95  1  0.15170000  0.33960000  0.52180000  1.0 0.1401967971
H  H96  1  0.84830000  0.83960000  0.97820000  1.0 0.1401967971
H  H97  1  0.82880000  0.60460000  0.24020000  1.0 0.1502759938
H  H98  1  0.17120000  0.10460000  0.25980000  1.0 0.1502759938
H  H99  1  0.17120000  0.39540000  0.75980000  1.0 0.1502759938
H  H100  1  0.82880000  0.89540000  0.74020000  1.0 0.1502759938
H  H101  1  0.75150000  0.54990000  0.22220000  1.0 0.1401967971
H  H102  1  0.24850000  0.04990000  0.27780000  1.0 0.1401967971
H  H103  1  0.24850000  0.45010000  0.77780000  1.0 0.1401967971
H  H104  1  0.75150000  0.95010000  0.72220000  1.0 0.1401967971
H  H105  1  0.67310000  0.60190000  0.17190000  1.0 0.1502759938
H  H106  1  0.32690000  0.10190000  0.32810000  1.0 0.1502759938
H  H107  1  0.32690000  0.39810000  0.82810000  1.0 0.1502759938
H  H108  1  0.67310000  0.89810000  0.67190000  1.0 0.1502759938
C  C1  1  0.15990000  0.37429000  0.17210000  1.0 0.5966603431
C  C2  1  0.84010000  0.87429000  0.32790000  1.0 0.5966603431
C  C3  1  0.84010000  0.62571000  0.82790000  1.0 0.5966603431
C  C4  1  0.15990000  0.12571000  0.67210000  1.0 0.5966603431
C  C5  1  0.28410000  0.37345000  0.26060000  1.0 -0.1663832357
C  C6  1  0.71590000  0.87345000  0.23940000  1.0 -0.1663832357
C  C7  1  0.71590000  0.62655000  0.73940000  1.0 -0.1663832357
C  C8  1  0.28410000  0.12655000  0.76060000  1.0 -0.1663832357
C  C9  1  0.03080000  0.60919000  0.15110000  1.0 0.5915586325
C  C10  1  0.96920000  0.10919000  0.34890000  1.0 0.5915586325
C  C11  1  0.96920000  0.39081000  0.84890000  1.0 0.5915586325
C  C12  1  0.03080000  0.89081000  0.65110000  1.0 0.5915586325
C  C13  1  0.09930000  0.55866000  0.20030000  1.0 -0.1511416204
C  C14  1  0.90070000  0.05866000  0.29970000  1.0 -0.1511416204
C  C15  1  0.90070000  0.44134000  0.79970000  1.0 -0.1511416204
C  C16  1  0.09930000  0.94134000  0.70030000  1.0 -0.1511416204
C  C17  1  0.18450000  0.51629000  0.33400000  1.0 0.1930435719
C  C18  1  0.81550000  0.01629000  0.16600000  1.0 0.1930435719
C  C19  1  0.81550000  0.48371000  0.66600000  1.0 0.1930435719
C  C20  1  0.18450000  0.98371000  0.83400000  1.0 0.1930435719
C  C21  1  0.19980000  0.46827000  0.30320000  1.0 -0.3303210651
C  C22  1  0.80020000  0.96827000  0.19680000  1.0 -0.3303210651
C  C23  1  0.80020000  0.53173000  0.69680000  1.0 -0.3303210651
C  C24  1  0.19980000  0.03173000  0.80320000  1.0 -0.3303210651
C  C25  1  0.24970000  0.42370000  0.35650000  1.0 0.220345934
C  C26  1  0.75030000  0.92370000  0.14350000  1.0 0.220345934
C  C27  1  0.75030000  0.57630000  0.64350000  1.0 0.220345934
C  C28  1  0.24970000  0.07630000  0.85650000  1.0 0.220345934
C  C29  1  0.28384000  0.42611000  0.44034000  1.0 -0.030784131
C  C30  1  0.71616000  0.92611000  0.05966000  1.0 -0.030784131
C  C31  1  0.71616000  0.57389000  0.55966000  1.0 -0.030784131
C  C32  1  0.28384000  0.07389000  0.94034000  1.0 -0.030784131
C  C33  1  0.26802000  0.47568000  0.46942000  1.0 -0.1875781705
C  C34  1  0.73198000  0.97568000  0.03058000  1.0 -0.1875781705
C  C35  1  0.73198000  0.52432000  0.53058000  1.0 -0.1875781705
C  C36  1  0.26802000  0.02432000  0.96942000  1.0 -0.1875781705
C  C37  1  0.21938000  0.52123000  0.41778000  1.0 -0.0042686441
C  C38  1  0.78062000  0.02123000  0.08222000  1.0 -0.0042686441
C  C39  1  0.78062000  0.47877000  0.58222000  1.0 -0.0042686441
C  C40  1  0.21938000  0.97877000  0.91778000  1.0 -0.0042686441
C  C41  1  0.20396000  0.57505000  0.44966000  1.0 -0.1068238569
C  C42  1  0.79604000  0.07505000  0.05034000  1.0 -0.1068238569
C  C43  1  0.79604000  0.42495000  0.55034000  1.0 -0.1068238569
C  C44  1  0.20396000  0.92495000  0.94966000  1.0 -0.1068238569
C  C45  1  0.21120000  0.57317000  0.53370000  1.0 0.0805840931
C  C46  1  0.78880000  0.07317000  0.96630000  1.0 0.0805840931
C  C47  1  0.78880000  0.42683000  0.46630000  1.0 0.0805840931
C  C48  1  0.21120000  0.92683000  0.03370000  1.0 0.0805840931
C  C49  1  0.09750000  0.56049000  0.53390000  1.0 -0.1400228848
C  C50  1  0.90250000  0.06049000  0.96610000  1.0 -0.1400228848
C  C51  1  0.90250000  0.43951000  0.46610000  1.0 -0.1400228848
C  C52  1  0.09750000  0.93951000  0.03390000  1.0 -0.1400228848
C  C53  1  0.09860000  0.56094000  0.60860000  1.0 -0.1511416204
C  C54  1  0.90140000  0.06094000  0.89140000  1.0 -0.1511416204
C  C55  1  0.90140000  0.43906000  0.39140000  1.0 -0.1511416204
C  C56  1  0.09860000  0.93906000  0.10860000  1.0 -0.1511416204
C  C57  1  0.21320000  0.57401000  0.68600000  1.0 0.1750831278
C  C58  1  0.78680000  0.07401000  0.81400000  1.0 0.1750831278
C  C59  1  0.78680000  0.42599000  0.31400000  1.0 0.1750831278
C  C60  1  0.21320000  0.92599000  0.18600000  1.0 0.1750831278
C  C61  1  0.32600000  0.58560000  0.68540000  1.0 -0.1511416204
C  C62  1  0.67400000  0.08560000  0.81460000  1.0 -0.1511416204
C  C63  1  0.67400000  0.41440000  0.31460000  1.0 -0.1511416204
C  C64  1  0.32600000  0.91440000  0.18540000  1.0 -0.1511416204
C  C65  1  0.32540000  0.58547000  0.61130000  1.0 -0.1511416204
C  C66  1  0.67460000  0.08547000  0.88870000  1.0 -0.1511416204
C  C67  1  0.67460000  0.41453000  0.38870000  1.0 -0.1511416204
C  C68  1  0.32540000  0.91453000  0.11130000  1.0 -0.1511416204
C  C69  1  0.21440000  0.57540000  0.76780000  1.0 -0.4366095242
C  C70  1  0.78560000  0.07540000  0.73220000  1.0 -0.4366095242
C  C71  1  0.78560000  0.42460000  0.23220000  1.0 -0.4366095242
C  C72  1  0.21440000  0.92460000  0.26780000  1.0 -0.4366095242
C  C73  1  0.03910000  0.75322000  0.46580000  1.0 0.5915586325
C  C74  1  0.96090000  0.25322000  0.03420000  1.0 0.5915586325
C  C75  1  0.96090000  0.24678000  0.53420000  1.0 0.5915586325
C  C76  1  0.03910000  0.74678000  0.96580000  1.0 0.5915586325
C  C77  1  0.65950000  0.81815000  0.47790000  1.0 0.5966603431
C  C78  1  0.34050000  0.31815000  0.02210000  1.0 0.5966603431
C  C79  1  0.34050000  0.18185000  0.52210000  1.0 0.5966603431
C  C80  1  0.65950000  0.68185000  0.97790000  1.0 0.5966603431
C  C81  1  0.15210000  0.71331000  0.49740000  1.0 -0.1583252393
C  C82  1  0.84790000  0.21331000  0.00260000  1.0 -0.1511416204
C  C83  1  0.84790000  0.28669000  0.50260000  1.0 -0.1511416204
C  C84  1  0.15210000  0.78669000  0.99740000  1.0 -0.1583252393
C  C85  1  0.54610000  0.78472000  0.46870000  1.0 -0.1583252393
C  C86  1  0.45390000  0.28472000  0.03130000  1.0 -0.1583252393
C  C87  1  0.45390000  0.21528000  0.53130000  1.0 -0.1583252393
C  C88  1  0.54610000  0.71528000  0.96870000  1.0 -0.1583252393
C  C89  1  0.48540000  0.69415000  0.47010000  1.0 0.225690444
C  C90  1  0.51460000  0.19415000  0.02990000  1.0 0.225690444
C  C91  1  0.51460000  0.30585000  0.52990000  1.0 0.225690444
C  C92  1  0.48540000  0.80585000  0.97010000  1.0 0.225690444
C  C93  1  0.36080000  0.70946000  0.45280000  1.0 -0.3303210651
C  C94  1  0.63920000  0.20946000  0.04720000  1.0 -0.3303210651
C  C95  1  0.63920000  0.29054000  0.54720000  1.0 -0.3303210651
C  C96  1  0.36080000  0.79054000  0.95280000  1.0 -0.3303210651
C  C97  1  0.27130000  0.67038000  0.44570000  1.0 0.204871309
C  C98  1  0.72870000  0.17038000  0.05430000  1.0 0.204871309
C  C99  1  0.72870000  0.32962000  0.55430000  1.0 0.204871309
C  C100  1  0.27130000  0.82962000  0.94570000  1.0 0.204871309
C  C101  1  0.30256000  0.61647000  0.45396000  1.0 0.0034970731
C  C102  1  0.69744000  0.11647000  0.04604000  1.0 0.0034970731
C  C103  1  0.69744000  0.38353000  0.54604000  1.0 0.0034970731
C  C104  1  0.30256000  0.88353000  0.95396000  1.0 0.0034970731
C  C105  1  0.42969000  0.60258000  0.47239000  1.0 -0.1875781705
C  C106  1  0.57031000  0.10258000  0.02761000  1.0 -0.1875781705
C  C107  1  0.57031000  0.39742000  0.52761000  1.0 -0.1875781705
C  C108  1  0.42969000  0.89742000  0.97239000  1.0 -0.1875781705
C  C109  1  0.52302000  0.63978000  0.48112000  1.0 -0.0206886594
C  C110  1  0.47698000  0.13978000  0.01888000  1.0 -0.0206886594
C  C111  1  0.47698000  0.36022000  0.51888000  1.0 -0.0206886594
C  C112  1  0.52302000  0.86022000  0.98112000  1.0 -0.0206886594
C  C113  1  0.66430000  0.62490000  0.50420000  1.0 0.0701768278
C  C114  1  0.33570000  0.12490000  0.99580000  1.0 0.0701768278
C  C115  1  0.33570000  0.37510000  0.49580000  1.0 0.0701768278
C  C116  1  0.66430000  0.87510000  0.00420000  1.0 0.0701768278
C  C117  1  0.67410000  0.62009000  0.42670000  1.0 0.0560818436
C  C118  1  0.32590000  0.12009000  0.07330000  1.0 0.0560818436
C  C119  1  0.32590000  0.37991000  0.57330000  1.0 0.0560818436
C  C120  1  0.67410000  0.87991000  0.92670000  1.0 0.0560818436
C  C121  1  0.58150000  0.59217000  0.35350000  1.0 -0.1400228848
C  C122  1  0.41850000  0.09217000  0.14650000  1.0 -0.1400228848
C  C123  1  0.41850000  0.40783000  0.64650000  1.0 -0.1400228848
C  C124  1  0.58150000  0.90783000  0.85350000  1.0 -0.1400228848
C  C125  1  0.60500000  0.58280000  0.29000000  1.0 -0.1583252393
C  C126  1  0.39500000  0.08280000  0.21000000  1.0 -0.1583252393
C  C127  1  0.39500000  0.41720000  0.71000000  1.0 -0.1583252393
C  C128  1  0.60500000  0.91720000  0.79000000  1.0 -0.1583252393
C  C129  1  0.71830000  0.60130000  0.29540000  1.0 0.1750831278
C  C130  1  0.28170000  0.10130000  0.20460000  1.0 0.1750831278
C  C131  1  0.28170000  0.39870000  0.70460000  1.0 0.1750831278
C  C132  1  0.71830000  0.89870000  0.79540000  1.0 0.1750831278
C  C133  1  0.80730000  0.63088000  0.36560000  1.0 -0.1400228848
C  C134  1  0.19270000  0.13088000  0.13440000  1.0 -0.1400228848
C  C135  1  0.19270000  0.36912000  0.63440000  1.0 -0.1400228848
C  C136  1  0.80730000  0.86912000  0.86560000  1.0 -0.1400228848
C  C137  1  0.78580000  0.64014000  0.43070000  1.0 -0.1203282205
C  C138  1  0.21420000  0.14014000  0.06930000  1.0 -0.1203282205
C  C139  1  0.21420000  0.35986000  0.56930000  1.0 -0.1203282205
C  C140  1  0.78580000  0.85986000  0.93070000  1.0 -0.1203282205
C  C141  1  0.74540000  0.58820000  0.22600000  1.0 -0.4366095242
C  C142  1  0.25460000  0.08820000  0.27400000  1.0 -0.4366095242
C  C143  1  0.25460000  0.41180000  0.77400000  1.0 -0.4366095242
C  C144  1  0.74540000  0.91180000  0.72600000  1.0 -0.4366095242
O  O1  1  0.18876000  0.37196000  0.11526000  1.0 -0.5515007681
O  O2  1  0.81124000  0.87196000  0.38474000  1.0 -0.5556818125
O  O3  1  0.81124000  0.62804000  0.88474000  1.0 -0.5515007681
O  O4  1  0.18876000  0.12804000  0.61526000  1.0 -0.5515007681
O  O5  1  0.04857000  0.37849000  0.16007000  1.0 -0.4727604863
O  O6  1  0.95143000  0.87849000  0.33993000  1.0 -0.4779992677
O  O7  1  0.95143000  0.62151000  0.83993000  1.0 -0.4779992677
O  O8  1  0.04857000  0.12151000  0.66007000  1.0 -0.4727604863
O  O9  1  0.98734000  0.60504000  0.07124000  1.0 -0.5341837285
O  O10  1  0.01266000  0.10504000  0.42876000  1.0 -0.5341837285
O  O11  1  0.01266000  0.39496000  0.92876000  1.0 -0.5341837285
O  O12  1  0.98734000  0.89496000  0.57124000  1.0 -0.5341837285
O  O13  1  0.01921000  0.64879000  0.18401000  1.0 -0.4612732185
O  O14  1  0.98079000  0.14879000  0.31599000  1.0 -0.4612732185
O  O15  1  0.98079000  0.35121000  0.81599000  1.0 -0.4612732185
O  O16  1  0.01921000  0.85121000  0.68401000  1.0 -0.4612732185
O  O17  1  0.26523000  0.37461000  0.32893000  1.0 -0.1400228848
O  O18  1  0.73477000  0.87461000  0.17107000  1.0 -0.1400228848
O  O19  1  0.73477000  0.62539000  0.67107000  1.0 -0.1400228848
O  O20  1  0.26523000  0.12539000  0.82893000  1.0 -0.1400228848
O  O21  1  0.13192000  0.56167000  0.28412000  1.0 -0.1400228848
O  O22  1  0.86808000  0.06167000  0.21588000  1.0 -0.1400228848
O  O23  1  0.86808000  0.43833000  0.71588000  1.0 -0.1400228848
O  O24  1  0.13192000  0.93833000  0.78412000  1.0 -0.1400228848
O  O25  1  0.95182000  0.75837000  0.38972000  1.0 -0.4779992677
O  O26  1  0.04818000  0.25837000  0.11028000  1.0 -0.4779992677
O  O27  1  0.04818000  0.24163000  0.61028000  1.0 -0.4779992677
O  O28  1  0.95182000  0.74163000  0.88972000  1.0 -0.4779992677
O  O29  1  0.04466000  0.77991000  0.52636000  1.0 -0.5515007681
O  O30  1  0.95534000  0.27991000  0.97364000  1.0 -0.5515007681
O  O31  1  0.95534000  0.22009000  0.47364000  1.0 -0.5515007681
O  O32  1  0.04466000  0.72009000  0.02636000  1.0 -0.5515007681
O  O33  1  0.64060000  0.86733000  0.47210000  1.0 -0.5081077096
O  O34  1  0.35940000  0.36733000  0.02790000  1.0 -0.5081077096
O  O35  1  0.35940000  0.13267000  0.52790000  1.0 -0.5081077096
O  O36  1  0.64060000  0.63267000  0.97210000  1.0 -0.5081077096
O  O37  1  0.76143000  0.79485000  0.49153000  1.0 -0.4942612973
O  O38  1  0.23857000  0.29485000  0.00847000  1.0 -0.4942612973
O  O39  1  0.23857000  0.20515000  0.50847000  1.0 -0.4942612973
O  O40  1  0.76143000  0.70515000  0.99153000  1.0 -0.4942612973
O  O41  1  0.14625000  0.68679000  0.42784000  1.0 -0.1583252393
O  O42  1  0.85375000  0.18679000  0.07216000  1.0 -0.1583252393
O  O43  1  0.85375000  0.31321000  0.57216000  1.0 -0.1511416204
O  O44  1  0.14625000  0.81321000  0.92784000  1.0 -0.1583252393
O  O45  1  0.57882000  0.72972000  0.47666000  1.0 -0.1253752885
O  O46  1  0.42118000  0.22972000  0.02334000  1.0 -0.1253752885
O  O47  1  0.42118000  0.27028000  0.52334000  1.0 -0.1253752885
O  O48  1  0.57882000  0.77028000  0.97666000  1.0 -0.1253752885
