# DDEC6 charges by PACMAN v1.1 (https://github.com/mtap-research/PACMAN-charge/)
data_ULASAD_FSR_pacman
_symmetry_space_group_name_H-M   'P 1'
_cell_length_a   13.91900000
_cell_length_b   17.89650000
_cell_length_c   16.13610000
_cell_angle_alpha   90.00000000
_cell_angle_beta   98.61900000
_cell_angle_gamma   90.00000000
_symmetry_Int_Tables_number   1
_chemical_formula_structural   Cr2Co3H38C48(N9O2)2
_chemical_formula_sum   'Cr4 Co6 H76 C96 N36 O8'
_cell_volume   3974.13129078
_cell_formula_units_Z   2
loop_
 _symmetry_equiv_pos_site_id
 _symmetry_equiv_pos_as_xyz
  1  'x, y, z'
loop_
 _atom_site_type_symbol
 _atom_site_label
 _atom_site_symmetry_multiplicity
 _atom_site_fract_x
 _atom_site_fract_y
 _atom_site_fract_z
 _atom_site_occupancy
 _atom_site_charge
Cr  Cr1  1  0.00026000  0.60029000  0.80153000  1.0 0.5340221367
Cr  Cr2  1  0.99974000  0.10029000  0.69847000  1.0 0.5362571122
Cr  Cr3  1  0.99974000  0.39971000  0.19847000  1.0 0.5362571122
Cr  Cr4  1  0.00026000  0.89971000  0.30153000  1.0 0.5362571122
Co  Co1  1  0.00161000  0.82173000  0.61318000  1.0 0.7748192392
Co  Co2  1  0.99839000  0.32173000  0.88682000  1.0 0.7764242532
Co  Co3  1  0.99839000  0.17827000  0.38682000  1.0 0.7764242532
Co  Co4  1  0.00161000  0.67827000  0.11318000  1.0 0.7764242532
Co  Co5  1  0.00000000  0.50000000  0.50000000  1.0 0.76101683
Co  Co6  1  0.00000000  0.00000000  0.00000000  1.0 0.76101683
H  H1  1  0.19000000  0.72920000  0.69780000  1.0 0.1112765222
H  H2  1  0.81000000  0.22920000  0.80220000  1.0 0.1112765222
H  H3  1  0.81000000  0.27080000  0.30220000  1.0 0.1112765222
H  H4  1  0.19000000  0.77080000  0.19780000  1.0 0.1112765222
H  H5  1  0.35270000  0.71300000  0.69360000  1.0 0.1305853828
H  H6  1  0.64730000  0.21300000  0.80640000  1.0 0.1305853828
H  H7  1  0.64730000  0.28700000  0.30640000  1.0 0.1305853828
H  H8  1  0.35270000  0.78700000  0.19360000  1.0 0.1305853828
H  H9  1  0.34090000  0.88620000  0.53740000  1.0 0.1305853828
H  H10  1  0.65910000  0.38620000  0.96260000  1.0 0.1305853828
H  H11  1  0.65910000  0.11380000  0.46260000  1.0 0.1305853828
H  H12  1  0.34090000  0.61380000  0.03740000  1.0 0.1305853828
H  H13  1  0.17830000  0.89760000  0.54400000  1.0 0.1186491839
H  H14  1  0.82170000  0.39760000  0.95600000  1.0 0.1186491839
H  H15  1  0.82170000  0.10240000  0.45600000  1.0 0.1186491839
H  H16  1  0.17830000  0.60240000  0.04400000  1.0 0.1186491839
H  H17  1  0.50050000  0.74890000  0.64250000  1.0 0.1186491839
H  H18  1  0.49950000  0.24890000  0.85750000  1.0 0.1186491839
H  H19  1  0.49950000  0.25110000  0.35750000  1.0 0.1186491839
H  H20  1  0.50050000  0.75110000  0.14250000  1.0 0.1186491839
H  H21  1  0.49830000  0.87190000  0.54800000  1.0 0.1305853828
H  H22  1  0.50170000  0.37190000  0.95200000  1.0 0.1305853828
H  H23  1  0.50170000  0.12810000  0.45200000  1.0 0.1305853828
H  H24  1  0.49830000  0.62810000  0.04800000  1.0 0.1305853828
H  H25  1  0.82070000  0.72800000  0.65600000  1.0 0.1112765222
H  H26  1  0.17930000  0.22800000  0.84400000  1.0 0.1112765222
H  H27  1  0.17930000  0.27200000  0.34400000  1.0 0.1112765222
H  H28  1  0.82070000  0.77200000  0.15600000  1.0 0.1112765222
H  H29  1  0.65560000  0.72980000  0.64710000  1.0 0.1305853828
H  H30  1  0.34440000  0.22980000  0.85290000  1.0 0.1305853828
H  H31  1  0.34440000  0.27020000  0.35290000  1.0 0.1305853828
H  H32  1  0.65560000  0.77020000  0.14710000  1.0 0.1305853828
H  H33  1  0.65470000  0.92430000  0.52780000  1.0 0.1403180595
H  H34  1  0.34530000  0.42430000  0.97220000  1.0 0.1403180595
H  H35  1  0.34530000  0.07570000  0.47220000  1.0 0.1403180595
H  H36  1  0.65470000  0.57570000  0.02780000  1.0 0.1403180595
H  H37  1  0.81860000  0.91700000  0.53860000  1.0 0.1186491839
H  H38  1  0.18140000  0.41700000  0.96140000  1.0 0.1186491839
H  H39  1  0.18140000  0.08300000  0.46140000  1.0 0.1186491839
H  H40  1  0.81860000  0.58300000  0.03860000  1.0 0.1186491839
H  H41  1  0.18510000  0.58820000  0.58350000  1.0 0.1112765222
H  H42  1  0.81490000  0.08820000  0.91650000  1.0 0.1112765222
H  H43  1  0.81490000  0.41180000  0.41650000  1.0 0.1112765222
H  H44  1  0.18510000  0.91180000  0.08350000  1.0 0.1112765222
H  H45  1  0.34850000  0.60010000  0.58790000  1.0 0.1305853828
H  H46  1  0.65150000  0.10010000  0.91210000  1.0 0.1305853828
H  H47  1  0.65150000  0.39990000  0.41210000  1.0 0.1305853828
H  H48  1  0.34850000  0.89990000  0.08790000  1.0 0.1305853828
H  H49  1  0.34580000  0.41320000  0.45330000  1.0 0.1305853828
H  H50  1  0.65420000  0.91320000  0.04670000  1.0 0.1305853828
H  H51  1  0.65420000  0.58680000  0.54670000  1.0 0.1305853828
H  H52  1  0.34580000  0.08680000  0.95330000  1.0 0.1305853828
H  H53  1  0.18060000  0.40780000  0.45000000  1.0 0.1112765222
H  H54  1  0.81940000  0.90780000  0.05000000  1.0 0.1112765222
H  H55  1  0.81940000  0.59220000  0.55000000  1.0 0.1112765222
H  H56  1  0.18060000  0.09220000  0.95000000  1.0 0.1112765222
H  H57  1  0.50460000  0.55580000  0.55570000  1.0 0.1305853828
H  H58  1  0.49540000  0.05580000  0.94430000  1.0 0.1305853828
H  H59  1  0.49540000  0.44420000  0.44430000  1.0 0.1305853828
H  H60  1  0.50460000  0.94420000  0.05570000  1.0 0.1305853828
H  H61  1  0.95620000  0.62640000  0.39110000  1.0 0.3405093319
H  H62  1  0.04380000  0.12640000  0.10890000  1.0 0.3405093319
H  H63  1  0.04380000  0.37360000  0.60890000  1.0 0.3405093319
H  H64  1  0.95620000  0.87360000  0.89110000  1.0 0.3405093319
H  H65  1  0.05130000  0.62520000  0.40180000  1.0 0.3405093319
H  H66  1  0.94870000  0.12520000  0.09820000  1.0 0.3405093319
H  H67  1  0.94870000  0.37480000  0.59820000  1.0 0.3405093319
H  H68  1  0.05130000  0.87480000  0.90180000  1.0 0.3405093319
H  H69  1  0.98170000  0.68970000  0.51000000  1.0 0.3782143883
H  H70  1  0.01830000  0.18970000  0.99000000  1.0 0.3782143883
H  H71  1  0.01830000  0.31030000  0.49000000  1.0 0.3782143883
H  H72  1  0.98170000  0.81030000  0.01000000  1.0 0.3782143883
H  H73  1  0.01760000  0.67680000  0.60900000  1.0 0.3782143883
H  H74  1  0.98240000  0.17680000  0.89100000  1.0 0.3782143883
H  H75  1  0.98240000  0.32320000  0.39100000  1.0 0.3782143883
H  H76  1  0.01760000  0.82320000  0.10900000  1.0 0.3782143883
C  C1  1  0.00540000  0.69950000  0.76390000  1.0 -0.0422281609
C  C2  1  0.99460000  0.19950000  0.73610000  1.0 -0.0422281609
C  C3  1  0.99460000  0.30050000  0.23610000  1.0 -0.0455100023
C  C4  1  0.00540000  0.80050000  0.26390000  1.0 -0.0422281609
C  C5  1  0.99540000  0.49910000  0.83340000  1.0 -0.0283117757
C  C6  1  0.00460000  0.99910000  0.66666667  1.0 -0.0283117757
C  C7  1  0.00460000  0.50090000  0.16660000  1.0 -0.0283117757
C  C8  1  0.99540000  0.00090000  0.33340000  1.0 -0.0283117757
C  C9  1  0.00540000  0.56770000  0.69160000  1.0 -0.0283117757
C  C10  1  0.99460000  0.06770000  0.80840000  1.0 -0.0283117757
C  C11  1  0.99460000  0.43230000  0.30840000  1.0 -0.0283117757
C  C12  1  0.00540000  0.93230000  0.19160000  1.0 -0.0283117757
C  C13  1  0.99550000  0.63130000  0.91220000  1.0 -0.0422281609
C  C14  1  0.00450000  0.13130000  0.58780000  1.0 -0.0422281609
C  C15  1  0.00450000  0.36870000  0.08780000  1.0 -0.0422281609
C  C16  1  0.99550000  0.86870000  0.41220000  1.0 -0.0422281609
C  C17  1  0.86040000  0.60300000  0.77780000  1.0 -0.1513972998
C  C18  1  0.13960000  0.10300000  0.72220000  1.0 -0.1513972998
C  C19  1  0.13960000  0.39700000  0.22220000  1.0 -0.1513972998
C  C20  1  0.86040000  0.89700000  0.27780000  1.0 -0.1513972998
C  C21  1  0.13950000  0.59760000  0.82390000  1.0 -0.1513972998
C  C22  1  0.86050000  0.09760000  0.67610000  1.0 -0.1513972998
C  C23  1  0.86050000  0.40240000  0.17610000  1.0 -0.1513972998
C  C24  1  0.13950000  0.90240000  0.32390000  1.0 -0.1513972998
C  C25  1  0.22050000  0.76130000  0.66460000  1.0 0.0913271281
C  C26  1  0.77950000  0.26130000  0.83540000  1.0 0.0913271281
C  C27  1  0.77950000  0.23870000  0.33540000  1.0 0.0913271281
C  C28  1  0.22050000  0.73870000  0.16460000  1.0 0.0913271281
C  C29  1  0.31880000  0.75150000  0.66330000  1.0 -0.2060601272
C  C30  1  0.68120000  0.25150000  0.83670000  1.0 -0.2020402708
C  C31  1  0.68120000  0.24850000  0.33670000  1.0 -0.2060601272
C  C32  1  0.31880000  0.74850000  0.16330000  1.0 -0.2060601272
C  C33  1  0.36580000  0.80030000  0.61570000  1.0 0.1403180595
C  C34  1  0.63420000  0.30030000  0.88430000  1.0 0.1403180595
C  C35  1  0.63420000  0.19970000  0.38430000  1.0 0.1403180595
C  C36  1  0.36580000  0.69970000  0.11570000  1.0 0.1403180595
C  C37  1  0.31170000  0.85360000  0.57100000  1.0 -0.1918288366
C  C38  1  0.68830000  0.35360000  0.92900000  1.0 -0.1918288366
C  C39  1  0.68830000  0.14640000  0.42900000  1.0 -0.1918288366
C  C40  1  0.31170000  0.64640000  0.07100000  1.0 -0.1918288366
C  C41  1  0.21320000  0.86000000  0.57480000  1.0 0.1112765222
C  C42  1  0.78680000  0.36000000  0.92520000  1.0 0.1112765222
C  C43  1  0.78680000  0.14000000  0.42520000  1.0 0.1112765222
C  C44  1  0.21320000  0.64000000  0.07480000  1.0 0.1112765222
C  C45  1  0.47180000  0.79060000  0.61450000  1.0 -0.122655914
C  C46  1  0.52820000  0.29060000  0.88550000  1.0 -0.122655914
C  C47  1  0.52820000  0.20940000  0.38550000  1.0 -0.122655914
C  C48  1  0.47180000  0.70940000  0.11450000  1.0 -0.122655914
C  C49  1  0.52780000  0.83260000  0.57980000  1.0 -0.1093941572
C  C50  1  0.47220000  0.33260000  0.92020000  1.0 -0.1093941572
C  C51  1  0.47220000  0.16740000  0.42020000  1.0 -0.1093941572
C  C52  1  0.52780000  0.66740000  0.07980000  1.0 -0.1093941572
C  C53  1  0.78670000  0.76830000  0.62970000  1.0 0.1022883533
C  C54  1  0.21330000  0.26830000  0.87030000  1.0 0.1022883533
C  C55  1  0.21330000  0.23170000  0.37030000  1.0 0.1022883533
C  C56  1  0.78670000  0.73170000  0.12970000  1.0 0.1022883533
C  C57  1  0.68680000  0.76880000  0.62390000  1.0 -0.1918288366
C  C58  1  0.31320000  0.26880000  0.87610000  1.0 -0.1918288366
C  C59  1  0.31320000  0.23120000  0.37610000  1.0 -0.1918288366
C  C60  1  0.68680000  0.73120000  0.12390000  1.0 -0.1918288366
C  C61  1  0.63320000  0.82610000  0.58430000  1.0 0.1487760293
C  C62  1  0.36680000  0.32610000  0.91570000  1.0 0.1487760293
C  C63  1  0.36680000  0.17390000  0.41570000  1.0 0.1487760293
C  C64  1  0.63320000  0.67390000  0.08430000  1.0 0.1487760293
C  C65  1  0.68680000  0.88300000  0.55370000  1.0 -0.2020402708
C  C66  1  0.31320000  0.38300000  0.94630000  1.0 -0.2020402708
C  C67  1  0.31320000  0.11700000  0.44630000  1.0 -0.2020402708
C  C68  1  0.68680000  0.61700000  0.05370000  1.0 -0.2020402708
C  C69  1  0.78550000  0.87870000  0.56120000  1.0 0.1022883533
C  C70  1  0.21450000  0.37870000  0.93880000  1.0 0.1022883533
C  C71  1  0.21450000  0.12130000  0.43880000  1.0 0.1022883533
C  C72  1  0.78550000  0.62130000  0.06120000  1.0 0.1022883533
C  C73  1  0.21740000  0.55260000  0.55590000  1.0 0.0913271281
C  C74  1  0.78260000  0.05260000  0.94410000  1.0 0.0913271281
C  C75  1  0.78260000  0.44740000  0.44410000  1.0 0.0913271281
C  C76  1  0.21740000  0.94740000  0.05590000  1.0 0.0913271281
C  C77  1  0.31600000  0.56040000  0.55900000  1.0 -0.2020402708
C  C78  1  0.68400000  0.06040000  0.94100000  1.0 -0.2020402708
C  C79  1  0.68400000  0.43960000  0.44100000  1.0 -0.2020402708
C  C80  1  0.31600000  0.93960000  0.05900000  1.0 -0.2020402708
C  C81  1  0.36650000  0.50890000  0.51890000  1.0 0.1487760293
C  C82  1  0.63350000  0.00890000  0.98110000  1.0 0.1487760293
C  C83  1  0.63350000  0.49110000  0.48110000  1.0 0.1487760293
C  C84  1  0.36650000  0.99110000  0.01890000  1.0 0.1487760293
C  C85  1  0.31430000  0.45040000  0.47930000  1.0 -0.2020402708
C  C86  1  0.68570000  0.95040000  0.02070000  1.0 -0.2020402708
C  C87  1  0.68570000  0.54960000  0.52070000  1.0 -0.2020402708
C  C88  1  0.31430000  0.04960000  0.97930000  1.0 -0.2020402708
C  C89  1  0.21470000  0.44710000  0.47840000  1.0 0.0913271281
C  C90  1  0.78530000  0.94710000  0.02160000  1.0 0.0913271281
C  C91  1  0.78530000  0.55290000  0.52160000  1.0 0.0913271281
C  C92  1  0.21470000  0.05290000  0.97840000  1.0 0.0913271281
C  C93  1  0.47410000  0.51880000  0.52080000  1.0 -0.1093941572
C  C94  1  0.52590000  0.01880000  0.97920000  1.0 -0.1093941572
C  C95  1  0.52590000  0.48120000  0.47920000  1.0 -0.1093941572
C  C96  1  0.47410000  0.98120000  0.02080000  1.0 -0.1093941572
N  N1  1  0.00860000  0.75760000  0.73220000  1.0 -0.3389972158
N  N2  1  0.99140000  0.25760000  0.76780000  1.0 -0.3389972158
N  N3  1  0.99140000  0.24240000  0.26780000  1.0 -0.3389972158
N  N4  1  0.00860000  0.74240000  0.23220000  1.0 -0.3389972158
N  N5  1  0.99220000  0.43740000  0.84880000  1.0 -0.3105465107
N  N6  1  0.00780000  0.93740000  0.65120000  1.0 -0.3105465107
N  N7  1  0.00780000  0.56260000  0.15120000  1.0 -0.3105465107
N  N8  1  0.99220000  0.06260000  0.34880000  1.0 -0.3105465107
N  N9  1  0.00750000  0.55070000  0.62400000  1.0 -0.3389972158
N  N10  1  0.99250000  0.05070000  0.87600000  1.0 -0.3389972158
N  N11  1  0.99250000  0.44930000  0.37600000  1.0 -0.3389972158
N  N12  1  0.00750000  0.94930000  0.12400000  1.0 -0.3389972158
N  N13  1  0.99270000  0.64920000  0.98090000  1.0 -0.3007810832
N  N14  1  0.00730000  0.14920000  0.51910000  1.0 -0.3007810832
N  N15  1  0.00730000  0.35080000  0.01910000  1.0 -0.3007810832
N  N16  1  0.99270000  0.85080000  0.48090000  1.0 -0.3007810832
N  N17  1  0.77810000  0.60390000  0.76260000  1.0 -0.3007810832
N  N18  1  0.22190000  0.10390000  0.73740000  1.0 -0.3007810832
N  N19  1  0.22190000  0.39610000  0.23740000  1.0 -0.3007810832
N  N20  1  0.77810000  0.89610000  0.26260000  1.0 -0.3007810832
N  N21  1  0.22290000  0.59550000  0.83360000  1.0 -0.3105465107
N  N22  1  0.77710000  0.09550000  0.66640000  1.0 -0.3105465107
N  N23  1  0.77710000  0.40450000  0.16640000  1.0 -0.3105465107
N  N24  1  0.22290000  0.90450000  0.33360000  1.0 -0.3105465107
N  N25  1  0.16620000  0.81440000  0.62100000  1.0 -0.2270058699
N  N26  1  0.83380000  0.31440000  0.87900000  1.0 -0.2270058699
N  N27  1  0.83380000  0.18560000  0.37900000  1.0 -0.2270058699
N  N28  1  0.16620000  0.68560000  0.12100000  1.0 -0.2270058699
N  N29  1  0.83690000  0.82260000  0.59950000  1.0 -0.2173097812
N  N30  1  0.16310000  0.32260000  0.90050000  1.0 -0.2173097812
N  N31  1  0.16310000  0.17740000  0.40050000  1.0 -0.2173097812
N  N32  1  0.83690000  0.67740000  0.09950000  1.0 -0.2173097812
N  N33  1  0.16480000  0.49740000  0.51610000  1.0 -0.2429823585
N  N34  1  0.83520000  0.99740000  0.98390000  1.0 -0.2429823585
N  N35  1  0.83520000  0.50260000  0.48390000  1.0 -0.2429823585
N  N36  1  0.16480000  0.00260000  0.01610000  1.0 -0.2429823585
O  O1  1  0.00350000  0.61030000  0.43310000  1.0 -0.6754967727
O  O2  1  0.99650000  0.11030000  0.06690000  1.0 -0.6754967727
O  O3  1  0.99650000  0.38970000  0.56690000  1.0 -0.6754967727
O  O4  1  0.00350000  0.88970000  0.93310000  1.0 -0.6754967727
O  O5  1  0.99130000  0.70760000  0.56160000  1.0 -0.768434123
O  O6  1  0.00870000  0.20760000  0.93840000  1.0 -0.768434123
O  O7  1  0.00870000  0.29240000  0.43840000  1.0 -0.768434123
O  O8  1  0.99130000  0.79240000  0.06160000  1.0 -0.768434123
