# DDEC6 charges by PACMAN v1.1 (https://github.com/mtap-research/PACMAN-charge/)
data_ULOJUC01_FSR_pacman
_symmetry_space_group_name_H-M   'P 1'
_cell_length_a   19.03280000
_cell_length_b   19.03280000
_cell_length_c   30.69490000
_cell_angle_alpha   80.07650000
_cell_angle_beta   99.92350000
_cell_angle_gamma   133.76300000
_symmetry_Int_Tables_number   1
_chemical_formula_structural   Zn3H24C36I11N12
_chemical_formula_sum   'Zn12 H96 C144 I44 N48'
_cell_volume   7888.09009942
_cell_formula_units_Z   4
loop_
 _symmetry_equiv_pos_site_id
 _symmetry_equiv_pos_as_xyz
  1  'x, y, z'
loop_
 _atom_site_type_symbol
 _atom_site_label
 _atom_site_symmetry_multiplicity
 _atom_site_fract_x
 _atom_site_fract_y
 _atom_site_fract_z
 _atom_site_occupancy
 _atom_site_charge
Zn  Zn1  1  0.29694000  0.45514000  0.90206000  1.0 0.4115938779
Zn  Zn2  1  0.54486000  0.70306000  0.40206000  1.0 0.4115938779
Zn  Zn3  1  0.21897000  0.96083000  0.06190000  1.0 0.3229987856
Zn  Zn4  1  0.03917000  0.78103000  0.56190000  1.0 0.3229987856
Zn  Zn5  1  0.67226000  0.02818000  0.22175000  1.0 0.252620482
Zn  Zn6  1  0.97182000  0.32774000  0.72175000  1.0 0.252620482
Zn  Zn7  1  0.45514000  0.29694000  0.59794000  1.0 0.4115938779
Zn  Zn8  1  0.70306000  0.54486000  0.09794000  1.0 0.4115938779
Zn  Zn9  1  0.96083000  0.21897000  0.43810000  1.0 0.3310980236
Zn  Zn10  1  0.78103000  0.03917000  0.93810000  1.0 0.3310980236
Zn  Zn11  1  0.02818000  0.67226000  0.27825000  1.0 0.252620482
Zn  Zn12  1  0.32774000  0.97182000  0.77825000  1.0 0.252620482
H  H1  1  0.05270000  0.90430000  0.99460000  1.0 0.0798400024
H  H2  1  0.09570000  0.94730000  0.49460000  1.0 0.0798400024
H  H3  1  0.90890000  0.86790000  0.99000000  1.0 0.1260330241
H  H4  1  0.13210000  0.09110000  0.49000000  1.0 0.1260330241
H  H5  1  0.94460000  0.88520000  0.12150000  1.0 0.1260330241
H  H6  1  0.11480000  0.05540000  0.62150000  1.0 0.1260330241
H  H7  1  0.08560000  0.91520000  0.12270000  1.0 0.0720122827
H  H8  1  0.08480000  0.91440000  0.62270000  1.0 0.0720122827
H  H9  1  0.63700000  0.64840000  0.97540000  1.0 0.1217254202
H  H10  1  0.35160000  0.36300000  0.47540000  1.0 0.1217254202
H  H11  1  0.50330000  0.53510000  0.93200000  1.0 0.0952376063
H  H12  1  0.46490000  0.49670000  0.43200000  1.0 0.0952376063
H  H13  1  0.35780000  0.58940000  0.96720000  1.0 0.0880707644
H  H14  1  0.41060000  0.64220000  0.46720000  1.0 0.0880707644
H  H15  1  0.49140000  0.70920000  0.01090000  1.0 0.1217254202
H  H16  1  0.29080000  0.50860000  0.51090000  1.0 0.1217254202
H  H17  1  0.59310000  0.87010000  0.08510000  1.0 0.1217254202
H  H18  1  0.12990000  0.40690000  0.58510000  1.0 0.1217254202
H  H19  1  0.58200000  0.93960000  0.13320000  1.0 0.0720122827
H  H20  1  0.06040000  0.41800000  0.63320000  1.0 0.0720122827
H  H21  1  0.80570000  0.00430000  0.20780000  1.0 0.0720122827
H  H22  1  0.99570000  0.19430000  0.70780000  1.0 0.0720122827
H  H23  1  0.82750000  0.94270000  0.15940000  1.0 0.1217254202
H  H24  1  0.05730000  0.17250000  0.65940000  1.0 0.1217254202
H  H25  1  0.24960000  0.48540000  0.30090000  1.0 0.1118412475
H  H26  1  0.51460000  0.75040000  0.80090000  1.0 0.1118412475
H  H27  1  0.37130000  0.53450000  0.35570000  1.0 0.0880707644
H  H28  1  0.46550000  0.62870000  0.85570000  1.0 0.0880707644
H  H29  1  0.47590000  0.79830000  0.34400000  1.0 0.0720122827
H  H30  1  0.20170000  0.52410000  0.84400000  1.0 0.0720122827
H  H31  1  0.35800000  0.75820000  0.28910000  1.0 0.1118412475
H  H32  1  0.24180000  0.64200000  0.78910000  1.0 0.1118412475
H  H33  1  0.29690000  0.82330000  0.19400000  1.0 0.0880707644
H  H34  1  0.17670000  0.70310000  0.69400000  1.0 0.0880707644
H  H35  1  0.31540000  0.94140000  0.14630000  1.0 0.0611293285
H  H36  1  0.05860000  0.68460000  0.64630000  1.0 0.0611293285
H  H37  1  0.07660000  0.74540000  0.07540000  1.0 0.0798400024
H  H38  1  0.25460000  0.92340000  0.57540000  1.0 0.0798400024
H  H39  1  0.04800000  0.62100000  0.12280000  1.0 0.1118412475
H  H40  1  0.37900000  0.95200000  0.62280000  1.0 0.1118412475
H  H41  1  0.90170000  0.38250000  0.16590000  1.0 0.1260330241
H  H42  1  0.61750000  0.09830000  0.66590000  1.0 0.1260330241
H  H43  1  0.75990000  0.21930000  0.16850000  1.0 0.0798400024
H  H44  1  0.78070000  0.24010000  0.66850000  1.0 0.0798400024
H  H45  1  0.86950000  0.15850000  0.26880000  1.0 0.0611293285
H  H46  1  0.84150000  0.13050000  0.76880000  1.0 0.0611293285
H  H47  1  0.01670000  0.31930000  0.26910000  1.0 0.1217254202
H  H48  1  0.68070000  0.98330000  0.76910000  1.0 0.1217254202
H  H49  1  0.90430000  0.05270000  0.50540000  1.0 0.0798400024
H  H50  1  0.94730000  0.09570000  0.00540000  1.0 0.0798400024
H  H51  1  0.86790000  0.90890000  0.51000000  1.0 0.1260330241
H  H52  1  0.09110000  0.13210000  0.01000000  1.0 0.1260330241
H  H53  1  0.88520000  0.94460000  0.37850000  1.0 0.1260330241
H  H54  1  0.05540000  0.11480000  0.87850000  1.0 0.1260330241
H  H55  1  0.91520000  0.08560000  0.37730000  1.0 0.0720122827
H  H56  1  0.91440000  0.08480000  0.87730000  1.0 0.0720122827
H  H57  1  0.64840000  0.63700000  0.52460000  1.0 0.1217254202
H  H58  1  0.36300000  0.35160000  0.02460000  1.0 0.1217254202
H  H59  1  0.53510000  0.50330000  0.56800000  1.0 0.0952376063
H  H60  1  0.49670000  0.46490000  0.06800000  1.0 0.0952376063
H  H61  1  0.58940000  0.35780000  0.53280000  1.0 0.0880707644
H  H62  1  0.64220000  0.41060000  0.03280000  1.0 0.0880707644
H  H63  1  0.70920000  0.49140000  0.48910000  1.0 0.1217254202
H  H64  1  0.50860000  0.29080000  0.98910000  1.0 0.1217254202
H  H65  1  0.87010000  0.59310000  0.41490000  1.0 0.1217254202
H  H66  1  0.40690000  0.12990000  0.91490000  1.0 0.1217254202
H  H67  1  0.93960000  0.58200000  0.36680000  1.0 0.0720122827
H  H68  1  0.41800000  0.06040000  0.86680000  1.0 0.0720122827
H  H69  1  0.00430000  0.80570000  0.29220000  1.0 0.0720122827
H  H70  1  0.19430000  0.99570000  0.79220000  1.0 0.0720122827
H  H71  1  0.94270000  0.82750000  0.34060000  1.0 0.1217254202
H  H72  1  0.17250000  0.05730000  0.84060000  1.0 0.1217254202
H  H73  1  0.48540000  0.24960000  0.19910000  1.0 0.1118412475
H  H74  1  0.75040000  0.51460000  0.69910000  1.0 0.1118412475
H  H75  1  0.53450000  0.37130000  0.14430000  1.0 0.0880707644
H  H76  1  0.62870000  0.46550000  0.64430000  1.0 0.0880707644
H  H77  1  0.79830000  0.47590000  0.15600000  1.0 0.0720122827
H  H78  1  0.52410000  0.20170000  0.65600000  1.0 0.0720122827
H  H79  1  0.75820000  0.35800000  0.21090000  1.0 0.1118412475
H  H80  1  0.64200000  0.24180000  0.71090000  1.0 0.1118412475
H  H81  1  0.82330000  0.29690000  0.30600000  1.0 0.0880707644
H  H82  1  0.70310000  0.17670000  0.80600000  1.0 0.0880707644
H  H83  1  0.94140000  0.31540000  0.35370000  1.0 0.0611293285
H  H84  1  0.68460000  0.05860000  0.85370000  1.0 0.0611293285
H  H85  1  0.74540000  0.07660000  0.42460000  1.0 0.0798400024
H  H86  1  0.92340000  0.25460000  0.92460000  1.0 0.0798400024
H  H87  1  0.62100000  0.04800000  0.37720000  1.0 0.1118412475
H  H88  1  0.95200000  0.37900000  0.87720000  1.0 0.1118412475
H  H89  1  0.38250000  0.90170000  0.33410000  1.0 0.1260330241
H  H90  1  0.09830000  0.61750000  0.83410000  1.0 0.1260330241
H  H91  1  0.21930000  0.75990000  0.33150000  1.0 0.0798400024
H  H92  1  0.24010000  0.78070000  0.83150000  1.0 0.0798400024
H  H93  1  0.15850000  0.86950000  0.23120000  1.0 0.0611293285
H  H94  1  0.13050000  0.84150000  0.73120000  1.0 0.0611293285
H  H95  1  0.31930000  0.01670000  0.23090000  1.0 0.1217254202
H  H96  1  0.98330000  0.68070000  0.73090000  1.0 0.1217254202
C  C1  1  0.03100000  0.90140000  0.02030000  1.0 0.0394826539
C  C2  1  0.09860000  0.96900000  0.52030000  1.0 0.0394826539
C  C3  1  0.94430000  0.87890000  0.01710000  1.0 -0.1707644452
C  C4  1  0.12110000  0.05570000  0.51710000  1.0 -0.1707644452
C  C5  1  0.91140000  0.87320000  0.05620000  1.0 0.0394826539
C  C6  1  0.12680000  0.08860000  0.55620000  1.0 0.0394826539
C  C7  1  0.96510000  0.88830000  0.09520000  1.0 -0.1590249444
C  C8  1  0.11170000  0.03490000  0.59520000  1.0 -0.1590249444
C  C9  1  0.05140000  0.90880000  0.09570000  1.0 0.0394826539
C  C10  1  0.09120000  0.94860000  0.59570000  1.0 0.0394826539
C  C11  1  0.57950000  0.69170000  0.99840000  1.0 0.0290404679
C  C12  1  0.30830000  0.42050000  0.49840000  1.0 0.0290404679
C  C13  1  0.58110000  0.63790000  0.97410000  1.0 -0.1707644452
C  C14  1  0.36210000  0.41890000  0.47410000  1.0 -0.1773177523
C  C15  1  0.50040000  0.56960000  0.94840000  1.0 0.0506070453
C  C16  1  0.43040000  0.49960000  0.44840000  1.0 0.0506070453
C  C17  1  0.41480000  0.60200000  0.96890000  1.0 0.0290404679
C  C18  1  0.39800000  0.58520000  0.46890000  1.0 0.0290404679
C  C19  1  0.49460000  0.67360000  0.99540000  1.0 -0.152059066
C  C20  1  0.32640000  0.50540000  0.49540000  1.0 -0.152059066
C  C21  1  0.71430000  0.89990000  0.11570000  1.0 0.0394826539
C  C22  1  0.10010000  0.28570000  0.61570000  1.0 0.0394826539
C  C23  1  0.63830000  0.89850000  0.10940000  1.0 -0.1707644452
C  C24  1  0.10150000  0.36170000  0.60940000  1.0 -0.1707644452
C  C25  1  0.63090000  0.93850000  0.13870000  1.0 0.0506070453
C  C26  1  0.06150000  0.36910000  0.63870000  1.0 0.0506070453
C  C27  1  0.76330000  0.97770000  0.18250000  1.0 0.0506070453
C  C28  1  0.02230000  0.23670000  0.68250000  1.0 0.0506070453
C  C29  1  0.77650000  0.94050000  0.15350000  1.0 -0.1590249444
C  C30  1  0.05950000  0.22350000  0.65350000  1.0 -0.1590249444
C  C31  1  0.72640000  0.86040000  0.08380000  1.0 0.3310980236
C  C32  1  0.13960000  0.27360000  0.58380000  1.0 0.3310980236
C  C33  1  0.66350000  0.76510000  0.02770000  1.0 0.3406110172
C  C34  1  0.23490000  0.33650000  0.52770000  1.0 0.3406110172
C  C35  1  0.81910000  0.84870000  0.05530000  1.0 0.3491604984
C  C36  1  0.15130000  0.18090000  0.55530000  1.0 0.3491604984
C  C37  1  0.29020000  0.61820000  0.28910000  1.0 0.0506070453
C  C38  1  0.38180000  0.70980000  0.78910000  1.0 0.0506070453
C  C39  1  0.29450000  0.54910000  0.30930000  1.0 -0.1773177523
C  C40  1  0.45090000  0.70550000  0.80930000  1.0 -0.1773177523
C  C41  1  0.36800000  0.57980000  0.34200000  1.0 0.0720122827
C  C42  1  0.42020000  0.63200000  0.84200000  1.0 0.0720122827
C  C43  1  0.42950000  0.73490000  0.33520000  1.0 0.0290404679
C  C44  1  0.26510000  0.57050000  0.83520000  1.0 0.0290404679
C  C45  1  0.35910000  0.71110000  0.30240000  1.0 -0.1707644452
C  C46  1  0.28890000  0.64090000  0.80240000  1.0 -0.1707644452
C  C47  1  0.16890000  0.70790000  0.16410000  1.0 0.0394826539
C  C48  1  0.29210000  0.83110000  0.66410000  1.0 0.0394826539
C  C49  1  0.25060000  0.80580000  0.17050000  1.0 -0.1590249444
C  C50  1  0.19420000  0.74940000  0.67050000  1.0 -0.1590249444
C  C51  1  0.26160000  0.87600000  0.14170000  1.0 0.0290404679
C  C52  1  0.12400000  0.73840000  0.64170000  1.0 0.0290404679
C  C53  1  0.12030000  0.76070000  0.09990000  1.0 0.0506070453
C  C54  1  0.23930000  0.87970000  0.59990000  1.0 0.0506070453
C  C55  1  0.10300000  0.68560000  0.12800000  1.0 -0.1707644452
C  C56  1  0.31440000  0.89700000  0.62800000  1.0 -0.1707644452
C  C57  1  0.97600000  0.36880000  0.21700000  1.0 0.0506070453
C  C58  1  0.63120000  0.02400000  0.71700000  1.0 0.0506070453
C  C59  1  0.89730000  0.33830000  0.18690000  1.0 -0.1707644452
C  C60  1  0.66170000  0.10270000  0.68690000  1.0 -0.1707644452
C  C61  1  0.81210000  0.24010000  0.18900000  1.0 0.0611293285
C  C62  1  0.75990000  0.18790000  0.68900000  1.0 0.0611293285
C  C63  1  0.87670000  0.20430000  0.24780000  1.0 0.0611293285
C  C64  1  0.79570000  0.12330000  0.74780000  1.0 0.0611293285
C  C65  1  0.96570000  0.30090000  0.24840000  1.0 -0.1590249444
C  C66  1  0.69910000  0.03430000  0.74840000  1.0 -0.1590249444
C  C67  1  0.06750000  0.47350000  0.21850000  1.0 0.3406110172
C  C68  1  0.52650000  0.93250000  0.71850000  1.0 0.3406110172
C  C69  1  0.15540000  0.63200000  0.19550000  1.0 0.3550914164
C  C70  1  0.36800000  0.84460000  0.69550000  1.0 0.3491604984
C  C71  1  0.21250000  0.58890000  0.25370000  1.0 0.3491604984
C  C72  1  0.41110000  0.78750000  0.75370000  1.0 0.3491604984
C  C73  1  0.90140000  0.03100000  0.47970000  1.0 0.0394826539
C  C74  1  0.96900000  0.09860000  0.97970000  1.0 0.0394826539
C  C75  1  0.87890000  0.94430000  0.48290000  1.0 -0.1707644452
C  C76  1  0.05570000  0.12110000  0.98290000  1.0 -0.1707644452
C  C77  1  0.87320000  0.91140000  0.44380000  1.0 0.0394826539
C  C78  1  0.08860000  0.12680000  0.94380000  1.0 0.0394826539
C  C79  1  0.88830000  0.96510000  0.40480000  1.0 -0.1590249444
C  C80  1  0.03490000  0.11170000  0.90480000  1.0 -0.1590249444
C  C81  1  0.90880000  0.05140000  0.40430000  1.0 0.0394826539
C  C82  1  0.94860000  0.09120000  0.90430000  1.0 0.0394826539
C  C83  1  0.69170000  0.57950000  0.50160000  1.0 0.0290404679
C  C84  1  0.42050000  0.30830000  0.00160000  1.0 0.0290404679
C  C85  1  0.63790000  0.58110000  0.52590000  1.0 -0.1707644452
C  C86  1  0.41890000  0.36210000  0.02590000  1.0 -0.1773177523
C  C87  1  0.56960000  0.50040000  0.55160000  1.0 0.0506070453
C  C88  1  0.49960000  0.43040000  0.05160000  1.0 0.0506070453
C  C89  1  0.60200000  0.41480000  0.53110000  1.0 0.0290404679
C  C90  1  0.58520000  0.39800000  0.03110000  1.0 0.0290404679
C  C91  1  0.67360000  0.49460000  0.50460000  1.0 -0.152059066
C  C92  1  0.50540000  0.32640000  0.00460000  1.0 -0.152059066
C  C93  1  0.89990000  0.71430000  0.38430000  1.0 0.0394826539
C  C94  1  0.28570000  0.10010000  0.88430000  1.0 0.0394826539
C  C95  1  0.89850000  0.63830000  0.39060000  1.0 -0.1707644452
C  C96  1  0.36170000  0.10150000  0.89060000  1.0 -0.1707644452
C  C97  1  0.93850000  0.63090000  0.36130000  1.0 0.0506070453
C  C98  1  0.36910000  0.06150000  0.86130000  1.0 0.0506070453
C  C99  1  0.97770000  0.76330000  0.31750000  1.0 0.0506070453
C  C100  1  0.23670000  0.02230000  0.81750000  1.0 0.0506070453
C  C101  1  0.94050000  0.77650000  0.34650000  1.0 -0.1590249444
C  C102  1  0.22350000  0.05950000  0.84650000  1.0 -0.1590249444
C  C103  1  0.86040000  0.72640000  0.41620000  1.0 0.3310980236
C  C104  1  0.27360000  0.13960000  0.91620000  1.0 0.3310980236
C  C105  1  0.76510000  0.66350000  0.47230000  1.0 0.3491604984
C  C106  1  0.33650000  0.23490000  0.97230000  1.0 0.3406110172
C  C107  1  0.84870000  0.81910000  0.44470000  1.0 0.3491604984
C  C108  1  0.18090000  0.15130000  0.94470000  1.0 0.3491604984
C  C109  1  0.61820000  0.29020000  0.21090000  1.0 0.0506070453
C  C110  1  0.70980000  0.38180000  0.71090000  1.0 0.0506070453
C  C111  1  0.54910000  0.29450000  0.19070000  1.0 -0.1773177523
C  C112  1  0.70550000  0.45090000  0.69070000  1.0 -0.1773177523
C  C113  1  0.57980000  0.36800000  0.15800000  1.0 0.0720122827
C  C114  1  0.63200000  0.42020000  0.65800000  1.0 0.0720122827
C  C115  1  0.73490000  0.42950000  0.16480000  1.0 0.0290404679
C  C116  1  0.57050000  0.26510000  0.66480000  1.0 0.0290404679
C  C117  1  0.71110000  0.35910000  0.19760000  1.0 -0.1707644452
C  C118  1  0.64090000  0.28890000  0.69760000  1.0 -0.1707644452
C  C119  1  0.70790000  0.16890000  0.33590000  1.0 0.0394826539
C  C120  1  0.83110000  0.29210000  0.83590000  1.0 0.0394826539
C  C121  1  0.80580000  0.25060000  0.32950000  1.0 -0.1590249444
C  C122  1  0.74940000  0.19420000  0.82950000  1.0 -0.1590249444
C  C123  1  0.87600000  0.26160000  0.35830000  1.0 0.0290404679
C  C124  1  0.73840000  0.12400000  0.85830000  1.0 0.0290404679
C  C125  1  0.76070000  0.12030000  0.40010000  1.0 0.0506070453
C  C126  1  0.87970000  0.23930000  0.90010000  1.0 0.0506070453
C  C127  1  0.68560000  0.10300000  0.37200000  1.0 -0.1707644452
C  C128  1  0.89700000  0.31440000  0.87200000  1.0 -0.1707644452
C  C129  1  0.36880000  0.97600000  0.28300000  1.0 0.0506070453
C  C130  1  0.02400000  0.63120000  0.78300000  1.0 0.0506070453
C  C131  1  0.33830000  0.89730000  0.31310000  1.0 -0.1707644452
C  C132  1  0.10270000  0.66170000  0.81310000  1.0 -0.1707644452
C  C133  1  0.24010000  0.81210000  0.31100000  1.0 0.0611293285
C  C134  1  0.18790000  0.75990000  0.81100000  1.0 0.0611293285
C  C135  1  0.20430000  0.87670000  0.25220000  1.0 0.0611293285
C  C136  1  0.12330000  0.79570000  0.75220000  1.0 0.0611293285
C  C137  1  0.30090000  0.96570000  0.25160000  1.0 -0.1590249444
C  C138  1  0.03430000  0.69910000  0.75160000  1.0 -0.1590249444
C  C139  1  0.47350000  0.06750000  0.28150000  1.0 0.3406110172
C  C140  1  0.93250000  0.52650000  0.78150000  1.0 0.3406110172
C  C141  1  0.63200000  0.15540000  0.30450000  1.0 0.3491604984
C  C142  1  0.84460000  0.36800000  0.80450000  1.0 0.3491604984
C  C143  1  0.58890000  0.21250000  0.24630000  1.0 0.3491604984
C  C144  1  0.78750000  0.41110000  0.74630000  1.0 0.3491604984
I  I1  1  0.14670000  0.37878000  0.93965000  1.0 -0.0300993303
I  I2  1  0.62122000  0.85330000  0.43965000  1.0 -0.0300993303
I  I3  1  0.32308000  0.36530000  0.86602000  1.0 -0.4667527442
I  I4  1  0.63470000  0.67692000  0.36602000  1.0 -0.4667527442
I  I5  1  0.33987000  0.11813000  0.09806000  1.0 0.0290404679
I  I6  1  0.88187000  0.66013000  0.59806000  1.0 0.0290404679
I  I7  1  0.53232000  0.01916000  0.19000000  1.0 0.0720122827
I  I8  1  0.98084000  0.46768000  0.69000000  1.0 0.0720122827
I  I9  1  0.22940000  0.92790000  0.98578000  1.0 -0.0399038129
I  I10  1  0.07210000  0.77060000  0.48578000  1.0 -0.0300993303
I  I11  1  0.68585000  0.94895000  0.29960000  1.0 0.0394826539
I  I12  1  0.05105000  0.31415000  0.79960000  1.0 0.0394826539
I  I13  1  0.67441000  0.96019000  0.29530000  1.0 0.0058977997
I  I14  1  0.03981000  0.32559000  0.79530000  1.0 0.0058977997
I  I15  1  0.33060000  0.11800000  0.11250000  1.0 0.0506070453
I  I16  1  0.88200000  0.66940000  0.61250000  1.0 0.0506070453
I  I17  1  0.26284000  0.96436000  0.99740000  1.0 -0.0707672749
I  I18  1  0.03564000  0.73716000  0.49740000  1.0 -0.0783581264
I  I19  1  0.53000000  0.99800000  0.20290000  1.0 0.0394826539
I  I20  1  0.00200000  0.47000000  0.70290000  1.0 0.0394826539
I  I21  1  0.18230000  0.39370000  0.95540000  1.0 -0.0513280036
I  I22  1  0.60630000  0.81770000  0.45540000  1.0 -0.0513280036
I  I23  1  0.37878000  0.14670000  0.56035000  1.0 -0.0399038129
I  I24  1  0.85330000  0.62122000  0.06035000  1.0 -0.0399038129
I  I25  1  0.36530000  0.32308000  0.63398000  1.0 -0.4617402021
I  I26  1  0.67692000  0.63470000  0.13398000  1.0 -0.4667527442
I  I27  1  0.11813000  0.33987000  0.40194000  1.0 0.0290404679
I  I28  1  0.66013000  0.88187000  0.90194000  1.0 0.0290404679
I  I29  1  0.01916000  0.53232000  0.31000000  1.0 0.0720122827
I  I30  1  0.46768000  0.98084000  0.81000000  1.0 0.0720122827
I  I31  1  0.92790000  0.22940000  0.51422000  1.0 -0.0399038129
I  I32  1  0.77060000  0.07210000  0.01422000  1.0 -0.0399038129
I  I33  1  0.94895000  0.68585000  0.20040000  1.0 0.0394826539
I  I34  1  0.31415000  0.05105000  0.70040000  1.0 0.0394826539
I  I35  1  0.96019000  0.67441000  0.20470000  1.0 0.0058977997
I  I36  1  0.32559000  0.03981000  0.70470000  1.0 0.0058977997
I  I37  1  0.11800000  0.33060000  0.38750000  1.0 0.0506070453
I  I38  1  0.66940000  0.88200000  0.88750000  1.0 0.0506070453
I  I39  1  0.96436000  0.26284000  0.50260000  1.0 -0.0783581264
I  I40  1  0.73716000  0.03564000  0.00260000  1.0 -0.0783581264
I  I41  1  0.99800000  0.53000000  0.29710000  1.0 0.0290404679
I  I42  1  0.47000000  0.00200000  0.79710000  1.0 0.0394826539
I  I43  1  0.39370000  0.18230000  0.54460000  1.0 -0.0583817054
I  I44  1  0.81770000  0.60630000  0.04460000  1.0 -0.0513280036
N  N1  1  0.41710000  0.54930000  0.94520000  1.0 -0.2101965443
N  N2  1  0.45070000  0.58290000  0.44520000  1.0 -0.2101965443
N  N3  1  0.08580000  0.91920000  0.05830000  1.0 -0.2223722701
N  N4  1  0.08080000  0.91420000  0.55830000  1.0 -0.2223722701
N  N5  1  0.69100000  0.97640000  0.17540000  1.0 -0.1933548402
N  N6  1  0.02360000  0.30900000  0.67540000  1.0 -0.1960209821
N  N7  1  0.81230000  0.88610000  0.08570000  1.0 -0.4205078874
N  N8  1  0.11390000  0.18770000  0.58570000  1.0 -0.4205078874
N  N9  1  0.74880000  0.79060000  0.02440000  1.0 -0.4406510506
N  N10  1  0.20940000  0.25120000  0.52440000  1.0 -0.4406510506
N  N11  1  0.64900000  0.79880000  0.05580000  1.0 -0.4280137409
N  N12  1  0.20120000  0.35100000  0.55580000  1.0 -0.4280137409
N  N13  1  0.43390000  0.66890000  0.35510000  1.0 -0.1707644452
N  N14  1  0.33110000  0.56610000  0.85510000  1.0 -0.1707644452
N  N15  1  0.19700000  0.85360000  0.10680000  1.0 -0.1960209821
N  N16  1  0.14640000  0.80300000  0.60680000  1.0 -0.1933548402
N  N17  1  0.80140000  0.17400000  0.21890000  1.0 -0.2101965443
N  N18  1  0.82600000  0.19860000  0.71890000  1.0 -0.2101965443
N  N19  1  0.13640000  0.49500000  0.24890000  1.0 -0.4145518307
N  N20  1  0.50500000  0.86360000  0.74890000  1.0 -0.4145518307
N  N21  1  0.07180000  0.53720000  0.18990000  1.0 -0.4406510506
N  N22  1  0.46280000  0.92820000  0.68990000  1.0 -0.4406510506
N  N23  1  0.22500000  0.66120000  0.22780000  1.0 -0.4205078874
N  N24  1  0.33880000  0.77500000  0.72780000  1.0 -0.4205078874
N  N25  1  0.54930000  0.41710000  0.55480000  1.0 -0.2101965443
N  N26  1  0.58290000  0.45070000  0.05480000  1.0 -0.2101965443
N  N27  1  0.91920000  0.08580000  0.44170000  1.0 -0.2223722701
N  N28  1  0.91420000  0.08080000  0.94170000  1.0 -0.2223722701
N  N29  1  0.97640000  0.69100000  0.32460000  1.0 -0.1933548402
N  N30  1  0.30900000  0.02360000  0.82460000  1.0 -0.1933548402
N  N31  1  0.88610000  0.81230000  0.41430000  1.0 -0.4205078874
N  N32  1  0.18770000  0.11390000  0.91430000  1.0 -0.4205078874
N  N33  1  0.79060000  0.74880000  0.47560000  1.0 -0.4406510506
N  N34  1  0.25120000  0.20940000  0.97560000  1.0 -0.4406510506
N  N35  1  0.79880000  0.64900000  0.44420000  1.0 -0.4280137409
N  N36  1  0.35100000  0.20120000  0.94420000  1.0 -0.4280137409
N  N37  1  0.66890000  0.43390000  0.14490000  1.0 -0.1707644452
N  N38  1  0.56610000  0.33110000  0.64490000  1.0 -0.1707644452
N  N39  1  0.85360000  0.19700000  0.39320000  1.0 -0.1960209821
N  N40  1  0.80300000  0.14640000  0.89320000  1.0 -0.1960209821
N  N41  1  0.17400000  0.80140000  0.28110000  1.0 -0.2101965443
N  N42  1  0.19860000  0.82600000  0.78110000  1.0 -0.2101965443
N  N43  1  0.49500000  0.13640000  0.25110000  1.0 -0.4205078874
N  N44  1  0.86360000  0.50500000  0.75110000  1.0 -0.4205078874
N  N45  1  0.53720000  0.07180000  0.31010000  1.0 -0.4406510506
N  N46  1  0.92820000  0.46280000  0.81010000  1.0 -0.4406510506
N  N47  1  0.66120000  0.22500000  0.27220000  1.0 -0.4205078874
N  N48  1  0.77500000  0.33880000  0.77220000  1.0 -0.4205078874
