# DDEC6 charges by PACMAN v1.1 (https://github.com/mtap-research/PACMAN-charge/)
data_ULOJUC_FSR_pacman
_symmetry_space_group_name_H-M   'P 1'
_cell_length_a   19.11400000
_cell_length_b   19.11400000
_cell_length_c   30.23490000
_cell_angle_alpha   80.10890000
_cell_angle_beta   99.89110000
_cell_angle_gamma   133.90200000
_symmetry_Int_Tables_number   1
_chemical_formula_structural   Zn3H24C36(I2N3)4
_chemical_formula_sum   'Zn12 H96 C144 I32 N48'
_cell_volume   7819.15031147
_cell_formula_units_Z   4
loop_
 _symmetry_equiv_pos_site_id
 _symmetry_equiv_pos_as_xyz
  1  'x, y, z'
loop_
 _atom_site_type_symbol
 _atom_site_label
 _atom_site_symmetry_multiplicity
 _atom_site_fract_x
 _atom_site_fract_y
 _atom_site_fract_z
 _atom_site_occupancy
 _atom_site_charge
Zn  Zn1  1  0.45188000  0.29472000  0.09799000  1.0 0.4577401179
Zn  Zn2  1  0.70528000  0.54812000  0.59799000  1.0 0.4577401179
Zn  Zn3  1  0.95824000  0.21660000  0.93919000  1.0 0.4577401179
Zn  Zn4  1  0.78340000  0.04176000  0.43919000  1.0 0.4577401179
Zn  Zn5  1  0.32934000  0.97180000  0.27818000  1.0 0.3366761864
Zn  Zn6  1  0.02820000  0.67066000  0.77818000  1.0 0.3366761864
Zn  Zn7  1  0.29472000  0.45188000  0.40201000  1.0 0.4577401179
Zn  Zn8  1  0.54812000  0.70528000  0.90201000  1.0 0.4577401179
Zn  Zn9  1  0.21660000  0.95824000  0.56081000  1.0 0.4577401179
Zn  Zn10  1  0.04176000  0.78340000  0.06081000  1.0 0.4577401179
Zn  Zn11  1  0.97180000  0.32934000  0.22182000  1.0 0.3347470324
Zn  Zn12  1  0.67066000  0.02820000  0.72182000  1.0 0.3366761864
H  H1  1  0.93340000  0.57760000  0.86660000  1.0 0.0889156508
H  H2  1  0.42240000  0.06660000  0.36660000  1.0 0.0889156508
H  H3  1  0.86460000  0.59220000  0.91520000  1.0 0.1320934995
H  H4  1  0.40780000  0.13540000  0.41520000  1.0 0.1320934995
H  H5  1  0.53020000  0.20500000  0.15080000  1.0 0.1088538884
H  H6  1  0.79500000  0.46980000  0.65080000  1.0 0.1088538884
H  H7  1  0.70790000  0.17990000  0.30510000  1.0 0.1088538884
H  H8  1  0.82010000  0.29210000  0.80510000  1.0 0.1088538884
H  H9  1  0.70850000  0.49230000  0.98980000  1.0 0.1391470722
H  H10  1  0.50770000  0.29150000  0.48980000  1.0 0.1391470722
H  H11  1  0.90820000  0.05340000  0.00810000  1.0 0.1088538884
H  H12  1  0.94660000  0.09180000  0.50810000  1.0 0.1088538884
H  H13  1  0.98620000  0.68300000  0.23000000  1.0 0.1391470722
H  H14  1  0.31700000  0.01380000  0.73000000  1.0 0.1391470722
H  H15  1  0.64920000  0.63800000  0.02640000  1.0 0.1391470722
H  H16  1  0.36200000  0.35080000  0.52640000  1.0 0.1391470722
H  H17  1  0.88010000  0.94370000  0.87700000  1.0 0.1391470722
H  H18  1  0.05630000  0.11990000  0.37700000  1.0 0.1391470722
H  H19  1  0.53030000  0.49930000  0.06880000  1.0 0.1088538884
H  H20  1  0.50070000  0.46970000  0.56880000  1.0 0.1088538884
H  H21  1  0.94820000  0.83140000  0.84010000  1.0 0.1391470722
H  H22  1  0.16860000  0.05180000  0.34010000  1.0 0.1391470722
H  H23  1  0.68920000  0.06160000  0.35330000  1.0 0.0981890821
H  H24  1  0.93840000  0.31080000  0.85330000  1.0 0.0981890821
H  H25  1  0.74630000  0.51190000  0.20120000  1.0 0.1391470722
H  H26  1  0.48810000  0.25370000  0.70120000  1.0 0.1391470722
H  H27  1  0.91330000  0.08470000  0.87740000  1.0 0.1088538884
H  H28  1  0.91530000  0.08670000  0.37740000  1.0 0.1088538884
H  H29  1  0.00810000  0.80590000  0.79180000  1.0 0.1088538884
H  H30  1  0.19410000  0.99190000  0.29180000  1.0 0.1088538884
H  H31  1  0.09610000  0.62110000  0.33770000  1.0 0.1391470722
H  H32  1  0.37890000  0.90390000  0.83770000  1.0 0.1391470722
H  H33  1  0.23790000  0.78090000  0.33430000  1.0 0.0981890821
H  H34  1  0.21910000  0.76210000  0.83430000  1.0 0.0981890821
H  H35  1  0.95040000  0.38140000  0.37980000  1.0 0.1320934995
H  H36  1  0.61860000  0.04960000  0.87980000  1.0 0.1320934995
H  H37  1  0.92270000  0.25730000  0.42730000  1.0 0.1088538884
H  H38  1  0.74270000  0.07730000  0.92730000  1.0 0.1088538884
H  H39  1  0.61760000  0.46000000  0.14930000  1.0 0.1088538884
H  H40  1  0.54000000  0.38240000  0.64930000  1.0 0.1088538884
H  H41  1  0.58880000  0.35880000  0.03330000  1.0 0.1088538884
H  H42  1  0.64120000  0.41120000  0.53330000  1.0 0.1088538884
H  H43  1  0.65050000  0.24610000  0.20620000  1.0 0.1195496629
H  H44  1  0.75390000  0.34950000  0.70620000  1.0 0.1195496629
H  H45  1  0.87010000  0.90950000  0.01120000  1.0 0.1391470722
H  H46  1  0.09050000  0.12990000  0.51120000  1.0 0.1391470722
H  H47  1  0.13260000  0.84100000  0.22910000  1.0 0.0981890821
H  H48  1  0.15900000  0.86740000  0.72910000  1.0 0.0981890821
H  H49  1  0.57760000  0.93340000  0.63340000  1.0 0.0889156508
H  H50  1  0.06660000  0.42240000  0.13340000  1.0 0.0889156508
H  H51  1  0.59220000  0.86460000  0.58480000  1.0 0.1320934995
H  H52  1  0.13540000  0.40780000  0.08480000  1.0 0.1320934995
H  H53  1  0.20500000  0.53020000  0.34920000  1.0 0.1088538884
H  H54  1  0.46980000  0.79500000  0.84920000  1.0 0.1088538884
H  H55  1  0.17990000  0.70790000  0.19490000  1.0 0.1088538884
H  H56  1  0.29210000  0.82010000  0.69490000  1.0 0.1088538884
H  H57  1  0.49230000  0.70850000  0.51020000  1.0 0.1391470722
H  H58  1  0.29150000  0.50770000  0.01020000  1.0 0.1391470722
H  H59  1  0.05340000  0.90820000  0.49190000  1.0 0.1088538884
H  H60  1  0.09180000  0.94660000  0.99190000  1.0 0.1088538884
H  H61  1  0.68300000  0.98620000  0.27000000  1.0 0.1391470722
H  H62  1  0.01380000  0.31700000  0.77000000  1.0 0.1391470722
H  H63  1  0.63800000  0.64920000  0.47360000  1.0 0.1391470722
H  H64  1  0.35080000  0.36200000  0.97360000  1.0 0.1391470722
H  H65  1  0.94370000  0.88010000  0.62300000  1.0 0.1391470722
H  H66  1  0.11990000  0.05630000  0.12300000  1.0 0.1391470722
H  H67  1  0.49930000  0.53030000  0.43120000  1.0 0.1088538884
H  H68  1  0.46970000  0.50070000  0.93120000  1.0 0.1088538884
H  H69  1  0.83140000  0.94820000  0.65990000  1.0 0.1391470722
H  H70  1  0.05180000  0.16860000  0.15990000  1.0 0.1391470722
H  H71  1  0.06160000  0.68920000  0.14670000  1.0 0.0981890821
H  H72  1  0.31080000  0.93840000  0.64670000  1.0 0.0981890821
H  H73  1  0.51190000  0.74630000  0.29880000  1.0 0.1391470722
H  H74  1  0.25370000  0.48810000  0.79880000  1.0 0.1391470722
H  H75  1  0.08470000  0.91330000  0.62260000  1.0 0.1088538884
H  H76  1  0.08670000  0.91530000  0.12260000  1.0 0.1088538884
H  H77  1  0.80590000  0.00810000  0.70820000  1.0 0.1088538884
H  H78  1  0.99190000  0.19410000  0.20820000  1.0 0.1088538884
H  H79  1  0.62110000  0.09610000  0.16230000  1.0 0.1391470722
H  H80  1  0.90390000  0.37890000  0.66230000  1.0 0.1391470722
H  H81  1  0.78090000  0.23790000  0.16570000  1.0 0.0981890821
H  H82  1  0.76210000  0.21910000  0.66570000  1.0 0.0981890821
H  H83  1  0.38140000  0.95040000  0.12020000  1.0 0.1320934995
H  H84  1  0.04960000  0.61860000  0.62020000  1.0 0.1320934995
H  H85  1  0.25730000  0.92270000  0.07270000  1.0 0.1088538884
H  H86  1  0.07730000  0.74270000  0.57270000  1.0 0.1088538884
H  H87  1  0.46000000  0.61760000  0.35070000  1.0 0.1088538884
H  H88  1  0.38240000  0.54000000  0.85070000  1.0 0.1088538884
H  H89  1  0.35880000  0.58880000  0.46670000  1.0 0.1088538884
H  H90  1  0.41120000  0.64120000  0.96670000  1.0 0.1088538884
H  H91  1  0.24610000  0.65050000  0.29380000  1.0 0.1195496629
H  H92  1  0.34950000  0.75390000  0.79380000  1.0 0.1195496629
H  H93  1  0.90950000  0.87010000  0.48880000  1.0 0.1391470722
H  H94  1  0.12990000  0.09050000  0.98880000  1.0 0.1391470722
H  H95  1  0.84100000  0.13260000  0.27090000  1.0 0.0981890821
H  H96  1  0.86740000  0.15900000  0.77090000  1.0 0.0981890821
C  C1  1  0.02497000  0.63263000  0.28313000  1.0 0.058650074
C  C2  1  0.36737000  0.97503000  0.78313000  1.0 0.058650074
C  C3  1  0.69094000  0.57946000  0.00255000  1.0 0.0724140571
C  C4  1  0.42054000  0.30906000  0.50255000  1.0 0.0724140571
C  C5  1  0.93493000  0.62807000  0.86109000  1.0 0.079465372
C  C6  1  0.37193000  0.06507000  0.36109000  1.0 0.079465372
C  C7  1  0.71095000  0.38345000  0.21011000  1.0 0.0514217557
C  C8  1  0.61655000  0.28905000  0.71011000  1.0 0.0514217557
C  C9  1  0.93334000  0.52846000  0.28190000  1.0 0.3503874551
C  C10  1  0.47154000  0.06666000  0.78190000  1.0 0.3503874551
C  C11  1  0.78844000  0.41216000  0.24616000  1.0 0.3692837338
C  C12  1  0.58784000  0.21156000  0.74616000  1.0 0.3692837338
C  C13  1  0.86025000  0.72715000  0.91601000  1.0 0.3692837338
C  C14  1  0.27285000  0.13975000  0.41601000  1.0 0.3762722354
C  C15  1  0.76577000  0.66543000  0.97305000  1.0 0.3692837338
C  C16  1  0.33457000  0.23423000  0.47305000  1.0 0.3692837338
C  C17  1  0.89487000  0.63733000  0.89066000  1.0 -0.1236525019
C  C18  1  0.36267000  0.10513000  0.39066000  1.0 -0.1236525019
C  C19  1  0.57317000  0.26663000  0.16160000  1.0 0.0889156508
C  C20  1  0.73337000  0.42683000  0.66160000  1.0 0.0889156508
C  C21  1  0.84928000  0.81972000  0.94525000  1.0 0.3692837338
C  C22  1  0.18028000  0.15072000  0.44525000  1.0 0.3692837338
C  C23  1  0.89994000  0.71426000  0.88367000  1.0 0.0724140571
C  C24  1  0.28574000  0.10006000  0.38367000  1.0 0.0724140571
C  C25  1  0.75321000  0.19739000  0.32939000  1.0 -0.161202719
C  C26  1  0.80261000  0.24679000  0.82939000  1.0 -0.161202719
C  C27  1  0.67272000  0.49508000  0.00537000  1.0 -0.1334162065
C  C28  1  0.50492000  0.32728000  0.50537000  1.0 -0.1334162065
C  C29  1  0.90220000  0.03080000  0.98156000  1.0 0.079465372
C  C30  1  0.96920000  0.09780000  0.48156000  1.0 0.079465372
C  C31  1  0.03685000  0.70115000  0.25112000  1.0 -0.1507439734
C  C32  1  0.29885000  0.96315000  0.75112000  1.0 -0.1507439734
C  C33  1  0.63754000  0.58186000  0.02702000  1.0 -0.1507439734
C  C34  1  0.41814000  0.36246000  0.52702000  1.0 -0.1507439734
C  C35  1  0.87253000  0.91147000  0.94436000  1.0 0.058650074
C  C36  1  0.08853000  0.12747000  0.44436000  1.0 0.058650074
C  C37  1  0.88529000  0.96471000  0.90396000  1.0 -0.1334162065
C  C38  1  0.03529000  0.11471000  0.40396000  1.0 -0.1334162065
C  C39  1  0.56652000  0.49828000  0.05243000  1.0 0.079465372
C  C40  1  0.50172000  0.43348000  0.55243000  1.0 0.079465372
C  C41  1  0.94362000  0.77898000  0.84584000  1.0 -0.1394356376
C  C42  1  0.22102000  0.05638000  0.34584000  1.0 -0.1394356376
C  C43  1  0.74209000  0.12671000  0.35871000  1.0 0.0724140571
C  C44  1  0.87329000  0.25791000  0.85871000  1.0 0.079465372
C  C45  1  0.70215000  0.44865000  0.19217000  1.0 -0.1394356376
C  C46  1  0.55135000  0.29785000  0.69217000  1.0 -0.1394356376
C  C47  1  0.90590000  0.04950000  0.90453000  1.0 0.0889156508
C  C48  1  0.95050000  0.09410000  0.40453000  1.0 0.0889156508
C  C49  1  0.97983000  0.76357000  0.81732000  1.0 0.079465372
C  C50  1  0.23643000  0.02017000  0.31732000  1.0 0.079465372
C  C51  1  0.10220000  0.66460000  0.31519000  1.0 -0.161202719
C  C52  1  0.33540000  0.89780000  0.81519000  1.0 -0.161202719
C  C53  1  0.84703000  0.37117000  0.30476000  1.0 0.3762722354
C  C54  1  0.62883000  0.15297000  0.80476000  1.0 0.3762722354
C  C55  1  0.18670000  0.76050000  0.31300000  1.0 0.058650074
C  C56  1  0.23950000  0.81330000  0.81300000  1.0 0.058650074
C  C57  1  0.89675000  0.31685000  0.37387000  1.0 -0.1394356376
C  C58  1  0.68315000  0.10325000  0.87387000  1.0 -0.1394356376
C  C59  1  0.87987000  0.24193000  0.40213000  1.0 0.0981890821
C  C60  1  0.75807000  0.12013000  0.90213000  1.0 0.0981890821
C  C61  1  0.62571000  0.41729000  0.16037000  1.0 0.0889156508
C  C62  1  0.58271000  0.37429000  0.66037000  1.0 0.0889156508
C  C63  1  0.60096000  0.41544000  0.03148000  1.0 0.0724140571
C  C64  1  0.58456000  0.39904000  0.53148000  1.0 0.079465372
C  C65  1  0.64566000  0.29094000  0.19464000  1.0 -0.161202719
C  C66  1  0.70906000  0.35434000  0.69464000  1.0 -0.161202719
C  C67  1  0.88000000  0.94480000  0.98374000  1.0 -0.1394356376
C  C68  1  0.05520000  0.12000000  0.48374000  1.0 -0.1394356376
C  C69  1  0.12461000  0.79599000  0.25116000  1.0 0.079465372
C  C70  1  0.20401000  0.87539000  0.75116000  1.0 0.079465372
C  C71  1  0.83250000  0.29430000  0.33661000  1.0 0.0514217557
C  C72  1  0.70570000  0.16750000  0.83661000  1.0 0.0514217557
C  C73  1  0.63263000  0.02497000  0.21687000  1.0 0.058650074
C  C74  1  0.97503000  0.36737000  0.71687000  1.0 0.058650074
C  C75  1  0.57946000  0.69094000  0.49745000  1.0 0.0724140571
C  C76  1  0.30906000  0.42054000  0.99745000  1.0 0.0724140571
C  C77  1  0.62807000  0.93493000  0.63891000  1.0 0.079465372
C  C78  1  0.06507000  0.37193000  0.13891000  1.0 0.079465372
C  C79  1  0.38345000  0.71095000  0.28989000  1.0 0.0514217557
C  C80  1  0.28905000  0.61655000  0.78989000  1.0 0.0514217557
C  C81  1  0.52846000  0.93334000  0.21810000  1.0 0.3503874551
C  C82  1  0.06666000  0.47154000  0.71810000  1.0 0.3503874551
C  C83  1  0.41216000  0.78844000  0.25384000  1.0 0.3692837338
C  C84  1  0.21156000  0.58784000  0.75384000  1.0 0.3692837338
C  C85  1  0.72715000  0.86025000  0.58399000  1.0 0.3692837338
C  C86  1  0.13975000  0.27285000  0.08399000  1.0 0.3692837338
C  C87  1  0.66543000  0.76577000  0.52695000  1.0 0.3692837338
C  C88  1  0.23423000  0.33457000  0.02695000  1.0 0.3692837338
C  C89  1  0.63733000  0.89487000  0.60934000  1.0 -0.1236525019
C  C90  1  0.10513000  0.36267000  0.10934000  1.0 -0.1236525019
C  C91  1  0.26663000  0.57317000  0.33840000  1.0 0.0889156508
C  C92  1  0.42683000  0.73337000  0.83840000  1.0 0.0889156508
C  C93  1  0.81972000  0.84928000  0.55475000  1.0 0.3692837338
C  C94  1  0.15072000  0.18028000  0.05475000  1.0 0.3692837338
C  C95  1  0.71426000  0.89994000  0.61633000  1.0 0.0724140571
C  C96  1  0.10006000  0.28574000  0.11633000  1.0 0.0724140571
C  C97  1  0.19739000  0.75321000  0.17061000  1.0 -0.161202719
C  C98  1  0.24679000  0.80261000  0.67061000  1.0 -0.161202719
C  C99  1  0.49508000  0.67272000  0.49463000  1.0 -0.1334162065
C  C100  1  0.32728000  0.50492000  0.99463000  1.0 -0.1334162065
C  C101  1  0.03080000  0.90220000  0.51844000  1.0 0.079465372
C  C102  1  0.09780000  0.96920000  0.01844000  1.0 0.079465372
C  C103  1  0.70115000  0.03685000  0.24888000  1.0 -0.1507439734
C  C104  1  0.96315000  0.29885000  0.74888000  1.0 -0.1507439734
C  C105  1  0.58186000  0.63754000  0.47298000  1.0 -0.1507439734
C  C106  1  0.36246000  0.41814000  0.97298000  1.0 -0.1507439734
C  C107  1  0.91147000  0.87253000  0.55564000  1.0 0.058650074
C  C108  1  0.12747000  0.08853000  0.05564000  1.0 0.058650074
C  C109  1  0.96471000  0.88529000  0.59604000  1.0 -0.1334162065
C  C110  1  0.11471000  0.03529000  0.09604000  1.0 -0.1334162065
C  C111  1  0.49828000  0.56652000  0.44757000  1.0 0.079465372
C  C112  1  0.43348000  0.50172000  0.94757000  1.0 0.079465372
C  C113  1  0.77898000  0.94362000  0.65416000  1.0 -0.1394356376
C  C114  1  0.05638000  0.22102000  0.15416000  1.0 -0.1394356376
C  C115  1  0.12671000  0.74209000  0.14129000  1.0 0.0724140571
C  C116  1  0.25791000  0.87329000  0.64129000  1.0 0.079465372
C  C117  1  0.44865000  0.70215000  0.30783000  1.0 -0.1394356376
C  C118  1  0.29785000  0.55135000  0.80783000  1.0 -0.1394356376
C  C119  1  0.04950000  0.90590000  0.59547000  1.0 0.0889156508
C  C120  1  0.09410000  0.95050000  0.09547000  1.0 0.0889156508
C  C121  1  0.76357000  0.97983000  0.68268000  1.0 0.079465372
C  C122  1  0.02017000  0.23643000  0.18268000  1.0 0.079465372
C  C123  1  0.66460000  0.10220000  0.18481000  1.0 -0.161202719
C  C124  1  0.89780000  0.33540000  0.68481000  1.0 -0.161202719
C  C125  1  0.37117000  0.84703000  0.19524000  1.0 0.3762722354
C  C126  1  0.15297000  0.62883000  0.69524000  1.0 0.3762722354
C  C127  1  0.76050000  0.18670000  0.18700000  1.0 0.058650074
C  C128  1  0.81330000  0.23950000  0.68700000  1.0 0.058650074
C  C129  1  0.31685000  0.89675000  0.12613000  1.0 -0.1394356376
C  C130  1  0.10325000  0.68315000  0.62613000  1.0 -0.1394356376
C  C131  1  0.24193000  0.87987000  0.09787000  1.0 0.0981890821
C  C132  1  0.12013000  0.75807000  0.59787000  1.0 0.0981890821
C  C133  1  0.41729000  0.62571000  0.33963000  1.0 0.0889156508
C  C134  1  0.37429000  0.58271000  0.83963000  1.0 0.0889156508
C  C135  1  0.41544000  0.60096000  0.46852000  1.0 0.0724140571
C  C136  1  0.39904000  0.58456000  0.96852000  1.0 0.079465372
C  C137  1  0.29094000  0.64566000  0.30536000  1.0 -0.161202719
C  C138  1  0.35434000  0.70906000  0.80536000  1.0 -0.161202719
C  C139  1  0.94480000  0.88000000  0.51626000  1.0 -0.1394356376
C  C140  1  0.12000000  0.05520000  0.01626000  1.0 -0.1394356376
C  C141  1  0.79599000  0.12461000  0.24884000  1.0 0.079465372
C  C142  1  0.87539000  0.20401000  0.74884000  1.0 0.079465372
C  C143  1  0.29430000  0.83250000  0.16339000  1.0 0.0514217557
C  C144  1  0.16750000  0.70570000  0.66339000  1.0 0.0514217557
I  I1  1  0.37895000  0.14769000  0.05840000  1.0 -0.4216922601
I  I2  1  0.85231000  0.62105000  0.55840000  1.0 -0.4216922601
I  I3  1  0.36404000  0.32244000  0.13481000  1.0 -0.432487144
I  I4  1  0.67756000  0.63596000  0.63481000  1.0 -0.432487144
I  I5  1  0.92771000  0.22951000  0.01575000  1.0 -0.4420184036
I  I6  1  0.77049000  0.07229000  0.51575000  1.0 -0.4420184036
I  I7  1  0.11499000  0.33607000  0.89862000  1.0 -0.4928867062
I  I8  1  0.66393000  0.88501000  0.39862000  1.0 -0.4928867062
I  I9  1  0.46736000  0.98026000  0.31089000  1.0 0.0514217557
I  I10  1  0.01974000  0.53264000  0.81089000  1.0 0.0514217557
I  I11  1  0.32230000  0.04490000  0.20079000  1.0 -0.4216922601
I  I12  1  0.95510000  0.67770000  0.70079000  1.0 -0.4100212544
I  I13  1  0.93870000  0.23750000  0.01150000  1.0 -0.4100212544
I  I14  1  0.76250000  0.06130000  0.51150000  1.0 -0.4100212544
I  I15  1  0.46930000  0.00370000  0.29550000  1.0 0.0388399497
I  I16  1  0.99630000  0.53070000  0.79550000  1.0 0.0388399497
I  I17  1  0.14769000  0.37895000  0.44160000  1.0 -0.4216922601
I  I18  1  0.62105000  0.85231000  0.94160000  1.0 -0.4216922601
I  I19  1  0.32244000  0.36404000  0.36519000  1.0 -0.432487144
I  I20  1  0.63596000  0.67756000  0.86519000  1.0 -0.432487144
I  I21  1  0.22951000  0.92771000  0.48425000  1.0 -0.4420184036
I  I22  1  0.07229000  0.77049000  0.98425000  1.0 -0.4420184036
I  I23  1  0.33607000  0.11499000  0.60138000  1.0 -0.4928867062
I  I24  1  0.88501000  0.66393000  0.10138000  1.0 -0.4928867062
I  I25  1  0.98026000  0.46736000  0.18911000  1.0 0.0514217557
I  I26  1  0.53264000  0.01974000  0.68911000  1.0 0.0514217557
I  I27  1  0.04490000  0.32230000  0.29921000  1.0 -0.4100212544
I  I28  1  0.67770000  0.95510000  0.79921000  1.0 -0.4100212544
I  I29  1  0.23750000  0.93870000  0.48850000  1.0 -0.4100212544
I  I30  1  0.06130000  0.76250000  0.98850000  1.0 -0.4018315216
I  I31  1  0.00370000  0.46930000  0.20450000  1.0 0.0330594006
I  I32  1  0.53070000  0.99630000  0.70450000  1.0 0.0388399497
N  N1  1  0.19953000  0.82687000  0.28146000  1.0 -0.1799459245
N  N2  1  0.17313000  0.80047000  0.78146000  1.0 -0.1799459245
N  N3  1  0.54793000  0.41687000  0.05453000  1.0 -0.1799459245
N  N4  1  0.58313000  0.45207000  0.55453000  1.0 -0.1799459245
N  N5  1  0.92752000  0.46408000  0.31111000  1.0 -0.4018315216
N  N6  1  0.53592000  0.07248000  0.81111000  1.0 -0.4018315216
N  N7  1  0.86378000  0.50682000  0.25012000  1.0 -0.4018315216
N  N8  1  0.49318000  0.13622000  0.75012000  1.0 -0.4018315216
N  N9  1  0.88570000  0.81270000  0.91401000  1.0 -0.3785607655
N  N10  1  0.18730000  0.11430000  0.41401000  1.0 -0.3785607655
N  N11  1  0.77652000  0.34068000  0.27183000  1.0 -0.4018315216
N  N12  1  0.65932000  0.22348000  0.77183000  1.0 -0.4018315216
N  N13  1  0.79920000  0.65040000  0.94434000  1.0 -0.3785607655
N  N14  1  0.34960000  0.20080000  0.44434000  1.0 -0.3785607655
N  N15  1  0.56294000  0.32866000  0.14483000  1.0 -0.1799459245
N  N16  1  0.67134000  0.43706000  0.64483000  1.0 -0.1799459245
N  N17  1  0.79073000  0.74947000  0.97620000  1.0 -0.3785607655
N  N18  1  0.25053000  0.20927000  0.47620000  1.0 -0.3785607655
N  N19  1  0.91573000  0.08327000  0.94281000  1.0 -0.1702707085
N  N20  1  0.91673000  0.08427000  0.44281000  1.0 -0.1702707085
N  N21  1  0.80415000  0.14825000  0.39435000  1.0 -0.1702707085
N  N22  1  0.85175000  0.19585000  0.89435000  1.0 -0.1702707085
N  N23  1  0.97599000  0.68981000  0.82470000  1.0 -0.1799459245
N  N24  1  0.31019000  0.02401000  0.32470000  1.0 -0.1702707085
N  N25  1  0.82687000  0.19953000  0.21854000  1.0 -0.1799459245
N  N26  1  0.80047000  0.17313000  0.71854000  1.0 -0.1799459245
N  N27  1  0.41687000  0.54793000  0.44547000  1.0 -0.1858406206
N  N28  1  0.45207000  0.58313000  0.94547000  1.0 -0.1799459245
N  N29  1  0.46408000  0.92752000  0.18889000  1.0 -0.4018315216
N  N30  1  0.07248000  0.53592000  0.68889000  1.0 -0.4018315216
N  N31  1  0.50682000  0.86378000  0.24988000  1.0 -0.4018315216
N  N32  1  0.13622000  0.49318000  0.74988000  1.0 -0.4018315216
N  N33  1  0.81270000  0.88570000  0.58599000  1.0 -0.3785607655
N  N34  1  0.11430000  0.18730000  0.08599000  1.0 -0.3785607655
N  N35  1  0.34068000  0.77652000  0.22817000  1.0 -0.4018315216
N  N36  1  0.22348000  0.65932000  0.72817000  1.0 -0.4018315216
N  N37  1  0.65040000  0.79920000  0.55566000  1.0 -0.3785607655
N  N38  1  0.20080000  0.34960000  0.05566000  1.0 -0.3785607655
N  N39  1  0.32866000  0.56294000  0.35517000  1.0 -0.1799459245
N  N40  1  0.43706000  0.67134000  0.85517000  1.0 -0.1799459245
N  N41  1  0.74947000  0.79073000  0.52380000  1.0 -0.3785607655
N  N42  1  0.20927000  0.25053000  0.02380000  1.0 -0.3785607655
N  N43  1  0.08327000  0.91573000  0.55719000  1.0 -0.1702707085
N  N44  1  0.08427000  0.91673000  0.05719000  1.0 -0.1702707085
N  N45  1  0.14825000  0.80415000  0.10565000  1.0 -0.1702707085
N  N46  1  0.19585000  0.85175000  0.60565000  1.0 -0.1702707085
N  N47  1  0.68981000  0.97599000  0.67530000  1.0 -0.1799459245
N  N48  1  0.02401000  0.31019000  0.17530000  1.0 -0.1799459245
