# DDEC6 charges by PACMAN v1.1 (https://github.com/mtap-research/PACMAN-charge/)
data_ULOKUD_ASR_pacman
_symmetry_space_group_name_H-M   'P 1'
_cell_length_a   19.38370000
_cell_length_b   19.38370000
_cell_length_c   31.37070000
_cell_angle_alpha   78.31350000
_cell_angle_beta   101.68700000
_cell_angle_gamma   134.82400000
_symmetry_Int_Tables_number   1
_chemical_formula_structural   ZnH8C12I3N4
_chemical_formula_sum   'Zn12 H96 C144 I36 N48'
_cell_volume   8156.44473210
_cell_formula_units_Z   12
loop_
 _symmetry_equiv_pos_site_id
 _symmetry_equiv_pos_as_xyz
  1  'x, y, z'
loop_
 _atom_site_type_symbol
 _atom_site_label
 _atom_site_symmetry_multiplicity
 _atom_site_fract_x
 _atom_site_fract_y
 _atom_site_fract_z
 _atom_site_occupancy
 _atom_site_charge
Zn  Zn1  1  0.47054000  0.71018000  0.43245000  1.0 0.3683567153
Zn  Zn2  1  0.28982000  0.52946000  0.93245000  1.0 0.3683567153
Zn  Zn3  1  0.82143000  0.47123000  0.77473000  1.0 0.4434116439
Zn  Zn4  1  0.52877000  0.17857000  0.27473000  1.0 0.4434116439
Zn  Zn5  1  0.20299000  0.03309000  0.09525000  1.0 0.3217335449
Zn  Zn6  1  0.96691000  0.79701000  0.59525000  1.0 0.3217335449
Zn  Zn7  1  0.71018000  0.47054000  0.06755000  1.0 0.3683567153
Zn  Zn8  1  0.52946000  0.28982000  0.56755000  1.0 0.3683567153
Zn  Zn9  1  0.47123000  0.82143000  0.72527000  1.0 0.4434116439
Zn  Zn10  1  0.17857000  0.52877000  0.22527000  1.0 0.4434116439
Zn  Zn11  1  0.03309000  0.20299000  0.40475000  1.0 0.3217335449
Zn  Zn12  1  0.79701000  0.96691000  0.90475000  1.0 0.3217335449
H  H1  1  0.33020000  0.79320000  0.30500000  1.0 0.1183000117
H  H2  1  0.20680000  0.66980000  0.80500000  1.0 0.1183000117
H  H3  1  0.25700000  0.57000000  0.42030000  1.0 0.0818197337
H  H4  1  0.43000000  0.74300000  0.92030000  1.0 0.0818197337
H  H5  1  0.27160000  0.87280000  0.21990000  1.0 0.1183000117
H  H6  1  0.12720000  0.72840000  0.71990000  1.0 0.1183000117
H  H7  1  0.12990000  0.54250000  0.37620000  1.0 0.1183000117
H  H8  1  0.45750000  0.87010000  0.87620000  1.0 0.1183000117
H  H9  1  0.98950000  0.73210000  0.19200000  1.0 0.1183000117
H  H10  1  0.26790000  0.01050000  0.69200000  1.0 0.1183000117
H  H11  1  0.46770000  0.60550000  0.99570000  1.0 0.1001626731
H  H12  1  0.39450000  0.53230000  0.49570000  1.0 0.1001626731
H  H13  1  0.30800000  0.98660000  0.16200000  1.0 0.0818197337
H  H14  1  0.01340000  0.69200000  0.66200000  1.0 0.0818197337
H  H15  1  0.66400000  0.38140000  0.23450000  1.0 0.090615094
H  H16  1  0.61860000  0.33600000  0.73450000  1.0 0.090615094
H  H17  1  0.14300000  0.89820000  0.03370000  1.0 0.090615094
H  H18  1  0.10180000  0.85700000  0.53370000  1.0 0.090615094
H  H19  1  0.44890000  0.81090000  0.35180000  1.0 0.0818197337
H  H20  1  0.18910000  0.55110000  0.85180000  1.0 0.0818197337
H  H21  1  0.72030000  0.25230000  0.32450000  1.0 0.1001626731
H  H22  1  0.74770000  0.27970000  0.82450000  1.0 0.1001626731
H  H23  1  0.87070000  0.84630000  0.01450000  1.0 0.1298326355
H  H24  1  0.15370000  0.12930000  0.51450000  1.0 0.1298326355
H  H25  1  0.61130000  0.64570000  0.99900000  1.0 0.1298326355
H  H26  1  0.35430000  0.38870000  0.49900000  1.0 0.1298326355
H  H27  1  0.88420000  0.39120000  0.32870000  1.0 0.135262038
H  H28  1  0.60880000  0.11580000  0.82870000  1.0 0.1298326355
H  H29  1  0.00300000  0.95860000  0.05930000  1.0 0.0818197337
H  H30  1  0.04140000  0.99700000  0.55930000  1.0 0.090615094
H  H31  1  0.82740000  0.52520000  0.23620000  1.0 0.1298326355
H  H32  1  0.47480000  0.17260000  0.73620000  1.0 0.1298326355
H  H33  1  0.03530000  0.85250000  0.13810000  1.0 0.0818197337
H  H34  1  0.14750000  0.96470000  0.63810000  1.0 0.0818197337
H  H35  1  0.01440000  0.78380000  0.98770000  1.0 0.1298326355
H  H36  1  0.21620000  0.98560000  0.48770000  1.0 0.1298326355
H  H37  1  0.92380000  0.57220000  0.85870000  1.0 0.1001626731
H  H38  1  0.42780000  0.07620000  0.35870000  1.0 0.1001626731
H  H39  1  0.91230000  0.63570000  0.90670000  1.0 0.1298326355
H  H40  1  0.36430000  0.08770000  0.40670000  1.0 0.1298326355
H  H41  1  0.40720000  0.55240000  0.87480000  1.0 0.1001626731
H  H42  1  0.44760000  0.59280000  0.37480000  1.0 0.1001626731
H  H43  1  0.67030000  0.55070000  0.83690000  1.0 0.1298326355
H  H44  1  0.44930000  0.32970000  0.33690000  1.0 0.1298326355
H  H45  1  0.55160000  0.59580000  0.87400000  1.0 0.1298326355
H  H46  1  0.40420000  0.44840000  0.37400000  1.0 0.1298326355
H  H47  1  0.68960000  0.48880000  0.79050000  1.0 0.1001626731
H  H48  1  0.51120000  0.31040000  0.29050000  1.0 0.1001626731
H  H49  1  0.79320000  0.33020000  0.19500000  1.0 0.1183000117
H  H50  1  0.66980000  0.20680000  0.69500000  1.0 0.1183000117
H  H51  1  0.57000000  0.25700000  0.07970000  1.0 0.0818197337
H  H52  1  0.74300000  0.43000000  0.57970000  1.0 0.0818197337
H  H53  1  0.87280000  0.27160000  0.28010000  1.0 0.1183000117
H  H54  1  0.72840000  0.12720000  0.78010000  1.0 0.1183000117
H  H55  1  0.54250000  0.12990000  0.12380000  1.0 0.1183000117
H  H56  1  0.87010000  0.45750000  0.62380000  1.0 0.1183000117
H  H57  1  0.73210000  0.98950000  0.30800000  1.0 0.1183000117
H  H58  1  0.01050000  0.26790000  0.80800000  1.0 0.1183000117
H  H59  1  0.60550000  0.46770000  0.50430000  1.0 0.1001626731
H  H60  1  0.53230000  0.39450000  0.00430000  1.0 0.1001626731
H  H61  1  0.98660000  0.30800000  0.33800000  1.0 0.0818197337
H  H62  1  0.69200000  0.01340000  0.83800000  1.0 0.0818197337
H  H63  1  0.38140000  0.66400000  0.26550000  1.0 0.090615094
H  H64  1  0.33600000  0.61860000  0.76550000  1.0 0.090615094
H  H65  1  0.89820000  0.14300000  0.46630000  1.0 0.090615094
H  H66  1  0.85700000  0.10180000  0.96630000  1.0 0.090615094
H  H67  1  0.81090000  0.44890000  0.14820000  1.0 0.0818197337
H  H68  1  0.55110000  0.18910000  0.64820000  1.0 0.0818197337
H  H69  1  0.25230000  0.72030000  0.17550000  1.0 0.1001626731
H  H70  1  0.27970000  0.74770000  0.67550000  1.0 0.1001626731
H  H71  1  0.84630000  0.87070000  0.48550000  1.0 0.1298326355
H  H72  1  0.12930000  0.15370000  0.98550000  1.0 0.1298326355
H  H73  1  0.64570000  0.61130000  0.50100000  1.0 0.1298326355
H  H74  1  0.38870000  0.35430000  0.00100000  1.0 0.1298326355
H  H75  1  0.39120000  0.88420000  0.17130000  1.0 0.1298326355
H  H76  1  0.11580000  0.60880000  0.67130000  1.0 0.1298326355
H  H77  1  0.95860000  0.00300000  0.44070000  1.0 0.0818197337
H  H78  1  0.99700000  0.04140000  0.94070000  1.0 0.0818197337
H  H79  1  0.52520000  0.82740000  0.26380000  1.0 0.1298326355
H  H80  1  0.17260000  0.47480000  0.76380000  1.0 0.1298326355
H  H81  1  0.85250000  0.03530000  0.36190000  1.0 0.0818197337
H  H82  1  0.96470000  0.14750000  0.86190000  1.0 0.0818197337
H  H83  1  0.78380000  0.01440000  0.51230000  1.0 0.1298326355
H  H84  1  0.98560000  0.21620000  0.01230000  1.0 0.1298326355
H  H85  1  0.57220000  0.92380000  0.64130000  1.0 0.1001626731
H  H86  1  0.07620000  0.42780000  0.14130000  1.0 0.1001626731
H  H87  1  0.63570000  0.91230000  0.59330000  1.0 0.1298326355
H  H88  1  0.08770000  0.36430000  0.09330000  1.0 0.1298326355
H  H89  1  0.55240000  0.40720000  0.62520000  1.0 0.1001626731
H  H90  1  0.59280000  0.44760000  0.12520000  1.0 0.1001626731
H  H91  1  0.55070000  0.67030000  0.66310000  1.0 0.1298326355
H  H92  1  0.32970000  0.44930000  0.16310000  1.0 0.1298326355
H  H93  1  0.59580000  0.55160000  0.62600000  1.0 0.1298326355
H  H94  1  0.44840000  0.40420000  0.12600000  1.0 0.1298326355
H  H95  1  0.48880000  0.68960000  0.70950000  1.0 0.1001626731
H  H96  1  0.31040000  0.51120000  0.20950000  1.0 0.1001626731
C  C1  1  0.31310000  0.74650000  0.32820000  1.0 -0.1604695608
C  C2  1  0.25350000  0.68690000  0.82820000  1.0 -0.1604695608
C  C3  1  0.21448000  0.66412000  0.33540000  1.0 0.0517939938
C  C4  1  0.33588000  0.78552000  0.83540000  1.0 0.0517939938
C  C5  1  0.27160000  0.61520000  0.39680000  1.0 0.090615094
C  C6  1  0.38480000  0.72840000  0.89680000  1.0 0.090615094
C  C7  1  0.98059000  0.56561000  0.28270000  1.0 0.3605645256
C  C8  1  0.43439000  0.01941000  0.78270000  1.0 0.3605645256
C  C9  1  0.59570000  0.62170000  0.93720000  1.0 0.0385570845
C  C10  1  0.37830000  0.40430000  0.43720000  1.0 0.0385570845
C  C11  1  0.22210000  0.86630000  0.20330000  1.0 -0.1604695608
C  C12  1  0.13370000  0.77790000  0.70330000  1.0 -0.1604695608
C  C13  1  0.09717000  0.71183000  0.24830000  1.0 0.3605645256
C  C14  1  0.28817000  0.90283000  0.74830000  1.0 0.3605645256
C  C15  1  0.78146000  0.64274000  0.90930000  1.0 0.3605645256
C  C16  1  0.35726000  0.21854000  0.40930000  1.0 0.3605645256
C  C17  1  0.87480000  0.47480000  0.28350000  1.0 0.0609634848
C  C18  1  0.52520000  0.12520000  0.78350000  1.0 0.0609634848
C  C19  1  0.68820000  0.64740000  0.93780000  1.0 0.3514584707
C  C20  1  0.35260000  0.31180000  0.43780000  1.0 0.3514584707
C  C21  1  0.19410000  0.59790000  0.37030000  1.0 -0.1604695608
C  C22  1  0.40210000  0.80590000  0.87030000  1.0 -0.1604695608
C  C23  1  0.05500000  0.78360000  0.18690000  1.0 -0.1604695608
C  C24  1  0.21640000  0.94500000  0.68690000  1.0 -0.1604695608
C  C25  1  0.48400000  0.60160000  0.97090000  1.0 0.0517939938
C  C26  1  0.39840000  0.51600000  0.47090000  1.0 0.0517939938
C  C27  1  0.12550000  0.78830000  0.21250000  1.0 0.0517939938
C  C28  1  0.21170000  0.87450000  0.71250000  1.0 0.0517939938
C  C29  1  0.24340000  0.93480000  0.16840000  1.0 0.0706716662
C  C30  1  0.06520000  0.75660000  0.66840000  1.0 0.0706716662
C  C31  1  0.70890000  0.38410000  0.25380000  1.0 0.0706716662
C  C32  1  0.61590000  0.29110000  0.75380000  1.0 0.0706716662
C  C33  1  0.92720000  0.80300000  0.99540000  1.0 0.0385570845
C  C34  1  0.19700000  0.07280000  0.49540000  1.0 0.0385570845
C  C35  1  0.08710000  0.88730000  0.02970000  1.0 0.0517939938
C  C36  1  0.11270000  0.91290000  0.52970000  1.0 0.0517939938
C  C37  1  0.38380000  0.75640000  0.35650000  1.0 0.0609634848
C  C38  1  0.24360000  0.61620000  0.85650000  1.0 0.0609634848
C  C39  1  0.84318000  0.73162000  0.96510000  1.0 0.3514584707
C  C40  1  0.26838000  0.15682000  0.46510000  1.0 0.3514584707
C  C41  1  0.74220000  0.30820000  0.30680000  1.0 0.0818197337
C  C42  1  0.69180000  0.25780000  0.80680000  1.0 0.0818197337
C  C43  1  0.13800000  0.65180000  0.30490000  1.0 0.3605645256
C  C44  1  0.34820000  0.86200000  0.80490000  1.0 0.3605645256
C  C45  1  0.92570000  0.85590000  0.01780000  1.0 -0.168192784
C  C46  1  0.14410000  0.07430000  0.51780000  1.0 -0.168192784
C  C47  1  0.57050000  0.62630000  0.97320000  1.0 -0.1604695608
C  C48  1  0.37370000  0.42950000  0.47320000  1.0 -0.1604695608
C  C49  1  0.84090000  0.39150000  0.30950000  1.0 -0.168192784
C  C50  1  0.60850000  0.15910000  0.80950000  1.0 -0.168192784
C  C51  1  0.00520000  0.92280000  0.04480000  1.0 0.0349714787
C  C52  1  0.07720000  0.99480000  0.54480000  1.0 0.0385570845
C  C53  1  0.80710000  0.47070000  0.25470000  1.0 -0.1604695608
C  C54  1  0.52930000  0.19290000  0.75470000  1.0 -0.1604695608
C  C55  1  0.08300000  0.85540000  0.15420000  1.0 0.0517939938
C  C56  1  0.14460000  0.91700000  0.65420000  1.0 0.0517939938
C  C57  1  0.79200000  0.60300000  0.87760000  1.0 0.0706716662
C  C58  1  0.39700000  0.20800000  0.37760000  1.0 0.0706716662
C  C59  1  0.01060000  0.81860000  0.00180000  1.0 -0.1510553143
C  C60  1  0.18140000  0.98940000  0.50180000  1.0 -0.1510553143
C  C61  1  0.87210000  0.56810000  0.85410000  1.0 0.0706716662
C  C62  1  0.43190000  0.12790000  0.35410000  1.0 0.0706716662
C  C63  1  0.86580000  0.60660000  0.88300000  1.0 -0.1510553143
C  C64  1  0.39340000  0.13420000  0.38300000  1.0 -0.1510553143
C  C65  1  0.44870000  0.57110000  0.90030000  1.0 0.0609634848
C  C66  1  0.42890000  0.55130000  0.40030000  1.0 0.0609634848
C  C67  1  0.72310000  0.55650000  0.84190000  1.0 -0.1510553143
C  C68  1  0.44350000  0.27690000  0.34190000  1.0 -0.1510553143
C  C69  1  0.53480000  0.59620000  0.89960000  1.0 -0.1604695608
C  C70  1  0.40380000  0.46520000  0.39960000  1.0 -0.1604695608
C  C71  1  0.73540000  0.51940000  0.81420000  1.0 0.0706716662
C  C72  1  0.48060000  0.26460000  0.31420000  1.0 0.0706716662
C  C73  1  0.74650000  0.31310000  0.17180000  1.0 -0.1604695608
C  C74  1  0.68690000  0.25350000  0.67180000  1.0 -0.1604695608
C  C75  1  0.66412000  0.21448000  0.16460000  1.0 0.0517939938
C  C76  1  0.78552000  0.33588000  0.66460000  1.0 0.0517939938
C  C77  1  0.61520000  0.27160000  0.10320000  1.0 0.090615094
C  C78  1  0.72840000  0.38480000  0.60320000  1.0 0.090615094
C  C79  1  0.56561000  0.98059000  0.21730000  1.0 0.3605645256
C  C80  1  0.01941000  0.43439000  0.71730000  1.0 0.3605645256
C  C81  1  0.62170000  0.59570000  0.56280000  1.0 0.0385570845
C  C82  1  0.40430000  0.37830000  0.06280000  1.0 0.0385570845
C  C83  1  0.86630000  0.22210000  0.29670000  1.0 -0.1604695608
C  C84  1  0.77790000  0.13370000  0.79670000  1.0 -0.1604695608
C  C85  1  0.71183000  0.09717000  0.25170000  1.0 0.3605645256
C  C86  1  0.90283000  0.28817000  0.75170000  1.0 0.3605645256
C  C87  1  0.64274000  0.78146000  0.59070000  1.0 0.3605645256
C  C88  1  0.21854000  0.35726000  0.09070000  1.0 0.3605645256
C  C89  1  0.47480000  0.87480000  0.21650000  1.0 0.0609634848
C  C90  1  0.12520000  0.52520000  0.71650000  1.0 0.0609634848
C  C91  1  0.64740000  0.68820000  0.56220000  1.0 0.3514584707
C  C92  1  0.31180000  0.35260000  0.06220000  1.0 0.3514584707
C  C93  1  0.59790000  0.19410000  0.12970000  1.0 -0.1604695608
C  C94  1  0.80590000  0.40210000  0.62970000  1.0 -0.1604695608
C  C95  1  0.78360000  0.05500000  0.31310000  1.0 -0.1604695608
C  C96  1  0.94500000  0.21640000  0.81310000  1.0 -0.1604695608
C  C97  1  0.60160000  0.48400000  0.52910000  1.0 0.0517939938
C  C98  1  0.51600000  0.39840000  0.02910000  1.0 0.0517939938
C  C99  1  0.78830000  0.12550000  0.28750000  1.0 0.0517939938
C  C100  1  0.87450000  0.21170000  0.78750000  1.0 0.0517939938
C  C101  1  0.93480000  0.24340000  0.33160000  1.0 0.0706716662
C  C102  1  0.75660000  0.06520000  0.83160000  1.0 0.0706716662
C  C103  1  0.38410000  0.70890000  0.24620000  1.0 0.0706716662
C  C104  1  0.29110000  0.61590000  0.74620000  1.0 0.0706716662
C  C105  1  0.80300000  0.92720000  0.50460000  1.0 0.0385570845
C  C106  1  0.07280000  0.19700000  0.00460000  1.0 0.0385570845
C  C107  1  0.88730000  0.08710000  0.47030000  1.0 0.0517939938
C  C108  1  0.91290000  0.11270000  0.97030000  1.0 0.0517939938
C  C109  1  0.75640000  0.38380000  0.14350000  1.0 0.0609634848
C  C110  1  0.61620000  0.24360000  0.64350000  1.0 0.0609634848
C  C111  1  0.73162000  0.84318000  0.53490000  1.0 0.3514584707
C  C112  1  0.15682000  0.26838000  0.03490000  1.0 0.3514584707
C  C113  1  0.30820000  0.74220000  0.19320000  1.0 0.0818197337
C  C114  1  0.25780000  0.69180000  0.69320000  1.0 0.0818197337
C  C115  1  0.65180000  0.13800000  0.19510000  1.0 0.3605645256
C  C116  1  0.86200000  0.34820000  0.69510000  1.0 0.3605645256
C  C117  1  0.85590000  0.92570000  0.48220000  1.0 -0.168192784
C  C118  1  0.07430000  0.14410000  0.98220000  1.0 -0.168192784
C  C119  1  0.62630000  0.57050000  0.52680000  1.0 -0.1604695608
C  C120  1  0.42950000  0.37370000  0.02680000  1.0 -0.1604695608
C  C121  1  0.39150000  0.84090000  0.19050000  1.0 -0.168192784
C  C122  1  0.15910000  0.60850000  0.69050000  1.0 -0.168192784
C  C123  1  0.92280000  0.00520000  0.45520000  1.0 0.0385570845
C  C124  1  0.99480000  0.07720000  0.95520000  1.0 0.0385570845
C  C125  1  0.47070000  0.80710000  0.24530000  1.0 -0.1604695608
C  C126  1  0.19290000  0.52930000  0.74530000  1.0 -0.1604695608
C  C127  1  0.85540000  0.08300000  0.34580000  1.0 0.0517939938
C  C128  1  0.91700000  0.14460000  0.84580000  1.0 0.0517939938
C  C129  1  0.60300000  0.79200000  0.62240000  1.0 0.0706716662
C  C130  1  0.20800000  0.39700000  0.12240000  1.0 0.0706716662
C  C131  1  0.81860000  0.01060000  0.49820000  1.0 -0.1510553143
C  C132  1  0.98940000  0.18140000  0.99820000  1.0 -0.1510553143
C  C133  1  0.56810000  0.87210000  0.64590000  1.0 0.0706716662
C  C134  1  0.12790000  0.43190000  0.14590000  1.0 0.0706716662
C  C135  1  0.60660000  0.86580000  0.61700000  1.0 -0.1510553143
C  C136  1  0.13420000  0.39340000  0.11700000  1.0 -0.1510553143
C  C137  1  0.57110000  0.44870000  0.59970000  1.0 0.0609634848
C  C138  1  0.55130000  0.42890000  0.09970000  1.0 0.0609634848
C  C139  1  0.55650000  0.72310000  0.65810000  1.0 -0.1510553143
C  C140  1  0.27690000  0.44350000  0.15810000  1.0 -0.1510553143
C  C141  1  0.59620000  0.53480000  0.60040000  1.0 -0.1604695608
C  C142  1  0.46520000  0.40380000  0.10040000  1.0 -0.1604695608
C  C143  1  0.51940000  0.73540000  0.68580000  1.0 0.0706716662
C  C144  1  0.26460000  0.48060000  0.18580000  1.0 0.0706716662
I  I1  1  0.97056000  0.49692000  0.80057000  1.0 -0.4596652283
I  I2  1  0.50308000  0.02944000  0.30057000  1.0 -0.4596652283
I  I3  1  0.35411000  0.12085000  0.06143000  1.0 -0.0392359553
I  I4  1  0.87915000  0.64589000  0.56143000  1.0 -0.0392359553
I  I5  1  0.80320000  0.54102000  0.70006000  1.0 -0.4785228862
I  I6  1  0.45898000  0.19680000  0.20006000  1.0 -0.4785228862
I  I7  1  0.16836000  0.11798000  0.12924000  1.0 0.0115458525
I  I8  1  0.88202000  0.83164000  0.62924000  1.0 0.0161584274
I  I9  1  0.63000000  0.83670000  0.39506000  1.0 0.0048433443
I  I10  1  0.16330000  0.37000000  0.89506000  1.0 0.0115458525
I  I11  1  0.45153000  0.72573000  0.50677000  1.0 -0.4596652283
I  I12  1  0.27427000  0.54847000  0.00677000  1.0 -0.4596652283
I  I13  1  0.61520000  0.84200000  0.40980000  1.0 -0.0044134828
I  I14  1  0.15800000  0.38480000  0.90980000  1.0 -0.0044134828
I  I15  1  0.35779000  0.08981000  0.05535000  1.0 0.0115458525
I  I16  1  0.91019000  0.64221000  0.55535000  1.0 0.0115458525
I  I17  1  0.19475000  0.12525000  0.11589000  1.0 -0.0203620588
I  I18  1  0.87475000  0.80525000  0.61589000  1.0 -0.0203620588
I  I19  1  0.49692000  0.97056000  0.69943000  1.0 -0.4544887735
I  I20  1  0.02944000  0.50308000  0.19943000  1.0 -0.4544887735
I  I21  1  0.12085000  0.35411000  0.43857000  1.0 -0.0392359553
I  I22  1  0.64589000  0.87915000  0.93857000  1.0 -0.0392359553
I  I23  1  0.54102000  0.80320000  0.79994000  1.0 -0.4785228862
I  I24  1  0.19680000  0.45898000  0.29994000  1.0 -0.4785228862
I  I25  1  0.11798000  0.16836000  0.37076000  1.0 0.0115458525
I  I26  1  0.83164000  0.88202000  0.87076000  1.0 0.0161584274
I  I27  1  0.83670000  0.63000000  0.10494000  1.0 0.0115458525
I  I28  1  0.37000000  0.16330000  0.60494000  1.0 0.0115458525
I  I29  1  0.72573000  0.45153000  0.99323000  1.0 -0.4596652283
I  I30  1  0.54847000  0.27427000  0.49323000  1.0 -0.4596652283
I  I31  1  0.84200000  0.61520000  0.09020000  1.0 -0.0044134828
I  I32  1  0.38480000  0.15800000  0.59020000  1.0 -0.0044134828
I  I33  1  0.08981000  0.35779000  0.44465000  1.0 0.0115458525
I  I34  1  0.64221000  0.91019000  0.94465000  1.0 0.0115458525
I  I35  1  0.12525000  0.19475000  0.38411000  1.0 -0.0203620588
I  I36  1  0.80525000  0.87475000  0.88411000  1.0 -0.0203620588
N  N1  1  0.08550000  0.93890000  0.05130000  1.0 -0.1981028632
N  N2  1  0.06110000  0.91450000  0.55130000  1.0 -0.1981028632
N  N3  1  0.80786000  0.52454000  0.81940000  1.0 -0.1981028632
N  N4  1  0.47546000  0.19214000  0.31940000  1.0 -0.1981028632
N  N5  1  0.16845000  0.72335000  0.27339000  1.0 -0.4000546826
N  N6  1  0.27665000  0.83155000  0.77339000  1.0 -0.4000546826
N  N7  1  0.67731000  0.30449000  0.28010000  1.0 -0.1898078999
N  N8  1  0.69551000  0.32269000  0.78010000  1.0 -0.1898078999
N  N9  1  0.36348000  0.69172000  0.39040000  1.0 -0.1898078999
N  N10  1  0.30828000  0.63652000  0.89040000  1.0 -0.1898078999
N  N11  1  0.04396000  0.57004000  0.31080000  1.0 -0.4000546826
N  N12  1  0.42996000  0.95604000  0.81080000  1.0 -0.4000546826
N  N13  1  0.69427000  0.61393000  0.90700000  1.0 -0.4096043302
N  N14  1  0.38607000  0.30573000  0.40700000  1.0 -0.4096043302
N  N15  1  0.17510000  0.92930000  0.14410000  1.0 -0.1981028632
N  N16  1  0.07070000  0.82490000  0.64410000  1.0 -0.1981028632
N  N17  1  0.00234000  0.63566000  0.25160000  1.0 -0.4096043302
N  N18  1  0.36434000  0.99766000  0.75160000  1.0 -0.4096043302
N  N19  1  0.85866000  0.70294000  0.93640000  1.0 -0.4096043302
N  N20  1  0.29706000  0.14134000  0.43640000  1.0 -0.4096043302
N  N21  1  0.42215000  0.57245000  0.93530000  1.0 -0.1981028632
N  N22  1  0.42755000  0.57785000  0.43530000  1.0 -0.1981028632
N  N23  1  0.75837000  0.70343000  0.96870000  1.0 -0.4298684864
N  N24  1  0.29657000  0.24163000  0.46870000  1.0 -0.4298684864
N  N25  1  0.93890000  0.08550000  0.44870000  1.0 -0.1981028632
N  N26  1  0.91450000  0.06110000  0.94870000  1.0 -0.1981028632
N  N27  1  0.52454000  0.80786000  0.68060000  1.0 -0.1981028632
N  N28  1  0.19214000  0.47546000  0.18060000  1.0 -0.1981028632
N  N29  1  0.72335000  0.16845000  0.22661000  1.0 -0.4000546826
N  N30  1  0.83155000  0.27665000  0.72661000  1.0 -0.4000546826
N  N31  1  0.30449000  0.67731000  0.21990000  1.0 -0.1898078999
N  N32  1  0.32269000  0.69551000  0.71990000  1.0 -0.1898078999
N  N33  1  0.69172000  0.36348000  0.10960000  1.0 -0.1898078999
N  N34  1  0.63652000  0.30828000  0.60960000  1.0 -0.1898078999
N  N35  1  0.57004000  0.04396000  0.18920000  1.0 -0.4000546826
N  N36  1  0.95604000  0.42996000  0.68920000  1.0 -0.4000546826
N  N37  1  0.61393000  0.69427000  0.59300000  1.0 -0.4096043302
N  N38  1  0.30573000  0.38607000  0.09300000  1.0 -0.4096043302
N  N39  1  0.92930000  0.17510000  0.35590000  1.0 -0.1981028632
N  N40  1  0.82490000  0.07070000  0.85590000  1.0 -0.1981028632
N  N41  1  0.63566000  0.00234000  0.24840000  1.0 -0.4096043302
N  N42  1  0.99766000  0.36434000  0.74840000  1.0 -0.4096043302
N  N43  1  0.70294000  0.85866000  0.56360000  1.0 -0.4096043302
N  N44  1  0.14134000  0.29706000  0.06360000  1.0 -0.4096043302
N  N45  1  0.57245000  0.42215000  0.56470000  1.0 -0.1981028632
N  N46  1  0.57785000  0.42755000  0.06470000  1.0 -0.1981028632
N  N47  1  0.70343000  0.75837000  0.53130000  1.0 -0.4298684864
N  N48  1  0.24163000  0.29657000  0.03130000  1.0 -0.4298684864
