# DDEC6 charges by PACMAN v1.1 (https://github.com/mtap-research/PACMAN-charge/)
data_ULOKUD01_FSR_pacman
_symmetry_space_group_name_H-M   'P 1'
_cell_length_a   19.23060000
_cell_length_b   19.23060000
_cell_length_c   31.19200000
_cell_angle_alpha   78.57460000
_cell_angle_beta   101.42500000
_cell_angle_gamma   134.24000000
_symmetry_Int_Tables_number   1
_chemical_formula_structural   Zn4H24C36I11N12
_chemical_formula_sum   'Zn16 H96 C144 I44 N48'
_cell_volume   8070.88847183
_cell_formula_units_Z   4
loop_
 _symmetry_equiv_pos_site_id
 _symmetry_equiv_pos_as_xyz
  1  'x, y, z'
loop_
 _atom_site_type_symbol
 _atom_site_label
 _atom_site_symmetry_multiplicity
 _atom_site_fract_x
 _atom_site_fract_y
 _atom_site_fract_z
 _atom_site_occupancy
 _atom_site_charge
Zn  Zn1  1  0.97160000  0.32020000  0.22620000  1.0 0.2308861658
Zn  Zn2  1  0.67980000  0.02840000  0.72620000  1.0 0.2308861658
Zn  Zn3  1  0.03353000  0.78785000  0.06344000  1.0 0.384042314
Zn  Zn4  1  0.21215000  0.96647000  0.56344000  1.0 0.3853251749
Zn  Zn5  1  0.29601000  0.46479000  0.40604000  1.0 0.2869112257
Zn  Zn6  1  0.53521000  0.70399000  0.90604000  1.0 0.2869112257
Zn  Zn7  1  0.95970000  0.32910000  0.21800000  1.0 0.2308861658
Zn  Zn8  1  0.67090000  0.04030000  0.71800000  1.0 0.2308861658
Zn  Zn9  1  0.32020000  0.97160000  0.27380000  1.0 0.2308861658
Zn  Zn10  1  0.02840000  0.67980000  0.77380000  1.0 0.2308861658
Zn  Zn11  1  0.78785000  0.03353000  0.43656000  1.0 0.3853251749
Zn  Zn12  1  0.96647000  0.21215000  0.93656000  1.0 0.3853251749
Zn  Zn13  1  0.46479000  0.29601000  0.09396000  1.0 0.2869112257
Zn  Zn14  1  0.70399000  0.53521000  0.59396000  1.0 0.2869112257
Zn  Zn15  1  0.32910000  0.95970000  0.28200000  1.0 0.2308861658
Zn  Zn16  1  0.04030000  0.67090000  0.78200000  1.0 0.2308861658
H  H1  1  0.14700000  0.10860000  0.99700000  1.0 0.1222842611
H  H2  1  0.89140000  0.85300000  0.49700000  1.0 0.1222842611
H  H3  1  0.23010000  0.62590000  0.27860000  1.0 0.1086883497
H  H4  1  0.37410000  0.76990000  0.77860000  1.0 0.1086883497
H  H5  1  0.13180000  0.41040000  0.09100000  1.0 0.1222842611
H  H6  1  0.58960000  0.86820000  0.59100000  1.0 0.1222842611
H  H7  1  0.37350000  0.95630000  0.12370000  1.0 0.1086883497
H  H8  1  0.04370000  0.62650000  0.62370000  1.0 0.1086883497
H  H9  1  0.46320000  0.50440000  0.93930000  1.0 0.0704720013
H  H10  1  0.49560000  0.53680000  0.43930000  1.0 0.0704720013
H  H11  1  0.05280000  0.68740000  0.14860000  1.0 0.0590052007
H  H12  1  0.31260000  0.94720000  0.64860000  1.0 0.0590052007
H  H13  1  0.28870000  0.51650000  0.01540000  1.0 0.1262022916
H  H14  1  0.48350000  0.71130000  0.51540000  1.0 0.1262022916
H  H15  1  0.19140000  0.51200000  0.33880000  1.0 0.0590052007
H  H16  1  0.48800000  0.80860000  0.83880000  1.0 0.0590052007
H  H17  1  0.10750000  0.96650000  0.99920000  1.0 0.0919035885
H  H18  1  0.03350000  0.89250000  0.49920000  1.0 0.0919035885
H  H19  1  0.34590000  0.36750000  0.98350000  1.0 0.1222842611
H  H20  1  0.63250000  0.65410000  0.48350000  1.0 0.1222842611
H  H21  1  0.04630000  0.16470000  0.16170000  1.0 0.1222842611
H  H22  1  0.83530000  0.95370000  0.66170000  1.0 0.1222842611
H  H23  1  0.17310000  0.71010000  0.19570000  1.0 0.1009441146
H  H24  1  0.28990000  0.82690000  0.69570000  1.0 0.1009441146
H  H25  1  0.24930000  0.92710000  0.07490000  1.0 0.0704720013
H  H26  1  0.07290000  0.75070000  0.57490000  1.0 0.0704720013
H  H27  1  0.40510000  0.64590000  0.97020000  1.0 0.0784754965
H  H28  1  0.35410000  0.59490000  0.47020000  1.0 0.0784754965
H  H29  1  0.05520000  0.90200000  0.12080000  1.0 0.0704720013
H  H30  1  0.09800000  0.94480000  0.62080000  1.0 0.0704720013
H  H31  1  0.06970000  0.42290000  0.14050000  1.0 0.0704720013
H  H32  1  0.57710000  0.93030000  0.64050000  1.0 0.0704720013
H  H33  1  0.51400000  0.77360000  0.31220000  1.0 0.1009441146
H  H34  1  0.22640000  0.48600000  0.81220000  1.0 0.1009441146
H  H35  1  0.98650000  0.18410000  0.20780000  1.0 0.0784754965
H  H36  1  0.81590000  0.01350000  0.70780000  1.0 0.0784754965
H  H37  1  0.09900000  0.04920000  0.12480000  1.0 0.1222842611
H  H38  1  0.95080000  0.90100000  0.62480000  1.0 0.1222842611
H  H39  1  0.46810000  0.64850000  0.36500000  1.0 0.0704720013
H  H40  1  0.35150000  0.53190000  0.86500000  1.0 0.0704720013
H  H41  1  0.61370000  0.10690000  0.17250000  1.0 0.1222842611
H  H42  1  0.89310000  0.38630000  0.67250000  1.0 0.1222842611
H  H43  1  0.77610000  0.24810000  0.17580000  1.0 0.0704720013
H  H44  1  0.75190000  0.22390000  0.67580000  1.0 0.0704720013
H  H45  1  0.67520000  0.97260000  0.26450000  1.0 0.1222842611
H  H46  1  0.02740000  0.32480000  0.76450000  1.0 0.1222842611
H  H47  1  0.84040000  0.11840000  0.26510000  1.0 0.0704720013
H  H48  1  0.88160000  0.15960000  0.76510000  1.0 0.0704720013
H  H49  1  0.10860000  0.14700000  0.50300000  1.0 0.1222842611
H  H50  1  0.85300000  0.89140000  0.00300000  1.0 0.1222842611
H  H51  1  0.62590000  0.23010000  0.22140000  1.0 0.1086883497
H  H52  1  0.76990000  0.37410000  0.72140000  1.0 0.1086883497
H  H53  1  0.41040000  0.13180000  0.40900000  1.0 0.1222842611
H  H54  1  0.86820000  0.58960000  0.90900000  1.0 0.1222842611
H  H55  1  0.95630000  0.37350000  0.37630000  1.0 0.1086883497
H  H56  1  0.62650000  0.04370000  0.87630000  1.0 0.1086883497
H  H57  1  0.50440000  0.46320000  0.56070000  1.0 0.0704720013
H  H58  1  0.53680000  0.49560000  0.06070000  1.0 0.0704720013
H  H59  1  0.68740000  0.05280000  0.35140000  1.0 0.0590052007
H  H60  1  0.94720000  0.31260000  0.85140000  1.0 0.0590052007
H  H61  1  0.51650000  0.28870000  0.48460000  1.0 0.1262022916
H  H62  1  0.71130000  0.48350000  0.98460000  1.0 0.1262022916
H  H63  1  0.51200000  0.19140000  0.16120000  1.0 0.0590052007
H  H64  1  0.80860000  0.48800000  0.66120000  1.0 0.0590052007
H  H65  1  0.96650000  0.10750000  0.50080000  1.0 0.0919035885
H  H66  1  0.89250000  0.03350000  0.00080000  1.0 0.0919035885
H  H67  1  0.36750000  0.34590000  0.51650000  1.0 0.1222842611
H  H68  1  0.65410000  0.63250000  0.01650000  1.0 0.1222842611
H  H69  1  0.16470000  0.04630000  0.33830000  1.0 0.1222842611
H  H70  1  0.95370000  0.83530000  0.83830000  1.0 0.1222842611
H  H71  1  0.71010000  0.17310000  0.30430000  1.0 0.1009441146
H  H72  1  0.82690000  0.28990000  0.80430000  1.0 0.1009441146
H  H73  1  0.92710000  0.24930000  0.42510000  1.0 0.0704720013
H  H74  1  0.75070000  0.07290000  0.92510000  1.0 0.0704720013
H  H75  1  0.64590000  0.40510000  0.52980000  1.0 0.0784754965
H  H76  1  0.59490000  0.35410000  0.02980000  1.0 0.0784754965
H  H77  1  0.90200000  0.05520000  0.37920000  1.0 0.0704720013
H  H78  1  0.94480000  0.09800000  0.87920000  1.0 0.0704720013
H  H79  1  0.42290000  0.06970000  0.35950000  1.0 0.0704720013
H  H80  1  0.93030000  0.57710000  0.85950000  1.0 0.0704720013
H  H81  1  0.77360000  0.51400000  0.18780000  1.0 0.1009441146
H  H82  1  0.48600000  0.22640000  0.68780000  1.0 0.1009441146
H  H83  1  0.18410000  0.98650000  0.29220000  1.0 0.0784754965
H  H84  1  0.01350000  0.81590000  0.79220000  1.0 0.0784754965
H  H85  1  0.04920000  0.09900000  0.37520000  1.0 0.1222842611
H  H86  1  0.90100000  0.95080000  0.87520000  1.0 0.1222842611
H  H87  1  0.64850000  0.46810000  0.13500000  1.0 0.0704720013
H  H88  1  0.53190000  0.35150000  0.63500000  1.0 0.0704720013
H  H89  1  0.10690000  0.61370000  0.32750000  1.0 0.1222842611
H  H90  1  0.38630000  0.89310000  0.82750000  1.0 0.1222842611
H  H91  1  0.24810000  0.77610000  0.32420000  1.0 0.0704720013
H  H92  1  0.22390000  0.75190000  0.82420000  1.0 0.0704720013
H  H93  1  0.97260000  0.67520000  0.23550000  1.0 0.1222842611
H  H94  1  0.32480000  0.02740000  0.73550000  1.0 0.1222842611
H  H95  1  0.11840000  0.84040000  0.23490000  1.0 0.0704720013
H  H96  1  0.15960000  0.88160000  0.73490000  1.0 0.0704720013
C  C1  1  0.36360000  0.84740000  0.19540000  1.0 0.3401428867
C  C2  1  0.15260000  0.63640000  0.69540000  1.0 0.3401428867
C  C3  1  0.52140000  0.93340000  0.21880000  1.0 0.3194717679
C  C4  1  0.06660000  0.47860000  0.71880000  1.0 0.3194717679
C  C5  1  0.12670000  0.06670000  0.02340000  1.0 -0.1679639418
C  C6  1  0.93330000  0.87330000  0.52340000  1.0 -0.1679639418
C  C7  1  0.30430000  0.42590000  0.00400000  1.0 0.0383854034
C  C8  1  0.57410000  0.69570000  0.50400000  1.0 0.0383854034
C  C9  1  0.37720000  0.71180000  0.28890000  1.0 0.0704720013
C  C10  1  0.28820000  0.62280000  0.78890000  1.0 0.0704720013
C  C11  1  0.28020000  0.63320000  0.29690000  1.0 -0.1781581379
C  C12  1  0.36680000  0.71980000  0.79690000  1.0 -0.1781581379
C  C13  1  0.14600000  0.18420000  0.05980000  1.0 0.3401428867
C  C14  1  0.81580000  0.85400000  0.55980000  1.0 0.3401428867
C  C15  1  0.40650000  0.78890000  0.25230000  1.0 0.3401428867
C  C16  1  0.21110000  0.59350000  0.75230000  1.0 0.3401428867
C  C17  1  0.23190000  0.34050000  0.03410000  1.0 0.3401428867
C  C18  1  0.65950000  0.76810000  0.53410000  1.0 0.3401428867
C  C19  1  0.62670000  0.02450000  0.21710000  1.0 0.0590052007
C  C20  1  0.97550000  0.37330000  0.71710000  1.0 0.0590052007
C  C21  1  0.28690000  0.83470000  0.16430000  1.0 0.0497287761
C  C22  1  0.16530000  0.71310000  0.66430000  1.0 0.0497287761
C  C23  1  0.10300000  0.36340000  0.11550000  1.0 -0.1611084197
C  C24  1  0.63660000  0.89700000  0.61550000  1.0 -0.1611084197
C  C25  1  0.12160000  0.09300000  0.05950000  1.0 0.0383854034
C  C26  1  0.90700000  0.87840000  0.55950000  1.0 0.0383854034
C  C27  1  0.30770000  0.89970000  0.12880000  1.0 -0.1781581379
C  C28  1  0.10030000  0.69230000  0.62880000  1.0 -0.1781581379
C  C29  1  0.09980000  0.28720000  0.12110000  1.0 0.0590052007
C  C30  1  0.71280000  0.90020000  0.62110000  1.0 0.0590052007
C  C31  1  0.42660000  0.50600000  0.95480000  1.0 0.0290333045
C  C32  1  0.49400000  0.57340000  0.45480000  1.0 0.0290333045
C  C33  1  0.11880000  0.74300000  0.14310000  1.0 0.0290333045
C  C34  1  0.25700000  0.88120000  0.64310000  1.0 0.0290333045
C  C35  1  0.32290000  0.51170000  0.00000000  1.0 -0.1679639418
C  C36  1  0.48830000  0.67710000  0.50000000  1.0 -0.1679639418
C  C37  1  0.13890000  0.27750000  0.08920000  1.0 0.3401428867
C  C38  1  0.72250000  0.86110000  0.58920000  1.0 0.3401428867
C  C39  1  0.25730000  0.56470000  0.33250000  1.0 0.0383854034
C  C40  1  0.43530000  0.74270000  0.83250000  1.0 0.0383854034
C  C41  1  0.10310000  0.98230000  0.02490000  1.0 0.0201048114
C  C42  1  0.01770000  0.89690000  0.52490000  1.0 0.0201048114
C  C43  1  0.35690000  0.42450000  0.98120000  1.0 -0.1679639418
C  C44  1  0.57550000  0.64310000  0.48120000  1.0 -0.1679639418
C  C45  1  0.05290000  0.21930000  0.15680000  1.0 -0.1611084197
C  C46  1  0.78070000  0.94710000  0.65680000  1.0 -0.1611084197
C  C47  1  0.19020000  0.75600000  0.17110000  1.0 -0.1611084197
C  C48  1  0.24400000  0.80980000  0.67110000  1.0 -0.1611084197
C  C49  1  0.23320000  0.88320000  0.10030000  1.0 0.0590052007
C  C50  1  0.11680000  0.76680000  0.60030000  1.0 0.0590052007
C  C51  1  0.39230000  0.58790000  0.97300000  1.0 0.0497287761
C  C52  1  0.41210000  0.60770000  0.47300000  1.0 0.0497287761
C  C53  1  0.07350000  0.94510000  0.09490000  1.0 0.0704720013
C  C54  1  0.05490000  0.92650000  0.59490000  1.0 0.0704720013
C  C55  1  0.06580000  0.37000000  0.14460000  1.0 0.0590052007
C  C56  1  0.63000000  0.93420000  0.64460000  1.0 0.0590052007
C  C57  1  0.44700000  0.71880000  0.31590000  1.0 -0.1679639418
C  C58  1  0.28120000  0.55300000  0.81590000  1.0 -0.1679639418
C  C59  1  0.01790000  0.23110000  0.18350000  1.0 0.0290333045
C  C60  1  0.76890000  0.98210000  0.68350000  1.0 0.0290333045
C  C61  1  0.09820000  0.03260000  0.09790000  1.0 -0.1781581379
C  C62  1  0.96740000  0.90180000  0.59790000  1.0 -0.1781581379
C  C63  1  0.41950000  0.64610000  0.34850000  1.0 0.0590052007
C  C64  1  0.35390000  0.58050000  0.84850000  1.0 0.0590052007
C  C65  1  0.65900000  0.10760000  0.19180000  1.0 -0.1611084197
C  C66  1  0.89240000  0.34100000  0.69180000  1.0 -0.1611084197
C  C67  1  0.75580000  0.19140000  0.19370000  1.0 0.0383854034
C  C68  1  0.80860000  0.24420000  0.69370000  1.0 0.0383854034
C  C69  1  0.69510000  0.02810000  0.24570000  1.0 -0.1611084197
C  C70  1  0.97190000  0.30490000  0.74570000  1.0 -0.1611084197
C  C71  1  0.79350000  0.11570000  0.24610000  1.0 0.0497287761
C  C72  1  0.88430000  0.20650000  0.74610000  1.0 0.0497287761
C  C73  1  0.84740000  0.36360000  0.30460000  1.0 0.3401428867
C  C74  1  0.63640000  0.15260000  0.80460000  1.0 0.3401428867
C  C75  1  0.93340000  0.52140000  0.28120000  1.0 0.3194717679
C  C76  1  0.47860000  0.06660000  0.78120000  1.0 0.3194717679
C  C77  1  0.06670000  0.12670000  0.47660000  1.0 -0.1679639418
C  C78  1  0.87330000  0.93330000  0.97660000  1.0 -0.1679639418
C  C79  1  0.42590000  0.30430000  0.49600000  1.0 0.0383854034
C  C80  1  0.69570000  0.57410000  0.99600000  1.0 0.0383854034
C  C81  1  0.71180000  0.37720000  0.21110000  1.0 0.0704720013
C  C82  1  0.62280000  0.28820000  0.71110000  1.0 0.0704720013
C  C83  1  0.63320000  0.28020000  0.20310000  1.0 -0.1781581379
C  C84  1  0.71980000  0.36680000  0.70310000  1.0 -0.1781581379
C  C85  1  0.18420000  0.14600000  0.44020000  1.0 0.3401428867
C  C86  1  0.85400000  0.81580000  0.94020000  1.0 0.3401428867
C  C87  1  0.78890000  0.40650000  0.24770000  1.0 0.3401428867
C  C88  1  0.59350000  0.21110000  0.74770000  1.0 0.3401428867
C  C89  1  0.34050000  0.23190000  0.46590000  1.0 0.3401428867
C  C90  1  0.76810000  0.65950000  0.96590000  1.0 0.3401428867
C  C91  1  0.02450000  0.62670000  0.28290000  1.0 0.0590052007
C  C92  1  0.37330000  0.97550000  0.78290000  1.0 0.0590052007
C  C93  1  0.83470000  0.28690000  0.33570000  1.0 0.0497287761
C  C94  1  0.71310000  0.16530000  0.83570000  1.0 0.0497287761
C  C95  1  0.36340000  0.10300000  0.38450000  1.0 -0.1611084197
C  C96  1  0.89700000  0.63660000  0.88450000  1.0 -0.1611084197
C  C97  1  0.09300000  0.12160000  0.44050000  1.0 0.0383854034
C  C98  1  0.87840000  0.90700000  0.94050000  1.0 0.0383854034
C  C99  1  0.89970000  0.30770000  0.37120000  1.0 -0.1781581379
C  C100  1  0.69230000  0.10030000  0.87120000  1.0 -0.1781581379
C  C101  1  0.28720000  0.09980000  0.37890000  1.0 0.0590052007
C  C102  1  0.90020000  0.71280000  0.87890000  1.0 0.0590052007
C  C103  1  0.50600000  0.42660000  0.54520000  1.0 0.0290333045
C  C104  1  0.57340000  0.49400000  0.04520000  1.0 0.0290333045
C  C105  1  0.74300000  0.11880000  0.35690000  1.0 0.0290333045
C  C106  1  0.88120000  0.25700000  0.85690000  1.0 0.0290333045
C  C107  1  0.51170000  0.32290000  0.50000000  1.0 -0.1679639418
C  C108  1  0.67710000  0.48830000  0.00000000  1.0 -0.1679639418
C  C109  1  0.27750000  0.13890000  0.41080000  1.0 0.3401428867
C  C110  1  0.86110000  0.72250000  0.91080000  1.0 0.3401428867
C  C111  1  0.56470000  0.25730000  0.16750000  1.0 0.0383854034
C  C112  1  0.74270000  0.43530000  0.66750000  1.0 0.0383854034
C  C113  1  0.98230000  0.10310000  0.47510000  1.0 0.0201048114
C  C114  1  0.89690000  0.01770000  0.97510000  1.0 0.0201048114
C  C115  1  0.42450000  0.35690000  0.51880000  1.0 -0.1679639418
C  C116  1  0.64310000  0.57550000  0.01880000  1.0 -0.1679639418
C  C117  1  0.21930000  0.05290000  0.34320000  1.0 -0.1611084197
C  C118  1  0.94710000  0.78070000  0.84320000  1.0 -0.1611084197
C  C119  1  0.75600000  0.19020000  0.32890000  1.0 -0.1611084197
C  C120  1  0.80980000  0.24400000  0.82890000  1.0 -0.1611084197
C  C121  1  0.88320000  0.23320000  0.39970000  1.0 0.0590052007
C  C122  1  0.76680000  0.11680000  0.89970000  1.0 0.0590052007
C  C123  1  0.58790000  0.39230000  0.52700000  1.0 0.0497287761
C  C124  1  0.60770000  0.41210000  0.02700000  1.0 0.0497287761
C  C125  1  0.94510000  0.07350000  0.40510000  1.0 0.0704720013
C  C126  1  0.92650000  0.05490000  0.90510000  1.0 0.0704720013
C  C127  1  0.37000000  0.06580000  0.35540000  1.0 0.0590052007
C  C128  1  0.93420000  0.63000000  0.85540000  1.0 0.0590052007
C  C129  1  0.71880000  0.44700000  0.18410000  1.0 -0.1679639418
C  C130  1  0.55300000  0.28120000  0.68410000  1.0 -0.1679639418
C  C131  1  0.23110000  0.01790000  0.31650000  1.0 0.0290333045
C  C132  1  0.98210000  0.76890000  0.81650000  1.0 0.0290333045
C  C133  1  0.03260000  0.09820000  0.40210000  1.0 -0.1781581379
C  C134  1  0.90180000  0.96740000  0.90210000  1.0 -0.1781581379
C  C135  1  0.64610000  0.41950000  0.15150000  1.0 0.0590052007
C  C136  1  0.58050000  0.35390000  0.65150000  1.0 0.0590052007
C  C137  1  0.10760000  0.65900000  0.30820000  1.0 -0.1611084197
C  C138  1  0.34100000  0.89240000  0.80820000  1.0 -0.1611084197
C  C139  1  0.19140000  0.75580000  0.30630000  1.0 0.0383854034
C  C140  1  0.24420000  0.80860000  0.80630000  1.0 0.0383854034
C  C141  1  0.02810000  0.69510000  0.25430000  1.0 -0.1611084197
C  C142  1  0.30490000  0.97190000  0.75430000  1.0 -0.1611084197
C  C143  1  0.11570000  0.79350000  0.25390000  1.0 0.0497287761
C  C144  1  0.20650000  0.88430000  0.75390000  1.0 0.0497287761
I  I1  1  0.99538000  0.47006000  0.19827000  1.0 -0.0579113711
I  I2  1  0.52994000  0.00462000  0.69827000  1.0 -0.0579113711
I  I3  1  0.04059000  0.30317000  0.30127000  1.0 0.0201048114
I  I4  1  0.69683000  0.95941000  0.80127000  1.0 0.0290333045
I  I5  1  0.05894000  0.77498000  0.98997000  1.0 -0.4496905554
I  I6  1  0.22502000  0.94106000  0.48997000  1.0 -0.4496905554
I  I7  1  0.32684000  0.37734000  0.37133000  1.0 0.0066562793
I  I8  1  0.62266000  0.67316000  0.87133000  1.0 0.0201048114
I  I9  1  0.14551000  0.38125000  0.43986000  1.0 -0.0289780071
I  I10  1  0.61875000  0.85449000  0.93986000  1.0 -0.0289780071
I  I11  1  0.87087000  0.66255000  0.10187000  1.0 0.0201048114
I  I12  1  0.33745000  0.12913000  0.60187000  1.0 0.0201048114
I  I13  1  0.13913000  0.41067000  0.44640000  1.0 0.0066562793
I  I14  1  0.58933000  0.86087000  0.94640000  1.0 0.0201048114
I  I15  1  0.29970000  0.37190000  0.38380000  1.0 -0.0194453873
I  I16  1  0.62810000  0.70030000  0.88380000  1.0 -0.0194453873
I  I17  1  0.03930000  0.32930000  0.29240000  1.0 -0.0289780071
I  I18  1  0.67070000  0.96070000  0.79240000  1.0 -0.0289780071
I  I19  1  0.97220000  0.48360000  0.21240000  1.0 0.0590052007
I  I20  1  0.51640000  0.02780000  0.71240000  1.0 0.0590052007
I  I21  1  0.88423000  0.65117000  0.08880000  1.0 -0.0033427665
I  I22  1  0.34883000  0.11577000  0.58880000  1.0 -0.0033427665
I  I23  1  0.47006000  0.99538000  0.30173000  1.0 -0.0579113711
I  I24  1  0.00462000  0.52994000  0.80173000  1.0 -0.0579113711
I  I25  1  0.30317000  0.04059000  0.19873000  1.0 0.0201048114
I  I26  1  0.95941000  0.69683000  0.69873000  1.0 0.0290333045
I  I27  1  0.77498000  0.05894000  0.51003000  1.0 -0.4496905554
I  I28  1  0.94106000  0.22502000  0.01003000  1.0 -0.4496905554
I  I29  1  0.37734000  0.32684000  0.12867000  1.0 0.0201048114
I  I30  1  0.67316000  0.62266000  0.62867000  1.0 0.0201048114
I  I31  1  0.38125000  0.14551000  0.06014000  1.0 -0.0289780071
I  I32  1  0.85449000  0.61875000  0.56014000  1.0 -0.0289780071
I  I33  1  0.66255000  0.87087000  0.39813000  1.0 0.0201048114
I  I34  1  0.12913000  0.33745000  0.89813000  1.0 0.0201048114
I  I35  1  0.41067000  0.13913000  0.05360000  1.0 0.0066562793
I  I36  1  0.86087000  0.58933000  0.55360000  1.0 0.0201048114
I  I37  1  0.37190000  0.29970000  0.11620000  1.0 -0.0194453873
I  I38  1  0.70030000  0.62810000  0.61620000  1.0 -0.0194453873
I  I39  1  0.32930000  0.03930000  0.20760000  1.0 -0.0289780071
I  I40  1  0.96070000  0.67070000  0.70760000  1.0 -0.0289780071
I  I41  1  0.48360000  0.97220000  0.28760000  1.0 0.0590052007
I  I42  1  0.02780000  0.51640000  0.78760000  1.0 0.0590052007
I  I43  1  0.65117000  0.88423000  0.41120000  1.0 -0.0033427665
I  I44  1  0.11577000  0.34883000  0.91120000  1.0 -0.0033427665
N  N1  1  0.50000000  0.86360000  0.25000000  1.0 -0.4140776184
N  N2  1  0.13640000  0.50000000  0.75000000  1.0 -0.4140776184
N  N3  1  0.11160000  0.19120000  0.09000000  1.0 -0.4195605304
N  N4  1  0.80880000  0.88840000  0.59000000  1.0 -0.4195605304
N  N5  1  0.20400000  0.25660000  0.02920000  1.0 -0.4496905554
N  N6  1  0.74340000  0.79600000  0.52920000  1.0 -0.4496905554
N  N7  1  0.33333333  0.77590000  0.22710000  1.0 -0.431023507
N  N8  1  0.22410000  0.66666667  0.72710000  1.0 -0.431023507
N  N9  1  0.20160000  0.35600000  0.06230000  1.0 -0.431023507
N  N10  1  0.64400000  0.79840000  0.56230000  1.0 -0.431023507
N  N11  1  0.45830000  0.92990000  0.18970000  1.0 -0.431023507
N  N12  1  0.07010000  0.54170000  0.68970000  1.0 -0.431023507
N  N13  1  0.13800000  0.80640000  0.10740000  1.0 -0.2019679521
N  N14  1  0.19360000  0.86200000  0.60740000  1.0 -0.2019679521
N  N15  1  0.07350000  0.91870000  0.06080000  1.0 -0.2019679521
N  N16  1  0.08130000  0.92650000  0.56080000  1.0 -0.2019679521
N  N17  1  0.02410000  0.30650000  0.17860000  1.0 -0.2019679521
N  N18  1  0.69350000  0.97590000  0.67860000  1.0 -0.2019679521
N  N19  1  0.32730000  0.57250000  0.35780000  1.0 -0.191976979
N  N20  1  0.42750000  0.67270000  0.85780000  1.0 -0.191976979
N  N21  1  0.82330000  0.19570000  0.22040000  1.0 -0.216880129
N  N22  1  0.80430000  0.17670000  0.72040000  1.0 -0.216880129
N  N23  1  0.44280000  0.58700000  0.95060000  1.0 -0.2077765551
N  N24  1  0.41300000  0.55720000  0.45060000  1.0 -0.2077765551
N  N25  1  0.86360000  0.50000000  0.25000000  1.0 -0.4140776184
N  N26  1  0.50000000  0.13640000  0.75000000  1.0 -0.4140776184
N  N27  1  0.19120000  0.11160000  0.41000000  1.0 -0.4195605304
N  N28  1  0.88840000  0.80880000  0.91000000  1.0 -0.4195605304
N  N29  1  0.25660000  0.20400000  0.47080000  1.0 -0.4496905554
N  N30  1  0.79600000  0.74340000  0.97080000  1.0 -0.4496905554
N  N31  1  0.77590000  0.33333333  0.27290000  1.0 -0.431023507
N  N32  1  0.66666667  0.22410000  0.77290000  1.0 -0.431023507
N  N33  1  0.35600000  0.20160000  0.43770000  1.0 -0.431023507
N  N34  1  0.79840000  0.64400000  0.93770000  1.0 -0.431023507
N  N35  1  0.92990000  0.45830000  0.31030000  1.0 -0.431023507
N  N36  1  0.54170000  0.07010000  0.81030000  1.0 -0.431023507
N  N37  1  0.80640000  0.13800000  0.39260000  1.0 -0.2019679521
N  N38  1  0.86200000  0.19360000  0.89260000  1.0 -0.2019679521
N  N39  1  0.91870000  0.07350000  0.43920000  1.0 -0.2019679521
N  N40  1  0.92650000  0.08130000  0.93920000  1.0 -0.2019679521
N  N41  1  0.30650000  0.02410000  0.32140000  1.0 -0.191976979
N  N42  1  0.97590000  0.69350000  0.82140000  1.0 -0.2019679521
N  N43  1  0.57250000  0.32730000  0.14220000  1.0 -0.191976979
N  N44  1  0.67270000  0.42750000  0.64220000  1.0 -0.191976979
N  N45  1  0.19570000  0.82330000  0.27960000  1.0 -0.216880129
N  N46  1  0.17670000  0.80430000  0.77960000  1.0 -0.216880129
N  N47  1  0.58700000  0.44280000  0.54940000  1.0 -0.2019679521
N  N48  1  0.55720000  0.41300000  0.04940000  1.0 -0.2077765551
