# DDEC6 charges by PACMAN v1.1 (https://github.com/mtap-research/PACMAN-charge/)
data_ULOKEN_FSR_pacman
_symmetry_space_group_name_H-M   'P 1'
_cell_length_a   19.19750000
_cell_length_b   19.19750000
_cell_length_c   31.02750000
_cell_angle_alpha   79.00840000
_cell_angle_beta   100.99200000
_cell_angle_gamma   134.07300000
_symmetry_Int_Tables_number   1
_chemical_formula_structural   Zn3H24C36I7N12
_chemical_formula_sum   'Zn12 H96 C144 I28 N48'
_cell_volume   8037.44529885
_cell_formula_units_Z   4
loop_
 _symmetry_equiv_pos_site_id
 _symmetry_equiv_pos_as_xyz
  1  'x, y, z'
loop_
 _atom_site_type_symbol
 _atom_site_label
 _atom_site_symmetry_multiplicity
 _atom_site_fract_x
 _atom_site_fract_y
 _atom_site_fract_z
 _atom_site_occupancy
 _atom_site_charge
Zn  Zn1  1  0.29954000  0.46246000  0.40539000  1.0 0.4593742201
Zn  Zn2  1  0.53754000  0.70046000  0.90539000  1.0 0.4593742201
Zn  Zn3  1  0.97187000  0.32187000  0.22430000  1.0 0.440004469
Zn  Zn4  1  0.67813000  0.02813000  0.72430000  1.0 0.440004469
Zn  Zn5  1  0.03543000  0.78423000  0.06492000  1.0 0.3621133501
Zn  Zn6  1  0.21577000  0.96457000  0.56492000  1.0 0.3621133501
Zn  Zn7  1  0.46246000  0.29954000  0.09461000  1.0 0.4593742201
Zn  Zn8  1  0.70046000  0.53754000  0.59461000  1.0 0.4593742201
Zn  Zn9  1  0.32187000  0.97187000  0.27570000  1.0 0.440004469
Zn  Zn10  1  0.02813000  0.67813000  0.77570000  1.0 0.440004469
Zn  Zn11  1  0.78423000  0.03543000  0.43508000  1.0 0.3621133501
Zn  Zn12  1  0.96457000  0.21577000  0.93508000  1.0 0.3621133501
H  H1  1  0.47040000  0.64300000  0.36250000  1.0 0.088976142
H  H2  1  0.35700000  0.52960000  0.86250000  1.0 0.088976142
H  H3  1  0.34290000  0.36010000  0.97890000  1.0 0.1311821583
H  H4  1  0.63990000  0.65710000  0.47890000  1.0 0.1311821583
H  H5  1  0.77920000  0.24840000  0.17620000  1.0 0.1077877027
H  H6  1  0.75160000  0.22080000  0.67620000  1.0 0.1077877027
H  H7  1  0.84210000  0.12010000  0.26510000  1.0 0.1004484195
H  H8  1  0.87990000  0.15790000  0.76510000  1.0 0.1004484195
H  H9  1  0.05710000  0.41390000  0.13570000  1.0 0.1004484195
H  H10  1  0.58610000  0.94290000  0.63570000  1.0 0.1004484195
H  H11  1  0.17680000  0.71240000  0.19850000  1.0 0.1208086433
H  H12  1  0.28760000  0.82320000  0.69850000  1.0 0.1208086433
H  H13  1  0.19670000  0.51490000  0.34050000  1.0 0.1004484195
H  H14  1  0.48510000  0.80330000  0.84050000  1.0 0.1004484195
H  H15  1  0.46030000  0.49650000  0.93520000  1.0 0.1004484195
H  H16  1  0.50350000  0.53970000  0.43520000  1.0 0.1004484195
H  H17  1  0.09970000  0.95370000  0.99890000  1.0 0.1004484195
H  H18  1  0.04630000  0.90030000  0.49890000  1.0 0.1004484195
H  H19  1  0.23520000  0.63160000  0.28320000  1.0 0.1311821583
H  H20  1  0.36840000  0.76480000  0.78320000  1.0 0.1311821583
H  H21  1  0.30330000  0.51790000  0.01990000  1.0 0.1372157861
H  H22  1  0.48210000  0.69670000  0.51990000  1.0 0.1372157861
H  H23  1  0.41500000  0.64500000  0.97410000  1.0 0.1077877027
H  H24  1  0.35500000  0.58500000  0.47410000  1.0 0.1077877027
H  H25  1  0.05250000  0.16570000  0.16190000  1.0 0.1311821583
H  H26  1  0.83430000  0.94750000  0.66190000  1.0 0.1311821583
H  H27  1  0.37740000  0.95540000  0.12380000  1.0 0.1311821583
H  H28  1  0.04460000  0.62260000  0.62380000  1.0 0.1311821583
H  H29  1  0.05540000  0.68920000  0.15020000  1.0 0.0802365346
H  H30  1  0.31080000  0.94460000  0.65020000  1.0 0.0802365346
H  H31  1  0.67970000  0.97610000  0.26530000  1.0 0.1311821583
H  H32  1  0.02390000  0.32030000  0.76530000  1.0 0.1311821583
H  H33  1  0.14310000  0.10190000  0.99610000  1.0 0.1311821583
H  H34  1  0.89810000  0.85690000  0.49610000  1.0 0.1311821583
H  H35  1  0.24930000  0.92530000  0.07760000  1.0 0.1004484195
H  H36  1  0.07470000  0.75070000  0.57760000  1.0 0.1004484195
H  H37  1  0.12770000  0.40450000  0.08760000  1.0 0.1311821583
H  H38  1  0.59550000  0.87230000  0.58760000  1.0 0.1311821583
H  H39  1  0.61530000  0.10610000  0.17200000  1.0 0.1372157861
H  H40  1  0.89390000  0.38470000  0.67200000  1.0 0.1372157861
H  H41  1  0.51730000  0.76670000  0.30860000  1.0 0.1208086433
H  H42  1  0.23330000  0.48270000  0.80860000  1.0 0.1208086433
H  H43  1  0.99080000  0.18720000  0.21010000  1.0 0.1004484195
H  H44  1  0.81280000  0.00920000  0.71010000  1.0 0.1004484195
H  H45  1  0.07010000  0.90690000  0.12420000  1.0 0.088976142
H  H46  1  0.09310000  0.92990000  0.62420000  1.0 0.088976142
H  H47  1  0.11000000  0.05280000  0.12610000  1.0 0.1372157861
H  H48  1  0.94720000  0.89000000  0.62610000  1.0 0.1372157861
H  H49  1  0.64300000  0.47040000  0.13750000  1.0 0.088976142
H  H50  1  0.52960000  0.35700000  0.63750000  1.0 0.088976142
H  H51  1  0.36010000  0.34290000  0.52110000  1.0 0.1311821583
H  H52  1  0.65710000  0.63990000  0.02110000  1.0 0.1311821583
H  H53  1  0.24840000  0.77920000  0.32380000  1.0 0.1004484195
H  H54  1  0.22080000  0.75160000  0.82380000  1.0 0.1077877027
H  H55  1  0.12010000  0.84210000  0.23490000  1.0 0.1004484195
H  H56  1  0.15790000  0.87990000  0.73490000  1.0 0.1004484195
H  H57  1  0.41390000  0.05710000  0.36430000  1.0 0.1004484195
H  H58  1  0.94290000  0.58610000  0.86430000  1.0 0.1004484195
H  H59  1  0.71240000  0.17680000  0.30150000  1.0 0.1208086433
H  H60  1  0.82320000  0.28760000  0.80150000  1.0 0.1208086433
H  H61  1  0.51490000  0.19670000  0.15950000  1.0 0.1004484195
H  H62  1  0.80330000  0.48510000  0.65950000  1.0 0.1004484195
H  H63  1  0.49650000  0.46030000  0.56480000  1.0 0.1004484195
H  H64  1  0.53970000  0.50350000  0.06480000  1.0 0.1004484195
H  H65  1  0.95370000  0.09970000  0.50110000  1.0 0.1004484195
H  H66  1  0.90030000  0.04630000  0.00110000  1.0 0.1004484195
H  H67  1  0.63160000  0.23520000  0.21680000  1.0 0.1311821583
H  H68  1  0.76480000  0.36840000  0.71680000  1.0 0.1311821583
H  H69  1  0.51790000  0.30330000  0.48010000  1.0 0.1372157861
H  H70  1  0.69670000  0.48210000  0.98010000  1.0 0.1372157861
H  H71  1  0.64500000  0.41500000  0.52590000  1.0 0.1077877027
H  H72  1  0.58500000  0.35500000  0.02590000  1.0 0.1077877027
H  H73  1  0.16570000  0.05250000  0.33810000  1.0 0.1311821583
H  H74  1  0.94750000  0.83430000  0.83810000  1.0 0.1311821583
H  H75  1  0.95540000  0.37740000  0.37620000  1.0 0.1311821583
H  H76  1  0.62260000  0.04460000  0.87620000  1.0 0.1311821583
H  H77  1  0.68920000  0.05540000  0.34980000  1.0 0.0802365346
H  H78  1  0.94460000  0.31080000  0.84980000  1.0 0.0802365346
H  H79  1  0.97610000  0.67970000  0.23470000  1.0 0.1311821583
H  H80  1  0.32030000  0.02390000  0.73470000  1.0 0.1311821583
H  H81  1  0.10190000  0.14310000  0.50390000  1.0 0.1372157861
H  H82  1  0.85690000  0.89810000  0.00390000  1.0 0.1311821583
H  H83  1  0.92530000  0.24930000  0.42240000  1.0 0.1004484195
H  H84  1  0.75070000  0.07470000  0.92240000  1.0 0.1004484195
H  H85  1  0.40450000  0.12770000  0.41240000  1.0 0.1311821583
H  H86  1  0.87230000  0.59550000  0.91240000  1.0 0.1311821583
H  H87  1  0.10610000  0.61530000  0.32800000  1.0 0.1372157861
H  H88  1  0.38470000  0.89390000  0.82800000  1.0 0.1372157861
H  H89  1  0.76670000  0.51730000  0.19140000  1.0 0.1208086433
H  H90  1  0.48270000  0.23330000  0.69140000  1.0 0.1208086433
H  H91  1  0.18720000  0.99080000  0.28990000  1.0 0.1004484195
H  H92  1  0.00920000  0.81280000  0.78990000  1.0 0.1004484195
H  H93  1  0.90690000  0.07010000  0.37580000  1.0 0.088976142
H  H94  1  0.92990000  0.09310000  0.87580000  1.0 0.088976142
H  H95  1  0.05280000  0.11000000  0.37390000  1.0 0.1372157861
H  H96  1  0.89000000  0.94720000  0.87390000  1.0 0.1372157861
C  C1  1  0.42230000  0.64230000  0.34680000  1.0 0.0700000023
C  C2  1  0.35770000  0.57770000  0.84680000  1.0 0.0700000023
C  C3  1  0.38090000  0.71210000  0.28990000  1.0 0.0700000023
C  C4  1  0.28790000  0.61910000  0.78990000  1.0 0.0700000023
C  C5  1  0.30997000  0.42403000  0.00430000  1.0 0.0540098967
C  C6  1  0.57597000  0.69003000  0.50430000  1.0 0.0540098967
C  C7  1  0.52475000  0.93465000  0.21960000  1.0 0.3695918406
C  C8  1  0.06535000  0.47525000  0.71960000  1.0 0.3695918406
C  C9  1  0.28955000  0.83445000  0.16540000  1.0 0.0540098967
C  C10  1  0.16555000  0.71045000  0.66540000  1.0 0.0540098967
C  C11  1  0.14868000  0.18212000  0.05930000  1.0 0.3795896555
C  C12  1  0.81788000  0.85132000  0.55930000  1.0 0.3795896555
C  C13  1  0.35765000  0.41875000  0.97840000  1.0 -0.159918685
C  C14  1  0.58125000  0.64235000  0.47840000  1.0 -0.159918685
C  C15  1  0.75850000  0.19190000  0.19430000  1.0 0.0802365346
C  C16  1  0.80810000  0.24150000  0.69430000  1.0 0.0802365346
C  C17  1  0.79500000  0.11740000  0.24640000  1.0 0.0700000023
C  C18  1  0.88260000  0.20500000  0.74640000  1.0 0.0700000023
C  C19  1  0.23537000  0.33823000  0.03300000  1.0 0.3695918406
C  C20  1  0.66177000  0.76463000  0.53300000  1.0 0.3695918406
C  C21  1  0.05840000  0.36440000  0.14140000  1.0 0.0802365346
C  C22  1  0.63560000  0.94160000  0.64140000  1.0 0.0802365346
C  C23  1  0.36767000  0.84893000  0.19680000  1.0 0.3795896555
C  C24  1  0.15107000  0.63233000  0.69680000  1.0 0.3795896555
C  C25  1  0.19350000  0.75690000  0.17330000  1.0 -0.1381872411
C  C26  1  0.24310000  0.80650000  0.67330000  1.0 -0.1381872411
C  C27  1  0.26250000  0.56670000  0.33380000  1.0 0.088976142
C  C28  1  0.43330000  0.73750000  0.83380000  1.0 0.088976142
C  C29  1  0.09761000  0.28319000  0.11950000  1.0 0.0700000023
C  C30  1  0.71681000  0.90239000  0.61950000  1.0 0.0700000023
C  C31  1  0.40839000  0.78881000  0.25380000  1.0 0.3695918406
C  C32  1  0.21119000  0.59161000  0.75380000  1.0 0.3695918406
C  C33  1  0.12390000  0.08970000  0.05960000  1.0 0.0572106959
C  C34  1  0.91030000  0.87610000  0.55960000  1.0 0.0572106959
C  C35  1  0.42650000  0.49970000  0.95230000  1.0 0.0572106959
C  C36  1  0.50030000  0.57350000  0.45230000  1.0 0.0572106959
C  C37  1  0.10000000  0.97340000  0.02490000  1.0 0.0802365346
C  C38  1  0.02660000  0.90000000  0.52490000  1.0 0.0802365346
C  C39  1  0.28510000  0.63610000  0.29970000  1.0 -0.1476294864
C  C40  1  0.36390000  0.71490000  0.79970000  1.0 -0.1476294864
C  C41  1  0.14000000  0.27460000  0.08840000  1.0 0.3695918406
C  C42  1  0.72540000  0.86000000  0.58840000  1.0 0.3695918406
C  C43  1  0.62930000  0.02610000  0.21890000  1.0 0.0700000023
C  C44  1  0.97390000  0.37070000  0.71890000  1.0 0.0700000023
C  C45  1  0.33380000  0.51140000  0.00230000  1.0 -0.159918685
C  C46  1  0.48860000  0.66620000  0.50230000  1.0 -0.159918685
C  C47  1  0.40030000  0.58610000  0.97540000  1.0 0.0700000023
C  C48  1  0.41390000  0.59970000  0.47540000  1.0 0.0700000023
C  C49  1  0.05570000  0.21830000  0.15630000  1.0 -0.1476294864
C  C50  1  0.78170000  0.94430000  0.65630000  1.0 -0.1476294864
C  C51  1  0.31190000  0.89970000  0.12970000  1.0 -0.1381872411
C  C52  1  0.10030000  0.68810000  0.62970000  1.0 -0.1381872411
C  C53  1  0.12160000  0.74360000  0.14470000  1.0 0.0572106959
C  C54  1  0.25640000  0.87840000  0.64470000  1.0 0.0540098967
C  C55  1  0.69860000  0.03120000  0.24650000  1.0 -0.159918685
C  C56  1  0.96880000  0.30140000  0.74650000  1.0 -0.159918685
C  C57  1  0.12510000  0.06150000  0.02290000  1.0 -0.1476294864
C  C58  1  0.93850000  0.87490000  0.52290000  1.0 -0.1476294864
C  C59  1  0.23460000  0.88100000  0.10250000  1.0 0.1004484195
C  C60  1  0.11900000  0.76540000  0.60250000  1.0 0.1004484195
C  C61  1  0.09890000  0.35830000  0.11230000  1.0 -0.1381872411
C  C62  1  0.64170000  0.90110000  0.61230000  1.0 -0.1381872411
C  C63  1  0.66050000  0.10750000  0.19200000  1.0 -0.159918685
C  C64  1  0.89250000  0.33950000  0.69200000  1.0 -0.159918685
C  C65  1  0.45070000  0.71510000  0.31420000  1.0 -0.159918685
C  C66  1  0.28490000  0.54930000  0.81420000  1.0 -0.159918685
C  C67  1  0.01870000  0.23130000  0.18460000  1.0 0.0700000023
C  C68  1  0.76870000  0.98130000  0.68460000  1.0 0.0700000023
C  C69  1  0.08250000  0.94630000  0.09750000  1.0 0.088976142
C  C70  1  0.05370000  0.91750000  0.59750000  1.0 0.088976142
C  C71  1  0.10620000  0.03320000  0.09910000  1.0 -0.1476294864
C  C72  1  0.96680000  0.89380000  0.59910000  1.0 -0.1476294864
C  C73  1  0.64230000  0.42230000  0.15320000  1.0 0.0700000023
C  C74  1  0.57770000  0.35770000  0.65320000  1.0 0.0700000023
C  C75  1  0.71210000  0.38090000  0.21010000  1.0 0.0700000023
C  C76  1  0.61910000  0.28790000  0.71010000  1.0 0.0700000023
C  C77  1  0.42403000  0.30997000  0.49570000  1.0 0.0572106959
C  C78  1  0.69003000  0.57597000  0.99570000  1.0 0.0540098967
C  C79  1  0.93465000  0.52475000  0.28040000  1.0 0.3695918406
C  C80  1  0.47525000  0.06535000  0.78040000  1.0 0.3695918406
C  C81  1  0.83445000  0.28955000  0.33460000  1.0 0.0540098967
C  C82  1  0.71045000  0.16555000  0.83460000  1.0 0.0540098967
C  C83  1  0.18212000  0.14868000  0.44070000  1.0 0.3795896555
C  C84  1  0.85132000  0.81788000  0.94070000  1.0 0.3795896555
C  C85  1  0.41875000  0.35765000  0.52160000  1.0 -0.159918685
C  C86  1  0.64235000  0.58125000  0.02160000  1.0 -0.159918685
C  C87  1  0.19190000  0.75850000  0.30570000  1.0 0.0802365346
C  C88  1  0.24150000  0.80810000  0.80570000  1.0 0.0802365346
C  C89  1  0.11740000  0.79500000  0.25360000  1.0 0.0700000023
C  C90  1  0.20500000  0.88260000  0.75360000  1.0 0.0700000023
C  C91  1  0.33823000  0.23537000  0.46700000  1.0 0.3695918406
C  C92  1  0.76463000  0.66177000  0.96700000  1.0 0.3695918406
C  C93  1  0.36440000  0.05840000  0.35860000  1.0 0.0802365346
C  C94  1  0.94160000  0.63560000  0.85860000  1.0 0.0802365346
C  C95  1  0.84893000  0.36767000  0.30320000  1.0 0.3795896555
C  C96  1  0.63233000  0.15107000  0.80320000  1.0 0.3795896555
C  C97  1  0.75690000  0.19350000  0.32670000  1.0 -0.1381872411
C  C98  1  0.80650000  0.24310000  0.82670000  1.0 -0.1381872411
C  C99  1  0.56670000  0.26250000  0.16620000  1.0 0.088976142
C  C100  1  0.73750000  0.43330000  0.66620000  1.0 0.088976142
C  C101  1  0.28319000  0.09761000  0.38050000  1.0 0.0700000023
C  C102  1  0.90239000  0.71681000  0.88050000  1.0 0.0700000023
C  C103  1  0.78881000  0.40839000  0.24620000  1.0 0.3695918406
C  C104  1  0.59161000  0.21119000  0.74620000  1.0 0.3695918406
C  C105  1  0.08970000  0.12390000  0.44040000  1.0 0.0572106959
C  C106  1  0.87610000  0.91030000  0.94040000  1.0 0.0572106959
C  C107  1  0.49970000  0.42650000  0.54770000  1.0 0.0572106959
C  C108  1  0.57350000  0.50030000  0.04770000  1.0 0.0572106959
C  C109  1  0.97340000  0.10000000  0.47510000  1.0 0.0802365346
C  C110  1  0.90000000  0.02660000  0.97510000  1.0 0.0802365346
C  C111  1  0.63610000  0.28510000  0.20030000  1.0 -0.1476294864
C  C112  1  0.71490000  0.36390000  0.70030000  1.0 -0.1476294864
C  C113  1  0.27460000  0.14000000  0.41160000  1.0 0.3695918406
C  C114  1  0.86000000  0.72540000  0.91160000  1.0 0.3695918406
C  C115  1  0.02610000  0.62930000  0.28110000  1.0 0.0700000023
C  C116  1  0.37070000  0.97390000  0.78110000  1.0 0.0700000023
C  C117  1  0.51140000  0.33380000  0.49770000  1.0 -0.159918685
C  C118  1  0.66620000  0.48860000  0.99770000  1.0 -0.159918685
C  C119  1  0.58610000  0.40030000  0.52460000  1.0 0.0700000023
C  C120  1  0.59970000  0.41390000  0.02460000  1.0 0.0700000023
C  C121  1  0.21830000  0.05570000  0.34370000  1.0 -0.1476294864
C  C122  1  0.94430000  0.78170000  0.84370000  1.0 -0.1476294864
C  C123  1  0.89970000  0.31190000  0.37030000  1.0 -0.1381872411
C  C124  1  0.68810000  0.10030000  0.87030000  1.0 -0.1381872411
C  C125  1  0.74360000  0.12160000  0.35530000  1.0 0.0572106959
C  C126  1  0.87840000  0.25640000  0.85530000  1.0 0.0572106959
C  C127  1  0.03120000  0.69860000  0.25350000  1.0 -0.159918685
C  C128  1  0.30140000  0.96880000  0.75350000  1.0 -0.159918685
C  C129  1  0.06150000  0.12510000  0.47710000  1.0 -0.1476294864
C  C130  1  0.87490000  0.93850000  0.97710000  1.0 -0.1476294864
C  C131  1  0.88100000  0.23460000  0.39750000  1.0 0.1004484195
C  C132  1  0.76540000  0.11900000  0.89750000  1.0 0.1004484195
C  C133  1  0.35830000  0.09890000  0.38770000  1.0 -0.1381872411
C  C134  1  0.90110000  0.64170000  0.88770000  1.0 -0.1381872411
C  C135  1  0.10750000  0.66050000  0.30800000  1.0 -0.159918685
C  C136  1  0.33950000  0.89250000  0.80800000  1.0 -0.159918685
C  C137  1  0.71510000  0.45070000  0.18580000  1.0 -0.159918685
C  C138  1  0.54930000  0.28490000  0.68580000  1.0 -0.159918685
C  C139  1  0.23130000  0.01870000  0.31540000  1.0 0.0700000023
C  C140  1  0.98130000  0.76870000  0.81540000  1.0 0.0700000023
C  C141  1  0.94630000  0.08250000  0.40250000  1.0 0.088976142
C  C142  1  0.91750000  0.05370000  0.90250000  1.0 0.088976142
C  C143  1  0.03320000  0.10620000  0.40090000  1.0 -0.1476294864
C  C144  1  0.89380000  0.96680000  0.90090000  1.0 -0.1476294864
I  I1  1  0.32570000  0.37558000  0.36861000  1.0 -0.4483000962
I  I2  1  0.62442000  0.67430000  0.86861000  1.0 -0.4483000962
I  I3  1  0.99575000  0.47055000  0.19743000  1.0 -0.4483000962
I  I4  1  0.52945000  0.00425000  0.69743000  1.0 -0.4483000962
I  I5  1  0.14662000  0.38458000  0.43903000  1.0 -0.4550984045
I  I6  1  0.61542000  0.85338000  0.93903000  1.0 -0.4550984045
I  I7  1  0.04367000  0.30847000  0.29978000  1.0 -0.4405013723
I  I8  1  0.69153000  0.95633000  0.79978000  1.0 -0.4405013723
I  I9  1  0.05998000  0.76852000  0.99128000  1.0 -0.4405013723
I  I10  1  0.23148000  0.94002000  0.49128000  1.0 -0.4405013723
I  I11  1  0.87284000  0.66070000  0.10457000  1.0 0.0266181939
I  I12  1  0.33930000  0.12716000  0.60457000  1.0 0.0266181939
I  I13  1  0.88394000  0.64896000  0.08493000  1.0 -0.0094332989
I  I14  1  0.35104000  0.11606000  0.58493000  1.0 -0.0094332989
I  I15  1  0.37558000  0.32570000  0.13139000  1.0 -0.4483000962
I  I16  1  0.67430000  0.62442000  0.63139000  1.0 -0.4483000962
I  I17  1  0.47055000  0.99575000  0.30257000  1.0 -0.4483000962
I  I18  1  0.00425000  0.52945000  0.80257000  1.0 -0.4483000962
I  I19  1  0.38458000  0.14662000  0.06097000  1.0 -0.4550984045
I  I20  1  0.85338000  0.61542000  0.56097000  1.0 -0.4550984045
I  I21  1  0.30847000  0.04367000  0.20022000  1.0 -0.4405013723
I  I22  1  0.95633000  0.69153000  0.70022000  1.0 -0.4405013723
I  I23  1  0.76852000  0.05998000  0.50872000  1.0 -0.4405013723
I  I24  1  0.94002000  0.23148000  0.00872000  1.0 -0.4405013723
I  I25  1  0.66070000  0.87284000  0.39543000  1.0 0.0266181939
I  I26  1  0.12716000  0.33930000  0.89543000  1.0 0.0266181939
I  I27  1  0.64896000  0.88394000  0.41507000  1.0 -0.0094332989
I  I28  1  0.11606000  0.35104000  0.91507000  1.0 -0.0094332989
N  N1  1  0.82475000  0.19665000  0.22099000  1.0 -0.1815426415
N  N2  1  0.80335000  0.17525000  0.72099000  1.0 -0.1815426415
N  N3  1  0.44741000  0.58339000  0.95001000  1.0 -0.1893262307
N  N4  1  0.41661000  0.55259000  0.45001000  1.0 -0.1893262307
N  N5  1  0.33102000  0.57078000  0.35730000  1.0 -0.1709391055
N  N6  1  0.42922000  0.66898000  0.85730000  1.0 -0.1709391055
N  N7  1  0.50359000  0.86521000  0.25045000  1.0 -0.3999864549
N  N8  1  0.13479000  0.49641000  0.75045000  1.0 -0.3999864549
N  N9  1  0.14233000  0.80547000  0.10920000  1.0 -0.1815426415
N  N10  1  0.19453000  0.85767000  0.60920000  1.0 -0.1815426415
N  N11  1  0.02061000  0.30339000  0.17760000  1.0 -0.1893262307
N  N12  1  0.69661000  0.97939000  0.67760000  1.0 -0.1893262307
N  N13  1  0.33732000  0.77668000  0.22848000  1.0 -0.3903022101
N  N14  1  0.22332000  0.66268000  0.72848000  1.0 -0.3903022101
N  N15  1  0.20206000  0.35174000  0.06147000  1.0 -0.3999864549
N  N16  1  0.64826000  0.79794000  0.56147000  1.0 -0.3999864549
N  N17  1  0.46046000  0.92994000  0.19105000  1.0 -0.3999864549
N  N18  1  0.07006000  0.53954000  0.69105000  1.0 -0.3999864549
N  N19  1  0.07660000  0.91640000  0.06160000  1.0 -0.1893262307
N  N20  1  0.08360000  0.92340000  0.56160000  1.0 -0.1893262307
N  N21  1  0.11254000  0.18786000  0.08976000  1.0 -0.4112092736
N  N22  1  0.81214000  0.88746000  0.58976000  1.0 -0.4112092736
N  N23  1  0.20808000  0.25352000  0.02927000  1.0 -0.4112092736
N  N24  1  0.74648000  0.79192000  0.52927000  1.0 -0.4112092736
N  N25  1  0.19665000  0.82475000  0.27901000  1.0 -0.1815426415
N  N26  1  0.17525000  0.80335000  0.77901000  1.0 -0.1815426415
N  N27  1  0.58339000  0.44741000  0.54999000  1.0 -0.1893262307
N  N28  1  0.55259000  0.41661000  0.04999000  1.0 -0.1893262307
N  N29  1  0.57078000  0.33102000  0.14270000  1.0 -0.1709391055
N  N30  1  0.66898000  0.42922000  0.64270000  1.0 -0.1709391055
N  N31  1  0.86521000  0.50359000  0.24955000  1.0 -0.3999864549
N  N32  1  0.49641000  0.13479000  0.74955000  1.0 -0.3999864549
N  N33  1  0.80547000  0.14233000  0.39080000  1.0 -0.1815426415
N  N34  1  0.85767000  0.19453000  0.89080000  1.0 -0.1815426415
N  N35  1  0.30339000  0.02061000  0.32240000  1.0 -0.1893262307
N  N36  1  0.97939000  0.69661000  0.82240000  1.0 -0.1893262307
N  N37  1  0.77668000  0.33732000  0.27152000  1.0 -0.3903022101
N  N38  1  0.66268000  0.22332000  0.77152000  1.0 -0.3903022101
N  N39  1  0.35174000  0.20206000  0.43853000  1.0 -0.3999864549
N  N40  1  0.79794000  0.64826000  0.93853000  1.0 -0.3999864549
N  N41  1  0.92994000  0.46046000  0.30895000  1.0 -0.3999864549
N  N42  1  0.53954000  0.07006000  0.80895000  1.0 -0.3999864549
N  N43  1  0.91640000  0.07660000  0.43840000  1.0 -0.1893262307
N  N44  1  0.92340000  0.08360000  0.93840000  1.0 -0.1893262307
N  N45  1  0.18786000  0.11254000  0.41024000  1.0 -0.4112092736
N  N46  1  0.88746000  0.81214000  0.91024000  1.0 -0.4112092736
N  N47  1  0.25352000  0.20808000  0.47073000  1.0 -0.4153879722
N  N48  1  0.79192000  0.74648000  0.97073000  1.0 -0.4112092736
