# DDEC6 charges by PACMAN v1.1 (https://github.com/mtap-research/PACMAN-charge/)
data_ULOLAK_ASR_pacman
_symmetry_space_group_name_H-M   'P 1'
_cell_length_a   19.04020000
_cell_length_b   19.04020000
_cell_length_c   31.15960000
_cell_angle_alpha   79.40580000
_cell_angle_beta   100.59400000
_cell_angle_gamma   134.82200000
_symmetry_Int_Tables_number   1
_chemical_formula_structural   Zn3H24C36I7N12
_chemical_formula_sum   'Zn12 H96 C144 I28 N48'
_cell_volume   7851.98390818
_cell_formula_units_Z   4
loop_
 _symmetry_equiv_pos_site_id
 _symmetry_equiv_pos_as_xyz
  1  'x, y, z'
loop_
 _atom_site_type_symbol
 _atom_site_label
 _atom_site_symmetry_multiplicity
 _atom_site_fract_x
 _atom_site_fract_y
 _atom_site_fract_z
 _atom_site_occupancy
 _atom_site_charge
Zn  Zn1  1  0.04510000  0.21162000  0.90347000  1.0 0.3531320788
Zn  Zn2  1  0.78838000  0.95490000  0.40347000  1.0 0.3531320788
Zn  Zn3  1  0.52670000  0.27498000  0.06384000  1.0 0.461691439
Zn  Zn4  1  0.72502000  0.47330000  0.56384000  1.0 0.461691439
Zn  Zn5  1  0.17787000  0.51839000  0.72913000  1.0 0.4442613049
Zn  Zn6  1  0.48161000  0.82213000  0.22913000  1.0 0.4442613049
Zn  Zn7  1  0.21162000  0.04510000  0.59653000  1.0 0.3531320788
Zn  Zn8  1  0.95490000  0.78838000  0.09653000  1.0 0.3531320788
Zn  Zn9  1  0.27498000  0.52670000  0.43616000  1.0 0.461691439
Zn  Zn10  1  0.47330000  0.72502000  0.93616000  1.0 0.461691439
Zn  Zn11  1  0.51839000  0.17787000  0.77087000  1.0 0.4442613049
Zn  Zn12  1  0.82213000  0.48161000  0.27087000  1.0 0.4442613049
H  H1  1  0.80150000  0.45130000  0.65470000  1.0 0.1005597907
H  H2  1  0.54870000  0.19850000  0.15470000  1.0 0.1005597907
H  H3  1  0.99420000  0.31560000  0.83860000  1.0 0.1005597907
H  H4  1  0.68440000  0.00580000  0.33860000  1.0 0.1005597907
H  H5  1  0.96760000  0.00620000  0.93480000  1.0 0.0786566729
H  H6  1  0.99380000  0.03240000  0.43480000  1.0 0.0786566729
H  H7  1  0.78000000  0.32880000  0.70240000  1.0 0.1180883495
H  H8  1  0.67120000  0.22000000  0.20240000  1.0 0.1180883495
H  H9  1  0.59150000  0.25530000  0.57100000  1.0 0.1005597907
H  H10  1  0.74470000  0.40850000  0.07100000  1.0 0.1005597907
H  H11  1  0.55880000  0.12600000  0.61690000  1.0 0.1310428783
H  H12  1  0.87400000  0.44120000  0.11690000  1.0 0.1310428783
H  H13  1  0.64650000  0.60210000  0.99420000  1.0 0.1364140695
H  H14  1  0.39790000  0.35350000  0.49420000  1.0 0.1364140695
H  H15  1  0.87790000  0.27630000  0.78060000  1.0 0.1310428783
H  H16  1  0.72370000  0.12210000  0.28060000  1.0 0.1310428783
H  H17  1  0.57890000  0.92710000  0.14300000  1.0 0.1072040794
H  H18  1  0.07290000  0.42110000  0.64300000  1.0 0.1072040794
H  H19  1  0.73840000  0.98840000  0.80610000  1.0 0.1310428783
H  H20  1  0.01160000  0.26160000  0.30610000  1.0 0.1310428783
H  H21  1  0.38790000  0.65610000  0.76210000  1.0 0.1005597907
H  H22  1  0.34390000  0.61210000  0.26210000  1.0 0.1005597907
H  H23  1  0.86270000  0.03870000  0.86050000  1.0 0.0906876895
H  H24  1  0.96130000  0.13730000  0.36050000  1.0 0.0906876895
H  H25  1  0.60550000  0.45490000  0.99750000  1.0 0.1005597907
H  H26  1  0.54510000  0.39450000  0.49750000  1.0 0.1005597907
H  H27  1  0.85090000  0.86690000  0.97900000  1.0 0.1364140695
H  H28  1  0.13310000  0.14910000  0.47900000  1.0 0.1364140695
H  H29  1  0.78980000  0.01420000  0.01240000  1.0 0.1310428783
H  H30  1  0.98580000  0.21020000  0.51240000  1.0 0.1310428783
H  H31  1  0.24760000  0.71100000  0.67690000  1.0 0.1072040794
H  H32  1  0.28900000  0.75240000  0.17690000  1.0 0.1072040794
H  H33  1  0.55320000  0.66560000  0.15890000  1.0 0.1310428783
H  H34  1  0.33440000  0.44680000  0.65890000  1.0 0.1310428783
H  H35  1  0.53420000  0.82100000  0.75840000  1.0 0.1364140695
H  H36  1  0.17900000  0.46580000  0.25840000  1.0 0.1364140695
H  H37  1  0.90710000  0.14870000  0.96720000  1.0 0.1072040794
H  H38  1  0.85130000  0.09290000  0.46720000  1.0 0.1072040794
H  H39  1  0.39140000  0.87880000  0.67140000  1.0 0.1364140695
H  H40  1  0.12120000  0.60860000  0.17140000  1.0 0.1364140695
H  H41  1  0.50100000  0.68920000  0.21090000  1.0 0.1005597907
H  H42  1  0.31080000  0.49900000  0.71090000  1.0 0.1005597907
H  H43  1  0.63990000  0.91490000  0.09080000  1.0 0.1310428783
H  H44  1  0.08510000  0.36010000  0.59080000  1.0 0.1310428783
H  H45  1  0.53830000  0.39230000  0.11900000  1.0 0.1072040794
H  H46  1  0.60770000  0.46170000  0.61900000  1.0 0.1072040794
H  H47  1  0.57750000  0.53750000  0.11920000  1.0 0.1310428783
H  H48  1  0.46250000  0.42250000  0.61920000  1.0 0.1310428783
H  H49  1  0.45130000  0.80150000  0.84530000  1.0 0.1005597907
H  H50  1  0.19850000  0.54870000  0.34530000  1.0 0.1005597907
H  H51  1  0.31560000  0.99420000  0.66140000  1.0 0.1005597907
H  H52  1  0.00580000  0.68440000  0.16140000  1.0 0.1005597907
H  H53  1  0.00620000  0.96760000  0.56520000  1.0 0.0786566729
H  H54  1  0.03240000  0.99380000  0.06520000  1.0 0.0786566729
H  H55  1  0.32880000  0.78000000  0.79760000  1.0 0.1180883495
H  H56  1  0.22000000  0.67120000  0.29760000  1.0 0.1180883495
H  H57  1  0.25530000  0.59150000  0.92900000  1.0 0.1005597907
H  H58  1  0.40850000  0.74470000  0.42900000  1.0 0.1005597907
H  H59  1  0.12600000  0.55880000  0.88310000  1.0 0.1310428783
H  H60  1  0.44120000  0.87400000  0.38310000  1.0 0.1310428783
H  H61  1  0.60210000  0.64650000  0.50580000  1.0 0.1364140695
H  H62  1  0.35350000  0.39790000  0.00580000  1.0 0.1364140695
H  H63  1  0.27630000  0.87790000  0.71940000  1.0 0.1310428783
H  H64  1  0.12210000  0.72370000  0.21940000  1.0 0.1310428783
H  H65  1  0.92710000  0.57890000  0.35700000  1.0 0.1072040794
H  H66  1  0.42110000  0.07290000  0.85700000  1.0 0.1072040794
H  H67  1  0.98840000  0.73840000  0.69390000  1.0 0.1310428783
H  H68  1  0.26160000  0.01160000  0.19390000  1.0 0.1310428783
H  H69  1  0.65610000  0.38790000  0.73790000  1.0 0.1005597907
H  H70  1  0.61210000  0.34390000  0.23790000  1.0 0.1005597907
H  H71  1  0.03870000  0.86270000  0.63950000  1.0 0.0906876895
H  H72  1  0.13730000  0.96130000  0.13950000  1.0 0.0906876895
H  H73  1  0.45490000  0.60550000  0.50250000  1.0 0.1005597907
H  H74  1  0.39450000  0.54510000  0.00250000  1.0 0.1005597907
H  H75  1  0.86690000  0.85090000  0.52100000  1.0 0.1364140695
H  H76  1  0.14910000  0.13310000  0.02100000  1.0 0.1364140695
H  H77  1  0.01420000  0.78980000  0.48760000  1.0 0.1310428783
H  H78  1  0.21020000  0.98580000  0.98760000  1.0 0.1310428783
H  H79  1  0.71100000  0.24760000  0.82310000  1.0 0.1072040794
H  H80  1  0.75240000  0.28900000  0.32310000  1.0 0.1072040794
H  H81  1  0.66560000  0.55320000  0.34110000  1.0 0.1310428783
H  H82  1  0.44680000  0.33440000  0.84110000  1.0 0.1310428783
H  H83  1  0.82100000  0.53420000  0.74160000  1.0 0.1364140695
H  H84  1  0.46580000  0.17900000  0.24160000  1.0 0.1364140695
H  H85  1  0.14870000  0.90710000  0.53280000  1.0 0.1072040794
H  H86  1  0.09290000  0.85130000  0.03280000  1.0 0.1072040794
H  H87  1  0.87880000  0.39140000  0.82860000  1.0 0.1364140695
H  H88  1  0.60860000  0.12120000  0.32860000  1.0 0.1364140695
H  H89  1  0.68920000  0.50100000  0.28910000  1.0 0.1005597907
H  H90  1  0.49900000  0.31080000  0.78910000  1.0 0.1005597907
H  H91  1  0.91490000  0.63990000  0.40920000  1.0 0.1310428783
H  H92  1  0.36010000  0.08510000  0.90920000  1.0 0.1310428783
H  H93  1  0.39230000  0.53830000  0.38100000  1.0 0.1072040794
H  H94  1  0.46170000  0.60770000  0.88100000  1.0 0.1072040794
H  H95  1  0.53750000  0.57750000  0.38080000  1.0 0.1310428783
H  H96  1  0.42250000  0.46250000  0.88080000  1.0 0.1310428783
C  C1  1  0.75300000  0.38460000  0.64700000  1.0 0.0786566729
C  C2  1  0.61540000  0.24700000  0.14700000  1.0 0.0786566729
C  C3  1  0.94180000  0.24860000  0.83140000  1.0 0.0906876895
C  C4  1  0.75140000  0.05820000  0.33140000  1.0 0.0906876895
C  C5  1  0.61450000  0.58510000  0.05550000  1.0 0.0569775747
C  C6  1  0.41490000  0.38550000  0.55550000  1.0 0.0569775747
C  C7  1  0.79470000  0.12790000  0.78730000  1.0 0.0569775747
C  C8  1  0.87210000  0.20530000  0.28730000  1.0 0.0569775747
C  C9  1  0.64270000  0.68070000  0.05550000  1.0 0.3531320788
C  C10  1  0.31930000  0.35730000  0.55550000  1.0 0.3580828768
C  C11  1  0.66800000  0.21480000  0.66470000  1.0 0.0537286529
C  C12  1  0.78520000  0.33200000  0.16470000  1.0 0.0537286529
C  C13  1  0.93050000  0.00730000  0.95090000  1.0 0.0569775747
C  C14  1  0.99270000  0.06950000  0.45090000  1.0 0.0569775747
C  C15  1  0.73990000  0.31190000  0.67560000  1.0 -0.1421371412
C  C16  1  0.68810000  0.26010000  0.17560000  1.0 -0.1421371412
C  C17  1  0.63770000  0.77550000  0.08560000  1.0 0.3580828768
C  C18  1  0.22450000  0.36230000  0.58560000  1.0 0.3580828768
C  C19  1  0.65530000  0.13690000  0.69440000  1.0 0.366369955
C  C20  1  0.86310000  0.34470000  0.19440000  1.0 0.366369955
C  C21  1  0.62960000  0.26980000  0.59830000  1.0 0.0906876895
C  C22  1  0.73020000  0.37040000  0.09830000  1.0 0.0906876895
C  C23  1  0.60160000  0.78700000  0.11880000  1.0 0.0569775747
C  C24  1  0.21300000  0.39840000  0.61880000  1.0 0.0569775747
C  C25  1  0.80810000  0.92610000  0.00090000  1.0 0.0569775747
C  C26  1  0.07390000  0.19190000  0.50090000  1.0 0.0569775747
C  C27  1  0.61000000  0.19240000  0.62510000  1.0 -0.1421371412
C  C28  1  0.80760000  0.39000000  0.12510000  1.0 -0.1421371412
C  C29  1  0.62340000  0.55920000  0.02030000  1.0 -0.1509357569
C  C30  1  0.44080000  0.37660000  0.52030000  1.0 -0.1509357569
C  C31  1  0.87230000  0.22550000  0.79710000  1.0 -0.1578438954
C  C32  1  0.77450000  0.12770000  0.29710000  1.0 -0.1578438954
C  C33  1  0.71640000  0.09680000  0.75160000  1.0 0.366369955
C  C34  1  0.90320000  0.28360000  0.25160000  1.0 0.366369955
C  C35  1  0.47880000  0.86920000  0.71520000  1.0 0.0706971476
C  C36  1  0.13080000  0.52120000  0.21520000  1.0 0.0706971476
C  C37  1  0.57430000  0.87350000  0.14640000  1.0 0.0786566729
C  C38  1  0.12650000  0.42570000  0.64640000  1.0 0.0786566729
C  C39  1  0.79070000  0.05650000  0.81180000  1.0 -0.1509357569
C  C40  1  0.94350000  0.20930000  0.31180000  1.0 -0.1509357569
C  C41  1  0.38890000  0.70230000  0.74350000  1.0 0.0706971476
C  C42  1  0.29770000  0.61110000  0.24350000  1.0 0.0706971476
C  C43  1  0.86430000  0.08710000  0.84430000  1.0 0.0706971476
C  C44  1  0.91290000  0.13570000  0.34430000  1.0 0.0706971476
C  C45  1  0.59890000  0.47170000  0.02240000  1.0 0.0786566729
C  C46  1  0.52830000  0.40110000  0.52240000  1.0 0.0786566729
C  C47  1  0.86170000  0.92430000  0.97710000  1.0 -0.1509357569
C  C48  1  0.07570000  0.13830000  0.47710000  1.0 -0.1509357569
C  C49  1  0.82590000  0.01130000  0.99670000  1.0 -0.1421371412
C  C50  1  0.98870000  0.17410000  0.49670000  1.0 -0.1421371412
C  C51  1  0.30660000  0.73420000  0.69380000  1.0 0.0706971476
C  C52  1  0.26580000  0.69340000  0.19380000  1.0 0.0706971476
C  C53  1  0.57040000  0.97720000  0.71600000  1.0 0.3531320788
C  C54  1  0.02280000  0.42960000  0.21600000  1.0 0.3531320788
C  C55  1  0.56000000  0.72080000  0.15510000  1.0 -0.1509357569
C  C56  1  0.27920000  0.44000000  0.65510000  1.0 -0.1509357569
C  C57  1  0.73300000  0.83940000  0.02970000  1.0 0.3580828768
C  C58  1  0.16060000  0.26700000  0.52970000  1.0 0.3580828768
C  C59  1  0.47600000  0.80020000  0.74170000  1.0 -0.1509357569
C  C60  1  0.19980000  0.52400000  0.24170000  1.0 -0.1509357569
C  C61  1  0.89540000  0.09080000  0.96980000  1.0 0.0786566729
C  C62  1  0.90920000  0.10460000  0.46980000  1.0 0.0786566729
C  C63  1  0.39180000  0.83400000  0.69050000  1.0 -0.1578438954
C  C64  1  0.16600000  0.60820000  0.19050000  1.0 -0.1578438954
C  C65  1  0.52810000  0.73470000  0.18570000  1.0 0.0706971476
C  C66  1  0.26530000  0.47190000  0.68570000  1.0 0.0706971476
C  C67  1  0.61000000  0.86640000  0.11490000  1.0 -0.1421371412
C  C68  1  0.13360000  0.39000000  0.61490000  1.0 -0.1421371412
C  C69  1  0.56000000  0.43560000  0.09310000  1.0 0.0786566729
C  C70  1  0.56440000  0.44000000  0.59310000  1.0 0.0786566729
C  C71  1  0.58290000  0.52150000  0.09360000  1.0 -0.1509357569
C  C72  1  0.47850000  0.41710000  0.59360000  1.0 -0.1509357569
C  C73  1  0.38460000  0.75300000  0.85300000  1.0 0.0786566729
C  C74  1  0.24700000  0.61540000  0.35300000  1.0 0.0786566729
C  C75  1  0.24860000  0.94180000  0.66860000  1.0 0.0906876895
C  C76  1  0.05820000  0.75140000  0.16860000  1.0 0.0906876895
C  C77  1  0.58510000  0.61450000  0.44450000  1.0 0.0569775747
C  C78  1  0.38550000  0.41490000  0.94450000  1.0 0.0569775747
C  C79  1  0.12790000  0.79470000  0.71270000  1.0 0.0569775747
C  C80  1  0.20530000  0.87210000  0.21270000  1.0 0.0569775747
C  C81  1  0.68070000  0.64270000  0.44450000  1.0 0.3580828768
C  C82  1  0.35730000  0.31930000  0.94450000  1.0 0.3580828768
C  C83  1  0.21480000  0.66800000  0.83530000  1.0 0.0537286529
C  C84  1  0.33200000  0.78520000  0.33530000  1.0 0.0537286529
C  C85  1  0.00730000  0.93050000  0.54910000  1.0 0.0569775747
C  C86  1  0.06950000  0.99270000  0.04910000  1.0 0.0569775747
C  C87  1  0.31190000  0.73990000  0.82440000  1.0 -0.1421371412
C  C88  1  0.26010000  0.68810000  0.32440000  1.0 -0.1421371412
C  C89  1  0.77550000  0.63770000  0.41440000  1.0 0.3580828768
C  C90  1  0.36230000  0.22450000  0.91440000  1.0 0.3580828768
C  C91  1  0.13690000  0.65530000  0.80560000  1.0 0.366369955
C  C92  1  0.34470000  0.86310000  0.30560000  1.0 0.366369955
C  C93  1  0.26980000  0.62960000  0.90170000  1.0 0.0906876895
C  C94  1  0.37040000  0.73020000  0.40170000  1.0 0.0906876895
C  C95  1  0.78700000  0.60160000  0.38120000  1.0 0.0569775747
C  C96  1  0.39840000  0.21300000  0.88120000  1.0 0.0569775747
C  C97  1  0.92610000  0.80810000  0.49910000  1.0 0.0569775747
C  C98  1  0.19190000  0.07390000  0.99910000  1.0 0.0569775747
C  C99  1  0.19240000  0.61000000  0.87490000  1.0 -0.1421371412
C  C100  1  0.39000000  0.80760000  0.37490000  1.0 -0.1421371412
C  C101  1  0.55920000  0.62340000  0.47970000  1.0 -0.1509357569
C  C102  1  0.37660000  0.44080000  0.97970000  1.0 -0.1509357569
C  C103  1  0.22550000  0.87230000  0.70290000  1.0 -0.1578438954
C  C104  1  0.12770000  0.77450000  0.20290000  1.0 -0.1578438954
C  C105  1  0.09680000  0.71640000  0.74840000  1.0 0.366369955
C  C106  1  0.28360000  0.90320000  0.24840000  1.0 0.366369955
C  C107  1  0.86920000  0.47880000  0.78480000  1.0 0.0706971476
C  C108  1  0.52120000  0.13080000  0.28480000  1.0 0.0706971476
C  C109  1  0.87350000  0.57430000  0.35360000  1.0 0.0786566729
C  C110  1  0.42570000  0.12650000  0.85360000  1.0 0.0786566729
C  C111  1  0.05650000  0.79070000  0.68820000  1.0 -0.1509357569
C  C112  1  0.20930000  0.94350000  0.18820000  1.0 -0.1509357569
C  C113  1  0.70230000  0.38890000  0.75650000  1.0 0.0706971476
C  C114  1  0.61110000  0.29770000  0.25650000  1.0 0.0706971476
C  C115  1  0.08710000  0.86430000  0.65570000  1.0 0.0706971476
C  C116  1  0.13570000  0.91290000  0.15570000  1.0 0.0706971476
C  C117  1  0.47170000  0.59890000  0.47760000  1.0 0.0786566729
C  C118  1  0.40110000  0.52830000  0.97760000  1.0 0.0786566729
C  C119  1  0.92430000  0.86170000  0.52290000  1.0 -0.1509357569
C  C120  1  0.13830000  0.07570000  0.02290000  1.0 -0.1509357569
C  C121  1  0.01130000  0.82590000  0.50330000  1.0 -0.1421371412
C  C122  1  0.17410000  0.98870000  0.00330000  1.0 -0.1421371412
C  C123  1  0.73420000  0.30660000  0.80620000  1.0 0.0706971476
C  C124  1  0.69340000  0.26580000  0.30620000  1.0 0.0706971476
C  C125  1  0.97720000  0.57040000  0.78400000  1.0 0.3531320788
C  C126  1  0.42960000  0.02280000  0.28400000  1.0 0.3531320788
C  C127  1  0.72080000  0.56000000  0.34490000  1.0 -0.1509357569
C  C128  1  0.44000000  0.27920000  0.84490000  1.0 -0.1509357569
C  C129  1  0.83940000  0.73300000  0.47030000  1.0 0.3580828768
C  C130  1  0.26700000  0.16060000  0.97030000  1.0 0.3580828768
C  C131  1  0.80020000  0.47600000  0.75830000  1.0 -0.1509357569
C  C132  1  0.52400000  0.19980000  0.25830000  1.0 -0.1509357569
C  C133  1  0.09080000  0.89540000  0.53020000  1.0 0.0786566729
C  C134  1  0.10460000  0.90920000  0.03020000  1.0 0.0786566729
C  C135  1  0.83400000  0.39180000  0.80950000  1.0 -0.1578438954
C  C136  1  0.60820000  0.16600000  0.30950000  1.0 -0.1578438954
C  C137  1  0.73470000  0.52810000  0.31430000  1.0 0.0706971476
C  C138  1  0.47190000  0.26530000  0.81430000  1.0 0.0706971476
C  C139  1  0.86640000  0.61000000  0.38510000  1.0 -0.1421371412
C  C140  1  0.39000000  0.13360000  0.88510000  1.0 -0.1421371412
C  C141  1  0.43560000  0.56000000  0.40690000  1.0 0.0786566729
C  C142  1  0.44000000  0.56440000  0.90690000  1.0 0.0786566729
C  C143  1  0.52150000  0.58290000  0.40640000  1.0 -0.1509357569
C  C144  1  0.41710000  0.47850000  0.90640000  1.0 -0.1509357569
I  I1  1  0.02244000  0.48628000  0.70883000  1.0 -0.4343011903
I  I2  1  0.51372000  0.97756000  0.20883000  1.0 -0.4343011903
I  I3  1  0.12128000  0.36246000  0.94031000  1.0 -0.4506594342
I  I4  1  0.63754000  0.87872000  0.44031000  1.0 -0.4506594342
I  I5  1  0.21045000  0.46145000  0.80409000  1.0 -0.4506594342
I  I6  1  0.53855000  0.78955000  0.30409000  1.0 -0.4506594342
I  I7  1  0.36689000  0.14997000  0.10254000  1.0 -0.4593938889
I  I8  1  0.85003000  0.63311000  0.60254000  1.0 -0.4593938889
I  I9  1  0.13761000  0.18567000  0.86850000  1.0 0.0381696204
I  I10  1  0.81433000  0.86239000  0.36850000  1.0 0.0381696204
I  I11  1  0.55100000  0.25404000  0.99184000  1.0 -0.4506594342
I  I12  1  0.74596000  0.44900000  0.49184000  1.0 -0.4506594342
I  I13  1  0.12470000  0.17750000  0.87960000  1.0 0.0112016567
I  I14  1  0.82250000  0.87530000  0.37960000  1.0 0.0112016567
I  I15  1  0.48628000  0.02244000  0.79117000  1.0 -0.4343011903
I  I16  1  0.97756000  0.51372000  0.29117000  1.0 -0.4343011903
I  I17  1  0.36246000  0.12128000  0.55969000  1.0 -0.4506594342
I  I18  1  0.87872000  0.63754000  0.05969000  1.0 -0.4506594342
I  I19  1  0.46145000  0.21045000  0.69591000  1.0 -0.4506594342
I  I20  1  0.78955000  0.53855000  0.19591000  1.0 -0.4506594342
I  I21  1  0.14997000  0.36689000  0.39746000  1.0 -0.4593938889
I  I22  1  0.63311000  0.85003000  0.89746000  1.0 -0.4593938889
I  I23  1  0.18567000  0.13761000  0.63150000  1.0 0.0381696204
I  I24  1  0.86239000  0.81433000  0.13150000  1.0 0.0381696204
I  I25  1  0.25404000  0.55100000  0.50816000  1.0 -0.4506594342
I  I26  1  0.44900000  0.74596000  0.00816000  1.0 -0.4506594342
I  I27  1  0.17750000  0.12470000  0.62040000  1.0 0.0112016567
I  I28  1  0.87530000  0.82250000  0.12040000  1.0 0.0112016567
N  N1  1  0.56620000  0.40900000  0.05850000  1.0 -0.1894410255
N  N2  1  0.59100000  0.43380000  0.55850000  1.0 -0.1894410255
N  N3  1  0.93720000  0.18020000  0.85440000  1.0 -0.1818225299
N  N4  1  0.81980000  0.06280000  0.35440000  1.0 -0.1818225299
N  N5  1  0.69870000  0.36330000  0.60840000  1.0 -0.1818225299
N  N6  1  0.63670000  0.30130000  0.10840000  1.0 -0.1818225299
N  N7  1  0.30480000  0.66860000  0.72030000  1.0 -0.1818225299
N  N8  1  0.33140000  0.69520000  0.22030000  1.0 -0.1818225299
N  N9  1  0.53360000  0.80980000  0.18150000  1.0 -0.1894410255
N  N10  1  0.19020000  0.46640000  0.68150000  1.0 -0.1894410255
N  N11  1  0.72700000  0.16860000  0.72640000  1.0 -0.3814617397
N  N12  1  0.83140000  0.27300000  0.22640000  1.0 -0.3814617397
N  N13  1  0.57400000  0.04080000  0.68770000  1.0 -0.3884827199
N  N14  1  0.95920000  0.42600000  0.18770000  1.0 -0.3884827199
N  N15  1  0.94820000  0.08980000  0.94680000  1.0 -0.1894410255
N  N16  1  0.91020000  0.05180000  0.44680000  1.0 -0.1894410255
N  N17  1  0.64050000  0.00110000  0.74740000  1.0 -0.3884827199
N  N18  1  0.99890000  0.35950000  0.24740000  1.0 -0.3884827199
N  N19  1  0.70270000  0.75270000  0.02550000  1.0 -0.399003871
N  N20  1  0.24730000  0.29730000  0.52550000  1.0 -0.399003871
N  N21  1  0.60650000  0.68650000  0.08590000  1.0 -0.4109143617
N  N22  1  0.31350000  0.39350000  0.58590000  1.0 -0.4109143617
N  N23  1  0.70310000  0.85430000  0.05930000  1.0 -0.399003871
N  N24  1  0.14570000  0.29690000  0.55930000  1.0 -0.399003871
N  N25  1  0.40900000  0.56620000  0.44150000  1.0 -0.1894410255
N  N26  1  0.43380000  0.59100000  0.94150000  1.0 -0.1894410255
N  N27  1  0.18020000  0.93720000  0.64560000  1.0 -0.1818225299
N  N28  1  0.06280000  0.81980000  0.14560000  1.0 -0.1818225299
N  N29  1  0.36330000  0.69870000  0.89160000  1.0 -0.1818225299
N  N30  1  0.30130000  0.63670000  0.39160000  1.0 -0.1818225299
N  N31  1  0.66860000  0.30480000  0.77970000  1.0 -0.1818225299
N  N32  1  0.69520000  0.33140000  0.27970000  1.0 -0.1818225299
N  N33  1  0.80980000  0.53360000  0.31850000  1.0 -0.1894410255
N  N34  1  0.46640000  0.19020000  0.81850000  1.0 -0.1894410255
N  N35  1  0.16860000  0.72700000  0.77360000  1.0 -0.3814617397
N  N36  1  0.27300000  0.83140000  0.27360000  1.0 -0.3814617397
N  N37  1  0.04080000  0.57400000  0.81230000  1.0 -0.3884827199
N  N38  1  0.42600000  0.95920000  0.31230000  1.0 -0.3884827199
N  N39  1  0.08980000  0.94820000  0.55320000  1.0 -0.1894410255
N  N40  1  0.05180000  0.91020000  0.05320000  1.0 -0.1894410255
N  N41  1  0.00110000  0.64050000  0.75260000  1.0 -0.3884827199
N  N42  1  0.35950000  0.99890000  0.25260000  1.0 -0.3884827199
N  N43  1  0.75270000  0.70270000  0.47450000  1.0 -0.399003871
N  N44  1  0.29730000  0.24730000  0.97450000  1.0 -0.399003871
N  N45  1  0.68650000  0.60650000  0.41410000  1.0 -0.4109143617
N  N46  1  0.39350000  0.31350000  0.91410000  1.0 -0.4109143617
N  N47  1  0.85430000  0.70310000  0.44070000  1.0 -0.399003871
N  N48  1  0.29690000  0.14570000  0.94070000  1.0 -0.399003871
