# DDEC6 charges by PACMAN v1.1 (https://github.com/mtap-research/PACMAN-charge/)
data_ULOLUE_FSR_pacman
_symmetry_space_group_name_H-M   'P 1'
_cell_length_a   26.31270000
_cell_length_b   20.28070000
_cell_length_c   17.75320000
_cell_angle_alpha   87.28380000
_cell_angle_beta   50.34420000
_cell_angle_gamma   42.37210000
_symmetry_Int_Tables_number   1
_chemical_formula_structural   Zn3H24C36(I2N3)4
_chemical_formula_sum   'Zn6 H48 C72 I16 N24'
_cell_volume   2832.21235270
_cell_formula_units_Z   2
loop_
 _symmetry_equiv_pos_site_id
 _symmetry_equiv_pos_as_xyz
  1  'x, y, z'
loop_
 _atom_site_type_symbol
 _atom_site_label
 _atom_site_symmetry_multiplicity
 _atom_site_fract_x
 _atom_site_fract_y
 _atom_site_fract_z
 _atom_site_occupancy
 _atom_site_charge
Zn  Zn1  1  0.60237000  0.04039000  0.38941000  1.0 0.4552139786
Zn  Zn2  1  0.96783000  0.38941000  0.04039000  1.0 0.4548669604
Zn  Zn3  1  0.20961000  0.64763000  0.28217000  1.0 0.4548669604
Zn  Zn4  1  0.86059000  0.28217000  0.64763000  1.0 0.4552139786
Zn  Zn5  1  0.46310000  0.53690000  0.53690000  1.0 0.2435729054
Zn  Zn6  1  0.71310000  0.78690000  0.78690000  1.0 0.2435729054
H  H1  1  0.63840000  0.16620000  0.56780000  1.0 0.1318178211
H  H2  1  0.62760000  0.56780000  0.16620000  1.0 0.1318178211
H  H3  1  0.08380000  0.61160000  0.62240000  1.0 0.1318178211
H  H4  1  0.68220000  0.62240000  0.61160000  1.0 0.1318178211
H  H5  1  0.33300000  0.39200000  0.63380000  1.0 0.1002354116
H  H6  1  0.64120000  0.63380000  0.39200000  1.0 0.1002354116
H  H7  1  0.85800000  0.91700000  0.60880000  1.0 0.1002354116
H  H8  1  0.61620000  0.60880000  0.91700000  1.0 0.1002354116
H  H9  1  0.72700000  0.00140000  0.41320000  1.0 0.1083878946
H  H10  1  0.85840000  0.41320000  0.00140000  1.0 0.1083878946
H  H11  1  0.24860000  0.52300000  0.39160000  1.0 0.1083878946
H  H12  1  0.83680000  0.39160000  0.52300000  1.0 0.1083878946
H  H13  1  0.49820000  0.59100000  0.94540000  1.0 0.1002354116
H  H14  1  0.96540000  0.94540000  0.59100000  1.0 0.1002354116
H  H15  1  0.65900000  0.75180000  0.28460000  1.0 0.1002354116
H  H16  1  0.30460000  0.28460000  0.75180000  1.0 0.1002354116
H  H17  1  0.72800000  0.22860000  0.58420000  1.0 0.1233244237
H  H18  1  0.45920000  0.58420000  0.22860000  1.0 0.1233244237
H  H19  1  0.02140000  0.52200000  0.79080000  1.0 0.1233244237
H  H20  1  0.66580000  0.79080000  0.52200000  1.0 0.1233244237
H  H21  1  0.22700000  0.56940000  0.80220000  1.0 0.1083878946
H  H22  1  0.40140000  0.80220000  0.56940000  1.0 0.1083878946
H  H23  1  0.68060000  0.02300000  0.84860000  1.0 0.1083878946
H  H24  1  0.44780000  0.84860000  0.02300000  1.0 0.1083878946
H  H25  1  0.89400000  0.13800000  0.51220000  1.0 0.1002354116
H  H26  1  0.45580000  0.51220000  0.13800000  1.0 0.1002354116
H  H27  1  0.11200000  0.35600000  0.79420000  1.0 0.1002354116
H  H28  1  0.73780000  0.79420000  0.35600000  1.0 0.1002354116
H  H29  1  0.31760000  0.70180000  0.02680000  1.0 0.1318178211
H  H30  1  0.95380000  0.02680000  0.70180000  1.0 0.1318178211
H  H31  1  0.54820000  0.93240000  0.29620000  1.0 0.1318178211
H  H32  1  0.22320000  0.29620000  0.93240000  1.0 0.1318178211
H  H33  1  0.91550000  0.94910000  0.12090000  1.0 0.1233244237
H  H34  1  0.01450000  0.12090000  0.94910000  1.0 0.1233244237
H  H35  1  0.30090000  0.33450000  0.23550000  1.0 0.1233244237
H  H36  1  0.12910000  0.23550000  0.33450000  1.0 0.1233244237
H  H37  1  0.96780000  0.02180000  0.24540000  1.0 0.1318178211
H  H38  1  0.76500000  0.24540000  0.02180000  1.0 0.1318178211
H  H39  1  0.22820000  0.28220000  0.48500000  1.0 0.1318178211
H  H40  1  0.00460000  0.48500000  0.28220000  1.0 0.1318178211
H  H41  1  0.65360000  0.23640000  0.33280000  1.0 0.0886866597
H  H42  1  0.77720000  0.33280000  0.23640000  1.0 0.0886866597
H  H43  1  0.01360000  0.59640000  0.47280000  1.0 0.0886866597
H  H44  1  0.91720000  0.47280000  0.59640000  1.0 0.0886866597
H  H45  1  0.70060000  0.30800000  0.45860000  1.0 0.0722656407
H  H46  1  0.53280000  0.45860000  0.30800000  1.0 0.0722656407
H  H47  1  0.94200000  0.54940000  0.71720000  1.0 0.0722656407
H  H48  1  0.79140000  0.71720000  0.54940000  1.0 0.0722656407
C  C1  1  0.57400000  0.21440000  0.58400000  1.0 -0.1587391101
C  C2  1  0.62760000  0.58400000  0.21440000  1.0 -0.1587391101
C  C3  1  0.03560000  0.67600000  0.62240000  1.0 -0.1587391101
C  C4  1  0.66600000  0.62240000  0.67600000  1.0 -0.1587391101
C  C5  1  0.39360000  0.34720000  0.62200000  1.0 0.0573585714
C  C6  1  0.63720000  0.62200000  0.34720000  1.0 0.0573585714
C  C7  1  0.90280000  0.85640000  0.61280000  1.0 0.0573585714
C  C8  1  0.62800000  0.61280000  0.85640000  1.0 0.0573585714
C  C9  1  0.62710000  0.11610000  0.49030000  1.0 0.0722656407
C  C10  1  0.76650000  0.49030000  0.11610000  1.0 0.0722656407
C  C11  1  0.13390000  0.62290000  0.48350000  1.0 0.0722656407
C  C12  1  0.75970000  0.48350000  0.62290000  1.0 0.0722656407
C  C13  1  0.35550000  0.50310000  0.80690000  1.0 0.3694386591
C  C14  1  0.33450000  0.80690000  0.50310000  1.0 0.3694386591
C  C15  1  0.74690000  0.89450000  0.91550000  1.0 0.3694386591
C  C16  1  0.44310000  0.91550000  0.89450000  1.0 0.3694386591
C  C17  1  0.50680000  0.47580000  0.81000000  1.0 0.0523906724
C  C18  1  0.20740000  0.81000000  0.47580000  1.0 0.0523906724
C  C19  1  0.77420000  0.74320000  0.04260000  1.0 0.0523906724
C  C20  1  0.44000000  0.04260000  0.74320000  1.0 0.0523906724
C  C21  1  0.54460000  0.51880000  0.87100000  1.0 0.0886866597
C  C22  1  0.06560000  0.87100000  0.51880000  1.0 0.0886866597
C  C23  1  0.73120000  0.70540000  0.18440000  1.0 0.0886866597
C  C24  1  0.37900000  0.18440000  0.70540000  1.0 0.0886866597
C  C25  1  0.67920000  0.30520000  0.65740000  1.0 -0.1587391101
C  C26  1  0.35820000  0.65740000  0.30520000  1.0 -0.1587391101
C  C27  1  0.94480000  0.57080000  0.89180000  1.0 -0.1587391101
C  C28  1  0.59260000  0.89180000  0.57080000  1.0 -0.1587391101
C  C29  1  0.32960000  0.45440000  0.72260000  1.0 -0.1690413247
C  C30  1  0.49340000  0.72260000  0.45440000  1.0 -0.1690413247
C  C31  1  0.79560000  0.92040000  0.75660000  1.0 -0.1690413247
C  C32  1  0.52740000  0.75660000  0.92040000  1.0 -0.1690413247
C  C33  1  0.77700000  0.25200000  0.61700000  1.0 0.0722656407
C  C34  1  0.35400000  0.61700000  0.25200000  1.0 0.0722656407
C  C35  1  0.99800000  0.47300000  0.89600000  1.0 0.0722656407
C  C36  1  0.63300000  0.89600000  0.47300000  1.0 0.0722656407
C  C37  1  0.42210000  0.38710000  0.70290000  1.0 0.0573585714
C  C38  1  0.48790000  0.70290000  0.38710000  1.0 0.0573585714
C  C39  1  0.86290000  0.82790000  0.76210000  1.0 0.0573585714
C  C40  1  0.54710000  0.76210000  0.82790000  1.0 0.0573585714
C  C41  1  0.14690000  0.76530000  0.01770000  1.0 0.3344720152
C  C42  1  0.07010000  0.01770000  0.76530000  1.0 0.3344720152
C  C43  1  0.48470000  0.10310000  0.17990000  1.0 0.3344720152
C  C44  1  0.23230000  0.17990000  0.10310000  1.0 0.3344720152
C  C45  1  0.43410000  0.58690000  0.92230000  1.0 -0.1587391101
C  C46  1  0.05670000  0.92230000  0.58690000  1.0 -0.1587391101
C  C47  1  0.66310000  0.81590000  0.19330000  1.0 -0.1587391101
C  C48  1  0.32770000  0.19330000  0.81590000  1.0 -0.1587391101
C  C49  1  0.87650000  0.01850000  0.18550000  1.0 -0.1690413247
C  C50  1  0.91950000  0.18550000  0.01850000  1.0 -0.1690413247
C  C51  1  0.23150000  0.37350000  0.33050000  1.0 -0.1690413247
C  C52  1  0.06450000  0.33050000  0.37350000  1.0 -0.1690413247
C  C53  1  0.39400000  0.54500000  0.85780000  1.0 0.3694386591
C  C54  1  0.20320000  0.85780000  0.54500000  1.0 0.3694386591
C  C55  1  0.70500000  0.85600000  0.04680000  1.0 0.3694386591
C  C56  1  0.39220000  0.04680000  0.85600000  1.0 0.3694386591
C  C57  1  0.97650000  0.94830000  0.15470000  1.0 0.0523906724
C  C58  1  0.92050000  0.15470000  0.94830000  1.0 0.0523906724
C  C59  1  0.30170000  0.27350000  0.32950000  1.0 0.0523906724
C  C60  1  0.09530000  0.32950000  0.27350000  1.0 0.0523906724
C  C61  1  0.90650000  0.06210000  0.26030000  1.0 -0.1509441662
C  C62  1  0.77110000  0.26030000  0.06210000  1.0 -0.1509441662
C  C63  1  0.18790000  0.34350000  0.47890000  1.0 -0.1509441662
C  C64  1  0.98970000  0.47890000  0.34350000  1.0 -0.1509441662
C  C65  1  0.71920000  0.19160000  0.31300000  1.0 0.0722656407
C  C66  1  0.77620000  0.31300000  0.19160000  1.0 0.0722656407
C  C67  1  0.05840000  0.53080000  0.47380000  1.0 0.0722656407
C  C68  1  0.93700000  0.47380000  0.53080000  1.0 0.0722656407
C  C69  1  0.74710000  0.23370000  0.38650000  1.0 0.0573585714
C  C70  1  0.63270000  0.38650000  0.23370000  1.0 0.0573585714
C  C71  1  0.01630000  0.50290000  0.61730000  1.0 0.0573585714
C  C72  1  0.86350000  0.61730000  0.50290000  1.0 0.0573585714
I  I1  1  0.38834000  0.23568000  0.47326000  1.0 -0.4538666087
I  I2  1  0.90272000  0.47326000  0.23568000  1.0 -0.4538666087
I  I3  1  0.01432000  0.86166000  0.34728000  1.0 -0.4538666087
I  I4  1  0.77674000  0.34728000  0.86166000  1.0 -0.4538666087
I  I5  1  0.91520000  0.74032000  0.08028000  1.0 -0.4538666087
I  I6  1  0.26420000  0.08028000  0.74032000  1.0 -0.4538666087
I  I7  1  0.50968000  0.33480000  0.98580000  1.0 -0.4538666087
I  I8  1  0.16972000  0.98580000  0.33480000  1.0 -0.4538666087
I  I9  1  0.22214000  0.70252000  0.69228000  1.0 0.0722656407
I  I10  1  0.38306000  0.69228000  0.70252000  1.0 0.0722656407
I  I11  1  0.54748000  0.02786000  0.86694000  1.0 0.0722656407
I  I12  1  0.55772000  0.86694000  0.02786000  1.0 0.0722656407
I  I13  1  0.25610000  0.65170000  0.63490000  1.0 0.1083878946
I  I14  1  0.45730000  0.63490000  0.65170000  1.0 0.1083878946
I  I15  1  0.59830000  0.99390000  0.79270000  1.0 0.1083878946
I  I16  1  0.61510000  0.79270000  0.99390000  1.0 0.1083878946
N  N1  1  0.54060000  0.17920000  0.50620000  1.0 -0.2093213948
N  N2  1  0.77400000  0.50620000  0.17920000  1.0 -0.2093213948
N  N3  1  0.07080000  0.70940000  0.47600000  1.0 -0.2093213948
N  N4  1  0.74380000  0.47600000  0.70940000  1.0 -0.2093213948
N  N5  1  0.71040000  0.35740000  0.72240000  1.0 -0.2093213948
N  N6  1  0.20980000  0.72240000  0.35740000  1.0 -0.2093213948
N  N7  1  0.89260000  0.53960000  0.04020000  1.0 -0.2093213948
N  N8  1  0.52760000  0.04020000  0.53960000  1.0 -0.2093213948
N  N9  1  0.46380000  0.42980000  0.75980000  1.0 -0.4232033941
N  N10  1  0.34660000  0.75980000  0.42980000  1.0 -0.4232033941
N  N11  1  0.82020000  0.78620000  0.90340000  1.0 -0.4232033941
N  N12  1  0.49020000  0.90340000  0.78620000  1.0 -0.4232033941
N  N13  1  0.19820000  0.66700000  0.93380000  1.0 -0.4111698831
N  N14  1  0.20100000  0.93380000  0.66700000  1.0 -0.4111698831
N  N15  1  0.58300000  0.05180000  0.04900000  1.0 -0.4111698831
N  N16  1  0.31620000  0.04900000  0.05180000  1.0 -0.4111698831
N  N17  1  0.65720000  0.29660000  0.40820000  1.0 -0.1965437534
N  N18  1  0.63800000  0.40820000  0.29660000  1.0 -0.1965437534
N  N19  1  0.95340000  0.59280000  0.61200000  1.0 -0.1965437534
N  N20  1  0.84180000  0.61200000  0.59280000  1.0 -0.1965437534
N  N21  1  0.23980000  0.71100000  0.98460000  1.0 -0.4111698831
N  N22  1  0.06460000  0.98460000  0.71100000  1.0 -0.4111698831
N  N23  1  0.53900000  0.01020000  0.18540000  1.0 -0.4111698831
N  N24  1  0.26540000  0.18540000  0.01020000  1.0 -0.4111698831
