# DDEC6 charges by PACMAN v1.1 (https://github.com/mtap-research/PACMAN-charge/)
data_ULUGOA_FSR_pacman
_symmetry_space_group_name_H-M   'P 1'
_cell_length_a   10.89340000
_cell_length_b   10.89940000
_cell_length_c   18.08800000
_cell_angle_alpha   83.61900000
_cell_angle_beta   81.71600000
_cell_angle_gamma   88.72900000
_symmetry_Int_Tables_number   1
_chemical_formula_structural   ZnH16C19(NO2)2
_chemical_formula_sum   'Zn4 H64 C76 N8 O16'
_cell_volume   2112.00014514
_cell_formula_units_Z   4
loop_
 _symmetry_equiv_pos_site_id
 _symmetry_equiv_pos_as_xyz
  1  'x, y, z'
loop_
 _atom_site_type_symbol
 _atom_site_label
 _atom_site_symmetry_multiplicity
 _atom_site_fract_x
 _atom_site_fract_y
 _atom_site_fract_z
 _atom_site_occupancy
 _atom_site_charge
Zn  Zn1  1  0.73519000  0.14683000  0.91224000  1.0 0.8244863831
Zn  Zn2  1  0.77461000  0.17887000  0.74708000  1.0 0.7922508799
Zn  Zn3  1  0.26481000  0.85317000  0.08776000  1.0 0.8244863831
Zn  Zn4  1  0.22539000  0.82113000  0.25292000  1.0 0.7922508799
H  H1  1  0.77210000  0.79940000  0.71750000  1.0 0.1205515338
H  H2  1  0.77090000  0.58760000  0.71170000  1.0 0.1280891572
H  H3  1  0.74220000  0.52850000  0.93620000  1.0 0.1205515338
H  H4  1  0.74750000  0.74040000  0.94260000  1.0 0.1118189384
H  H5  1  0.12390000  0.14880000  0.94680000  1.0 0.1205515338
H  H6  1  0.33450000  0.15390000  0.94690000  1.0 0.1118189384
H  H7  1  0.38730000  0.18320000  0.71510000  1.0 0.1205515338
H  H8  1  0.18100000  0.19450000  0.71670000  1.0 0.1205515338
H  H9  1  0.88820000  0.15950000  0.03270000  1.0 0.1118189384
H  H10  1  0.86780000  0.15690000  0.16280000  1.0 0.1444092029
H  H11  1  0.49900000  0.13590000  0.17000000  1.0 0.1118189384
H  H12  1  0.53000000  0.14320000  0.03970000  1.0 0.1118189384
H  H13  1  0.51560000  0.23910000  0.30670000  1.0 0.1118189384
H  H14  1  0.48140000  0.10910000  0.28190000  1.0 0.1280891572
H  H15  1  0.53970000  0.11390000  0.35790000  1.0 0.1205515338
H  H16  1  0.94850000  0.08600000  0.30670000  1.0 0.1118189384
H  H17  1  0.02170000  0.14400000  0.36500000  1.0 0.0908757605
H  H18  1  0.97310000  0.00480000  0.38250000  1.0 0.0705900523
H  H19  1  0.64140000  0.24910000  0.61650000  1.0 0.1280891572
H  H20  1  0.66250000  0.23250000  0.48840000  1.0 0.1118189384
H  H21  1  0.99000000  0.06750000  0.50390000  1.0 0.0908757605
H  H22  1  0.94460000  0.06610000  0.63170000  1.0 0.0802743592
H  H23  1  0.54420000  0.99910000  0.31520000  1.0 0.1001529777
H  H24  1  0.52500000  0.12020000  0.35820000  1.0 0.1280891572
H  H25  1  0.47140000  0.11590000  0.28070000  1.0 0.1205515338
H  H26  1  0.93710000  0.26460000  0.29340000  1.0 0.1205515338
H  H27  1  0.94710000  0.35150000  0.35810000  1.0 0.1118189384
H  H28  1  0.02260000  0.22400000  0.35690000  1.0 0.0908757605
H  H29  1  0.69840000  0.03600000  0.63180000  1.0 0.1118189384
H  H30  1  0.72200000  0.04010000  0.49940000  1.0 0.1118189384
H  H31  1  0.94110000  0.33840000  0.48040000  1.0 0.1118189384
H  H32  1  0.90380000  0.32490000  0.61420000  1.0 0.1280891572
H  H33  1  0.22790000  0.20060000  0.28250000  1.0 0.1205515338
H  H34  1  0.22910000  0.41240000  0.28830000  1.0 0.1280891572
H  H35  1  0.25780000  0.47150000  0.06380000  1.0 0.1205515338
H  H36  1  0.25250000  0.25960000  0.05740000  1.0 0.1118189384
H  H37  1  0.87610000  0.85120000  0.05320000  1.0 0.1205515338
H  H38  1  0.66550000  0.84610000  0.05310000  1.0 0.1118189384
H  H39  1  0.61270000  0.81680000  0.28490000  1.0 0.1205515338
H  H40  1  0.81900000  0.80550000  0.28330000  1.0 0.1280891572
H  H41  1  0.11180000  0.84050000  0.96730000  1.0 0.1118189384
H  H42  1  0.13220000  0.84310000  0.83720000  1.0 0.1444092029
H  H43  1  0.50100000  0.86410000  0.83000000  1.0 0.1118189384
H  H44  1  0.47000000  0.85680000  0.96030000  1.0 0.1118189384
H  H45  1  0.48440000  0.76090000  0.69330000  1.0 0.1118189384
H  H46  1  0.51860000  0.89090000  0.71810000  1.0 0.1280891572
H  H47  1  0.46030000  0.88610000  0.64210000  1.0 0.1205515338
H  H48  1  0.05150000  0.91400000  0.69330000  1.0 0.1118189384
H  H49  1  0.97830000  0.85600000  0.63500000  1.0 0.0908757605
H  H50  1  0.02690000  0.99520000  0.61750000  1.0 0.0705900523
H  H51  1  0.35860000  0.75090000  0.38350000  1.0 0.1280891572
H  H52  1  0.33750000  0.76750000  0.51160000  1.0 0.1118189384
H  H53  1  0.01000000  0.93250000  0.49610000  1.0 0.0908757605
H  H54  1  0.05540000  0.93390000  0.36830000  1.0 0.0802743592
H  H55  1  0.45580000  0.00090000  0.68480000  1.0 0.1001529777
H  H56  1  0.47500000  0.87980000  0.64180000  1.0 0.1280891572
H  H57  1  0.52860000  0.88410000  0.71930000  1.0 0.1205515338
H  H58  1  0.06290000  0.73540000  0.70660000  1.0 0.1205515338
H  H59  1  0.05290000  0.64850000  0.64190000  1.0 0.1118189384
H  H60  1  0.97740000  0.77600000  0.64310000  1.0 0.0908757605
H  H61  1  0.30160000  0.96400000  0.36820000  1.0 0.1118189384
H  H62  1  0.27800000  0.95990000  0.50060000  1.0 0.1118189384
H  H63  1  0.05890000  0.66160000  0.51960000  1.0 0.1118189384
H  H64  1  0.09620000  0.67510000  0.38580000  1.0 0.1280891572
C  C1  1  0.75990000  0.78880000  0.83120000  1.0 -0.0286959432
C  C2  1  0.76690000  0.74410000  0.76230000  1.0 -0.1414857648
C  C3  1  0.76630000  0.61850000  0.75910000  1.0 -0.1193023144
C  C4  1  0.75920000  0.53730000  0.82310000  1.0 -0.012723481
C  C5  1  0.75000000  0.58360000  0.89130000  1.0 -0.1193023144
C  C6  1  0.75180000  0.70940000  0.89520000  1.0 -0.1103102743
C  C7  1  0.75660000  0.92700000  0.83500000  1.0 0.5609515988
C  C8  1  0.75590000  0.39910000  0.82070000  1.0 0.576417365
C  C9  1  0.12700000  0.16840000  0.83010000  1.0 -0.0286959432
C  C10  1  0.17820000  0.15740000  0.90050000  1.0 -0.1266785107
C  C11  1  0.30140000  0.15920000  0.90080000  1.0 -0.1193023144
C  C12  1  0.38210000  0.16940000  0.83040000  1.0 -0.0437126208
C  C13  1  0.33360000  0.17910000  0.76160000  1.0 -0.1193023144
C  C14  1  0.21270000  0.18220000  0.76320000  1.0 -0.1103102743
C  C15  1  0.98970000  0.16460000  0.82990000  1.0 0.5652857804
C  C16  1  0.51880000  0.16900000  0.83110000  1.0 0.5609515988
C  C17  1  0.80780000  0.15440000  0.06120000  1.0 0.0705900523
C  C18  1  0.79610000  0.15390000  0.13880000  1.0 -0.1605468012
C  C19  1  0.68220000  0.14900000  0.17950000  1.0 0.0603961953
C  C20  1  0.58040000  0.14210000  0.14280000  1.0 -0.2075356162
C  C21  1  0.60020000  0.14430000  0.06520000  1.0 0.0908757605
C  C22  1  0.66680000  0.14340000  0.26370000  1.0 0.2430464112
C  C23  1  0.54000000  0.15200000  0.30620000  1.0 -0.2634208716
C  C24  1  0.83700000  0.13200000  0.39880000  1.0 0.1118189384
C  C25  1  0.95500000  0.08800000  0.36000000  1.0 -0.3710577704
C  C26  1  0.71500000  0.21200000  0.59350000  1.0 -0.012723481
C  C27  1  0.72600000  0.20000000  0.51630000  1.0 -0.1103102743
C  C28  1  0.82700000  0.14200000  0.48100000  1.0 0.0603961953
C  C29  1  0.91400000  0.10200000  0.52540000  1.0 -0.1193023144
C  C30  1  0.89100000  0.11000000  0.60090000  1.0 -0.0286959432
C  C31  1  0.54000000  0.08900000  0.30880000  1.0 -0.246090076
C  C32  1  0.83900000  0.20200000  0.39360000  1.0 0.1118189384
C  C33  1  0.94500000  0.26600000  0.34660000  1.0 -0.3710577704
C  C34  1  0.74800000  0.09900000  0.60180000  1.0 -0.012723481
C  C35  1  0.76100000  0.10100000  0.52160000  1.0 -0.0510594203
C  C36  1  0.83200000  0.19300000  0.47700000  1.0 0.0705900523
C  C37  1  0.88900000  0.27600000  0.50910000  1.0 -0.204285889
C  C38  1  0.86700000  0.26500000  0.59020000  1.0 -0.0246177903
C  C39  1  0.24010000  0.21120000  0.16880000  1.0 -0.0286959432
C  C40  1  0.23310000  0.25590000  0.23770000  1.0 -0.1414857648
C  C41  1  0.23370000  0.38150000  0.24090000  1.0 -0.1193023144
C  C42  1  0.24080000  0.46270000  0.17690000  1.0 -0.012723481
C  C43  1  0.25000000  0.41640000  0.10870000  1.0 -0.1193023144
C  C44  1  0.24820000  0.29060000  0.10480000  1.0 -0.1103102743
C  C45  1  0.24340000  0.07300000  0.16500000  1.0 0.5609515988
C  C46  1  0.24410000  0.60090000  0.17930000  1.0 0.576417365
C  C47  1  0.87300000  0.83160000  0.16990000  1.0 -0.0286959432
C  C48  1  0.82180000  0.84260000  0.09950000  1.0 -0.1266785107
C  C49  1  0.69860000  0.84080000  0.09920000  1.0 -0.1193023144
C  C50  1  0.61790000  0.83060000  0.16960000  1.0 -0.0437126208
C  C51  1  0.66640000  0.82090000  0.23840000  1.0 -0.1193023144
C  C52  1  0.78730000  0.81780000  0.23680000  1.0 -0.1103102743
C  C53  1  0.01030000  0.83540000  0.17010000  1.0 0.5652857804
C  C54  1  0.48120000  0.83100000  0.16890000  1.0 0.5609515988
C  C55  1  0.19220000  0.84560000  0.93880000  1.0 0.0705900523
C  C56  1  0.20390000  0.84610000  0.86120000  1.0 -0.1605468012
C  C57  1  0.31780000  0.85100000  0.82050000  1.0 0.0603961953
C  C58  1  0.41960000  0.85790000  0.85720000  1.0 -0.2075356162
C  C59  1  0.39980000  0.85570000  0.93480000  1.0 0.0908757605
C  C60  1  0.33320000  0.85660000  0.73630000  1.0 0.2430464112
C  C61  1  0.46000000  0.84800000  0.69380000  1.0 -0.2634208716
C  C62  1  0.16300000  0.86800000  0.60120000  1.0 0.1118189384
C  C63  1  0.04500000  0.91200000  0.64000000  1.0 -0.3710577704
C  C64  1  0.28500000  0.78800000  0.40650000  1.0 -0.012723481
C  C65  1  0.27400000  0.80000000  0.48370000  1.0 -0.1103102743
C  C66  1  0.17300000  0.85800000  0.51900000  1.0 0.0603961953
C  C67  1  0.08600000  0.89800000  0.47460000  1.0 -0.1193023144
C  C68  1  0.10900000  0.89000000  0.39910000  1.0 -0.0286959432
C  C69  1  0.46000000  0.91100000  0.69120000  1.0 -0.246090076
C  C70  1  0.16100000  0.79800000  0.60640000  1.0 0.1118189384
C  C71  1  0.05500000  0.73400000  0.65340000  1.0 -0.3710577704
C  C72  1  0.25200000  0.90100000  0.39820000  1.0 -0.012723481
C  C73  1  0.23900000  0.89900000  0.47840000  1.0 -0.0510594203
C  C74  1  0.16800000  0.80700000  0.52300000  1.0 0.0705900523
C  C75  1  0.11100000  0.72400000  0.49090000  1.0 -0.204285889
C  C76  1  0.13300000  0.73500000  0.40980000  1.0 -0.0246177903
N  N1  1  0.70960000  0.14790000  0.02560000  1.0 -0.2183224774
N  N2  1  0.76620000  0.15280000  0.29100000  1.0 -0.2670841134
N  N3  1  0.75020000  0.15180000  0.36870000  1.0 -0.2394256136
N  N4  1  0.79790000  0.17760000  0.63480000  1.0 0.0076871523
N  N5  1  0.29040000  0.85210000  0.97440000  1.0 -0.2183224774
N  N6  1  0.23380000  0.84720000  0.70900000  1.0 -0.2670841134
N  N7  1  0.24980000  0.84820000  0.63130000  1.0 -0.2394256136
N  N8  1  0.20210000  0.82240000  0.36520000  1.0 0.0076871523
O  O1  1  0.74130000  0.96460000  0.89820000  1.0 -0.5212045527
O  O2  1  0.77160000  0.99410000  0.77400000  1.0 -0.5397174077
O  O3  1  0.74010000  0.33333333  0.88030000  1.0 -0.5250060773
O  O4  1  0.77060000  0.36220000  0.75670000  1.0 -0.5397174077
O  O5  1  0.92160000  0.14710000  0.89270000  1.0 -0.5610381133
O  O6  1  0.95190000  0.17840000  0.76620000  1.0 -0.5524512148
O  O7  1  0.55760000  0.15270000  0.89260000  1.0 -0.5397174077
O  O8  1  0.58690000  0.17980000  0.76790000  1.0 -0.5610381133
O  O9  1  0.25870000  0.03540000  0.10180000  1.0 -0.5212045527
O  O10  1  0.22840000  0.00590000  0.22600000  1.0 -0.5397174077
O  O11  1  0.25990000  0.66666667  0.11970000  1.0 -0.5212045527
O  O12  1  0.22940000  0.63780000  0.24330000  1.0 -0.5397174077
O  O13  1  0.07840000  0.85290000  0.10730000  1.0 -0.5610381133
O  O14  1  0.04810000  0.82160000  0.23380000  1.0 -0.5524512148
O  O15  1  0.44240000  0.84730000  0.10740000  1.0 -0.5397174077
O  O16  1  0.41310000  0.82020000  0.23210000  1.0 -0.5610381133
