# DDEC6 charges by PACMAN v1.1 (https://github.com/mtap-research/PACMAN-charge/)
data_ULUHAN_FSR_pacman
_symmetry_space_group_name_H-M   'P 1'
_cell_length_a   13.83920000
_cell_length_b   13.83920000
_cell_length_c   20.13640000
_cell_angle_alpha   52.96580000
_cell_angle_beta   127.03400000
_cell_angle_gamma   154.95500000
_symmetry_Int_Tables_number   1
_chemical_formula_structural   ZnH18C22(NO)4
_chemical_formula_sum   'Zn2 H36 C44 N8 O8'
_cell_volume   1284.84675605
_cell_formula_units_Z   2
loop_
 _symmetry_equiv_pos_site_id
 _symmetry_equiv_pos_as_xyz
  1  'x, y, z'
loop_
 _atom_site_type_symbol
 _atom_site_label
 _atom_site_symmetry_multiplicity
 _atom_site_fract_x
 _atom_site_fract_y
 _atom_site_fract_z
 _atom_site_occupancy
 _atom_site_charge
Zn  Zn1  1  0.35342000  0.35342000  0.75000000  1.0 0.7457485954
Zn  Zn2  1  0.64658000  0.64658000  0.25000000  1.0 0.7457485954
H  H1  1  0.49980000  0.29780000  0.93740000  1.0 0.1130984287
H  H2  1  0.82460000  0.46900000  0.03350000  1.0 0.1419201354
H  H3  1  0.16270000  0.89690000  0.83820000  1.0 0.1419201354
H  H4  1  0.82850000  0.71310000  0.74720000  1.0 0.1187208007
H  H5  1  0.40820000  0.85580000  0.12740000  1.0 0.1520485106
H  H6  1  0.23960000  0.81280000  0.10580000  1.0 0.1520485106
H  H7  1  0.13390000  0.60190000  0.11760000  1.0 0.1520485106
H  H8  1  0.39360000  0.29040000  0.53870000  1.0 0.1187208007
H  H9  1  0.17930000  0.11570000  0.42470000  1.0 0.1187208007
H  H10  1  0.29780000  0.49980000  0.56260000  1.0 0.1130984287
H  H11  1  0.46900000  0.82460000  0.46650000  1.0 0.1419201354
H  H12  1  0.89690000  0.16270000  0.66180000  1.0 0.1419201354
H  H13  1  0.71310000  0.82850000  0.75280000  1.0 0.1187208007
H  H14  1  0.85580000  0.40820000  0.37260000  1.0 0.1520485106
H  H15  1  0.81280000  0.23960000  0.39420000  1.0 0.1520485106
H  H16  1  0.60190000  0.13390000  0.38240000  1.0 0.1520485106
H  H17  1  0.29040000  0.39360000  0.96130000  1.0 0.1187208007
H  H18  1  0.11570000  0.17930000  0.07530000  1.0 0.1187208007
H  H19  1  0.50020000  0.70220000  0.06260000  1.0 0.1130984287
H  H20  1  0.17540000  0.53100000  0.96650000  1.0 0.1419201354
H  H21  1  0.83730000  0.10310000  0.16180000  1.0 0.1419201354
H  H22  1  0.17150000  0.28690000  0.25280000  1.0 0.1187208007
H  H23  1  0.59180000  0.14420000  0.87260000  1.0 0.1520485106
H  H24  1  0.76040000  0.18720000  0.89420000  1.0 0.1520485106
H  H25  1  0.86610000  0.39810000  0.88240000  1.0 0.1520485106
H  H26  1  0.60640000  0.70960000  0.46130000  1.0 0.1187208007
H  H27  1  0.82070000  0.88430000  0.57530000  1.0 0.1187208007
H  H28  1  0.70220000  0.50020000  0.43740000  1.0 0.1130984287
H  H29  1  0.53100000  0.17540000  0.53350000  1.0 0.1419201354
H  H30  1  0.10310000  0.83730000  0.33820000  1.0 0.1419201354
H  H31  1  0.28690000  0.17150000  0.24720000  1.0 0.1187208007
H  H32  1  0.14420000  0.59180000  0.62740000  1.0 0.1520485106
H  H33  1  0.18720000  0.76040000  0.60580000  1.0 0.1520485106
H  H34  1  0.39810000  0.86610000  0.61760000  1.0 0.1520485106
H  H35  1  0.70960000  0.60640000  0.03870000  1.0 0.1187208007
H  H36  1  0.88430000  0.82070000  0.92470000  1.0 0.1187208007
C  C1  1  0.63671000  0.42109000  0.91720000  1.0 0.0789982444
C  C2  1  0.82975000  0.52245000  0.97480000  1.0 -0.1735284169
C  C3  1  0.03164000  0.70256000  0.94700000  1.0 0.0789982444
C  C4  1  0.02781000  0.77319000  0.86010000  1.0 -0.1735284169
C  C5  1  0.82817000  0.66323000  0.80630000  1.0 0.1009780421
C  C6  1  0.24571000  0.81729000  0.00620000  1.0 0.255414472
C  C7  1  0.25790000  0.76790000  0.09680000  1.0 -0.4995407899
C  C8  1  0.12799000  0.10481000  0.56780000  1.0 -0.0163444201
C  C9  1  0.23311000  0.17209000  0.52290000  1.0 -0.1007939772
C  C10  1  0.10597000  0.06823000  0.45540000  1.0 -0.1007939772
C  C11  1  0.26736000  0.22144000  0.64040000  1.0 0.5387882153
C  C12  1  0.42109000  0.63671000  0.58280000  1.0 0.0789982444
C  C13  1  0.52245000  0.82975000  0.52520000  1.0 -0.1735284169
C  C14  1  0.70256000  0.03164000  0.55300000  1.0 0.0789982444
C  C15  1  0.77319000  0.02781000  0.63990000  1.0 -0.1735284169
C  C16  1  0.66323000  0.82817000  0.69370000  1.0 0.1009780421
C  C17  1  0.81729000  0.24571000  0.49380000  1.0 0.255414472
C  C18  1  0.76790000  0.25790000  0.40320000  1.0 -0.4995407899
C  C19  1  0.10481000  0.12799000  0.93220000  1.0 -0.0163444201
C  C20  1  0.17209000  0.23311000  0.97710000  1.0 -0.1007939772
C  C21  1  0.06823000  0.10597000  0.04460000  1.0 -0.1007939772
C  C22  1  0.22144000  0.26736000  0.85960000  1.0 0.5387882153
C  C23  1  0.36329000  0.57891000  0.08280000  1.0 0.0789982444
C  C24  1  0.17025000  0.47755000  0.02520000  1.0 -0.1735284169
C  C25  1  0.96836000  0.29744000  0.05300000  1.0 0.0789982444
C  C26  1  0.97219000  0.22681000  0.13990000  1.0 -0.1735284169
C  C27  1  0.17183000  0.33677000  0.19370000  1.0 0.1009780421
C  C28  1  0.75429000  0.18271000  0.99380000  1.0 0.255414472
C  C29  1  0.74210000  0.23210000  0.90320000  1.0 -0.4995407899
C  C30  1  0.87201000  0.89519000  0.43220000  1.0 -0.0163444201
C  C31  1  0.76689000  0.82791000  0.47710000  1.0 -0.1007939772
C  C32  1  0.89403000  0.93177000  0.54460000  1.0 -0.1007939772
C  C33  1  0.73264000  0.77856000  0.35960000  1.0 0.5387882153
C  C34  1  0.57891000  0.36329000  0.41720000  1.0 0.0789982444
C  C35  1  0.47755000  0.17025000  0.47480000  1.0 -0.1735284169
C  C36  1  0.29744000  0.96836000  0.44700000  1.0 0.0789982444
C  C37  1  0.22681000  0.97219000  0.36010000  1.0 -0.1735284169
C  C38  1  0.33677000  0.17183000  0.30630000  1.0 0.1009780421
C  C39  1  0.18271000  0.75429000  0.50620000  1.0 0.255414472
C  C40  1  0.23210000  0.74210000  0.59680000  1.0 -0.4995407899
C  C41  1  0.89519000  0.87201000  0.06780000  1.0 -0.0163444201
C  C42  1  0.82791000  0.76689000  0.02290000  1.0 -0.1007939772
C  C43  1  0.93177000  0.89403000  0.95540000  1.0 -0.1007939772
C  C44  1  0.77856000  0.73264000  0.14040000  1.0 0.5387882153
N  N1  1  0.63294000  0.48866000  0.83335000  1.0 -0.2495640096
N  N2  1  0.39940000  0.94640000  0.97200000  1.0 -0.2495640096
N  N3  1  0.48866000  0.63294000  0.66666667  1.0 -0.2495640096
N  N4  1  0.94640000  0.39940000  0.52800000  1.0 -0.2495640096
N  N5  1  0.36706000  0.51134000  0.16665000  1.0 -0.2495640096
N  N6  1  0.60060000  0.05360000  0.02800000  1.0 -0.2495640096
N  N7  1  0.51134000  0.36706000  0.33333333  1.0 -0.2495640096
N  N8  1  0.05360000  0.60060000  0.47200000  1.0 -0.2495640096
O  O1  1  0.15767000  0.15353000  0.67583000  1.0 -0.5405317535
O  O2  1  0.47740000  0.38160000  0.65920000  1.0 -0.5311083784
O  O3  1  0.15353000  0.15767000  0.82417000  1.0 -0.5405317535
O  O4  1  0.38160000  0.47740000  0.84080000  1.0 -0.5311083784
O  O5  1  0.84233000  0.84647000  0.32417000  1.0 -0.5405317535
O  O6  1  0.52260000  0.61840000  0.34080000  1.0 -0.5311083784
O  O7  1  0.84647000  0.84233000  0.17583000  1.0 -0.5405317535
O  O8  1  0.61840000  0.52260000  0.15920000  1.0 -0.5311083784
