# DDEC6 charges by PACMAN v1.1 (https://github.com/mtap-research/PACMAN-charge/)
data_UMEDOH_FSR_pacman
_symmetry_space_group_name_H-M   'P 1'
_cell_length_a   18.81540000
_cell_length_b   18.81540000
_cell_length_c   31.42660000
_cell_angle_alpha   80.09050000
_cell_angle_beta   99.90950000
_cell_angle_gamma   133.63400000
_symmetry_Int_Tables_number   1
_chemical_formula_structural   Zn3H26C36(I2N3)4
_chemical_formula_sum   'Zn12 H104 C144 I32 N48'
_cell_volume   7909.94399714
_cell_formula_units_Z   4
loop_
 _symmetry_equiv_pos_site_id
 _symmetry_equiv_pos_as_xyz
  1  'x, y, z'
loop_
 _atom_site_type_symbol
 _atom_site_label
 _atom_site_symmetry_multiplicity
 _atom_site_fract_x
 _atom_site_fract_y
 _atom_site_fract_z
 _atom_site_occupancy
 _atom_site_charge
Zn  Zn1  1  0.72142000  0.46750000  0.56263000  1.0 0.4688176246
Zn  Zn2  1  0.53250000  0.27858000  0.06263000  1.0 0.4688176246
Zn  Zn3  1  0.03506000  0.20800000  0.90363000  1.0 0.4593896152
Zn  Zn4  1  0.79200000  0.96494000  0.40363000  1.0 0.4593896152
Zn  Zn5  1  0.18187000  0.52411000  0.72909000  1.0 0.4443386526
Zn  Zn6  1  0.47589000  0.81813000  0.22909000  1.0 0.4452567728
Zn  Zn7  1  0.46750000  0.72142000  0.93737000  1.0 0.4688176246
Zn  Zn8  1  0.27858000  0.53250000  0.43737000  1.0 0.4688176246
Zn  Zn9  1  0.20800000  0.03506000  0.59637000  1.0 0.4593896152
Zn  Zn10  1  0.96494000  0.79200000  0.09637000  1.0 0.4593896152
Zn  Zn11  1  0.52411000  0.18187000  0.77091000  1.0 0.4452567728
Zn  Zn12  1  0.81813000  0.47589000  0.27091000  1.0 0.4452567728
H  H1  1  0.25350000  0.71350000  0.67670000  1.0 0.1014352737
H  H2  1  0.28650000  0.74650000  0.17670000  1.0 0.1014352737
H  H3  1  0.59260000  0.93480000  0.15110000  1.0 0.1014352737
H  H4  1  0.06520000  0.40740000  0.65110000  1.0 0.1014352737
H  H5  1  0.56100000  0.40180000  0.11900000  1.0 0.1014352737
H  H6  1  0.59820000  0.43900000  0.61900000  1.0 0.1014352737
H  H7  1  0.98610000  0.31210000  0.83820000  1.0 0.1087411934
H  H8  1  0.68790000  0.01390000  0.33820000  1.0 0.1087411934
H  H9  1  0.73370000  0.98550000  0.80710000  1.0 0.1384089372
H  H10  1  0.01450000  0.26630000  0.30710000  1.0 0.1384089372
H  H11  1  0.38740000  0.66200000  0.76560000  1.0 0.1014352737
H  H12  1  0.33800000  0.61260000  0.26560000  1.0 0.1014352737
H  H13  1  0.88080000  0.27480000  0.77690000  1.0 0.1189625257
H  H14  1  0.72520000  0.11920000  0.27690000  1.0 0.1189625257
H  H15  1  0.64650000  0.91670000  0.09500000  1.0 0.1320891113
H  H16  1  0.08330000  0.35350000  0.59500000  1.0 0.1320891113
H  H17  1  0.85350000  0.87150000  0.97840000  1.0 0.1189625257
H  H18  1  0.12850000  0.14650000  0.47840000  1.0 0.1189625257
H  H19  1  0.60990000  0.45510000  0.99790000  1.0 0.1087411934
H  H20  1  0.54490000  0.39010000  0.49790000  1.0 0.1087411934
H  H21  1  0.39460000  0.87820000  0.66980000  1.0 0.1384089372
H  H22  1  0.12180000  0.60540000  0.16980000  1.0 0.1384089372
H  H23  1  0.96400000  0.00440000  0.93370000  1.0 0.1014352737
H  H24  1  0.99560000  0.03600000  0.43370000  1.0 0.1014352737
H  H25  1  0.59160000  0.25080000  0.57070000  1.0 0.1014352737
H  H26  1  0.74920000  0.40840000  0.07070000  1.0 0.1014352737
H  H27  1  0.90290000  0.14970000  0.96990000  1.0 0.0922763519
H  H28  1  0.85030000  0.09710000  0.46990000  1.0 0.0922763519
H  H29  1  0.53190000  0.82510000  0.76300000  1.0 0.1384089372
H  H30  1  0.17490000  0.46810000  0.26300000  1.0 0.1384089372
H  H31  1  0.80180000  0.44560000  0.65200000  1.0 0.1087411934
H  H32  1  0.55440000  0.19820000  0.15200000  1.0 0.1087411934
H  H33  1  0.85460000  0.03460000  0.86160000  1.0 0.1014352737
H  H34  1  0.96540000  0.14540000  0.36160000  1.0 0.1014352737
H  H35  1  0.78240000  0.01060000  0.01220000  1.0 0.1320891113
H  H36  1  0.98940000  0.21760000  0.51220000  1.0 0.1320891113
H  H37  1  0.55460000  0.12000000  0.61870000  1.0 0.1384089372
H  H38  1  0.88000000  0.44540000  0.11870000  1.0 0.1384089372
H  H39  1  0.78830000  0.32850000  0.69540000  1.0 0.1087411934
H  H40  1  0.67150000  0.21170000  0.19540000  1.0 0.1087411934
H  H41  1  0.65270000  0.60430000  0.99410000  1.0 0.1320891113
H  H42  1  0.39570000  0.34730000  0.49410000  1.0 0.1320891113
H  H43  1  0.60030000  0.54990000  0.11960000  1.0 0.1384089372
H  H44  1  0.45010000  0.39970000  0.61960000  1.0 0.1384089372
H  H45  1  0.46390000  0.67110000  0.19760000  1.0 0.1014352737
H  H46  1  0.32890000  0.53610000  0.69760000  1.0 0.1014352737
H  H47  1  0.53030000  0.65410000  0.15290000  1.0 0.1384089372
H  H48  1  0.34590000  0.46970000  0.65290000  1.0 0.1384089372
H  H49  1  0.72480000  0.74720000  0.00460000  1.0 0.281669292
H  H50  1  0.25280000  0.27520000  0.50460000  1.0 0.281669292
H  H51  1  0.77670000  0.23010000  0.72870000  1.0 0.2711685033
H  H52  1  0.76990000  0.22330000  0.22870000  1.0 0.2711685033
H  H53  1  0.71350000  0.25350000  0.82330000  1.0 0.1014352737
H  H54  1  0.74650000  0.28650000  0.32330000  1.0 0.1014352737
H  H55  1  0.93480000  0.59260000  0.34890000  1.0 0.1014352737
H  H56  1  0.40740000  0.06520000  0.84890000  1.0 0.1014352737
H  H57  1  0.40180000  0.56100000  0.38100000  1.0 0.1014352737
H  H58  1  0.43900000  0.59820000  0.88100000  1.0 0.1014352737
H  H59  1  0.31210000  0.98610000  0.66180000  1.0 0.1087411934
H  H60  1  0.01390000  0.68790000  0.16180000  1.0 0.1087411934
H  H61  1  0.98550000  0.73370000  0.69290000  1.0 0.1384089372
H  H62  1  0.26630000  0.01450000  0.19290000  1.0 0.1384089372
H  H63  1  0.66200000  0.38740000  0.73440000  1.0 0.1014352737
H  H64  1  0.61260000  0.33800000  0.23440000  1.0 0.1014352737
H  H65  1  0.27480000  0.88080000  0.72310000  1.0 0.1189625257
H  H66  1  0.11920000  0.72520000  0.22310000  1.0 0.1189625257
H  H67  1  0.91670000  0.64650000  0.40500000  1.0 0.1320891113
H  H68  1  0.35350000  0.08330000  0.90500000  1.0 0.1320891113
H  H69  1  0.87150000  0.85350000  0.52160000  1.0 0.1189625257
H  H70  1  0.14650000  0.12850000  0.02160000  1.0 0.1189625257
H  H71  1  0.45510000  0.60990000  0.50210000  1.0 0.1087411934
H  H72  1  0.39010000  0.54490000  0.00210000  1.0 0.1087411934
H  H73  1  0.87820000  0.39460000  0.83020000  1.0 0.1384089372
H  H74  1  0.60540000  0.12180000  0.33020000  1.0 0.1384089372
H  H75  1  0.00440000  0.96400000  0.56630000  1.0 0.1014352737
H  H76  1  0.03600000  0.99560000  0.06630000  1.0 0.1014352737
H  H77  1  0.25080000  0.59160000  0.92930000  1.0 0.1014352737
H  H78  1  0.40840000  0.74920000  0.42930000  1.0 0.1014352737
H  H79  1  0.14970000  0.90290000  0.53010000  1.0 0.0922763519
H  H80  1  0.09710000  0.85030000  0.03010000  1.0 0.0922763519
H  H81  1  0.82510000  0.53190000  0.73700000  1.0 0.1384089372
H  H82  1  0.46810000  0.17490000  0.23700000  1.0 0.1384089372
H  H83  1  0.44560000  0.80180000  0.84800000  1.0 0.1087411934
H  H84  1  0.19820000  0.55440000  0.34800000  1.0 0.1087411934
H  H85  1  0.03460000  0.85460000  0.63840000  1.0 0.1014352737
H  H86  1  0.14540000  0.96540000  0.13840000  1.0 0.1014352737
H  H87  1  0.01060000  0.78240000  0.48780000  1.0 0.1320891113
H  H88  1  0.21760000  0.98940000  0.98780000  1.0 0.1320891113
H  H89  1  0.12000000  0.55460000  0.88130000  1.0 0.1384089372
H  H90  1  0.44540000  0.88000000  0.38130000  1.0 0.1384089372
H  H91  1  0.32850000  0.78830000  0.80460000  1.0 0.1087411934
H  H92  1  0.21170000  0.67150000  0.30460000  1.0 0.1087411934
H  H93  1  0.60430000  0.65270000  0.50590000  1.0 0.1320891113
H  H94  1  0.34730000  0.39570000  0.00590000  1.0 0.1320891113
H  H95  1  0.54990000  0.60030000  0.38040000  1.0 0.1384089372
H  H96  1  0.39970000  0.45010000  0.88040000  1.0 0.1384089372
H  H97  1  0.67110000  0.46390000  0.30240000  1.0 0.1014352737
H  H98  1  0.53610000  0.32890000  0.80240000  1.0 0.1014352737
H  H99  1  0.65410000  0.53030000  0.34710000  1.0 0.1384089372
H  H100  1  0.46970000  0.34590000  0.84710000  1.0 0.1384089372
H  H101  1  0.74720000  0.72480000  0.49540000  1.0 0.281669292
H  H102  1  0.27520000  0.25280000  0.99540000  1.0 0.281669292
H  H103  1  0.23010000  0.77670000  0.77130000  1.0 0.2711685033
H  H104  1  0.22330000  0.76990000  0.27130000  1.0 0.2711685033
C  C1  1  0.71520000  0.09500000  0.75060000  1.0 0.3517088176
C  C2  1  0.90500000  0.28480000  0.25060000  1.0 0.3517088176
C  C3  1  0.65510000  0.13370000  0.69310000  1.0 0.3660189838
C  C4  1  0.86630000  0.34490000  0.19310000  1.0 0.3660189838
C  C5  1  0.62200000  0.58940000  0.05540000  1.0 0.0526098863
C  C6  1  0.41060000  0.37800000  0.55540000  1.0 0.0526098863
C  C7  1  0.31090000  0.73650000  0.69470000  1.0 0.0695752294
C  C8  1  0.26350000  0.68910000  0.19470000  1.0 0.0695752294
C  C9  1  0.56920000  0.97580000  0.71600000  1.0 0.3442755969
C  C10  1  0.02420000  0.43080000  0.21600000  1.0 0.3442755969
C  C11  1  0.73420000  0.84120000  0.03040000  1.0 0.3517088176
C  C12  1  0.15880000  0.26580000  0.53040000  1.0 0.3517088176
C  C13  1  0.79060000  0.12420000  0.78640000  1.0 0.0526098863
C  C14  1  0.87580000  0.20940000  0.28640000  1.0 0.0526098863
C  C15  1  0.57810000  0.87550000  0.15080000  1.0 0.0922763519
C  C16  1  0.12450000  0.42190000  0.65080000  1.0 0.0922763519
C  C17  1  0.80780000  0.92760000  0.00120000  1.0 0.0526098863
C  C18  1  0.07240000  0.19220000  0.50120000  1.0 0.0526098863
C  C19  1  0.57600000  0.44180000  0.09270000  1.0 0.1014352737
C  C20  1  0.55820000  0.42400000  0.59270000  1.0 0.1014352737
C  C21  1  0.60100000  0.78680000  0.11950000  1.0 0.0695752294
C  C22  1  0.21320000  0.39900000  0.61950000  1.0 0.0695752294
C  C23  1  0.93570000  0.24590000  0.83070000  1.0 0.076273898
C  C24  1  0.75410000  0.06430000  0.33070000  1.0 0.076273898
C  C25  1  0.47970000  0.87190000  0.71600000  1.0 0.0695752294
C  C26  1  0.12810000  0.52030000  0.21600000  1.0 0.0695752294
C  C27  1  0.64730000  0.68310000  0.05520000  1.0 0.3284255893
C  C28  1  0.31690000  0.35270000  0.55520000  1.0 0.3284255893
C  C29  1  0.78560000  0.05320000  0.81220000  1.0 -0.1486295818
C  C30  1  0.94680000  0.21440000  0.31220000  1.0 -0.1486295818
C  C31  1  0.63900000  0.77560000  0.08490000  1.0 0.3838426502
C  C32  1  0.22440000  0.36100000  0.58490000  1.0 0.3838426502
C  C33  1  0.66900000  0.21300000  0.66260000  1.0 0.0399216091
C  C34  1  0.78700000  0.33100000  0.16260000  1.0 0.0399216091
C  C35  1  0.38890000  0.70770000  0.74620000  1.0 0.0575801053
C  C36  1  0.29230000  0.61110000  0.24620000  1.0 0.0575801053
C  C37  1  0.87130000  0.22370000  0.79530000  1.0 -0.188779088
C  C38  1  0.77630000  0.12870000  0.29530000  1.0 -0.188779088
C  C39  1  0.61390000  0.86670000  0.11800000  1.0 -0.1486295818
C  C40  1  0.13330000  0.38610000  0.61800000  1.0 -0.1486295818
C  C41  1  0.86250000  0.92830000  0.97660000  1.0 -0.1626486673
C  C42  1  0.07170000  0.13750000  0.47660000  1.0 -0.1626486673
C  C43  1  0.60480000  0.47340000  0.02270000  1.0 0.076273898
C  C44  1  0.52660000  0.39520000  0.52270000  1.0 0.076273898
C  C45  1  0.39510000  0.83530000  0.69050000  1.0 -0.1829049209
C  C46  1  0.16470000  0.60490000  0.19050000  1.0 -0.1829049209
C  C47  1  0.92810000  0.00670000  0.95030000  1.0 0.0695752294
C  C48  1  0.99330000  0.07190000  0.45030000  1.0 0.0695752294
C  C49  1  0.62930000  0.26590000  0.59770000  1.0 0.0922763519
C  C50  1  0.73410000  0.37070000  0.09770000  1.0 0.0922763519
C  C51  1  0.89120000  0.09160000  0.97100000  1.0 0.0695752294
C  C52  1  0.90840000  0.10880000  0.47100000  1.0 0.0695752294
C  C53  1  0.47570000  0.80450000  0.74470000  1.0 -0.1486295818
C  C54  1  0.19550000  0.52430000  0.24470000  1.0 -0.1486295818
C  C55  1  0.75360000  0.37940000  0.64410000  1.0 0.0575801053
C  C56  1  0.62060000  0.24640000  0.14410000  1.0 0.0575801053
C  C57  1  0.85690000  0.08330000  0.84500000  1.0 0.0922763519
C  C58  1  0.91670000  0.14310000  0.34500000  1.0 0.0922763519
C  C59  1  0.82130000  0.00970000  0.99710000  1.0 -0.1281124993
C  C60  1  0.99030000  0.17870000  0.49710000  1.0 -0.1281124993
C  C61  1  0.60760000  0.18660000  0.62530000  1.0 -0.1486295818
C  C62  1  0.81340000  0.39240000  0.12530000  1.0 -0.1486295818
C  C63  1  0.74340000  0.31040000  0.67060000  1.0 -0.1665549992
C  C64  1  0.68960000  0.25660000  0.17060000  1.0 -0.1665549992
C  C65  1  0.63000000  0.56240000  0.02010000  1.0 -0.188779088
C  C66  1  0.43760000  0.37000000  0.52010000  1.0 -0.188779088
C  C67  1  0.59970000  0.53070000  0.09340000  1.0 -0.1486295818
C  C68  1  0.46930000  0.40030000  0.59340000  1.0 -0.1486295818
C  C69  1  0.50770000  0.72550000  0.17800000  1.0 0.0399216091
C  C70  1  0.27450000  0.49230000  0.67800000  1.0 0.0399216091
C  C71  1  0.54380000  0.71340000  0.15090000  1.0 -0.1626486673
C  C72  1  0.28660000  0.45620000  0.65090000  1.0 -0.1626486673
C  C73  1  0.09500000  0.71520000  0.74940000  1.0 0.3517088176
C  C74  1  0.28480000  0.90500000  0.24940000  1.0 0.3517088176
C  C75  1  0.13370000  0.65510000  0.80690000  1.0 0.3660189838
C  C76  1  0.34490000  0.86630000  0.30690000  1.0 0.3660189838
C  C77  1  0.58940000  0.62200000  0.44460000  1.0 0.0526098863
C  C78  1  0.37800000  0.41060000  0.94460000  1.0 0.0526098863
C  C79  1  0.73650000  0.31090000  0.80530000  1.0 0.0695752294
C  C80  1  0.68910000  0.26350000  0.30530000  1.0 0.0695752294
C  C81  1  0.97580000  0.56920000  0.78400000  1.0 0.3442755969
C  C82  1  0.43080000  0.02420000  0.28400000  1.0 0.3442755969
C  C83  1  0.84120000  0.73420000  0.46960000  1.0 0.3517088176
C  C84  1  0.26580000  0.15880000  0.96960000  1.0 0.3517088176
C  C85  1  0.12420000  0.79060000  0.71360000  1.0 0.0526098863
C  C86  1  0.20940000  0.87580000  0.21360000  1.0 0.0526098863
C  C87  1  0.87550000  0.57810000  0.34920000  1.0 0.0922763519
C  C88  1  0.42190000  0.12450000  0.84920000  1.0 0.0922763519
C  C89  1  0.92760000  0.80780000  0.49880000  1.0 0.0526098863
C  C90  1  0.19220000  0.07240000  0.99880000  1.0 0.0526098863
C  C91  1  0.44180000  0.57600000  0.40730000  1.0 0.1014352737
C  C92  1  0.42400000  0.55820000  0.90730000  1.0 0.1014352737
C  C93  1  0.78680000  0.60100000  0.38050000  1.0 0.0695752294
C  C94  1  0.39900000  0.21320000  0.88050000  1.0 0.0695752294
C  C95  1  0.24590000  0.93570000  0.66930000  1.0 0.076273898
C  C96  1  0.06430000  0.75410000  0.16930000  1.0 0.076273898
C  C97  1  0.87190000  0.47970000  0.78400000  1.0 0.0695752294
C  C98  1  0.52030000  0.12810000  0.28400000  1.0 0.0695752294
C  C99  1  0.68310000  0.64730000  0.44480000  1.0 0.3284255893
C  C100  1  0.35270000  0.31690000  0.94480000  1.0 0.3284255893
C  C101  1  0.05320000  0.78560000  0.68780000  1.0 -0.1486295818
C  C102  1  0.21440000  0.94680000  0.18780000  1.0 -0.1486295818
C  C103  1  0.77560000  0.63900000  0.41510000  1.0 0.3838426502
C  C104  1  0.36100000  0.22440000  0.91510000  1.0 0.3838426502
C  C105  1  0.21300000  0.66900000  0.83740000  1.0 0.0399216091
C  C106  1  0.33100000  0.78700000  0.33740000  1.0 0.0399216091
C  C107  1  0.70770000  0.38890000  0.75380000  1.0 0.0575801053
C  C108  1  0.61110000  0.29230000  0.25380000  1.0 0.0575801053
C  C109  1  0.22370000  0.87130000  0.70470000  1.0 -0.188779088
C  C110  1  0.12870000  0.77630000  0.20470000  1.0 -0.188779088
C  C111  1  0.86670000  0.61390000  0.38200000  1.0 -0.1486295818
C  C112  1  0.38610000  0.13330000  0.88200000  1.0 -0.1486295818
C  C113  1  0.92830000  0.86250000  0.52340000  1.0 -0.1626486673
C  C114  1  0.13750000  0.07170000  0.02340000  1.0 -0.1626486673
C  C115  1  0.47340000  0.60480000  0.47730000  1.0 0.076273898
C  C116  1  0.39520000  0.52660000  0.97730000  1.0 0.076273898
C  C117  1  0.83530000  0.39510000  0.80950000  1.0 -0.1829049209
C  C118  1  0.60490000  0.16470000  0.30950000  1.0 -0.1829049209
C  C119  1  0.00670000  0.92810000  0.54970000  1.0 0.0695752294
C  C120  1  0.07190000  0.99330000  0.04970000  1.0 0.0695752294
C  C121  1  0.26590000  0.62930000  0.90230000  1.0 0.0922763519
C  C122  1  0.37070000  0.73410000  0.40230000  1.0 0.0922763519
C  C123  1  0.09160000  0.89120000  0.52900000  1.0 0.0695752294
C  C124  1  0.10880000  0.90840000  0.02900000  1.0 0.0695752294
C  C125  1  0.80450000  0.47570000  0.75530000  1.0 -0.1486295818
C  C126  1  0.52430000  0.19550000  0.25530000  1.0 -0.1486295818
C  C127  1  0.37940000  0.75360000  0.85590000  1.0 0.0575801053
C  C128  1  0.24640000  0.62060000  0.35590000  1.0 0.0575801053
C  C129  1  0.08330000  0.85690000  0.65500000  1.0 0.0922763519
C  C130  1  0.14310000  0.91670000  0.15500000  1.0 0.0922763519
C  C131  1  0.00970000  0.82130000  0.50290000  1.0 -0.1281124993
C  C132  1  0.17870000  0.99030000  0.00290000  1.0 -0.1281124993
C  C133  1  0.18660000  0.60760000  0.87470000  1.0 -0.1486295818
C  C134  1  0.39240000  0.81340000  0.37470000  1.0 -0.1486295818
C  C135  1  0.31040000  0.74340000  0.82940000  1.0 -0.1665549992
C  C136  1  0.25660000  0.68960000  0.32940000  1.0 -0.1665549992
C  C137  1  0.56240000  0.63000000  0.47990000  1.0 -0.188779088
C  C138  1  0.37000000  0.43760000  0.97990000  1.0 -0.188779088
C  C139  1  0.53070000  0.59970000  0.40660000  1.0 -0.1486295818
C  C140  1  0.40030000  0.46930000  0.90660000  1.0 -0.1486295818
C  C141  1  0.72550000  0.50770000  0.32200000  1.0 0.0399216091
C  C142  1  0.49230000  0.27450000  0.82200000  1.0 0.0399216091
C  C143  1  0.71340000  0.54380000  0.34910000  1.0 -0.1626486673
C  C144  1  0.45620000  0.28660000  0.84910000  1.0 -0.1626486673
I  I1  1  0.02611000  0.49173000  0.70893000  1.0 -0.4707407771
I  I2  1  0.50827000  0.97389000  0.20893000  1.0 -0.4707407771
I  I3  1  0.20920000  0.45982000  0.80304000  1.0 -0.451084227
I  I4  1  0.54018000  0.79080000  0.30304000  1.0 -0.451084227
I  I5  1  0.84194000  0.62762000  0.60149000  1.0 -0.4889426796
I  I6  1  0.37238000  0.15806000  0.10149000  1.0 -0.4889426796
I  I7  1  0.13286000  0.18404000  0.87263000  1.0 -0.451084227
I  I8  1  0.81596000  0.86714000  0.37263000  1.0 -0.451084227
I  I9  1  0.74832000  0.45046000  0.49048000  1.0 -0.4641854583
I  I10  1  0.54954000  0.25168000  0.99048000  1.0 -0.4641854583
I  I11  1  0.10898000  0.36056000  0.93775000  1.0 -0.3564065664
I  I12  1  0.63944000  0.89102000  0.43775000  1.0 -0.3564065664
I  I13  1  0.73630000  0.90090000  0.53630000  1.0 -0.0322292667
I  I14  1  0.09910000  0.26370000  0.03630000  1.0 -0.0322292667
I  I15  1  0.88110000  0.98530000  0.60370000  1.0 -0.0746846541
I  I16  1  0.01470000  0.11890000  0.10370000  1.0 -0.0758683949
I  I17  1  0.49173000  0.02611000  0.79107000  1.0 -0.4707407771
I  I18  1  0.97389000  0.50827000  0.29107000  1.0 -0.4707407771
I  I19  1  0.45982000  0.20920000  0.69696000  1.0 -0.451084227
I  I20  1  0.79080000  0.54018000  0.19696000  1.0 -0.451084227
I  I21  1  0.62762000  0.84194000  0.89851000  1.0 -0.4889426796
I  I22  1  0.15806000  0.37238000  0.39851000  1.0 -0.4889426796
I  I23  1  0.18404000  0.13286000  0.62737000  1.0 -0.451084227
I  I24  1  0.86714000  0.81596000  0.12737000  1.0 -0.451084227
I  I25  1  0.45046000  0.74832000  0.00952000  1.0 -0.4641854583
I  I26  1  0.25168000  0.54954000  0.50952000  1.0 -0.4641854583
I  I27  1  0.36056000  0.10898000  0.56225000  1.0 -0.3564065664
I  I28  1  0.89102000  0.63944000  0.06225000  1.0 -0.3564065664
I  I29  1  0.90090000  0.73630000  0.96370000  1.0 -0.0322292667
I  I30  1  0.26370000  0.09910000  0.46370000  1.0 -0.0322292667
I  I31  1  0.98530000  0.88110000  0.89630000  1.0 -0.0758683949
I  I32  1  0.11890000  0.01470000  0.39630000  1.0 -0.0758683949
N  N1  1  0.30640000  0.67320000  0.72200000  1.0 -0.1829049209
N  N2  1  0.32680000  0.69360000  0.22200000  1.0 -0.1829049209
N  N3  1  0.57540000  0.04180000  0.68750000  1.0 -0.4000111737
N  N4  1  0.95820000  0.42460000  0.18750000  1.0 -0.4000111737
N  N5  1  0.94350000  0.08970000  0.94700000  1.0 -0.2038966386
N  N6  1  0.91030000  0.05650000  0.44700000  1.0 -0.2038966386
N  N7  1  0.70160000  0.85460000  0.05960000  1.0 -0.4000111737
N  N8  1  0.14540000  0.29840000  0.55960000  1.0 -0.4000111737
N  N9  1  0.92850000  0.17450000  0.85510000  1.0 -0.1829049209
N  N10  1  0.82550000  0.07150000  0.35510000  1.0 -0.1829049209
N  N11  1  0.70600000  0.75540000  0.02560000  1.0 -0.3099022625
N  N12  1  0.24460000  0.29400000  0.52560000  1.0 -0.3099022625
N  N13  1  0.64020000  0.99940000  0.74740000  1.0 -0.4000111737
N  N14  1  0.00060000  0.35980000  0.24740000  1.0 -0.4000111737
N  N15  1  0.57390000  0.41230000  0.05790000  1.0 -0.188779088
N  N16  1  0.58770000  0.42610000  0.55790000  1.0 -0.188779088
N  N17  1  0.69760000  0.35940000  0.60610000  1.0 -0.188779088
N  N18  1  0.64060000  0.30240000  0.10610000  1.0 -0.188779088
N  N19  1  0.61000000  0.69020000  0.08540000  1.0 -0.3949006765
N  N20  1  0.30980000  0.39000000  0.58540000  1.0 -0.3949006765
N  N21  1  0.72670000  0.16710000  0.72490000  1.0 -0.3322417109
N  N22  1  0.83290000  0.27330000  0.22490000  1.0 -0.3322417109
N  N23  1  0.52688000  0.80648000  0.18030000  1.0 -0.188779088
N  N24  1  0.19352000  0.47312000  0.68030000  1.0 -0.188779088
N  N25  1  0.67320000  0.30640000  0.77800000  1.0 -0.1829049209
N  N26  1  0.69360000  0.32680000  0.27800000  1.0 -0.1829049209
N  N27  1  0.04180000  0.57540000  0.81250000  1.0 -0.4000111737
N  N28  1  0.42460000  0.95820000  0.31250000  1.0 -0.4000111737
N  N29  1  0.08970000  0.94350000  0.55300000  1.0 -0.2038966386
N  N30  1  0.05650000  0.91030000  0.05300000  1.0 -0.2038966386
N  N31  1  0.85460000  0.70160000  0.44040000  1.0 -0.4000111737
N  N32  1  0.29840000  0.14540000  0.94040000  1.0 -0.4000111737
N  N33  1  0.17450000  0.92850000  0.64490000  1.0 -0.1829049209
N  N34  1  0.07150000  0.82550000  0.14490000  1.0 -0.1829049209
N  N35  1  0.75540000  0.70600000  0.47440000  1.0 -0.3099022625
N  N36  1  0.29400000  0.24460000  0.97440000  1.0 -0.3099022625
N  N37  1  0.99940000  0.64020000  0.75260000  1.0 -0.4000111737
N  N38  1  0.35980000  0.00060000  0.25260000  1.0 -0.4000111737
N  N39  1  0.41230000  0.57390000  0.44210000  1.0 -0.188779088
N  N40  1  0.42610000  0.58770000  0.94210000  1.0 -0.188779088
N  N41  1  0.35940000  0.69760000  0.89390000  1.0 -0.188779088
N  N42  1  0.30240000  0.64060000  0.39390000  1.0 -0.188779088
N  N43  1  0.69020000  0.61000000  0.41460000  1.0 -0.3949006765
N  N44  1  0.39000000  0.30980000  0.91460000  1.0 -0.3949006765
N  N45  1  0.16710000  0.72670000  0.77510000  1.0 -0.3322417109
N  N46  1  0.27330000  0.83290000  0.27510000  1.0 -0.3322417109
N  N47  1  0.80648000  0.52688000  0.31970000  1.0 -0.188779088
N  N48  1  0.47312000  0.19352000  0.81970000  1.0 -0.188779088
