# DDEC6 charges by PACMAN v1.1 (https://github.com/mtap-research/PACMAN-charge/)
data_UMEKAA_FSR_pacman
_symmetry_space_group_name_H-M   'P 1'
_cell_length_a   10.29200000
_cell_length_b   16.00200000
_cell_length_c   27.25000000
_cell_angle_alpha   90.00000000
_cell_angle_beta   90.00000000
_cell_angle_gamma   90.00000000
_symmetry_Int_Tables_number   1
_chemical_formula_structural   Zn2H18C11N19O4
_chemical_formula_sum   'Zn8 H72 C44 N76 O16'
_cell_volume   4487.87291400
_cell_formula_units_Z   4
loop_
 _symmetry_equiv_pos_site_id
 _symmetry_equiv_pos_as_xyz
  1  'x, y, z'
loop_
 _atom_site_type_symbol
 _atom_site_label
 _atom_site_symmetry_multiplicity
 _atom_site_fract_x
 _atom_site_fract_y
 _atom_site_fract_z
 _atom_site_occupancy
 _atom_site_charge
Zn  Zn1  1  0.55555000  0.05828000  0.19922000  1.0 0.7411839568
Zn  Zn2  1  0.05555000  0.94172000  0.30078000  1.0 0.7411839568
Zn  Zn3  1  0.44445000  0.55828000  0.80078000  1.0 0.7411839568
Zn  Zn4  1  0.94445000  0.44172000  0.69922000  1.0 0.7411839568
Zn  Zn5  1  0.44445000  0.94172000  0.80078000  1.0 0.7411839568
Zn  Zn6  1  0.94445000  0.05828000  0.69922000  1.0 0.7411839568
Zn  Zn7  1  0.55555000  0.44172000  0.19922000  1.0 0.7411839568
Zn  Zn8  1  0.05555000  0.55828000  0.30078000  1.0 0.7411839568
H  H1  1  0.41350000  0.20130000  0.13460000  1.0 0.3398347066
H  H2  1  0.91350000  0.79870000  0.36540000  1.0 0.3398347066
H  H3  1  0.58650000  0.70130000  0.86540000  1.0 0.3398347066
H  H4  1  0.08650000  0.29870000  0.63460000  1.0 0.3398347066
H  H5  1  0.58650000  0.79870000  0.86540000  1.0 0.3398347066
H  H6  1  0.08650000  0.20130000  0.63460000  1.0 0.3398347066
H  H7  1  0.41350000  0.29870000  0.13460000  1.0 0.3398347066
H  H8  1  0.91350000  0.70130000  0.36540000  1.0 0.3398347066
H  H9  1  0.25910000  0.08040000  0.17780000  1.0 0.3398347066
H  H10  1  0.75910000  0.91960000  0.32220000  1.0 0.3398347066
H  H11  1  0.74090000  0.58040000  0.82220000  1.0 0.3398347066
H  H12  1  0.24090000  0.41960000  0.67780000  1.0 0.3398347066
H  H13  1  0.74090000  0.91960000  0.82220000  1.0 0.3398347066
H  H14  1  0.24090000  0.08040000  0.67780000  1.0 0.3398347066
H  H15  1  0.25910000  0.41960000  0.17780000  1.0 0.3398347066
H  H16  1  0.75910000  0.58040000  0.32220000  1.0 0.3398347066
H  H17  1  0.12900000  0.05070000  0.20130000  1.0 0.3010846579
H  H18  1  0.62900000  0.94930000  0.29870000  1.0 0.3010846579
H  H19  1  0.87100000  0.55070000  0.79870000  1.0 0.3010846579
H  H20  1  0.37100000  0.44930000  0.70130000  1.0 0.3010846579
H  H21  1  0.87100000  0.94930000  0.79870000  1.0 0.3010846579
H  H22  1  0.37100000  0.05070000  0.70130000  1.0 0.3010846579
H  H23  1  0.12900000  0.44930000  0.20130000  1.0 0.3010846579
H  H24  1  0.62900000  0.55070000  0.29870000  1.0 0.3010846579
H  H25  1  0.30500000  0.06680000  0.02620000  1.0 0.006768171
H  H26  1  0.80500000  0.93320000  0.47380000  1.0 0.006768171
H  H27  1  0.69500000  0.56680000  0.97380000  1.0 0.006768171
H  H28  1  0.19500000  0.43320000  0.52620000  1.0 0.006768171
H  H29  1  0.69500000  0.93320000  0.97380000  1.0 0.006768171
H  H30  1  0.19500000  0.06680000  0.52620000  1.0 0.006768171
H  H31  1  0.30500000  0.43320000  0.02620000  1.0 0.006768171
H  H32  1  0.80500000  0.56680000  0.47380000  1.0 0.006768171
H  H33  1  0.75890000  0.95120000  0.04590000  1.0 0.1943969631
H  H34  1  0.25890000  0.04880000  0.45410000  1.0 0.1961001658
H  H35  1  0.24110000  0.45120000  0.95410000  1.0 0.1961001658
H  H36  1  0.74110000  0.54880000  0.54590000  1.0 0.1961001658
H  H37  1  0.24110000  0.04880000  0.95410000  1.0 0.1961001658
H  H38  1  0.74110000  0.95120000  0.54590000  1.0 0.1961001658
H  H39  1  0.75890000  0.54880000  0.04590000  1.0 0.1943969631
H  H40  1  0.25890000  0.45120000  0.45410000  1.0 0.1961001658
H  H41  1  0.68530000  0.98390000  0.08890000  1.0 0.2581436575
H  H42  1  0.18530000  0.01610000  0.41110000  1.0 0.2581436575
H  H43  1  0.31470000  0.48390000  0.91110000  1.0 0.2581436575
H  H44  1  0.81470000  0.51610000  0.58890000  1.0 0.2581436575
H  H45  1  0.31470000  0.01610000  0.91110000  1.0 0.2581436575
H  H46  1  0.81470000  0.98390000  0.58890000  1.0 0.2581436575
H  H47  1  0.68530000  0.51610000  0.08890000  1.0 0.2581436575
H  H48  1  0.18530000  0.48390000  0.41110000  1.0 0.2581436575
H  H49  1  0.65830000  0.97630000  0.05430000  1.0 -0.009913175
H  H50  1  0.15830000  0.02370000  0.44570000  1.0 -0.009913175
H  H51  1  0.34170000  0.47630000  0.94570000  1.0 -0.009913175
H  H52  1  0.84170000  0.52370000  0.55430000  1.0 -0.009913175
H  H53  1  0.34170000  0.02370000  0.94570000  1.0 -0.009913175
H  H54  1  0.84170000  0.97630000  0.55430000  1.0 -0.009913175
H  H55  1  0.65830000  0.52370000  0.05430000  1.0 -0.009913175
H  H56  1  0.15830000  0.47630000  0.44570000  1.0 -0.009913175
H  H57  1  0.21940000  0.09000000  0.00360000  1.0 0.180362459
H  H58  1  0.71940000  0.91000000  0.49640000  1.0 0.180362459
H  H59  1  0.78060000  0.59000000  0.99640000  1.0 0.180362459
H  H60  1  0.28060000  0.41000000  0.50360000  1.0 0.180362459
H  H61  1  0.78060000  0.91000000  0.99640000  1.0 0.180362459
H  H62  1  0.28060000  0.09000000  0.50360000  1.0 0.180362459
H  H63  1  0.21940000  0.41000000  0.00360000  1.0 0.180362459
H  H64  1  0.71940000  0.59000000  0.49640000  1.0 0.180362459
H  H65  1  0.25950000  0.09520000  0.05610000  1.0 0.2218965196
H  H66  1  0.75950000  0.90480000  0.44390000  1.0 0.2263779196
H  H67  1  0.74050000  0.59520000  0.94390000  1.0 0.2263779196
H  H68  1  0.24050000  0.40480000  0.55610000  1.0 0.2263779196
H  H69  1  0.74050000  0.90480000  0.94390000  1.0 0.2263779196
H  H70  1  0.24050000  0.09520000  0.55610000  1.0 0.2218965196
H  H71  1  0.25950000  0.40480000  0.05610000  1.0 0.2263779196
H  H72  1  0.75950000  0.59520000  0.44390000  1.0 0.2263779196
C  C1  1  0.46880000  0.04460000  0.10205000  1.0 0.5724573412
C  C2  1  0.96880000  0.95540000  0.39795000  1.0 0.5724573412
C  C3  1  0.53120000  0.54460000  0.89795000  1.0 0.5724573412
C  C4  1  0.03120000  0.45540000  0.60205000  1.0 0.5724573412
C  C5  1  0.53120000  0.95540000  0.89795000  1.0 0.5724573412
C  C6  1  0.03120000  0.04460000  0.60205000  1.0 0.5724573412
C  C7  1  0.46880000  0.45540000  0.10205000  1.0 0.5724573412
C  C8  1  0.96880000  0.54460000  0.39795000  1.0 0.5724573412
C  C9  1  0.51670000  0.25000000  0.18699000  1.0 0.470253823
C  C10  1  0.01670000  0.75000000  0.31301000  1.0 0.470253823
C  C11  1  0.48330000  0.75000000  0.81301000  1.0 0.470253823
C  C12  1  0.98330000  0.25000000  0.68699000  1.0 0.470253823
C  C13  1  0.28200000  0.01416000  0.23679000  1.0 0.4914734864
C  C14  1  0.78200000  0.98584000  0.26321000  1.0 0.4914734864
C  C15  1  0.71800000  0.51416000  0.76321000  1.0 0.4914734864
C  C16  1  0.21800000  0.48584000  0.73679000  1.0 0.4914734864
C  C17  1  0.71800000  0.98584000  0.76321000  1.0 0.4914734864
C  C18  1  0.21800000  0.01416000  0.73679000  1.0 0.4914734864
C  C19  1  0.28200000  0.48584000  0.23679000  1.0 0.4914734864
C  C20  1  0.78200000  0.51416000  0.26321000  1.0 0.4914734864
C  C21  1  0.48440000  0.02070000  0.04951000  1.0 -0.1790161657
C  C22  1  0.98440000  0.97930000  0.45049000  1.0 -0.1790161657
C  C23  1  0.51560000  0.52070000  0.95049000  1.0 -0.1790161657
C  C24  1  0.01560000  0.47930000  0.54951000  1.0 -0.1790161657
C  C25  1  0.51560000  0.97930000  0.95049000  1.0 -0.1790161657
C  C26  1  0.01560000  0.02070000  0.54951000  1.0 -0.1790161657
C  C27  1  0.48440000  0.47930000  0.04951000  1.0 -0.1790161657
C  C28  1  0.98440000  0.52070000  0.45049000  1.0 -0.1790161657
C  C29  1  0.38730000  0.03970000  0.01553000  1.0 0.0688476019
C  C30  1  0.88730000  0.96030000  0.48447000  1.0 0.0688476019
C  C31  1  0.61270000  0.53970000  0.98447000  1.0 0.0688476019
C  C32  1  0.11270000  0.46030000  0.51553000  1.0 0.0688476019
C  C33  1  0.61270000  0.96030000  0.98447000  1.0 0.0688476019
C  C34  1  0.11270000  0.03970000  0.51553000  1.0 0.0688476019
C  C35  1  0.38730000  0.46030000  0.01553000  1.0 0.0688476019
C  C36  1  0.88730000  0.53970000  0.48447000  1.0 0.0688476019
C  C37  1  0.59650000  0.98230000  0.03285000  1.0 0.1196386904
C  C38  1  0.09650000  0.01770000  0.46715000  1.0 0.1196386904
C  C39  1  0.40350000  0.48230000  0.96715000  1.0 0.1196386904
C  C40  1  0.90350000  0.51770000  0.53285000  1.0 0.1196386904
C  C41  1  0.40350000  0.01770000  0.96715000  1.0 0.1196386904
C  C42  1  0.90350000  0.98230000  0.53285000  1.0 0.1196386904
C  C43  1  0.59650000  0.51770000  0.03285000  1.0 0.1196386904
C  C44  1  0.09650000  0.48230000  0.46715000  1.0 0.1196386904
N  N1  1  0.56070000  0.18077000  0.20926000  1.0 -0.3516487687
N  N2  1  0.06070000  0.81923000  0.29074000  1.0 -0.3516487687
N  N3  1  0.43930000  0.68077000  0.79074000  1.0 -0.3516487687
N  N4  1  0.93930000  0.31923000  0.70926000  1.0 -0.3516487687
N  N5  1  0.43930000  0.81923000  0.79074000  1.0 -0.3516487687
N  N6  1  0.93930000  0.18077000  0.70926000  1.0 -0.3516487687
N  N7  1  0.56070000  0.31923000  0.20926000  1.0 -0.3516487687
N  N8  1  0.06070000  0.68077000  0.29074000  1.0 -0.3516487687
N  N9  1  0.41170000  0.01082000  0.23929000  1.0 -0.3415203786
N  N10  1  0.91170000  0.98918000  0.26071000  1.0 -0.3415203786
N  N11  1  0.58830000  0.51082000  0.76071000  1.0 -0.3415203786
N  N12  1  0.08830000  0.48918000  0.73929000  1.0 -0.3415203786
N  N13  1  0.58830000  0.98918000  0.76071000  1.0 -0.3415203786
N  N14  1  0.08830000  0.01082000  0.73929000  1.0 -0.3415203786
N  N15  1  0.41170000  0.48918000  0.23929000  1.0 -0.3415203786
N  N16  1  0.91170000  0.51082000  0.26071000  1.0 -0.3415203786
N  N17  1  0.72920000  0.01954000  0.22326000  1.0 -0.3059586941
N  N18  1  0.22920000  0.98046000  0.27674000  1.0 -0.3059586941
N  N19  1  0.27080000  0.51954000  0.77674000  1.0 -0.3059586941
N  N20  1  0.77080000  0.48046000  0.72326000  1.0 -0.3059586941
N  N21  1  0.27080000  0.98046000  0.77674000  1.0 -0.3059586941
N  N22  1  0.77080000  0.01954000  0.72326000  1.0 -0.3059586941
N  N23  1  0.72920000  0.48046000  0.22326000  1.0 -0.3059586941
N  N24  1  0.22920000  0.51954000  0.27674000  1.0 -0.3059586941
N  N25  1  0.62960000  0.20970000  0.24845000  1.0 -0.0714009049
N  N26  1  0.12960000  0.79030000  0.25155000  1.0 -0.0714009049
N  N27  1  0.37040000  0.70970000  0.75155000  1.0 -0.0714009049
N  N28  1  0.87040000  0.29030000  0.74845000  1.0 -0.0714009049
N  N29  1  0.37040000  0.79030000  0.75155000  1.0 -0.0714009049
N  N30  1  0.87040000  0.20970000  0.74845000  1.0 -0.0714009049
N  N31  1  0.62960000  0.29030000  0.24845000  1.0 -0.0714009049
N  N32  1  0.12960000  0.70970000  0.25155000  1.0 -0.0714009049
N  N33  1  0.43680000  0.97110000  0.28282000  1.0 -0.0617350706
N  N34  1  0.93680000  0.02890000  0.21718000  1.0 -0.0617350706
N  N35  1  0.56320000  0.47110000  0.71718000  1.0 -0.0617350706
N  N36  1  0.06320000  0.52890000  0.78282000  1.0 -0.0617350706
N  N37  1  0.56320000  0.02890000  0.71718000  1.0 -0.0617350706
N  N38  1  0.06320000  0.97110000  0.78282000  1.0 -0.0617350706
N  N39  1  0.43680000  0.52890000  0.28282000  1.0 -0.0617350706
N  N40  1  0.93680000  0.47110000  0.21718000  1.0 -0.0617350706
N  N41  1  0.43770000  0.25000000  0.14840000  1.0 -0.6204964316
N  N42  1  0.93770000  0.75000000  0.35160000  1.0 -0.6204964316
N  N43  1  0.56230000  0.75000000  0.85160000  1.0 -0.6204964316
N  N44  1  0.06230000  0.25000000  0.64840000  1.0 -0.6204964316
N  N45  1  0.21640000  0.05170000  0.20121000  1.0 -0.5888635314
N  N46  1  0.71640000  0.94830000  0.29879000  1.0 -0.5888635314
N  N47  1  0.78360000  0.55170000  0.79879000  1.0 -0.5888635314
N  N48  1  0.28360000  0.44830000  0.70121000  1.0 -0.5888635314
N  N49  1  0.78360000  0.94830000  0.79879000  1.0 -0.5888635314
N  N50  1  0.28360000  0.05170000  0.70121000  1.0 -0.5888635314
N  N51  1  0.21640000  0.44830000  0.20121000  1.0 -0.5888635314
N  N52  1  0.71640000  0.55170000  0.29879000  1.0 -0.5888635314
N  N53  1  0.32960000  0.95380000  0.30435000  1.0 -0.0714009049
N  N54  1  0.82960000  0.04620000  0.19565000  1.0 -0.0714009049
N  N55  1  0.67040000  0.45380000  0.69565000  1.0 -0.0714009049
N  N56  1  0.17040000  0.54620000  0.80435000  1.0 -0.0714009049
N  N57  1  0.67040000  0.04620000  0.69565000  1.0 -0.0714009049
N  N58  1  0.17040000  0.95380000  0.80435000  1.0 -0.0714009049
N  N59  1  0.32960000  0.54620000  0.30435000  1.0 -0.0714009049
N  N60  1  0.82960000  0.45380000  0.19565000  1.0 -0.0714009049
N  N61  1  0.68900000  0.97150000  0.05820000  1.0 -0.3664835005
N  N62  1  0.18900000  0.02850000  0.44180000  1.0 -0.3664835005
N  N63  1  0.31100000  0.47150000  0.94180000  1.0 -0.3664835005
N  N64  1  0.81100000  0.52850000  0.55820000  1.0 -0.3664835005
N  N65  1  0.31100000  0.02850000  0.94180000  1.0 -0.3664835005
N  N66  1  0.81100000  0.97150000  0.55820000  1.0 -0.3664835005
N  N67  1  0.68900000  0.52850000  0.05820000  1.0 -0.3664835005
N  N68  1  0.18900000  0.47150000  0.44180000  1.0 -0.3664835005
N  N69  1  0.27510000  0.07980000  0.02640000  1.0 -0.3841605506
N  N70  1  0.77510000  0.92020000  0.47360000  1.0 -0.3841605506
N  N71  1  0.72490000  0.57980000  0.97360000  1.0 -0.3841605506
N  N72  1  0.22490000  0.42020000  0.52640000  1.0 -0.3841605506
N  N73  1  0.72490000  0.92020000  0.97360000  1.0 -0.3841605506
N  N74  1  0.22490000  0.07980000  0.52640000  1.0 -0.3841605506
N  N75  1  0.27510000  0.42020000  0.02640000  1.0 -0.3841605506
N  N76  1  0.77510000  0.57980000  0.47360000  1.0 -0.3841605506
O  O1  1  0.56140000  0.02240000  0.13113000  1.0 -0.5017860516
O  O2  1  0.06140000  0.97760000  0.36887000  1.0 -0.5017860516
O  O3  1  0.43860000  0.52240000  0.86887000  1.0 -0.5017860516
O  O4  1  0.93860000  0.47760000  0.63113000  1.0 -0.5017860516
O  O5  1  0.43860000  0.97760000  0.86887000  1.0 -0.5017860516
O  O6  1  0.93860000  0.02240000  0.63113000  1.0 -0.5017860516
O  O7  1  0.56140000  0.47760000  0.13113000  1.0 -0.5017860516
O  O8  1  0.06140000  0.52240000  0.36887000  1.0 -0.5017860516
O  O9  1  0.37190000  0.08448000  0.11631000  1.0 -0.5315523691
O  O10  1  0.87190000  0.91552000  0.38369000  1.0 -0.5315523691
O  O11  1  0.62810000  0.58448000  0.88369000  1.0 -0.5315523691
O  O12  1  0.12810000  0.41552000  0.61631000  1.0 -0.5315523691
O  O13  1  0.62810000  0.91552000  0.88369000  1.0 -0.5315523691
O  O14  1  0.12810000  0.08448000  0.61631000  1.0 -0.5315523691
O  O15  1  0.37190000  0.41552000  0.11631000  1.0 -0.5315523691
O  O16  1  0.87190000  0.58448000  0.38369000  1.0 -0.5315523691
