# DDEC6 charges by PACMAN v1.1 (https://github.com/mtap-research/PACMAN-charge/)
data_UMODEH19_ASR_pacman
_symmetry_space_group_name_H-M   'P 1'
_cell_length_a   21.39660000
_cell_length_b   21.39660000
_cell_length_c   21.39660000
_cell_angle_alpha   113.16800000
_cell_angle_beta   113.16800000
_cell_angle_gamma   113.16800000
_symmetry_Int_Tables_number   1
_chemical_formula_structural   CuH18C22O5
_chemical_formula_sum   'Cu6 H108 C132 O30'
_cell_volume   6301.65348995
_cell_formula_units_Z   6
loop_
 _symmetry_equiv_pos_site_id
 _symmetry_equiv_pos_as_xyz
  1  'x, y, z'
loop_
 _atom_site_type_symbol
 _atom_site_label
 _atom_site_symmetry_multiplicity
 _atom_site_fract_x
 _atom_site_fract_y
 _atom_site_fract_z
 _atom_site_occupancy
 _atom_site_charge
Cu  Cu1  1  0.41449000  0.93125000  0.93125000  1.0 0.8463509782
Cu  Cu2  1  0.93125000  0.93125000  0.41449000  1.0 0.8463509782
Cu  Cu3  1  0.93125000  0.41449000  0.93125000  1.0 0.8463509782
Cu  Cu4  1  0.06875000  0.58551000  0.06875000  1.0 0.8463509782
Cu  Cu5  1  0.06875000  0.06875000  0.58551000  1.0 0.8463509782
Cu  Cu6  1  0.58551000  0.06875000  0.06875000  1.0 0.8463509782
H  H1  1  0.31860000  0.07180000  0.90030000  1.0 0.1195681124
H  H2  1  0.07180000  0.90030000  0.31860000  1.0 0.1195681124
H  H3  1  0.90030000  0.31860000  0.07180000  1.0 0.1195681124
H  H4  1  0.92820000  0.68140000  0.09970000  1.0 0.1195681124
H  H5  1  0.09970000  0.92820000  0.68140000  1.0 0.1195681124
H  H6  1  0.68140000  0.09970000  0.92820000  1.0 0.1195681124
H  H7  1  0.68140000  0.92820000  0.09970000  1.0 0.1195681124
H  H8  1  0.92820000  0.09970000  0.68140000  1.0 0.1195681124
H  H9  1  0.09970000  0.68140000  0.92820000  1.0 0.1195681124
H  H10  1  0.07180000  0.31860000  0.90030000  1.0 0.1195681124
H  H11  1  0.90030000  0.07180000  0.31860000  1.0 0.1195681124
H  H12  1  0.31860000  0.90030000  0.07180000  1.0 0.1195681124
H  H13  1  0.58040000  0.27780000  0.11230000  1.0 0.1116625956
H  H14  1  0.27780000  0.11230000  0.58040000  1.0 0.1116625956
H  H15  1  0.11230000  0.58040000  0.27780000  1.0 0.1116625956
H  H16  1  0.72220000  0.41960000  0.88770000  1.0 0.1116625956
H  H17  1  0.88770000  0.72220000  0.41960000  1.0 0.1116625956
H  H18  1  0.41960000  0.88770000  0.72220000  1.0 0.1116625956
H  H19  1  0.41960000  0.72220000  0.88770000  1.0 0.1116625956
H  H20  1  0.72220000  0.88770000  0.41960000  1.0 0.1116625956
H  H21  1  0.88770000  0.41960000  0.72220000  1.0 0.1116625956
H  H22  1  0.27780000  0.58040000  0.11230000  1.0 0.1116625956
H  H23  1  0.11230000  0.27780000  0.58040000  1.0 0.1116625956
H  H24  1  0.58040000  0.11230000  0.27780000  1.0 0.1116625956
H  H25  1  0.29850000  0.17310000  0.90640000  1.0 0.1195681124
H  H26  1  0.17310000  0.90640000  0.29850000  1.0 0.1195681124
H  H27  1  0.90640000  0.29850000  0.17310000  1.0 0.1195681124
H  H28  1  0.82690000  0.70150000  0.09360000  1.0 0.1195681124
H  H29  1  0.09360000  0.82690000  0.70150000  1.0 0.1195681124
H  H30  1  0.70150000  0.09360000  0.82690000  1.0 0.1195681124
H  H31  1  0.70150000  0.82690000  0.09360000  1.0 0.1195681124
H  H32  1  0.82690000  0.09360000  0.70150000  1.0 0.1195681124
H  H33  1  0.09360000  0.70150000  0.82690000  1.0 0.1195681124
H  H34  1  0.17310000  0.29850000  0.90640000  1.0 0.1195681124
H  H35  1  0.90640000  0.17310000  0.29850000  1.0 0.1195681124
H  H36  1  0.29850000  0.90640000  0.17310000  1.0 0.1195681124
H  H37  1  0.55980000  0.37830000  0.11520000  1.0 0.1024251039
H  H38  1  0.37830000  0.11520000  0.55980000  1.0 0.1024251039
H  H39  1  0.11520000  0.55980000  0.37830000  1.0 0.1024251039
H  H40  1  0.62170000  0.44020000  0.88480000  1.0 0.1024251039
H  H41  1  0.88480000  0.62170000  0.44020000  1.0 0.1024251039
H  H42  1  0.44020000  0.88480000  0.62170000  1.0 0.1024251039
H  H43  1  0.44020000  0.62170000  0.88480000  1.0 0.1024251039
H  H44  1  0.62170000  0.88480000  0.44020000  1.0 0.1024251039
H  H45  1  0.88480000  0.44020000  0.62170000  1.0 0.1024251039
H  H46  1  0.37830000  0.55980000  0.11520000  1.0 0.1024251039
H  H47  1  0.11520000  0.37830000  0.55980000  1.0 0.1024251039
H  H48  1  0.55980000  0.11520000  0.37830000  1.0 0.1024251039
H  H49  1  0.51510000  0.40270000  0.00200000  1.0 0.1024251039
H  H50  1  0.40270000  0.00200000  0.51510000  1.0 0.1024251039
H  H51  1  0.00200000  0.51510000  0.40270000  1.0 0.1024251039
H  H52  1  0.59730000  0.48490000  0.99800000  1.0 0.1024251039
H  H53  1  0.99800000  0.59730000  0.48490000  1.0 0.1024251039
H  H54  1  0.48490000  0.99800000  0.59730000  1.0 0.1024251039
H  H55  1  0.48490000  0.59730000  0.99800000  1.0 0.1024251039
H  H56  1  0.59730000  0.99800000  0.48490000  1.0 0.1024251039
H  H57  1  0.99800000  0.48490000  0.59730000  1.0 0.1024251039
H  H58  1  0.40270000  0.51510000  0.00200000  1.0 0.1024251039
H  H59  1  0.00200000  0.40270000  0.51510000  1.0 0.1024251039
H  H60  1  0.51510000  0.00200000  0.40270000  1.0 0.1024251039
H  H61  1  0.38830000  0.34310000  0.13500000  1.0 0.1116625956
H  H62  1  0.34310000  0.13500000  0.38830000  1.0 0.1116625956
H  H63  1  0.13500000  0.38830000  0.34310000  1.0 0.1116625956
H  H64  1  0.65690000  0.61170000  0.86500000  1.0 0.1116625956
H  H65  1  0.86500000  0.65690000  0.61170000  1.0 0.1116625956
H  H66  1  0.61170000  0.86500000  0.65690000  1.0 0.1116625956
H  H67  1  0.61170000  0.65690000  0.86500000  1.0 0.1116625956
H  H68  1  0.65690000  0.86500000  0.61170000  1.0 0.1116625956
H  H69  1  0.86500000  0.61170000  0.65690000  1.0 0.1116625956
H  H70  1  0.34310000  0.38830000  0.13500000  1.0 0.1116625956
H  H71  1  0.13500000  0.34310000  0.38830000  1.0 0.1116625956
H  H72  1  0.38830000  0.13500000  0.34310000  1.0 0.1116625956
H  H73  1  0.26040000  0.25920000  0.13830000  1.0 0.1116625956
H  H74  1  0.25920000  0.13830000  0.26040000  1.0 0.1116625956
H  H75  1  0.13830000  0.26040000  0.25920000  1.0 0.1116625956
H  H76  1  0.74080000  0.73960000  0.86170000  1.0 0.1116625956
H  H77  1  0.86170000  0.74080000  0.73960000  1.0 0.1116625956
H  H78  1  0.73960000  0.86170000  0.74080000  1.0 0.1116625956
H  H79  1  0.73960000  0.74080000  0.86170000  1.0 0.1116625956
H  H80  1  0.74080000  0.86170000  0.73960000  1.0 0.1116625956
H  H81  1  0.86170000  0.73960000  0.74080000  1.0 0.1116625956
H  H82  1  0.25920000  0.26040000  0.13830000  1.0 0.1116625956
H  H83  1  0.13830000  0.25920000  0.26040000  1.0 0.1116625956
H  H84  1  0.26040000  0.13830000  0.25920000  1.0 0.1116625956
H  H85  1  0.23190000  0.18770000  0.04600000  1.0 0.1024251039
H  H86  1  0.18770000  0.04600000  0.23190000  1.0 0.1024251039
H  H87  1  0.04600000  0.23190000  0.18770000  1.0 0.1024251039
H  H88  1  0.81230000  0.76810000  0.95400000  1.0 0.1024251039
H  H89  1  0.95400000  0.81230000  0.76810000  1.0 0.1024251039
H  H90  1  0.76810000  0.95400000  0.81230000  1.0 0.1024251039
H  H91  1  0.76810000  0.81230000  0.95400000  1.0 0.1024251039
H  H92  1  0.81230000  0.95400000  0.76810000  1.0 0.1024251039
H  H93  1  0.95400000  0.76810000  0.81230000  1.0 0.1024251039
H  H94  1  0.18770000  0.23190000  0.04600000  1.0 0.1024251039
H  H95  1  0.04600000  0.18770000  0.23190000  1.0 0.1024251039
H  H96  1  0.23190000  0.04600000  0.18770000  1.0 0.1024251039
H  H97  1  0.18840000  0.23360000  0.04810000  1.0 0.1024251039
H  H98  1  0.23360000  0.04810000  0.18840000  1.0 0.1024251039
H  H99  1  0.04810000  0.18840000  0.23360000  1.0 0.1024251039
H  H100  1  0.76640000  0.81160000  0.95190000  1.0 0.1024251039
H  H101  1  0.95190000  0.76640000  0.81160000  1.0 0.1024251039
H  H102  1  0.81160000  0.95190000  0.76640000  1.0 0.1024251039
H  H103  1  0.81160000  0.76640000  0.95190000  1.0 0.1024251039
H  H104  1  0.76640000  0.95190000  0.81160000  1.0 0.1024251039
H  H105  1  0.95190000  0.81160000  0.76640000  1.0 0.1024251039
H  H106  1  0.23360000  0.18840000  0.04810000  1.0 0.1024251039
H  H107  1  0.04810000  0.23360000  0.18840000  1.0 0.1024251039
H  H108  1  0.18840000  0.04810000  0.23360000  1.0 0.1024251039
C  C1  1  0.46697000  0.10096000  0.00117000  1.0 0.5707324548
C  C2  1  0.10096000  0.00117000  0.46697000  1.0 0.5707324548
C  C3  1  0.00117000  0.46697000  0.10096000  1.0 0.5707324548
C  C4  1  0.89904000  0.53303000  0.99883000  1.0 0.5707324548
C  C5  1  0.99883000  0.89904000  0.53303000  1.0 0.5707324548
C  C6  1  0.53303000  0.99883000  0.89904000  1.0 0.5707324548
C  C7  1  0.53303000  0.89904000  0.99883000  1.0 0.5707324548
C  C8  1  0.89904000  0.99883000  0.53303000  1.0 0.5707324548
C  C9  1  0.99883000  0.53303000  0.89904000  1.0 0.5707324548
C  C10  1  0.10096000  0.46697000  0.00117000  1.0 0.5707324548
C  C11  1  0.00117000  0.10096000  0.46697000  1.0 0.5707324548
C  C12  1  0.46697000  0.00117000  0.10096000  1.0 0.5707324548
C  C13  1  0.45213000  0.16514000  0.00553000  1.0 -0.0301029537
C  C14  1  0.16514000  0.00553000  0.45213000  1.0 -0.0301029537
C  C15  1  0.00553000  0.45213000  0.16514000  1.0 -0.0301029537
C  C16  1  0.83486000  0.54787000  0.99447000  1.0 -0.0301029537
C  C17  1  0.99447000  0.83486000  0.54787000  1.0 -0.0301029537
C  C18  1  0.54787000  0.99447000  0.83486000  1.0 -0.0301029537
C  C19  1  0.54787000  0.83486000  0.99447000  1.0 -0.0301029537
C  C20  1  0.83486000  0.99447000  0.54787000  1.0 -0.0301029537
C  C21  1  0.99447000  0.54787000  0.83486000  1.0 -0.0301029537
C  C22  1  0.16514000  0.45213000  0.00553000  1.0 -0.0301029537
C  C23  1  0.00553000  0.16514000  0.45213000  1.0 -0.0301029537
C  C24  1  0.45213000  0.00553000  0.16514000  1.0 -0.0301029537
C  C25  1  0.36818000  0.13416000  0.94436000  1.0 -0.0729026468
C  C26  1  0.13416000  0.94436000  0.36818000  1.0 -0.0729026468
C  C27  1  0.94436000  0.36818000  0.13416000  1.0 -0.0729026468
C  C28  1  0.86584000  0.63182000  0.05564000  1.0 -0.0729026468
C  C29  1  0.05564000  0.86584000  0.63182000  1.0 -0.0729026468
C  C30  1  0.63182000  0.05564000  0.86584000  1.0 -0.0729026468
C  C31  1  0.63182000  0.86584000  0.05564000  1.0 -0.0729026468
C  C32  1  0.86584000  0.05564000  0.63182000  1.0 -0.0729026468
C  C33  1  0.05564000  0.63182000  0.86584000  1.0 -0.0729026468
C  C34  1  0.13416000  0.36818000  0.94436000  1.0 -0.0729026468
C  C35  1  0.94436000  0.13416000  0.36818000  1.0 -0.0729026468
C  C36  1  0.36818000  0.94436000  0.13416000  1.0 -0.0729026468
C  C37  1  0.52276000  0.25587000  0.06917000  1.0 -0.0959403971
C  C38  1  0.25587000  0.06917000  0.52276000  1.0 -0.0959403971
C  C39  1  0.06917000  0.52276000  0.25587000  1.0 -0.0959403971
C  C40  1  0.74413000  0.47724000  0.93083000  1.0 -0.0959403971
C  C41  1  0.93083000  0.74413000  0.47724000  1.0 -0.0959403971
C  C42  1  0.47724000  0.93083000  0.74413000  1.0 -0.0959403971
C  C43  1  0.47724000  0.74413000  0.93083000  1.0 -0.0959403971
C  C44  1  0.74413000  0.93083000  0.47724000  1.0 -0.0959403971
C  C45  1  0.93083000  0.47724000  0.74413000  1.0 -0.0959403971
C  C46  1  0.25587000  0.52276000  0.06917000  1.0 -0.0959403971
C  C47  1  0.06917000  0.25587000  0.52276000  1.0 -0.0959403971
C  C48  1  0.52276000  0.06917000  0.25587000  1.0 -0.0959403971
C  C49  1  0.35674000  0.19491000  0.94755000  1.0 -0.1307344333
C  C50  1  0.19491000  0.94755000  0.35674000  1.0 -0.1307344333
C  C51  1  0.94755000  0.35674000  0.19491000  1.0 -0.1307344333
C  C52  1  0.80509000  0.64326000  0.05245000  1.0 -0.1307344333
C  C53  1  0.05245000  0.80509000  0.64326000  1.0 -0.1307344333
C  C54  1  0.64326000  0.05245000  0.80509000  1.0 -0.1307344333
C  C55  1  0.64326000  0.80509000  0.05245000  1.0 -0.1307344333
C  C56  1  0.80509000  0.05245000  0.64326000  1.0 -0.1307344333
C  C57  1  0.05245000  0.64326000  0.80509000  1.0 -0.1307344333
C  C58  1  0.19491000  0.35674000  0.94755000  1.0 -0.1307344333
C  C59  1  0.94755000  0.19491000  0.35674000  1.0 -0.1307344333
C  C60  1  0.35674000  0.94755000  0.19491000  1.0 -0.1307344333
C  C61  1  0.51068000  0.31572000  0.07090000  1.0 -0.144663413
C  C62  1  0.31572000  0.07090000  0.51068000  1.0 -0.1473805056
C  C63  1  0.07090000  0.51068000  0.31572000  1.0 -0.1473805056
C  C64  1  0.68428000  0.48932000  0.92910000  1.0 -0.144663413
C  C65  1  0.92910000  0.68428000  0.48932000  1.0 -0.1473805056
C  C66  1  0.48932000  0.92910000  0.68428000  1.0 -0.144663413
C  C67  1  0.48932000  0.68428000  0.92910000  1.0 -0.144663413
C  C68  1  0.68428000  0.92910000  0.48932000  1.0 -0.144663413
C  C69  1  0.92910000  0.48932000  0.68428000  1.0 -0.1473805056
C  C70  1  0.31572000  0.51068000  0.07090000  1.0 -0.144663413
C  C71  1  0.07090000  0.31572000  0.51068000  1.0 -0.1473805056
C  C72  1  0.51068000  0.07090000  0.31572000  1.0 -0.1473805056
C  C73  1  0.42521000  0.28299000  0.00670000  1.0 0.0812353471
C  C74  1  0.28299000  0.00670000  0.42521000  1.0 0.0812353471
C  C75  1  0.00670000  0.42521000  0.28299000  1.0 0.0812353471
C  C76  1  0.71701000  0.57479000  0.99330000  1.0 0.0812353471
C  C77  1  0.99330000  0.71701000  0.57479000  1.0 0.0812353471
C  C78  1  0.57479000  0.99330000  0.71701000  1.0 0.0812353471
C  C79  1  0.57479000  0.71701000  0.99330000  1.0 0.0812353471
C  C80  1  0.71701000  0.99330000  0.57479000  1.0 0.0812353471
C  C81  1  0.99330000  0.57479000  0.71701000  1.0 0.0812353471
C  C82  1  0.28299000  0.42521000  0.00670000  1.0 0.0812353471
C  C83  1  0.00670000  0.28299000  0.42521000  1.0 0.0812353471
C  C84  1  0.42521000  0.00670000  0.28299000  1.0 0.0812353471
C  C85  1  0.41640000  0.34887000  0.00633000  1.0 -0.013498235
C  C86  1  0.34887000  0.00633000  0.41640000  1.0 -0.013498235
C  C87  1  0.00633000  0.41640000  0.34887000  1.0 -0.013498235
C  C88  1  0.65113000  0.58360000  0.99367000  1.0 -0.013498235
C  C89  1  0.99367000  0.65113000  0.58360000  1.0 -0.013498235
C  C90  1  0.58360000  0.99367000  0.65113000  1.0 -0.013498235
C  C91  1  0.58360000  0.65113000  0.99367000  1.0 -0.013498235
C  C92  1  0.65113000  0.99367000  0.58360000  1.0 -0.013498235
C  C93  1  0.99367000  0.58360000  0.65113000  1.0 -0.013498235
C  C94  1  0.34887000  0.41640000  0.00633000  1.0 -0.013498235
C  C95  1  0.00633000  0.34887000  0.41640000  1.0 -0.013498235
C  C96  1  0.41640000  0.00633000  0.34887000  1.0 -0.013498235
C  C97  1  0.47304000  0.40686000  0.00360000  1.0 -0.2008053371
C  C98  1  0.40686000  0.00360000  0.47304000  1.0 -0.2008053371
C  C99  1  0.00360000  0.47304000  0.40686000  1.0 -0.2008053371
C  C100  1  0.59314000  0.52696000  0.99640000  1.0 -0.2008053371
C  C101  1  0.99640000  0.59314000  0.52696000  1.0 -0.2008053371
C  C102  1  0.52696000  0.99640000  0.59314000  1.0 -0.2008053371
C  C103  1  0.52696000  0.59314000  0.99640000  1.0 -0.2008053371
C  C104  1  0.59314000  0.99640000  0.52696000  1.0 -0.2008053371
C  C105  1  0.99640000  0.52696000  0.59314000  1.0 -0.2008053371
C  C106  1  0.40686000  0.47304000  0.00360000  1.0 -0.2008053371
C  C107  1  0.00360000  0.40686000  0.47304000  1.0 -0.2008053371
C  C108  1  0.47304000  0.00360000  0.40686000  1.0 -0.2008053371
C  C109  1  0.35433000  0.35433000  0.00804000  1.0 0.1660320639
C  C110  1  0.35433000  0.00804000  0.35433000  1.0 0.1660320639
C  C111  1  0.00804000  0.35433000  0.35433000  1.0 0.1660320639
C  C112  1  0.64567000  0.64567000  0.99196000  1.0 0.1660320639
C  C113  1  0.99196000  0.64567000  0.64567000  1.0 0.1660320639
C  C114  1  0.64567000  0.99196000  0.64567000  1.0 0.1660320639
C  C115  1  0.47048000  0.47048000  0.00314000  1.0 0.0685375237
C  C116  1  0.47048000  0.00314000  0.47048000  1.0 0.0685375237
C  C117  1  0.00314000  0.47048000  0.47048000  1.0 0.0685375237
C  C118  1  0.52952000  0.52952000  0.99686000  1.0 0.0685375237
C  C119  1  0.99686000  0.52952000  0.52952000  1.0 0.0685375237
C  C120  1  0.52952000  0.99686000  0.52952000  1.0 0.0685375237
C  C121  1  0.33225000  0.33225000  0.10140000  1.0 -0.1473805056
C  C122  1  0.33225000  0.10140000  0.33225000  1.0 -0.1473805056
C  C123  1  0.10140000  0.33225000  0.33225000  1.0 -0.1473805056
C  C124  1  0.66775000  0.66775000  0.89860000  1.0 -0.1473805056
C  C125  1  0.89860000  0.66775000  0.66775000  1.0 -0.1473805056
C  C126  1  0.66775000  0.89860000  0.66775000  1.0 -0.1473805056
C  C127  1  0.24290000  0.24290000  0.08120000  1.0 -0.478798543
C  C128  1  0.24290000  0.08120000  0.24290000  1.0 -0.478798543
C  C129  1  0.08120000  0.24290000  0.24290000  1.0 -0.478798543
C  C130  1  0.75710000  0.75710000  0.91880000  1.0 -0.478798543
C  C131  1  0.91880000  0.75710000  0.75710000  1.0 -0.478798543
C  C132  1  0.75710000  0.91880000  0.75710000  1.0 -0.478798543
O  O1  1  0.40128000  0.02010000  0.94306000  1.0 -0.5119069811
O  O2  1  0.02010000  0.94306000  0.40128000  1.0 -0.5119069811
O  O3  1  0.94306000  0.40128000  0.02010000  1.0 -0.5119069811
O  O4  1  0.97990000  0.59872000  0.05694000  1.0 -0.5119069811
O  O5  1  0.05694000  0.97990000  0.59872000  1.0 -0.5119069811
O  O6  1  0.59872000  0.05694000  0.97990000  1.0 -0.5119069811
O  O7  1  0.59872000  0.97990000  0.05694000  1.0 -0.5119069811
O  O8  1  0.97990000  0.05694000  0.59872000  1.0 -0.5119069811
O  O9  1  0.05694000  0.59872000  0.97990000  1.0 -0.5119069811
O  O10  1  0.02010000  0.40128000  0.94306000  1.0 -0.5119069811
O  O11  1  0.94306000  0.02010000  0.40128000  1.0 -0.5119069811
O  O12  1  0.40128000  0.94306000  0.02010000  1.0 -0.5119069811
O  O13  1  0.54756000  0.13697000  0.05977000  1.0 -0.5423946377
O  O14  1  0.13697000  0.05977000  0.54756000  1.0 -0.5423946377
O  O15  1  0.05977000  0.54756000  0.13697000  1.0 -0.5423946377
O  O16  1  0.86303000  0.45244000  0.94023000  1.0 -0.5423946377
O  O17  1  0.94023000  0.86303000  0.45244000  1.0 -0.5423946377
O  O18  1  0.45244000  0.94023000  0.86303000  1.0 -0.5423946377
O  O19  1  0.45244000  0.86303000  0.94023000  1.0 -0.5423946377
O  O20  1  0.86303000  0.94023000  0.45244000  1.0 -0.5423946377
O  O21  1  0.94023000  0.45244000  0.86303000  1.0 -0.5423946377
O  O22  1  0.13697000  0.54756000  0.05977000  1.0 -0.5423946377
O  O23  1  0.05977000  0.13697000  0.54756000  1.0 -0.5423946377
O  O24  1  0.54756000  0.05977000  0.13697000  1.0 -0.5423946377
O  O25  1  0.29716000  0.29717000  0.00927000  1.0 -0.2377108133
O  O26  1  0.29716000  0.00927000  0.29717000  1.0 -0.2377108133
O  O27  1  0.00927000  0.29717000  0.29717000  1.0 -0.2377108133
O  O28  1  0.70283000  0.70283000  0.99073000  1.0 -0.2377108133
O  O29  1  0.99073000  0.70283000  0.70283000  1.0 -0.2377108133
O  O30  1  0.70283000  0.99073000  0.70283000  1.0 -0.2377108133
