# DDEC6 charges by PACMAN v1.1 (https://github.com/mtap-research/PACMAN-charge/)
data_UMODEH05_FSR_pacman
_symmetry_space_group_name_H-M   'P 1'
_cell_length_a   21.56480000
_cell_length_b   21.56480000
_cell_length_c   21.56480000
_cell_angle_alpha   109.53200000
_cell_angle_beta   109.53200000
_cell_angle_gamma   109.53200000
_symmetry_Int_Tables_number   1
_chemical_formula_structural   CuH18(C11O3)2
_chemical_formula_sum   'Cu6 H108 C132 O36'
_cell_volume   7702.52753201
_cell_formula_units_Z   6
loop_
 _symmetry_equiv_pos_site_id
 _symmetry_equiv_pos_as_xyz
  1  'x, y, z'
loop_
 _atom_site_type_symbol
 _atom_site_label
 _atom_site_symmetry_multiplicity
 _atom_site_fract_x
 _atom_site_fract_y
 _atom_site_fract_z
 _atom_site_occupancy
 _atom_site_charge
Cu  Cu1  1  0.94953000  0.42772000  0.94954000  1.0 0.9050090001
Cu  Cu2  1  0.42772000  0.94953000  0.94954000  1.0 0.9031384275
Cu  Cu3  1  0.94953000  0.94953000  0.42772000  1.0 0.9031384275
Cu  Cu4  1  0.57228000  0.05046000  0.05047000  1.0 0.9050090001
Cu  Cu5  1  0.05046000  0.57228000  0.05047000  1.0 0.9031384275
Cu  Cu6  1  0.05047000  0.05046000  0.57228000  1.0 0.9031384275
H  H1  1  0.10190000  0.34310000  0.92400000  1.0 0.1304579963
H  H2  1  0.34310000  0.92400000  0.10190000  1.0 0.1304579963
H  H3  1  0.92400000  0.10190000  0.34310000  1.0 0.1304579963
H  H4  1  0.65690000  0.89810000  0.07600000  1.0 0.1304579963
H  H5  1  0.07600000  0.65690000  0.89810000  1.0 0.1304579963
H  H6  1  0.89810000  0.07600000  0.65690000  1.0 0.1304579963
H  H7  1  0.89810000  0.65690000  0.07600000  1.0 0.1304579963
H  H8  1  0.65690000  0.07600000  0.89810000  1.0 0.1304579963
H  H9  1  0.07600000  0.89810000  0.65690000  1.0 0.1304579963
H  H10  1  0.34310000  0.10190000  0.92400000  1.0 0.1304579963
H  H11  1  0.92400000  0.34310000  0.10190000  1.0 0.1304579963
H  H12  1  0.10190000  0.92400000  0.34310000  1.0 0.1304579963
H  H13  1  0.20170000  0.32330000  0.92530000  1.0 0.1304579963
H  H14  1  0.32330000  0.92530000  0.20170000  1.0 0.1304579963
H  H15  1  0.92530000  0.20170000  0.32330000  1.0 0.1304579963
H  H16  1  0.67670000  0.79830000  0.07470000  1.0 0.1304579963
H  H17  1  0.07470000  0.67670000  0.79830000  1.0 0.1304579963
H  H18  1  0.79830000  0.07470000  0.67670000  1.0 0.1304579963
H  H19  1  0.79830000  0.67670000  0.07470000  1.0 0.1304579963
H  H20  1  0.67670000  0.07470000  0.79830000  1.0 0.1304579963
H  H21  1  0.07470000  0.79830000  0.67670000  1.0 0.1304579963
H  H22  1  0.32330000  0.20170000  0.92530000  1.0 0.1304579963
H  H23  1  0.92530000  0.32330000  0.20170000  1.0 0.1304579963
H  H24  1  0.20170000  0.92530000  0.32330000  1.0 0.1304579963
H  H25  1  0.35400000  0.54450000  0.08460000  1.0 0.1095036469
H  H26  1  0.54450000  0.08460000  0.35400000  1.0 0.1095036469
H  H27  1  0.08460000  0.35400000  0.54450000  1.0 0.1095036469
H  H28  1  0.45550000  0.64600000  0.91540000  1.0 0.1095036469
H  H29  1  0.91540000  0.45550000  0.64600000  1.0 0.1095036469
H  H30  1  0.64600000  0.91540000  0.45550000  1.0 0.1095036469
H  H31  1  0.64600000  0.45550000  0.91540000  1.0 0.1095036469
H  H32  1  0.45550000  0.91540000  0.64600000  1.0 0.1095036469
H  H33  1  0.91540000  0.64600000  0.45550000  1.0 0.1095036469
H  H34  1  0.54450000  0.35400000  0.08460000  1.0 0.1095036469
H  H35  1  0.08460000  0.54450000  0.35400000  1.0 0.1095036469
H  H36  1  0.35400000  0.08460000  0.54450000  1.0 0.1095036469
H  H37  1  0.25230000  0.56420000  0.08230000  1.0 0.1170017534
H  H38  1  0.56420000  0.08230000  0.25230000  1.0 0.1170017534
H  H39  1  0.08230000  0.25230000  0.56420000  1.0 0.1170017534
H  H40  1  0.43580000  0.74770000  0.91770000  1.0 0.1170017534
H  H41  1  0.91770000  0.43580000  0.74770000  1.0 0.1170017534
H  H42  1  0.74770000  0.91770000  0.43580000  1.0 0.1170017534
H  H43  1  0.74770000  0.43580000  0.91770000  1.0 0.1170017534
H  H44  1  0.43580000  0.91770000  0.74770000  1.0 0.1170017534
H  H45  1  0.91770000  0.74770000  0.43580000  1.0 0.1170017534
H  H46  1  0.56420000  0.25230000  0.08230000  1.0 0.1170017534
H  H47  1  0.08230000  0.56420000  0.25230000  1.0 0.1170017534
H  H48  1  0.25230000  0.08230000  0.56420000  1.0 0.1170017534
H  H49  1  0.40300000  0.51700000  0.00100000  1.0 0.1170017534
H  H50  1  0.51700000  0.00100000  0.40300000  1.0 0.1170017534
H  H51  1  0.00100000  0.40300000  0.51700000  1.0 0.1170017534
H  H52  1  0.48300000  0.59700000  0.99900000  1.0 0.1170017534
H  H53  1  0.99900000  0.48300000  0.59700000  1.0 0.1170017534
H  H54  1  0.59700000  0.99900000  0.48300000  1.0 0.1170017534
H  H55  1  0.59700000  0.48300000  0.99900000  1.0 0.1170017534
H  H56  1  0.48300000  0.99900000  0.59700000  1.0 0.1170017534
H  H57  1  0.99900000  0.59700000  0.48300000  1.0 0.1170017534
H  H58  1  0.51700000  0.40300000  0.00100000  1.0 0.1170017534
H  H59  1  0.00100000  0.51700000  0.40300000  1.0 0.1170017534
H  H60  1  0.40300000  0.00100000  0.51700000  1.0 0.1170017534
H  H61  1  0.36890000  0.32340000  0.10960000  1.0 0.0624229909
H  H62  1  0.32340000  0.10960000  0.36890000  1.0 0.0624229909
H  H63  1  0.10960000  0.36890000  0.32340000  1.0 0.0624229909
H  H64  1  0.67660000  0.63110000  0.89040000  1.0 0.0667292188
H  H65  1  0.89040000  0.67660000  0.63110000  1.0 0.0624229909
H  H66  1  0.63110000  0.89040000  0.67660000  1.0 0.0624229909
H  H67  1  0.63110000  0.67660000  0.89040000  1.0 0.0667292188
H  H68  1  0.67660000  0.89040000  0.63110000  1.0 0.0624229909
H  H69  1  0.89040000  0.63110000  0.67660000  1.0 0.0667292188
H  H70  1  0.32340000  0.36890000  0.10960000  1.0 0.0624229909
H  H71  1  0.10960000  0.32340000  0.36890000  1.0 0.0624229909
H  H72  1  0.36890000  0.10960000  0.32340000  1.0 0.0624229909
H  H73  1  0.26590000  0.26690000  0.12600000  1.0 0.1304579963
H  H74  1  0.26690000  0.12600000  0.26590000  1.0 0.1304579963
H  H75  1  0.12600000  0.26590000  0.26690000  1.0 0.1304579963
H  H76  1  0.73310000  0.73410000  0.87400000  1.0 0.1304579963
H  H77  1  0.87400000  0.73310000  0.73410000  1.0 0.1304579963
H  H78  1  0.73410000  0.87400000  0.73310000  1.0 0.1304579963
H  H79  1  0.73410000  0.73310000  0.87400000  1.0 0.1304579963
H  H80  1  0.73310000  0.87400000  0.73410000  1.0 0.1304579963
H  H81  1  0.87400000  0.73410000  0.73310000  1.0 0.1304579963
H  H82  1  0.26690000  0.26590000  0.12600000  1.0 0.1304579963
H  H83  1  0.12600000  0.26690000  0.26590000  1.0 0.1304579963
H  H84  1  0.26590000  0.12600000  0.26690000  1.0 0.1304579963
H  H85  1  0.20830000  0.25320000  0.04640000  1.0 0.1095036469
H  H86  1  0.25320000  0.04640000  0.20830000  1.0 0.1095036469
H  H87  1  0.04640000  0.20830000  0.25320000  1.0 0.1095036469
H  H88  1  0.74680000  0.79170000  0.95360000  1.0 0.1095036469
H  H89  1  0.95360000  0.74680000  0.79170000  1.0 0.1095036469
H  H90  1  0.79170000  0.95360000  0.74680000  1.0 0.1095036469
H  H91  1  0.79170000  0.74680000  0.95360000  1.0 0.1095036469
H  H92  1  0.74680000  0.95360000  0.79170000  1.0 0.1095036469
H  H93  1  0.95360000  0.79170000  0.74680000  1.0 0.1095036469
H  H94  1  0.25320000  0.20830000  0.04640000  1.0 0.1095036469
H  H95  1  0.04640000  0.25320000  0.20830000  1.0 0.1095036469
H  H96  1  0.20830000  0.04640000  0.25320000  1.0 0.1095036469
H  H97  1  0.20860000  0.25460000  0.04830000  1.0 0.1095036469
H  H98  1  0.25460000  0.04830000  0.20860000  1.0 0.1095036469
H  H99  1  0.04830000  0.20860000  0.25460000  1.0 0.1095036469
H  H100  1  0.74540000  0.79140000  0.95170000  1.0 0.1095036469
H  H101  1  0.95170000  0.74540000  0.79140000  1.0 0.1095036469
H  H102  1  0.79140000  0.95170000  0.74540000  1.0 0.1095036469
H  H103  1  0.79140000  0.74540000  0.95170000  1.0 0.1095036469
H  H104  1  0.74540000  0.95170000  0.79140000  1.0 0.1095036469
H  H105  1  0.95170000  0.79140000  0.74540000  1.0 0.1095036469
H  H106  1  0.25460000  0.20860000  0.04830000  1.0 0.1095036469
H  H107  1  0.04830000  0.25460000  0.20860000  1.0 0.1095036469
H  H108  1  0.20860000  0.04830000  0.25460000  1.0 0.1095036469
C  C1  1  0.10394000  0.47068000  0.00204000  1.0 0.5642401372
C  C2  1  0.47068000  0.00204000  0.10394000  1.0 0.5642401372
C  C3  1  0.00204000  0.10394000  0.47068000  1.0 0.5642401372
C  C4  1  0.52932000  0.89606000  0.99796000  1.0 0.5642401372
C  C5  1  0.99796000  0.52932000  0.89606000  1.0 0.5642401372
C  C6  1  0.89606000  0.99796000  0.52932000  1.0 0.5642401372
C  C7  1  0.89606000  0.52932000  0.99796000  1.0 0.5642401372
C  C8  1  0.52932000  0.99796000  0.89606000  1.0 0.5655349181
C  C9  1  0.99796000  0.89606000  0.52932000  1.0 0.5642401372
C  C10  1  0.47068000  0.10394000  0.00204000  1.0 0.5642401372
C  C11  1  0.00204000  0.47068000  0.10394000  1.0 0.5642401372
C  C12  1  0.10394000  0.00204000  0.47068000  1.0 0.5642401372
C  C13  1  0.16871000  0.45709000  0.00417000  1.0 -0.0230145171
C  C14  1  0.45709000  0.00417000  0.16871000  1.0 -0.0230145171
C  C15  1  0.00417000  0.16871000  0.45709000  1.0 -0.0230145171
C  C16  1  0.54291000  0.83129000  0.99583000  1.0 -0.0230145171
C  C17  1  0.99583000  0.54291000  0.83129000  1.0 -0.0230145171
C  C18  1  0.83129000  0.99583000  0.54291000  1.0 -0.0230145171
C  C19  1  0.83129000  0.54291000  0.99583000  1.0 -0.0230145171
C  C20  1  0.54291000  0.99583000  0.83129000  1.0 -0.0230145171
C  C21  1  0.99583000  0.83129000  0.54291000  1.0 -0.0230145171
C  C22  1  0.45709000  0.16871000  0.00417000  1.0 -0.0230145171
C  C23  1  0.00417000  0.45709000  0.16871000  1.0 -0.0230145171
C  C24  1  0.16871000  0.00417000  0.45709000  1.0 -0.0230145171
C  C25  1  0.15284000  0.38409000  0.95648000  1.0 -0.0592895137
C  C26  1  0.38409000  0.95648000  0.15284000  1.0 -0.0592895137
C  C27  1  0.95648000  0.15284000  0.38409000  1.0 -0.0592895137
C  C28  1  0.61591000  0.84716000  0.04352000  1.0 -0.0592895137
C  C29  1  0.04352000  0.61591000  0.84716000  1.0 -0.0592895137
C  C30  1  0.84716000  0.04352000  0.61591000  1.0 -0.0592895137
C  C31  1  0.84716000  0.61591000  0.04352000  1.0 -0.0592895137
C  C32  1  0.61591000  0.04352000  0.84716000  1.0 -0.0592895137
C  C33  1  0.04352000  0.84716000  0.61591000  1.0 -0.0592895137
C  C34  1  0.38409000  0.15284000  0.95648000  1.0 -0.0592895137
C  C35  1  0.95648000  0.38409000  0.15284000  1.0 -0.0592895137
C  C36  1  0.15284000  0.95648000  0.38409000  1.0 -0.0592895137
C  C37  1  0.21257000  0.37272000  0.95747000  1.0 -0.136370407
C  C38  1  0.37272000  0.95747000  0.21257000  1.0 -0.1340241298
C  C39  1  0.95747000  0.21257000  0.37272000  1.0 -0.1340241298
C  C40  1  0.62728000  0.78743000  0.04253000  1.0 -0.1340241298
C  C41  1  0.04253000  0.62728000  0.78743000  1.0 -0.136370407
C  C42  1  0.78743000  0.04253000  0.62728000  1.0 -0.136370407
C  C43  1  0.78743000  0.62728000  0.04253000  1.0 -0.1340241298
C  C44  1  0.62728000  0.04253000  0.78743000  1.0 -0.1340241298
C  C45  1  0.04253000  0.78743000  0.62728000  1.0 -0.136370407
C  C46  1  0.37272000  0.21257000  0.95747000  1.0 -0.1340241298
C  C47  1  0.95747000  0.37272000  0.21257000  1.0 -0.1340241298
C  C48  1  0.21257000  0.95747000  0.37272000  1.0 -0.1340241298
C  C49  1  0.28665000  0.43051000  0.00341000  1.0 0.0761529286
C  C50  1  0.43051000  0.00341000  0.28665000  1.0 0.0761529286
C  C51  1  0.00341000  0.28665000  0.43051000  1.0 0.0761529286
C  C52  1  0.56949000  0.71335000  0.99659000  1.0 0.0761529286
C  C53  1  0.99659000  0.56949000  0.71335000  1.0 0.0761529286
C  C54  1  0.71335000  0.99659000  0.56949000  1.0 0.0761529286
C  C55  1  0.71335000  0.56949000  0.99659000  1.0 0.0761529286
C  C56  1  0.56949000  0.99659000  0.71335000  1.0 0.0761529286
C  C57  1  0.99659000  0.71335000  0.56949000  1.0 0.0761529286
C  C58  1  0.43051000  0.28665000  0.00341000  1.0 0.0761529286
C  C59  1  0.00341000  0.43051000  0.28665000  1.0 0.0761529286
C  C60  1  0.28665000  0.00341000  0.43051000  1.0 0.0761529286
C  C61  1  0.30292000  0.50363000  0.05169000  1.0 -0.136370407
C  C62  1  0.50363000  0.05169000  0.30292000  1.0 -0.136370407
C  C63  1  0.05169000  0.30292000  0.50363000  1.0 -0.136370407
C  C64  1  0.49637000  0.69708000  0.94831000  1.0 -0.136370407
C  C65  1  0.94831000  0.49637000  0.69708000  1.0 -0.136370407
C  C66  1  0.69708000  0.94831000  0.49637000  1.0 -0.136370407
C  C67  1  0.69708000  0.49637000  0.94831000  1.0 -0.136370407
C  C68  1  0.49637000  0.94831000  0.69708000  1.0 -0.136370407
C  C69  1  0.94831000  0.69708000  0.49637000  1.0 -0.136370407
C  C70  1  0.50363000  0.30292000  0.05169000  1.0 -0.136370407
C  C71  1  0.05169000  0.50363000  0.30292000  1.0 -0.136370407
C  C72  1  0.30292000  0.05169000  0.50363000  1.0 -0.136370407
C  C73  1  0.24194000  0.51487000  0.05022000  1.0 -0.0961974567
C  C74  1  0.51487000  0.05022000  0.24194000  1.0 -0.094294326
C  C75  1  0.05022000  0.24194000  0.51487000  1.0 -0.0961974567
C  C76  1  0.48513000  0.75806000  0.94978000  1.0 -0.0961974567
C  C77  1  0.94978000  0.48513000  0.75806000  1.0 -0.0961974567
C  C78  1  0.75806000  0.94978000  0.48513000  1.0 -0.0961974567
C  C79  1  0.75806000  0.48513000  0.94978000  1.0 -0.0961974567
C  C80  1  0.48513000  0.94978000  0.75806000  1.0 -0.0961974567
C  C81  1  0.94978000  0.75806000  0.48513000  1.0 -0.0961974567
C  C82  1  0.51487000  0.24194000  0.05022000  1.0 -0.0961974567
C  C83  1  0.05022000  0.51487000  0.24194000  1.0 -0.0961974567
C  C84  1  0.24194000  0.05022000  0.51487000  1.0 -0.0961974567
C  C85  1  0.35151000  0.42073000  0.00179000  1.0 -0.003624288
C  C86  1  0.42073000  0.00179000  0.35151000  1.0 -0.003624288
C  C87  1  0.00179000  0.35151000  0.42073000  1.0 -0.003624288
C  C88  1  0.57927000  0.64849000  0.99821000  1.0 -0.003624288
C  C89  1  0.99821000  0.57927000  0.64849000  1.0 -0.003624288
C  C90  1  0.64849000  0.99821000  0.57927000  1.0 -0.003624288
C  C91  1  0.64849000  0.57927000  0.99821000  1.0 -0.003624288
C  C92  1  0.57927000  0.99821000  0.64849000  1.0 -0.003624288
C  C93  1  0.99821000  0.64849000  0.57927000  1.0 -0.003624288
C  C94  1  0.42073000  0.35151000  0.00179000  1.0 -0.003624288
C  C95  1  0.00179000  0.42073000  0.35151000  1.0 -0.003624288
C  C96  1  0.35151000  0.00179000  0.42073000  1.0 -0.003624288
C  C97  1  0.40763000  0.47473000  0.00111000  1.0 -0.1729285943
C  C98  1  0.47473000  0.00111000  0.40763000  1.0 -0.1729285943
C  C99  1  0.00111000  0.40763000  0.47473000  1.0 -0.1729285943
C  C100  1  0.52527000  0.59237000  0.99889000  1.0 -0.1729285943
C  C101  1  0.99889000  0.52527000  0.59237000  1.0 -0.1729285943
C  C102  1  0.59237000  0.99889000  0.52527000  1.0 -0.1729285943
C  C103  1  0.59237000  0.52527000  0.99889000  1.0 -0.1729285943
C  C104  1  0.52527000  0.99889000  0.59237000  1.0 -0.1729285943
C  C105  1  0.99889000  0.59237000  0.52527000  1.0 -0.1729285943
C  C106  1  0.47473000  0.40763000  0.00111000  1.0 -0.1729285943
C  C107  1  0.00111000  0.47473000  0.40763000  1.0 -0.1729285943
C  C108  1  0.40763000  0.00111000  0.47473000  1.0 -0.1729285943
C  C109  1  0.47073000  0.47072000  0.00055000  1.0 0.0624229909
C  C110  1  0.47073000  0.00055000  0.47073000  1.0 0.0624229909
C  C111  1  0.00055000  0.47072000  0.47073000  1.0 0.0624229909
C  C112  1  0.52928000  0.52928000  0.99945000  1.0 0.0624229909
C  C113  1  0.99945000  0.52928000  0.52928000  1.0 0.0624229909
C  C114  1  0.52928000  0.99945000  0.52928000  1.0 0.0624229909
C  C115  1  0.35857000  0.35857000  0.00315000  1.0 0.1663180128
C  C116  1  0.35857000  0.00315000  0.35857000  1.0 0.1663180128
C  C117  1  0.00315000  0.35857000  0.35857000  1.0 0.1663180128
C  C118  1  0.64142000  0.64143000  0.99685000  1.0 0.1663180128
C  C119  1  0.99685000  0.64143000  0.64143000  1.0 0.1663180128
C  C120  1  0.64142000  0.99685000  0.64143000  1.0 0.1663180128
C  C121  1  0.31986000  0.31987000  0.08147000  1.0 -0.0961974567
C  C122  1  0.31986000  0.08147000  0.31987000  1.0 -0.0961974567
C  C123  1  0.08147000  0.31987000  0.31987000  1.0 -0.0961974567
C  C124  1  0.68014000  0.68014000  0.91853000  1.0 -0.0961974567
C  C125  1  0.91853000  0.68014000  0.68014000  1.0 -0.0961974567
C  C126  1  0.68014000  0.91853000  0.68014000  1.0 -0.0961974567
C  C127  1  0.25680000  0.25680000  0.07500000  1.0 -0.4130342617
C  C128  1  0.25680000  0.07500000  0.25680000  1.0 -0.4130342617
C  C129  1  0.07500000  0.25680000  0.25680000  1.0 -0.4130342617
C  C130  1  0.74320000  0.74320000  0.92500000  1.0 -0.4184929445
C  C131  1  0.92500000  0.74320000  0.74320000  1.0 -0.4184929445
C  C132  1  0.74320000  0.92500000  0.74320000  1.0 -0.4184929445
O  O1  1  0.12352000  0.53907000  0.04508000  1.0 -0.5286467984
O  O2  1  0.53907000  0.04508000  0.12352000  1.0 -0.5286467984
O  O3  1  0.04508000  0.12352000  0.53907000  1.0 -0.5286467984
O  O4  1  0.46093000  0.87648000  0.95492000  1.0 -0.5286467984
O  O5  1  0.95492000  0.46093000  0.87648000  1.0 -0.5286467984
O  O6  1  0.87648000  0.95492000  0.46093000  1.0 -0.5286467984
O  O7  1  0.87648000  0.46093000  0.95492000  1.0 -0.5286467984
O  O8  1  0.46093000  0.95492000  0.87648000  1.0 -0.5286467984
O  O9  1  0.95492000  0.87648000  0.46093000  1.0 -0.5286467984
O  O10  1  0.53907000  0.12352000  0.04508000  1.0 -0.5286467984
O  O11  1  0.04508000  0.53907000  0.12352000  1.0 -0.5286467984
O  O12  1  0.12352000  0.04508000  0.53907000  1.0 -0.5286467984
O  O13  1  0.03815000  0.41565000  0.95963000  1.0 -0.5138744031
O  O14  1  0.41565000  0.95963000  0.03815000  1.0 -0.5138744031
O  O15  1  0.95963000  0.03815000  0.41565000  1.0 -0.5138744031
O  O16  1  0.58435000  0.96185000  0.04037000  1.0 -0.5138744031
O  O17  1  0.04037000  0.58435000  0.96185000  1.0 -0.515050204
O  O18  1  0.96185000  0.04037000  0.58435000  1.0 -0.5138744031
O  O19  1  0.96185000  0.58435000  0.04037000  1.0 -0.5138744031
O  O20  1  0.58435000  0.04037000  0.96185000  1.0 -0.5138744031
O  O21  1  0.04037000  0.96185000  0.58435000  1.0 -0.515050204
O  O22  1  0.41565000  0.03815000  0.95963000  1.0 -0.5138744031
O  O23  1  0.95963000  0.41565000  0.03815000  1.0 -0.5138744031
O  O24  1  0.03815000  0.95963000  0.41565000  1.0 -0.515050204
O  O25  1  0.30333000  0.30333000  0.00314000  1.0 -0.3598788295
O  O26  1  0.30333000  0.00314000  0.30334000  1.0 -0.3598788295
O  O27  1  0.00314000  0.30333000  0.30334000  1.0 -0.3598788295
O  O28  1  0.69666000  0.69667000  0.99686000  1.0 -0.3598788295
O  O29  1  0.99686000  0.69667000  0.69667000  1.0 -0.3598788295
O  O30  1  0.69666000  0.99686000  0.69667000  1.0 -0.3598788295
O  O31  1  0.86124000  0.30977000  0.86124000  1.0 -0.2399456605
O  O32  1  0.30977000  0.86124000  0.86124000  1.0 -0.2399456605
O  O33  1  0.86124000  0.86124000  0.30977000  1.0 -0.2322668001
O  O34  1  0.69023000  0.13876000  0.13876000  1.0 -0.2399456605
O  O35  1  0.13876000  0.69023000  0.13876000  1.0 -0.2399456605
O  O36  1  0.13876000  0.13876000  0.69023000  1.0 -0.2399456605
