# DDEC6 charges by PACMAN v1.1 (https://github.com/mtap-research/PACMAN-charge/)
data_UMOYOM14_ASR_pacman
_symmetry_space_group_name_H-M   'P 1'
_cell_length_a   21.40350000
_cell_length_b   21.40350000
_cell_length_c   21.40350000
_cell_angle_alpha   113.00500000
_cell_angle_beta   113.00500000
_cell_angle_gamma   113.00500000
_symmetry_Int_Tables_number   1
_chemical_formula_structural   CuH10(C5O)5
_chemical_formula_sum   'Cu6 H60 C150 O30'
_cell_volume   6372.73978076
_cell_formula_units_Z   6
loop_
 _symmetry_equiv_pos_site_id
 _symmetry_equiv_pos_as_xyz
  1  'x, y, z'
loop_
 _atom_site_type_symbol
 _atom_site_label
 _atom_site_symmetry_multiplicity
 _atom_site_fract_x
 _atom_site_fract_y
 _atom_site_fract_z
 _atom_site_occupancy
 _atom_site_charge
Cu  Cu1  1  0.58497000  0.06709000  0.06709000  1.0 0.8537314298
Cu  Cu2  1  0.06709000  0.06709000  0.58497000  1.0 0.8537314298
Cu  Cu3  1  0.06709000  0.58497000  0.06709000  1.0 0.8537314298
Cu  Cu4  1  0.93291000  0.41503000  0.93291000  1.0 0.8537314298
Cu  Cu5  1  0.93291000  0.93291000  0.41503000  1.0 0.8537314298
Cu  Cu6  1  0.41503000  0.93291000  0.93291000  1.0 0.8537314298
H  H1  1  0.67600000  0.92150000  0.09210000  1.0 0.1271883144
H  H2  1  0.92150000  0.09210000  0.67600000  1.0 0.1271883144
H  H3  1  0.09210000  0.67600000  0.92150000  1.0 0.1271883144
H  H4  1  0.07850000  0.32400000  0.90790000  1.0 0.1271883144
H  H5  1  0.90790000  0.07850000  0.32400000  1.0 0.1271883144
H  H6  1  0.32400000  0.90790000  0.07850000  1.0 0.1271883144
H  H7  1  0.32400000  0.07850000  0.90790000  1.0 0.1271883144
H  H8  1  0.07850000  0.90790000  0.32400000  1.0 0.1271883144
H  H9  1  0.90790000  0.32400000  0.07850000  1.0 0.1271883144
H  H10  1  0.92150000  0.67600000  0.09210000  1.0 0.1271883144
H  H11  1  0.09210000  0.92150000  0.67600000  1.0 0.1271883144
H  H12  1  0.67600000  0.09210000  0.92150000  1.0 0.1271883144
H  H13  1  0.69590000  0.81950000  0.08120000  1.0 0.118995465
H  H14  1  0.81950000  0.08120000  0.69590000  1.0 0.118995465
H  H15  1  0.08120000  0.69590000  0.81950000  1.0 0.118995465
H  H16  1  0.18050000  0.30410000  0.91880000  1.0 0.118995465
H  H17  1  0.91880000  0.18050000  0.30410000  1.0 0.118995465
H  H18  1  0.30410000  0.91880000  0.18050000  1.0 0.118995465
H  H19  1  0.30410000  0.18050000  0.91880000  1.0 0.118995465
H  H20  1  0.18050000  0.91880000  0.30410000  1.0 0.118995465
H  H21  1  0.91880000  0.30410000  0.18050000  1.0 0.118995465
H  H22  1  0.81950000  0.69590000  0.08120000  1.0 0.118995465
H  H23  1  0.08120000  0.81950000  0.69590000  1.0 0.118995465
H  H24  1  0.69590000  0.08120000  0.81950000  1.0 0.118995465
H  H25  1  0.43910000  0.62320000  0.88840000  1.0 0.118995465
H  H26  1  0.62320000  0.88840000  0.43910000  1.0 0.118995465
H  H27  1  0.88840000  0.43910000  0.62320000  1.0 0.118995465
H  H28  1  0.37680000  0.56090000  0.11160000  1.0 0.118995465
H  H29  1  0.11160000  0.37680000  0.56090000  1.0 0.118995465
H  H30  1  0.56090000  0.11160000  0.37680000  1.0 0.118995465
H  H31  1  0.56090000  0.37680000  0.11160000  1.0 0.118995465
H  H32  1  0.37680000  0.11160000  0.56090000  1.0 0.118995465
H  H33  1  0.11160000  0.56090000  0.37680000  1.0 0.118995465
H  H34  1  0.62320000  0.43910000  0.88840000  1.0 0.118995465
H  H35  1  0.88840000  0.62320000  0.43910000  1.0 0.118995465
H  H36  1  0.43910000  0.88840000  0.62320000  1.0 0.118995465
H  H37  1  0.41780000  0.72260000  0.89070000  1.0 0.1271883144
H  H38  1  0.72260000  0.89070000  0.41780000  1.0 0.1271883144
H  H39  1  0.89070000  0.41780000  0.72260000  1.0 0.1271883144
H  H40  1  0.27740000  0.58220000  0.10930000  1.0 0.1271883144
H  H41  1  0.10930000  0.27740000  0.58220000  1.0 0.1271883144
H  H42  1  0.58220000  0.10930000  0.27740000  1.0 0.1271883144
H  H43  1  0.58220000  0.27740000  0.10930000  1.0 0.1271883144
H  H44  1  0.27740000  0.10930000  0.58220000  1.0 0.1271883144
H  H45  1  0.10930000  0.58220000  0.27740000  1.0 0.1271883144
H  H46  1  0.72260000  0.41780000  0.89070000  1.0 0.1271883144
H  H47  1  0.89070000  0.72260000  0.41780000  1.0 0.1271883144
H  H48  1  0.41780000  0.89070000  0.72260000  1.0 0.1271883144
H  H49  1  0.48670000  0.59860000  0.99830000  1.0 0.118995465
H  H50  1  0.59860000  0.99830000  0.48670000  1.0 0.118995465
H  H51  1  0.99830000  0.48670000  0.59860000  1.0 0.118995465
H  H52  1  0.40140000  0.51330000  0.00170000  1.0 0.118995465
H  H53  1  0.00170000  0.40140000  0.51330000  1.0 0.118995465
H  H54  1  0.51330000  0.00170000  0.40140000  1.0 0.118995465
H  H55  1  0.51330000  0.40140000  0.00170000  1.0 0.118995465
H  H56  1  0.40140000  0.00170000  0.51330000  1.0 0.118995465
H  H57  1  0.00170000  0.51330000  0.40140000  1.0 0.118995465
H  H58  1  0.59860000  0.48670000  0.99830000  1.0 0.118995465
H  H59  1  0.99830000  0.59860000  0.48670000  1.0 0.118995465
H  H60  1  0.48670000  0.99830000  0.59860000  1.0 0.118995465
C  C1  1  0.53258000  0.89872000  0.99820000  1.0 0.5763143015
C  C2  1  0.89872000  0.99820000  0.53258000  1.0 0.5763143015
C  C3  1  0.99820000  0.53258000  0.89872000  1.0 0.5763143015
C  C4  1  0.10128000  0.46742000  0.00180000  1.0 0.5763143015
C  C5  1  0.00180000  0.10128000  0.46742000  1.0 0.5763143015
C  C6  1  0.46742000  0.00180000  0.10128000  1.0 0.5763143015
C  C7  1  0.46742000  0.10128000  0.00180000  1.0 0.5763143015
C  C8  1  0.10128000  0.00180000  0.46742000  1.0 0.5763143015
C  C9  1  0.00180000  0.46742000  0.10128000  1.0 0.5763143015
C  C10  1  0.89872000  0.53258000  0.99820000  1.0 0.5763143015
C  C11  1  0.99820000  0.89872000  0.53258000  1.0 0.5763143015
C  C12  1  0.53258000  0.99820000  0.89872000  1.0 0.5763143015
C  C13  1  0.54445000  0.83145000  0.99120000  1.0 -0.0175434566
C  C14  1  0.83145000  0.99120000  0.54445000  1.0 -0.0175434566
C  C15  1  0.99120000  0.54445000  0.83145000  1.0 -0.0175434566
C  C16  1  0.16855000  0.45555000  0.00880000  1.0 -0.0175434566
C  C17  1  0.00880000  0.16855000  0.45555000  1.0 -0.0175434566
C  C18  1  0.45555000  0.00880000  0.16855000  1.0 -0.0175434566
C  C19  1  0.45555000  0.16855000  0.00880000  1.0 -0.0175434566
C  C20  1  0.16855000  0.00880000  0.45555000  1.0 -0.0175434566
C  C21  1  0.00880000  0.45555000  0.16855000  1.0 -0.0175434566
C  C22  1  0.83145000  0.54445000  0.99120000  1.0 -0.0175434566
C  C23  1  0.99120000  0.83145000  0.54445000  1.0 -0.0175434566
C  C24  1  0.54445000  0.99120000  0.83145000  1.0 -0.0175434566
C  C25  1  0.62787000  0.86136000  0.04977000  1.0 -0.0871984955
C  C26  1  0.86136000  0.04977000  0.62787000  1.0 -0.0871984955
C  C27  1  0.04977000  0.62787000  0.86136000  1.0 -0.0871984955
C  C28  1  0.13864000  0.37213000  0.95023000  1.0 -0.0871984955
C  C29  1  0.95023000  0.13864000  0.37213000  1.0 -0.0871984955
C  C30  1  0.37213000  0.95023000  0.13864000  1.0 -0.0871984955
C  C31  1  0.37213000  0.13864000  0.95023000  1.0 -0.0871984955
C  C32  1  0.13864000  0.95023000  0.37213000  1.0 -0.0871984955
C  C33  1  0.95023000  0.37213000  0.13864000  1.0 -0.0871984955
C  C34  1  0.86136000  0.62787000  0.04977000  1.0 -0.0871984955
C  C35  1  0.04977000  0.86136000  0.62787000  1.0 -0.0871984955
C  C36  1  0.62787000  0.04977000  0.86136000  1.0 -0.0871984955
C  C37  1  0.63911000  0.79956000  0.04453000  1.0 -0.1424598594
C  C38  1  0.79956000  0.04453000  0.63911000  1.0 -0.1424598594
C  C39  1  0.04453000  0.63911000  0.79956000  1.0 -0.1424598594
C  C40  1  0.20044000  0.36089000  0.95547000  1.0 -0.1424598594
C  C41  1  0.95547000  0.20044000  0.36089000  1.0 -0.1424598594
C  C42  1  0.36089000  0.95547000  0.20044000  1.0 -0.1424598594
C  C43  1  0.36089000  0.20044000  0.95547000  1.0 -0.1424598594
C  C44  1  0.20044000  0.95547000  0.36089000  1.0 -0.1424598594
C  C45  1  0.95547000  0.36089000  0.20044000  1.0 -0.1424598594
C  C46  1  0.79956000  0.63911000  0.04453000  1.0 -0.1424598594
C  C47  1  0.04453000  0.79956000  0.63911000  1.0 -0.1424598594
C  C48  1  0.63911000  0.04453000  0.79956000  1.0 -0.1424598594
C  C49  1  0.57099000  0.71365000  0.98886000  1.0 0.08398231
C  C50  1  0.71365000  0.98886000  0.57099000  1.0 0.08398231
C  C51  1  0.98886000  0.57099000  0.71365000  1.0 0.08398231
C  C52  1  0.28635000  0.42901000  0.01114000  1.0 0.08398231
C  C53  1  0.01114000  0.28635000  0.42901000  1.0 0.08398231
C  C54  1  0.42901000  0.01114000  0.28635000  1.0 0.08398231
C  C55  1  0.42901000  0.28635000  0.01114000  1.0 0.08398231
C  C56  1  0.28635000  0.01114000  0.42901000  1.0 0.08398231
C  C57  1  0.01114000  0.42901000  0.28635000  1.0 0.08398231
C  C58  1  0.71365000  0.57099000  0.98886000  1.0 0.08398231
C  C59  1  0.98886000  0.71365000  0.57099000  1.0 0.08398231
C  C60  1  0.57099000  0.98886000  0.71365000  1.0 0.08398231
C  C61  1  0.48701000  0.68340000  0.92939000  1.0 -0.1481904399
C  C62  1  0.68340000  0.92939000  0.48701000  1.0 -0.1481904399
C  C63  1  0.92939000  0.48701000  0.68340000  1.0 -0.1481904399
C  C64  1  0.31660000  0.51299000  0.07061000  1.0 -0.1481904399
C  C65  1  0.07061000  0.31660000  0.51299000  1.0 -0.1481904399
C  C66  1  0.51299000  0.07061000  0.31660000  1.0 -0.1481904399
C  C67  1  0.51299000  0.31660000  0.07061000  1.0 -0.1481904399
C  C68  1  0.31660000  0.07061000  0.51299000  1.0 -0.1481904399
C  C69  1  0.07061000  0.51299000  0.31660000  1.0 -0.1481904399
C  C70  1  0.68340000  0.48701000  0.92939000  1.0 -0.1481904399
C  C71  1  0.92939000  0.68340000  0.48701000  1.0 -0.1481904399
C  C72  1  0.48701000  0.92939000  0.68340000  1.0 -0.1481904399
C  C73  1  0.47410000  0.74319000  0.93081000  1.0 -0.0871984955
C  C74  1  0.74319000  0.93081000  0.47410000  1.0 -0.0871984955
C  C75  1  0.93081000  0.47410000  0.74319000  1.0 -0.0871984955
C  C76  1  0.25681000  0.52590000  0.06919000  1.0 -0.0871984955
C  C77  1  0.06919000  0.25681000  0.52590000  1.0 -0.0871984955
C  C78  1  0.52590000  0.06919000  0.25681000  1.0 -0.0871984955
C  C79  1  0.52590000  0.25681000  0.06919000  1.0 -0.0871984955
C  C80  1  0.25681000  0.06919000  0.52590000  1.0 -0.0871984955
C  C81  1  0.06919000  0.52590000  0.25681000  1.0 -0.0871984955
C  C82  1  0.74319000  0.47410000  0.93081000  1.0 -0.0871984955
C  C83  1  0.93081000  0.74319000  0.47410000  1.0 -0.0871984955
C  C84  1  0.47410000  0.93081000  0.74319000  1.0 -0.0871984955
C  C85  1  0.57877000  0.64689000  0.98874000  1.0 -0.007828872
C  C86  1  0.64689000  0.98874000  0.57877000  1.0 -0.007828872
C  C87  1  0.98874000  0.57877000  0.64689000  1.0 -0.007828872
C  C88  1  0.35311000  0.42123000  0.01126000  1.0 -0.007828872
C  C89  1  0.01126000  0.35311000  0.42123000  1.0 -0.007828872
C  C90  1  0.42123000  0.01126000  0.35311000  1.0 -0.007828872
C  C91  1  0.42123000  0.35311000  0.01126000  1.0 -0.007828872
C  C92  1  0.35311000  0.01126000  0.42123000  1.0 -0.007828872
C  C93  1  0.01126000  0.42123000  0.35311000  1.0 -0.007828872
C  C94  1  0.64689000  0.57877000  0.98874000  1.0 -0.007828872
C  C95  1  0.98874000  0.64689000  0.57877000  1.0 -0.007828872
C  C96  1  0.57877000  0.98874000  0.64689000  1.0 -0.007828872
C  C97  1  0.52655000  0.59311000  0.99514000  1.0 -0.1834775668
C  C98  1  0.59311000  0.99514000  0.52655000  1.0 -0.1834775668
C  C99  1  0.99514000  0.52655000  0.59311000  1.0 -0.1834775668
C  C100  1  0.40689000  0.47345000  0.00486000  1.0 -0.1834775668
C  C101  1  0.00486000  0.40689000  0.47345000  1.0 -0.1834775668
C  C102  1  0.47345000  0.00486000  0.40689000  1.0 -0.1834775668
C  C103  1  0.47345000  0.40689000  0.00486000  1.0 -0.1834775668
C  C104  1  0.40689000  0.00486000  0.47345000  1.0 -0.1834775668
C  C105  1  0.00486000  0.47345000  0.40689000  1.0 -0.1834775668
C  C106  1  0.59311000  0.52655000  0.99514000  1.0 -0.1834775668
C  C107  1  0.99514000  0.59311000  0.52655000  1.0 -0.1834775668
C  C108  1  0.52655000  0.99514000  0.59311000  1.0 -0.1834775668
C  C109  1  0.52921000  0.52922000  0.99727000  1.0 0.069905984
C  C110  1  0.52921000  0.99727000  0.52921000  1.0 0.069905984
C  C111  1  0.99727000  0.52922000  0.52921000  1.0 0.069905984
C  C112  1  0.47079000  0.47079000  0.00273000  1.0 0.069905984
C  C113  1  0.00273000  0.47078000  0.47078000  1.0 0.069905984
C  C114  1  0.47079000  0.00273000  0.47078000  1.0 0.069905984
C  C115  1  0.64184000  0.64184000  0.98651000  1.0 0.213200044
C  C116  1  0.64184000  0.98651000  0.64184000  1.0 0.213200044
C  C117  1  0.98651000  0.64184000  0.64184000  1.0 0.213200044
C  C118  1  0.35816000  0.35816000  0.01349000  1.0 0.213200044
C  C119  1  0.01349000  0.35816000  0.35816000  1.0 0.213200044
C  C120  1  0.35816000  0.01349000  0.35816000  1.0 0.213200044
C  C121  1  0.66335000  0.66335000  0.89220000  1.0 0.2672512892
C  C122  1  0.66335000  0.89220000  0.66335000  1.0 0.2672512892
C  C123  1  0.89220000  0.66335000  0.66335000  1.0 0.2672512892
C  C124  1  0.33665000  0.33665000  0.10780000  1.0 0.2672512892
C  C125  1  0.10780000  0.33665000  0.33665000  1.0 0.2672512892
C  C126  1  0.33665000  0.10780000  0.33665000  1.0 0.2672512892
C  C127  1  0.74070000  0.71160000  0.89410000  1.0 0.0129929589
C  C128  1  0.71160000  0.89410000  0.74070000  1.0 0.0129929589
C  C129  1  0.89410000  0.74070000  0.71160000  1.0 0.0129929589
C  C130  1  0.28840000  0.25930000  0.10590000  1.0 0.018166989
C  C131  1  0.10590000  0.28840000  0.25930000  1.0 0.0129929589
C  C132  1  0.25930000  0.10590000  0.28840000  1.0 0.018166989
C  C133  1  0.25930000  0.28840000  0.10590000  1.0 0.0129929589
C  C134  1  0.28840000  0.10590000  0.25930000  1.0 0.018166989
C  C135  1  0.10590000  0.25930000  0.28840000  1.0 0.0129929589
C  C136  1  0.71160000  0.74070000  0.89410000  1.0 0.0129929589
C  C137  1  0.89410000  0.71160000  0.74070000  1.0 0.0129929589
C  C138  1  0.74070000  0.89410000  0.71160000  1.0 0.018166989
C  C139  1  0.56910000  0.60560000  0.81650000  1.0 -0.1690404663
C  C140  1  0.60560000  0.81650000  0.56910000  1.0 -0.1690404663
C  C141  1  0.81650000  0.56910000  0.60560000  1.0 -0.1690404663
C  C142  1  0.39440000  0.43090000  0.18350000  1.0 -0.1690404663
C  C143  1  0.18350000  0.39440000  0.43090000  1.0 -0.1690404663
C  C144  1  0.43090000  0.18350000  0.39440000  1.0 -0.1690404663
C  C145  1  0.43090000  0.39440000  0.18350000  1.0 -0.1690404663
C  C146  1  0.39440000  0.18350000  0.43090000  1.0 -0.1690404663
C  C147  1  0.18350000  0.43090000  0.39440000  1.0 -0.1690404663
C  C148  1  0.60560000  0.56910000  0.81650000  1.0 -0.1690404663
C  C149  1  0.81650000  0.60560000  0.56910000  1.0 -0.1690404663
C  C150  1  0.56910000  0.81650000  0.60560000  1.0 -0.1690404663
O  O1  1  0.45144000  0.86327000  0.94025000  1.0 -0.5364227928
O  O2  1  0.86327000  0.94025000  0.45144000  1.0 -0.5364227928
O  O3  1  0.94025000  0.45144000  0.86327000  1.0 -0.5364227928
O  O4  1  0.13673000  0.54856000  0.05975000  1.0 -0.5364227928
O  O5  1  0.05975000  0.13673000  0.54856000  1.0 -0.5364227928
O  O6  1  0.54856000  0.05975000  0.13673000  1.0 -0.5364227928
O  O7  1  0.54856000  0.13673000  0.05975000  1.0 -0.5364227928
O  O8  1  0.13673000  0.05975000  0.54856000  1.0 -0.5364227928
O  O9  1  0.05975000  0.54856000  0.13673000  1.0 -0.5364227928
O  O10  1  0.86327000  0.45144000  0.94025000  1.0 -0.5364227928
O  O11  1  0.94025000  0.86327000  0.45144000  1.0 -0.5364227928
O  O12  1  0.45144000  0.94025000  0.86327000  1.0 -0.5364227928
O  O13  1  0.59759000  0.97835000  0.05567000  1.0 -0.4911542174
O  O14  1  0.97835000  0.05567000  0.59759000  1.0 -0.4911542174
O  O15  1  0.05567000  0.59759000  0.97835000  1.0 -0.4911542174
O  O16  1  0.02165000  0.40241000  0.94433000  1.0 -0.4911542174
O  O17  1  0.94433000  0.02165000  0.40241000  1.0 -0.4911542174
O  O18  1  0.40241000  0.94433000  0.02165000  1.0 -0.4911542174
O  O19  1  0.40241000  0.02165000  0.94433000  1.0 -0.4911542174
O  O20  1  0.02165000  0.94433000  0.40241000  1.0 -0.4911542174
O  O21  1  0.94433000  0.40241000  0.02165000  1.0 -0.4911542174
O  O22  1  0.97835000  0.59759000  0.05567000  1.0 -0.4911542174
O  O23  1  0.05567000  0.97835000  0.59759000  1.0 -0.4911542174
O  O24  1  0.59759000  0.05567000  0.97835000  1.0 -0.4911542174
O  O25  1  0.69700000  0.69700000  0.98239000  1.0 -0.2362667979
O  O26  1  0.69700000  0.98239000  0.69700000  1.0 -0.2349082964
O  O27  1  0.98239000  0.69700000  0.69700000  1.0 -0.2362667979
O  O28  1  0.30300000  0.30300000  0.01761000  1.0 -0.2362667979
O  O29  1  0.01761000  0.30300000  0.30300000  1.0 -0.2349082964
O  O30  1  0.30300000  0.01761000  0.30300000  1.0 -0.2362667979
