# DDEC6 charges by PACMAN v1.1 (https://github.com/mtap-research/PACMAN-charge/)
data_UMOYOM16_ASR_pacman
_symmetry_space_group_name_H-M   'P 1'
_cell_length_a   21.34410000
_cell_length_b   21.34410000
_cell_length_c   21.34410000
_cell_angle_alpha   114.24700000
_cell_angle_beta   114.24700000
_cell_angle_gamma   114.24700000
_symmetry_Int_Tables_number   1
_chemical_formula_structural   CuH10(C5O)5
_chemical_formula_sum   'Cu6 H60 C150 O30'
_cell_volume   5797.89404999
_cell_formula_units_Z   6
loop_
 _symmetry_equiv_pos_site_id
 _symmetry_equiv_pos_as_xyz
  1  'x, y, z'
loop_
 _atom_site_type_symbol
 _atom_site_label
 _atom_site_symmetry_multiplicity
 _atom_site_fract_x
 _atom_site_fract_y
 _atom_site_fract_z
 _atom_site_occupancy
 _atom_site_charge
Cu  Cu1  1  0.57864000  0.09177000  0.57864000  1.0 0.8483788677
Cu  Cu2  1  0.09177000  0.57864000  0.57864000  1.0 0.8483788677
Cu  Cu3  1  0.57864000  0.57864000  0.09177000  1.0 0.8483788677
Cu  Cu4  1  0.90823000  0.42136000  0.42136000  1.0 0.8483788677
Cu  Cu5  1  0.42136000  0.90823000  0.42136000  1.0 0.8483788677
Cu  Cu6  1  0.42136000  0.42136000  0.90823000  1.0 0.8483788677
H  H1  1  0.38090000  0.79710000  0.54950000  1.0 0.1184024309
H  H2  1  0.79710000  0.54950000  0.38090000  1.0 0.1184024309
H  H3  1  0.54950000  0.38090000  0.79710000  1.0 0.1184024309
H  H4  1  0.20290000  0.61910000  0.45050000  1.0 0.1184024309
H  H5  1  0.45050000  0.20290000  0.61910000  1.0 0.1184024309
H  H6  1  0.61910000  0.45050000  0.20290000  1.0 0.1184024309
H  H7  1  0.61910000  0.20290000  0.45050000  1.0 0.1184024309
H  H8  1  0.20290000  0.45050000  0.61910000  1.0 0.1184024309
H  H9  1  0.45050000  0.61910000  0.20290000  1.0 0.1184024309
H  H10  1  0.79710000  0.38090000  0.54950000  1.0 0.1184024309
H  H11  1  0.54950000  0.79710000  0.38090000  1.0 0.1184024309
H  H12  1  0.38090000  0.54950000  0.79710000  1.0 0.1184024309
H  H13  1  0.38390000  0.77810000  0.65040000  1.0 0.1277803731
H  H14  1  0.77810000  0.65040000  0.38390000  1.0 0.1277803731
H  H15  1  0.65040000  0.38390000  0.77810000  1.0 0.1277803731
H  H16  1  0.22190000  0.61610000  0.34960000  1.0 0.1277803731
H  H17  1  0.34960000  0.22190000  0.61610000  1.0 0.1277803731
H  H18  1  0.61610000  0.34960000  0.22190000  1.0 0.1277803731
H  H19  1  0.61610000  0.22190000  0.34960000  1.0 0.1277803731
H  H20  1  0.22190000  0.34960000  0.61610000  1.0 0.1277803731
H  H21  1  0.34960000  0.61610000  0.22190000  1.0 0.1277803731
H  H22  1  0.77810000  0.38390000  0.65040000  1.0 0.1277803731
H  H23  1  0.65040000  0.77810000  0.38390000  1.0 0.1277803731
H  H24  1  0.38390000  0.65040000  0.77810000  1.0 0.1277803731
H  H25  1  0.61090000  0.05570000  0.87630000  1.0 0.1184024309
H  H26  1  0.05570000  0.87630000  0.61090000  1.0 0.1184024309
H  H27  1  0.87630000  0.61090000  0.05570000  1.0 0.1184024309
H  H28  1  0.94430000  0.38910000  0.12370000  1.0 0.1184024309
H  H29  1  0.12370000  0.94430000  0.38910000  1.0 0.1184024309
H  H30  1  0.38910000  0.12370000  0.94430000  1.0 0.1184024309
H  H31  1  0.38910000  0.94430000  0.12370000  1.0 0.1184024309
H  H32  1  0.94430000  0.12370000  0.38910000  1.0 0.1184024309
H  H33  1  0.12370000  0.38910000  0.94430000  1.0 0.1184024309
H  H34  1  0.05570000  0.61090000  0.87630000  1.0 0.1184024309
H  H35  1  0.87630000  0.05570000  0.61090000  1.0 0.1184024309
H  H36  1  0.61090000  0.87630000  0.05570000  1.0 0.1184024309
H  H37  1  0.60900000  0.07780000  0.77810000  1.0 0.1277803731
H  H38  1  0.07780000  0.77810000  0.60900000  1.0 0.1277803731
H  H39  1  0.77810000  0.60900000  0.07780000  1.0 0.1277803731
H  H40  1  0.92220000  0.39100000  0.22190000  1.0 0.1277803731
H  H41  1  0.22190000  0.92220000  0.39100000  1.0 0.1277803731
H  H42  1  0.39100000  0.22190000  0.92220000  1.0 0.1277803731
H  H43  1  0.39100000  0.92220000  0.22190000  1.0 0.1277803731
H  H44  1  0.92220000  0.22190000  0.39100000  1.0 0.1277803731
H  H45  1  0.22190000  0.39100000  0.92220000  1.0 0.1277803731
H  H46  1  0.07780000  0.60900000  0.77810000  1.0 0.1277803731
H  H47  1  0.77810000  0.07780000  0.60900000  1.0 0.1277803731
H  H48  1  0.60900000  0.77810000  0.07780000  1.0 0.1277803731
H  H49  1  0.49880000  0.01060000  0.89940000  1.0 0.1122265112
H  H50  1  0.01060000  0.89940000  0.49880000  1.0 0.1122265112
H  H51  1  0.89940000  0.49880000  0.01060000  1.0 0.1122265112
H  H52  1  0.98940000  0.50120000  0.10060000  1.0 0.1122265112
H  H53  1  0.10060000  0.98940000  0.50120000  1.0 0.1122265112
H  H54  1  0.50120000  0.10060000  0.98940000  1.0 0.1122265112
H  H55  1  0.50120000  0.98940000  0.10060000  1.0 0.1122265112
H  H56  1  0.98940000  0.10060000  0.50120000  1.0 0.1122265112
H  H57  1  0.10060000  0.50120000  0.98940000  1.0 0.1122265112
H  H58  1  0.01060000  0.49880000  0.89940000  1.0 0.1122265112
H  H59  1  0.89940000  0.01060000  0.49880000  1.0 0.1122265112
H  H60  1  0.49880000  0.89940000  0.01060000  1.0 0.1122265112
C  C1  1  0.49191000  0.95637000  0.59122000  1.0 0.5795577176
C  C2  1  0.95637000  0.59122000  0.49191000  1.0 0.5795577176
C  C3  1  0.59122000  0.49191000  0.95637000  1.0 0.5795577176
C  C4  1  0.04363000  0.50809000  0.40878000  1.0 0.5795577176
C  C5  1  0.40878000  0.04363000  0.50809000  1.0 0.5795577176
C  C6  1  0.50809000  0.40878000  0.04363000  1.0 0.5795577176
C  C7  1  0.50809000  0.04363000  0.40878000  1.0 0.5795577176
C  C8  1  0.04363000  0.40878000  0.50809000  1.0 0.5795577176
C  C9  1  0.40878000  0.50809000  0.04363000  1.0 0.5795577176
C  C10  1  0.95637000  0.49191000  0.59122000  1.0 0.5795577176
C  C11  1  0.59122000  0.95637000  0.49191000  1.0 0.5795577176
C  C12  1  0.49191000  0.59122000  0.95637000  1.0 0.5795577176
C  C13  1  0.49548000  0.94186000  0.65586000  1.0 -0.0163544699
C  C14  1  0.94186000  0.65586000  0.49548000  1.0 -0.0163544699
C  C15  1  0.65586000  0.49548000  0.94186000  1.0 -0.0163544699
C  C16  1  0.05814000  0.50452000  0.34414000  1.0 -0.0163544699
C  C17  1  0.34414000  0.05814000  0.50452000  1.0 -0.0163544699
C  C18  1  0.50452000  0.34414000  0.05814000  1.0 -0.0163544699
C  C19  1  0.50452000  0.05814000  0.34414000  1.0 -0.0163544699
C  C20  1  0.05814000  0.34414000  0.50452000  1.0 -0.0163544699
C  C21  1  0.34414000  0.50452000  0.05814000  1.0 -0.0163544699
C  C22  1  0.94186000  0.49548000  0.65586000  1.0 -0.0163544699
C  C23  1  0.65586000  0.94186000  0.49548000  1.0 -0.0163544699
C  C24  1  0.49548000  0.65586000  0.94186000  1.0 -0.0163544699
C  C25  1  0.42682000  0.84982000  0.61526000  1.0 -0.0899212393
C  C26  1  0.84982000  0.61526000  0.42682000  1.0 -0.0899212393
C  C27  1  0.61526000  0.42682000  0.84982000  1.0 -0.0899212393
C  C28  1  0.15018000  0.57318000  0.38474000  1.0 -0.0899212393
C  C29  1  0.38474000  0.15018000  0.57318000  1.0 -0.0899212393
C  C30  1  0.57318000  0.38474000  0.15018000  1.0 -0.0899212393
C  C31  1  0.57318000  0.15018000  0.38474000  1.0 -0.0899212393
C  C32  1  0.15018000  0.38474000  0.57318000  1.0 -0.0899212393
C  C33  1  0.38474000  0.57318000  0.15018000  1.0 -0.0899212393
C  C34  1  0.84982000  0.42682000  0.61526000  1.0 -0.0899212393
C  C35  1  0.61526000  0.84982000  0.42682000  1.0 -0.0899212393
C  C36  1  0.42682000  0.61526000  0.84982000  1.0 -0.0899212393
C  C37  1  0.42896000  0.83912000  0.67662000  1.0 -0.1401224861
C  C38  1  0.83912000  0.67662000  0.42896000  1.0 -0.1401224861
C  C39  1  0.67662000  0.42896000  0.83912000  1.0 -0.1401224861
C  C40  1  0.16088000  0.57104000  0.32338000  1.0 -0.1401224861
C  C41  1  0.32338000  0.16088000  0.57104000  1.0 -0.1401224861
C  C42  1  0.57104000  0.32338000  0.16088000  1.0 -0.1401224861
C  C43  1  0.57104000  0.16088000  0.32338000  1.0 -0.1401224861
C  C44  1  0.16088000  0.32338000  0.57104000  1.0 -0.1401224861
C  C45  1  0.32338000  0.57104000  0.16088000  1.0 -0.1401224861
C  C46  1  0.83912000  0.42896000  0.67662000  1.0 -0.1401224861
C  C47  1  0.67662000  0.83912000  0.42896000  1.0 -0.1401224861
C  C48  1  0.42896000  0.67662000  0.83912000  1.0 -0.1401224861
C  C49  1  0.49469000  0.91494000  0.77297000  1.0 0.0916761316
C  C50  1  0.91494000  0.77297000  0.49469000  1.0 0.0916761316
C  C51  1  0.77297000  0.49469000  0.91494000  1.0 0.0916761316
C  C52  1  0.08506000  0.50531000  0.22703000  1.0 0.0916761316
C  C53  1  0.22703000  0.08506000  0.50531000  1.0 0.0916761316
C  C54  1  0.50531000  0.22703000  0.08506000  1.0 0.0916761316
C  C55  1  0.50531000  0.08506000  0.22703000  1.0 0.0916761316
C  C56  1  0.08506000  0.22703000  0.50531000  1.0 0.0916761316
C  C57  1  0.22703000  0.50531000  0.08506000  1.0 0.0916761316
C  C58  1  0.91494000  0.49469000  0.77297000  1.0 0.0916761316
C  C59  1  0.77297000  0.91494000  0.49469000  1.0 0.0916761316
C  C60  1  0.49469000  0.77297000  0.91494000  1.0 0.0916761316
C  C61  1  0.56306000  0.00340000  0.81024000  1.0 -0.1401224861
C  C62  1  0.00340000  0.81024000  0.56306000  1.0 -0.1401224861
C  C63  1  0.81024000  0.56306000  0.00340000  1.0 -0.1401224861
C  C64  1  0.99660000  0.43694000  0.18976000  1.0 -0.1401224861
C  C65  1  0.18976000  0.99660000  0.43694000  1.0 -0.1401224861
C  C66  1  0.43694000  0.18976000  0.99660000  1.0 -0.1401224861
C  C67  1  0.43694000  0.99660000  0.18976000  1.0 -0.1401224861
C  C68  1  0.99660000  0.18976000  0.43694000  1.0 -0.1401224861
C  C69  1  0.18976000  0.43694000  0.99660000  1.0 -0.1401224861
C  C70  1  0.00340000  0.56306000  0.81024000  1.0 -0.1401224861
C  C71  1  0.81024000  0.00340000  0.56306000  1.0 -0.1401224861
C  C72  1  0.56306000  0.81024000  0.00340000  1.0 -0.1401224861
C  C73  1  0.56260000  0.01676000  0.75114000  1.0 -0.0899212393
C  C74  1  0.01676000  0.75114000  0.56260000  1.0 -0.0899212393
C  C75  1  0.75114000  0.56260000  0.01676000  1.0 -0.0899212393
C  C76  1  0.98324000  0.43740000  0.24886000  1.0 -0.0899212393
C  C77  1  0.24886000  0.98324000  0.43740000  1.0 -0.0899212393
C  C78  1  0.43740000  0.24886000  0.98324000  1.0 -0.0899212393
C  C79  1  0.43740000  0.98324000  0.24886000  1.0 -0.0899212393
C  C80  1  0.98324000  0.24886000  0.43740000  1.0 -0.0899212393
C  C81  1  0.24886000  0.43740000  0.98324000  1.0 -0.0899212393
C  C82  1  0.01676000  0.56260000  0.75114000  1.0 -0.0899212393
C  C83  1  0.75114000  0.01676000  0.56260000  1.0 -0.0899212393
C  C84  1  0.56260000  0.75114000  0.01676000  1.0 -0.0899212393
C  C85  1  0.49381000  0.90584000  0.83845000  1.0 -0.0123955985
C  C86  1  0.90584000  0.83845000  0.49381000  1.0 -0.0123955985
C  C87  1  0.83845000  0.49381000  0.90584000  1.0 -0.0123955985
C  C88  1  0.09416000  0.50619000  0.16155000  1.0 -0.0123955985
C  C89  1  0.16155000  0.09416000  0.50619000  1.0 -0.0123955985
C  C90  1  0.50619000  0.16155000  0.09416000  1.0 -0.0123955985
C  C91  1  0.50619000  0.09416000  0.16155000  1.0 -0.0123955985
C  C92  1  0.09416000  0.16155000  0.50619000  1.0 -0.0123955985
C  C93  1  0.16155000  0.50619000  0.09416000  1.0 -0.0123955985
C  C94  1  0.90584000  0.49381000  0.83845000  1.0 -0.0123955985
C  C95  1  0.83845000  0.90584000  0.49381000  1.0 -0.0123955985
C  C96  1  0.49381000  0.83845000  0.90584000  1.0 -0.0123955985
C  C97  1  0.49718000  0.96709000  0.90103000  1.0 -0.188218342
C  C98  1  0.96709000  0.90103000  0.49718000  1.0 -0.188218342
C  C99  1  0.90103000  0.49718000  0.96709000  1.0 -0.188218342
C  C100  1  0.03291000  0.50282000  0.09897000  1.0 -0.188218342
C  C101  1  0.09897000  0.03291000  0.50282000  1.0 -0.188218342
C  C102  1  0.50282000  0.09897000  0.03291000  1.0 -0.188218342
C  C103  1  0.50282000  0.03291000  0.09897000  1.0 -0.188218342
C  C104  1  0.03291000  0.09897000  0.50282000  1.0 -0.188218342
C  C105  1  0.09897000  0.50282000  0.03291000  1.0 -0.188218342
C  C106  1  0.96709000  0.49718000  0.90103000  1.0 -0.188218342
C  C107  1  0.90103000  0.96709000  0.49718000  1.0 -0.188218342
C  C108  1  0.49718000  0.90103000  0.96709000  1.0 -0.188218342
C  C109  1  0.49836000  0.96677000  0.96677000  1.0 0.0804539914
C  C110  1  0.96677000  0.96677000  0.49836000  1.0 0.0804539914
C  C111  1  0.96677000  0.49836000  0.96677000  1.0 0.0804539914
C  C112  1  0.03323000  0.50164000  0.03323000  1.0 0.0804539914
C  C113  1  0.03323000  0.03323000  0.50164000  1.0 0.0804539914
C  C114  1  0.50164000  0.03323000  0.03323000  1.0 0.0804539914
C  C115  1  0.49260000  0.84125000  0.84125000  1.0 0.1892231114
C  C116  1  0.84125000  0.84125000  0.49260000  1.0 0.1892231114
C  C117  1  0.84125000  0.49260000  0.84125000  1.0 0.1892231114
C  C118  1  0.15875000  0.50740000  0.15875000  1.0 0.1892231114
C  C119  1  0.15875000  0.15875000  0.50740000  1.0 0.1892231114
C  C120  1  0.50740000  0.15875000  0.15875000  1.0 0.1892231114
C  C121  1  0.56710000  0.80100000  0.80100000  1.0 0.33203814
C  C122  1  0.80100000  0.80100000  0.56710000  1.0 0.33203814
C  C123  1  0.80100000  0.56710000  0.80100000  1.0 0.33203814
C  C124  1  0.19900000  0.43290000  0.19900000  1.0 0.33203814
C  C125  1  0.19900000  0.19900000  0.43290000  1.0 0.33203814
C  C126  1  0.43290000  0.19900000  0.19900000  1.0 0.33203814
C  C127  1  0.65860000  0.89750000  0.85840000  1.0 -0.1112051611
C  C128  1  0.89750000  0.85840000  0.65860000  1.0 -0.1112051611
C  C129  1  0.85840000  0.65860000  0.89750000  1.0 -0.1112051611
C  C130  1  0.10250000  0.34140000  0.14160000  1.0 -0.1112051611
C  C131  1  0.14160000  0.10250000  0.34140000  1.0 -0.1112051611
C  C132  1  0.34140000  0.14160000  0.10250000  1.0 -0.1112051611
C  C133  1  0.34140000  0.10250000  0.14160000  1.0 -0.1112051611
C  C134  1  0.10250000  0.14160000  0.34140000  1.0 -0.1112051611
C  C135  1  0.14160000  0.34140000  0.10250000  1.0 -0.1112051611
C  C136  1  0.89750000  0.65860000  0.85840000  1.0 -0.1112051611
C  C137  1  0.85840000  0.89750000  0.65860000  1.0 -0.1112051611
C  C138  1  0.65860000  0.85840000  0.89750000  1.0 -0.1112051611
C  C139  1  0.54870000  0.71070000  0.74590000  1.0 -0.0573118352
C  C140  1  0.71070000  0.74590000  0.54870000  1.0 -0.0573118352
C  C141  1  0.74590000  0.54870000  0.71070000  1.0 -0.0573118352
C  C142  1  0.28930000  0.45130000  0.25410000  1.0 -0.0573118352
C  C143  1  0.25410000  0.28930000  0.45130000  1.0 -0.0573118352
C  C144  1  0.45130000  0.25410000  0.28930000  1.0 -0.0573118352
C  C145  1  0.45130000  0.28930000  0.25410000  1.0 -0.0573118352
C  C146  1  0.28930000  0.25410000  0.45130000  1.0 -0.0573118352
C  C147  1  0.25410000  0.45130000  0.28930000  1.0 -0.0573118352
C  C148  1  0.71070000  0.54870000  0.74590000  1.0 -0.0573118352
C  C149  1  0.74590000  0.71070000  0.54870000  1.0 -0.0573118352
C  C150  1  0.54870000  0.74590000  0.71070000  1.0 -0.0573118352
O  O1  1  0.55974000  0.04357000  0.63689000  1.0 -0.5399580888
O  O2  1  0.04357000  0.63689000  0.55974000  1.0 -0.5399580888
O  O3  1  0.63689000  0.55974000  0.04357000  1.0 -0.5399580888
O  O4  1  0.95643000  0.44026000  0.36311000  1.0 -0.5399580888
O  O5  1  0.36311000  0.95643000  0.44026000  1.0 -0.5399580888
O  O6  1  0.44026000  0.36311000  0.95643000  1.0 -0.5399580888
O  O7  1  0.44026000  0.95643000  0.36311000  1.0 -0.5399580888
O  O8  1  0.95643000  0.36311000  0.44026000  1.0 -0.5399580888
O  O9  1  0.36311000  0.44026000  0.95643000  1.0 -0.5399580888
O  O10  1  0.04357000  0.55974000  0.63689000  1.0 -0.5399580888
O  O11  1  0.63689000  0.04357000  0.55974000  1.0 -0.5399580888
O  O12  1  0.55974000  0.63689000  0.04357000  1.0 -0.5399580888
O  O13  1  0.42696000  0.88748000  0.50366000  1.0 -0.4937897615
O  O14  1  0.88748000  0.50366000  0.42696000  1.0 -0.4937897615
O  O15  1  0.50366000  0.42696000  0.88748000  1.0 -0.4937897615
O  O16  1  0.11252000  0.57304000  0.49634000  1.0 -0.4937897615
O  O17  1  0.49634000  0.11252000  0.57304000  1.0 -0.4937897615
O  O18  1  0.57304000  0.49634000  0.11252000  1.0 -0.4937897615
O  O19  1  0.57304000  0.11252000  0.49634000  1.0 -0.4937897615
O  O20  1  0.11252000  0.49634000  0.57304000  1.0 -0.4937897615
O  O21  1  0.49634000  0.57304000  0.11252000  1.0 -0.4937897615
O  O22  1  0.88748000  0.42696000  0.50366000  1.0 -0.4937897615
O  O23  1  0.50366000  0.88748000  0.42696000  1.0 -0.4937897615
O  O24  1  0.42696000  0.50366000  0.88748000  1.0 -0.4937897615
O  O25  1  0.48942000  0.77984000  0.77984000  1.0 -0.243104631
O  O26  1  0.77984000  0.77984000  0.48942000  1.0 -0.243104631
O  O27  1  0.77984000  0.48942000  0.77984000  1.0 -0.243104631
O  O28  1  0.22016000  0.51058000  0.22016000  1.0 -0.243104631
O  O29  1  0.22016000  0.22016000  0.51058000  1.0 -0.243104631
O  O30  1  0.51058000  0.22016000  0.22016000  1.0 -0.243104631
