# DDEC6 charges by PACMAN v1.1 (https://github.com/mtap-research/PACMAN-charge/)
data_UMOYOM19_ASR_pacman
_symmetry_space_group_name_H-M   'P 1'
_cell_length_a   21.24350000
_cell_length_b   21.24350000
_cell_length_c   21.24350000
_cell_angle_alpha   114.54900000
_cell_angle_beta   114.54900000
_cell_angle_gamma   114.54900000
_symmetry_Int_Tables_number   1
_chemical_formula_structural   CuH10(C5O)5
_chemical_formula_sum   'Cu6 H60 C150 O30'
_cell_volume   5579.51402678
_cell_formula_units_Z   6
loop_
 _symmetry_equiv_pos_site_id
 _symmetry_equiv_pos_as_xyz
  1  'x, y, z'
loop_
 _atom_site_type_symbol
 _atom_site_label
 _atom_site_symmetry_multiplicity
 _atom_site_fract_x
 _atom_site_fract_y
 _atom_site_fract_z
 _atom_site_occupancy
 _atom_site_charge
Cu  Cu1  1  0.41928000  0.41928000  0.90664000  1.0 0.843662749
Cu  Cu2  1  0.41928000  0.90664000  0.41928000  1.0 0.843662749
Cu  Cu3  1  0.90664000  0.41928000  0.41928000  1.0 0.843662749
Cu  Cu4  1  0.58072000  0.58072000  0.09336000  1.0 0.843662749
Cu  Cu5  1  0.09336000  0.58072000  0.58072000  1.0 0.843662749
Cu  Cu6  1  0.58072000  0.09336000  0.58072000  1.0 0.843662749
H  H1  1  0.38500000  0.54620000  0.79270000  1.0 0.1202159419
H  H2  1  0.54620000  0.79270000  0.38500000  1.0 0.1202159419
H  H3  1  0.79270000  0.38500000  0.54620000  1.0 0.1202159419
H  H4  1  0.45380000  0.61500000  0.20730000  1.0 0.1202159419
H  H5  1  0.20730000  0.45380000  0.61500000  1.0 0.1202159419
H  H6  1  0.61500000  0.20730000  0.45380000  1.0 0.1202159419
H  H7  1  0.61500000  0.45380000  0.20730000  1.0 0.1202159419
H  H8  1  0.45380000  0.20730000  0.61500000  1.0 0.1202159419
H  H9  1  0.20730000  0.61500000  0.45380000  1.0 0.1202159419
H  H10  1  0.54620000  0.38500000  0.79270000  1.0 0.1202159419
H  H11  1  0.79270000  0.54620000  0.38500000  1.0 0.1202159419
H  H12  1  0.38500000  0.79270000  0.54620000  1.0 0.1202159419
H  H13  1  0.37780000  0.64250000  0.77140000  1.0 0.1202159419
H  H14  1  0.64250000  0.77140000  0.37780000  1.0 0.1202159419
H  H15  1  0.77140000  0.37780000  0.64250000  1.0 0.1202159419
H  H16  1  0.35750000  0.62220000  0.22860000  1.0 0.1202159419
H  H17  1  0.22860000  0.35750000  0.62220000  1.0 0.1202159419
H  H18  1  0.62220000  0.22860000  0.35750000  1.0 0.1202159419
H  H19  1  0.62220000  0.35750000  0.22860000  1.0 0.1202159419
H  H20  1  0.35750000  0.22860000  0.62220000  1.0 0.1202159419
H  H21  1  0.22860000  0.62220000  0.35750000  1.0 0.1202159419
H  H22  1  0.64250000  0.37780000  0.77140000  1.0 0.1202159419
H  H23  1  0.77140000  0.64250000  0.37780000  1.0 0.1202159419
H  H24  1  0.37780000  0.77140000  0.64250000  1.0 0.1202159419
H  H25  1  0.61960000  0.88410000  0.06470000  1.0 0.1279666129
H  H26  1  0.88410000  0.06470000  0.61960000  1.0 0.1279666129
H  H27  1  0.06470000  0.61960000  0.88410000  1.0 0.1279666129
H  H28  1  0.11590000  0.38040000  0.93530000  1.0 0.1279666129
H  H29  1  0.93530000  0.11590000  0.38040000  1.0 0.1279666129
H  H30  1  0.38040000  0.93530000  0.11590000  1.0 0.1279666129
H  H31  1  0.38040000  0.11590000  0.93530000  1.0 0.1279666129
H  H32  1  0.11590000  0.93530000  0.38040000  1.0 0.1279666129
H  H33  1  0.93530000  0.38040000  0.11590000  1.0 0.1279666129
H  H34  1  0.88410000  0.61960000  0.06470000  1.0 0.1279666129
H  H35  1  0.06470000  0.88410000  0.61960000  1.0 0.1279666129
H  H36  1  0.61960000  0.06470000  0.88410000  1.0 0.1279666129
H  H37  1  0.61850000  0.78620000  0.08570000  1.0 0.1279666129
H  H38  1  0.78620000  0.08570000  0.61850000  1.0 0.1279666129
H  H39  1  0.08570000  0.61850000  0.78620000  1.0 0.1279666129
H  H40  1  0.21380000  0.38150000  0.91430000  1.0 0.1279666129
H  H41  1  0.91430000  0.21380000  0.38150000  1.0 0.1279666129
H  H42  1  0.38150000  0.91430000  0.21380000  1.0 0.1279666129
H  H43  1  0.38150000  0.21380000  0.91430000  1.0 0.1279666129
H  H44  1  0.21380000  0.91430000  0.38150000  1.0 0.1279666129
H  H45  1  0.91430000  0.38150000  0.21380000  1.0 0.1279666129
H  H46  1  0.78620000  0.61850000  0.08570000  1.0 0.1279666129
H  H47  1  0.08570000  0.78620000  0.61850000  1.0 0.1279666129
H  H48  1  0.61850000  0.08570000  0.78620000  1.0 0.1279666129
H  H49  1  0.50180000  0.90300000  0.01360000  1.0 0.1202159419
H  H50  1  0.90300000  0.01360000  0.50180000  1.0 0.1202159419
H  H51  1  0.01360000  0.50180000  0.90300000  1.0 0.1202159419
H  H52  1  0.09700000  0.49820000  0.98640000  1.0 0.1202159419
H  H53  1  0.98640000  0.09700000  0.49820000  1.0 0.1202159419
H  H54  1  0.49820000  0.98640000  0.09700000  1.0 0.1202159419
H  H55  1  0.49820000  0.09700000  0.98640000  1.0 0.1202159419
H  H56  1  0.09700000  0.98640000  0.49820000  1.0 0.1202159419
H  H57  1  0.98640000  0.49820000  0.09700000  1.0 0.1202159419
H  H58  1  0.90300000  0.50180000  0.01360000  1.0 0.1202159419
H  H59  1  0.01360000  0.90300000  0.50180000  1.0 0.1202159419
H  H60  1  0.50180000  0.01360000  0.90300000  1.0 0.1202159419
C  C1  1  0.49450000  0.59530000  0.95960000  1.0 0.5717012388
C  C2  1  0.59530000  0.95960000  0.49450000  1.0 0.5717012388
C  C3  1  0.95960000  0.49450000  0.59530000  1.0 0.5717012388
C  C4  1  0.40470000  0.50550000  0.04040000  1.0 0.5717012388
C  C5  1  0.04040000  0.40470000  0.50550000  1.0 0.5717012388
C  C6  1  0.50550000  0.04040000  0.40470000  1.0 0.5717012388
C  C7  1  0.50550000  0.40470000  0.04040000  1.0 0.5717012388
C  C8  1  0.40470000  0.04040000  0.50550000  1.0 0.5717012388
C  C9  1  0.04040000  0.50550000  0.40470000  1.0 0.5717012388
C  C10  1  0.59530000  0.49450000  0.95960000  1.0 0.5717012388
C  C11  1  0.95960000  0.59530000  0.49450000  1.0 0.5717012388
C  C12  1  0.49450000  0.95960000  0.59530000  1.0 0.5717012388
C  C13  1  0.49376000  0.65406000  0.94088000  1.0 -0.0336839305
C  C14  1  0.65406000  0.94088000  0.49376000  1.0 -0.0336839305
C  C15  1  0.94088000  0.49376000  0.65406000  1.0 -0.0336839305
C  C16  1  0.34594000  0.50624000  0.05912000  1.0 -0.0336839305
C  C17  1  0.05912000  0.34594000  0.50624000  1.0 -0.0336839305
C  C18  1  0.50624000  0.05912000  0.34594000  1.0 -0.0336839305
C  C19  1  0.50624000  0.34594000  0.05912000  1.0 -0.0336839305
C  C20  1  0.34594000  0.05912000  0.50624000  1.0 -0.0336839305
C  C21  1  0.05912000  0.50624000  0.34594000  1.0 -0.0336839305
C  C22  1  0.65406000  0.49376000  0.94088000  1.0 -0.0336839305
C  C23  1  0.94088000  0.65406000  0.49376000  1.0 -0.0336839305
C  C24  1  0.49376000  0.94088000  0.65406000  1.0 -0.0336839305
C  C25  1  0.42780000  0.61290000  0.84700000  1.0 -0.0767681236
C  C26  1  0.61290000  0.84700000  0.42780000  1.0 -0.0767681236
C  C27  1  0.84700000  0.42780000  0.61290000  1.0 -0.0767681236
C  C28  1  0.38710000  0.57220000  0.15300000  1.0 -0.0767681236
C  C29  1  0.15300000  0.38710000  0.57220000  1.0 -0.0767681236
C  C30  1  0.57220000  0.15300000  0.38710000  1.0 -0.0767681236
C  C31  1  0.57220000  0.38710000  0.15300000  1.0 -0.0767681236
C  C32  1  0.38710000  0.15300000  0.57220000  1.0 -0.0767681236
C  C33  1  0.15300000  0.57220000  0.38710000  1.0 -0.0767681236
C  C34  1  0.61290000  0.42780000  0.84700000  1.0 -0.0767681236
C  C35  1  0.84700000  0.61290000  0.42780000  1.0 -0.0767681236
C  C36  1  0.42780000  0.84700000  0.61290000  1.0 -0.0767681236
C  C37  1  0.42550000  0.67020000  0.83370000  1.0 -0.1430723248
C  C38  1  0.67020000  0.83370000  0.42550000  1.0 -0.1430723248
C  C39  1  0.83370000  0.42550000  0.67020000  1.0 -0.1430723248
C  C40  1  0.32980000  0.57450000  0.16630000  1.0 -0.1430723248
C  C41  1  0.16630000  0.32980000  0.57450000  1.0 -0.1430723248
C  C42  1  0.57450000  0.16630000  0.32980000  1.0 -0.1430723248
C  C43  1  0.57450000  0.32980000  0.16630000  1.0 -0.1430723248
C  C44  1  0.32980000  0.16630000  0.57450000  1.0 -0.1430723248
C  C45  1  0.16630000  0.57450000  0.32980000  1.0 -0.1430723248
C  C46  1  0.67020000  0.42550000  0.83370000  1.0 -0.1430723248
C  C47  1  0.83370000  0.67020000  0.42550000  1.0 -0.1430723248
C  C48  1  0.42550000  0.83370000  0.67020000  1.0 -0.1430723248
C  C49  1  0.49829000  0.77310000  0.91811000  1.0 0.1041572904
C  C50  1  0.77310000  0.91811000  0.49829000  1.0 0.1041572904
C  C51  1  0.91811000  0.49829000  0.77310000  1.0 0.1041572904
C  C52  1  0.22690000  0.50171000  0.08189000  1.0 0.1041572904
C  C53  1  0.08189000  0.22690000  0.50171000  1.0 0.1041572904
C  C54  1  0.50171000  0.08189000  0.22690000  1.0 0.1041572904
C  C55  1  0.50171000  0.22690000  0.08189000  1.0 0.1041572904
C  C56  1  0.22690000  0.08189000  0.50171000  1.0 0.1041572904
C  C57  1  0.08189000  0.50171000  0.22690000  1.0 0.1041572904
C  C58  1  0.77310000  0.49829000  0.91811000  1.0 0.1041572904
C  C59  1  0.91811000  0.77310000  0.49829000  1.0 0.1041572904
C  C60  1  0.49829000  0.91811000  0.77310000  1.0 0.1041572904
C  C61  1  0.57070000  0.81610000  0.01120000  1.0 -0.1430723248
C  C62  1  0.81610000  0.01120000  0.57070000  1.0 -0.1430723248
C  C63  1  0.01120000  0.57070000  0.81610000  1.0 -0.1430723248
C  C64  1  0.18390000  0.42930000  0.98880000  1.0 -0.1430723248
C  C65  1  0.98880000  0.18390000  0.42930000  1.0 -0.1430723248
C  C66  1  0.42930000  0.98880000  0.18390000  1.0 -0.1430723248
C  C67  1  0.42930000  0.18390000  0.98880000  1.0 -0.1430723248
C  C68  1  0.18390000  0.98880000  0.42930000  1.0 -0.1430723248
C  C69  1  0.98880000  0.42930000  0.18390000  1.0 -0.1430723248
C  C70  1  0.81610000  0.57070000  0.01120000  1.0 -0.1430723248
C  C71  1  0.01120000  0.81610000  0.57070000  1.0 -0.1430723248
C  C72  1  0.57070000  0.01120000  0.81610000  1.0 -0.1430723248
C  C73  1  0.56990000  0.75820000  0.02370000  1.0 -0.0767681236
C  C74  1  0.75820000  0.02370000  0.56990000  1.0 -0.0767681236
C  C75  1  0.02370000  0.56990000  0.75820000  1.0 -0.0767681236
C  C76  1  0.24180000  0.43010000  0.97630000  1.0 -0.0767681236
C  C77  1  0.97630000  0.24180000  0.43010000  1.0 -0.0767681236
C  C78  1  0.43010000  0.97630000  0.24180000  1.0 -0.0767681236
C  C79  1  0.43010000  0.24180000  0.97630000  1.0 -0.0767681236
C  C80  1  0.24180000  0.97630000  0.43010000  1.0 -0.0767681236
C  C81  1  0.97630000  0.43010000  0.24180000  1.0 -0.0767681236
C  C82  1  0.75820000  0.56990000  0.02370000  1.0 -0.0767681236
C  C83  1  0.02370000  0.75820000  0.56990000  1.0 -0.0767681236
C  C84  1  0.56990000  0.02370000  0.75820000  1.0 -0.0767681236
C  C85  1  0.49100000  0.83510000  0.90180000  1.0 -0.0078505804
C  C86  1  0.83510000  0.90180000  0.49100000  1.0 -0.0078505804
C  C87  1  0.90180000  0.49100000  0.83510000  1.0 -0.0078505804
C  C88  1  0.16490000  0.50900000  0.09820000  1.0 -0.0078505804
C  C89  1  0.09820000  0.16490000  0.50900000  1.0 -0.0078505804
C  C90  1  0.50900000  0.09820000  0.16490000  1.0 -0.0078505804
C  C91  1  0.50900000  0.16490000  0.09820000  1.0 -0.0078505804
C  C92  1  0.16490000  0.09820000  0.50900000  1.0 -0.0078505804
C  C93  1  0.09820000  0.50900000  0.16490000  1.0 -0.0078505804
C  C94  1  0.83510000  0.49100000  0.90180000  1.0 -0.0078505804
C  C95  1  0.90180000  0.83510000  0.49100000  1.0 -0.0078505804
C  C96  1  0.49100000  0.90180000  0.83510000  1.0 -0.0078505804
C  C97  1  0.49832000  0.90262000  0.96826000  1.0 -0.1879042471
C  C98  1  0.90262000  0.96826000  0.49832000  1.0 -0.1879042471
C  C99  1  0.96826000  0.49832000  0.90262000  1.0 -0.1879042471
C  C100  1  0.09738000  0.50168000  0.03174000  1.0 -0.1879042471
C  C101  1  0.03174000  0.09738000  0.50168000  1.0 -0.1879042471
C  C102  1  0.50168000  0.03174000  0.09738000  1.0 -0.1879042471
C  C103  1  0.50168000  0.09738000  0.03174000  1.0 -0.1879042471
C  C104  1  0.09738000  0.03174000  0.50168000  1.0 -0.1879042471
C  C105  1  0.03174000  0.50168000  0.09738000  1.0 -0.1879042471
C  C106  1  0.90262000  0.49832000  0.96826000  1.0 -0.1879042471
C  C107  1  0.96826000  0.90262000  0.49832000  1.0 -0.1879042471
C  C108  1  0.49832000  0.96826000  0.90262000  1.0 -0.1879042471
C  C109  1  0.50026000  0.96642000  0.96642000  1.0 0.0935236889
C  C110  1  0.96642000  0.96642000  0.50026000  1.0 0.0935236889
C  C111  1  0.96642000  0.50026000  0.96642000  1.0 0.0935236889
C  C112  1  0.03358000  0.49974000  0.03358000  1.0 0.0935236889
C  C113  1  0.03358000  0.03358000  0.49974000  1.0 0.0935236889
C  C114  1  0.49974000  0.03358000  0.03358000  1.0 0.0935236889
C  C115  1  0.49146000  0.83927000  0.83927000  1.0 0.1279666129
C  C116  1  0.83927000  0.83927000  0.49146000  1.0 0.1279666129
C  C117  1  0.83927000  0.49146000  0.83927000  1.0 0.1279666129
C  C118  1  0.16073000  0.50854000  0.16073000  1.0 0.1279666129
C  C119  1  0.16073000  0.16073000  0.50854000  1.0 0.1279666129
C  C120  1  0.50854000  0.16073000  0.16073000  1.0 0.1279666129
C  C121  1  0.56580000  0.79120000  0.80130000  1.0 0.2875724984
C  C122  1  0.79120000  0.80130000  0.56580000  1.0 0.2875724984
C  C123  1  0.80130000  0.56580000  0.79120000  1.0 0.2875724984
C  C124  1  0.20880000  0.43420000  0.19870000  1.0 0.2875724984
C  C125  1  0.19870000  0.20880000  0.43420000  1.0 0.2875724984
C  C126  1  0.43420000  0.19870000  0.20880000  1.0 0.2875724984
C  C127  1  0.43420000  0.20880000  0.19870000  1.0 0.2875724984
C  C128  1  0.20880000  0.19870000  0.43420000  1.0 0.2875724984
C  C129  1  0.19870000  0.43420000  0.20880000  1.0 0.2875724984
C  C130  1  0.79120000  0.56580000  0.80130000  1.0 0.2875724984
C  C131  1  0.80130000  0.79120000  0.56580000  1.0 0.2875724984
C  C132  1  0.56580000  0.80130000  0.79120000  1.0 0.2875724984
C  C133  1  0.66800000  0.89290000  0.89290000  1.0 -0.5242543714
C  C134  1  0.89290000  0.89290000  0.66800000  1.0 -0.5242543714
C  C135  1  0.89290000  0.66800000  0.89290000  1.0 -0.5242543714
C  C136  1  0.10710000  0.33200000  0.10710000  1.0 -0.5242543714
C  C137  1  0.10710000  0.10710000  0.33200000  1.0 -0.5242543714
C  C138  1  0.33200000  0.10710000  0.10710000  1.0 -0.5242543714
C  C139  1  0.53280000  0.69300000  0.73120000  1.0 -0.0942539694
C  C140  1  0.69300000  0.73120000  0.53280000  1.0 -0.0942539694
C  C141  1  0.73120000  0.53280000  0.69300000  1.0 -0.0942539694
C  C142  1  0.30700000  0.46720000  0.26880000  1.0 -0.0942539694
C  C143  1  0.26880000  0.30700000  0.46720000  1.0 -0.0942539694
C  C144  1  0.46720000  0.26880000  0.30700000  1.0 -0.0942539694
C  C145  1  0.46720000  0.30700000  0.26880000  1.0 -0.0942539694
C  C146  1  0.30700000  0.26880000  0.46720000  1.0 -0.0942539694
C  C147  1  0.26880000  0.46720000  0.30700000  1.0 -0.0942539694
C  C148  1  0.69300000  0.53280000  0.73120000  1.0 -0.0942539694
C  C149  1  0.73120000  0.69300000  0.53280000  1.0 -0.0942539694
C  C150  1  0.53280000  0.73120000  0.69300000  1.0 -0.0942539694
O  O1  1  0.56250000  0.63914000  0.04486000  1.0 -0.5062359668
O  O2  1  0.63914000  0.04486000  0.56250000  1.0 -0.5062359668
O  O3  1  0.04486000  0.56250000  0.63914000  1.0 -0.5062359668
O  O4  1  0.36086000  0.43750000  0.95514000  1.0 -0.5062359668
O  O5  1  0.95514000  0.36086000  0.43750000  1.0 -0.5062359668
O  O6  1  0.43750000  0.95514000  0.36086000  1.0 -0.5062359668
O  O7  1  0.43750000  0.36086000  0.95514000  1.0 -0.5062359668
O  O8  1  0.36086000  0.95514000  0.43750000  1.0 -0.5062359668
O  O9  1  0.95514000  0.43750000  0.36086000  1.0 -0.5062359668
O  O10  1  0.63914000  0.56250000  0.04486000  1.0 -0.5062359668
O  O11  1  0.04486000  0.63914000  0.56250000  1.0 -0.5062359668
O  O12  1  0.56250000  0.04486000  0.63914000  1.0 -0.5062359668
O  O13  1  0.42573000  0.50286000  0.88651000  1.0 -0.5062359668
O  O14  1  0.50286000  0.88651000  0.42573000  1.0 -0.5062359668
O  O15  1  0.88651000  0.42573000  0.50286000  1.0 -0.5062359668
O  O16  1  0.49714000  0.57427000  0.11349000  1.0 -0.5062359668
O  O17  1  0.11349000  0.49714000  0.57427000  1.0 -0.5062359668
O  O18  1  0.57427000  0.11349000  0.49714000  1.0 -0.5062359668
O  O19  1  0.57427000  0.49714000  0.11349000  1.0 -0.5062359668
O  O20  1  0.49714000  0.11349000  0.57427000  1.0 -0.5062359668
O  O21  1  0.11349000  0.57427000  0.49714000  1.0 -0.5062359668
O  O22  1  0.50286000  0.42573000  0.88651000  1.0 -0.5062359668
O  O23  1  0.88651000  0.50286000  0.42573000  1.0 -0.5062359668
O  O24  1  0.42573000  0.88651000  0.50286000  1.0 -0.5062359668
O  O25  1  0.48716000  0.77647000  0.77647000  1.0 -0.1492317217
O  O26  1  0.77647000  0.77647000  0.48716000  1.0 -0.1492317217
O  O27  1  0.77647000  0.48716000  0.77647000  1.0 -0.1492317217
O  O28  1  0.22353000  0.51284000  0.22353000  1.0 -0.1492317217
O  O29  1  0.22353000  0.22353000  0.51284000  1.0 -0.1492317217
O  O30  1  0.51284000  0.22353000  0.22353000  1.0 -0.1492317217
