# DDEC6 charges by PACMAN v1.1 (https://github.com/mtap-research/PACMAN-charge/)
data_UMOYOM01_ASR_pacman
_symmetry_space_group_name_H-M   'P 1'
_cell_length_a   21.52250000
_cell_length_b   21.52250000
_cell_length_c   21.52250000
_cell_angle_alpha   110.18700000
_cell_angle_beta   110.18700000
_cell_angle_gamma   110.18700000
_symmetry_Int_Tables_number   1
_chemical_formula_structural   CuH10C26O5
_chemical_formula_sum   'Cu6 H60 C156 O30'
_cell_volume   7464.30436355
_cell_formula_units_Z   6
loop_
 _symmetry_equiv_pos_site_id
 _symmetry_equiv_pos_as_xyz
  1  'x, y, z'
loop_
 _atom_site_type_symbol
 _atom_site_label
 _atom_site_symmetry_multiplicity
 _atom_site_fract_x
 _atom_site_fract_y
 _atom_site_fract_z
 _atom_site_occupancy
 _atom_site_charge
Cu  Cu1  1  0.44775000  0.44775000  0.92555000  1.0 0.8606486525
Cu  Cu2  1  0.44776000  0.92555000  0.44776000  1.0 0.8606486525
Cu  Cu3  1  0.92555000  0.44776000  0.44776000  1.0 0.8606486525
Cu  Cu4  1  0.55224000  0.55224000  0.07445000  1.0 0.8606486525
Cu  Cu5  1  0.07445000  0.55224000  0.55224000  1.0 0.8606486525
Cu  Cu6  1  0.55224000  0.07445000  0.55224000  1.0 0.8606486525
H  H1  1  0.57240000  0.39870000  0.15680000  1.0 0.1278324332
H  H2  1  0.39870000  0.15680000  0.57240000  1.0 0.1278324332
H  H3  1  0.15680000  0.57240000  0.39870000  1.0 0.1278324332
H  H4  1  0.60130000  0.42760000  0.84320000  1.0 0.1278324332
H  H5  1  0.84320000  0.60130000  0.42760000  1.0 0.1278324332
H  H6  1  0.42760000  0.84320000  0.60130000  1.0 0.1278324332
H  H7  1  0.42760000  0.60130000  0.84320000  1.0 0.1278324332
H  H8  1  0.60130000  0.84320000  0.42760000  1.0 0.1278324332
H  H9  1  0.84320000  0.42760000  0.60130000  1.0 0.1278324332
H  H10  1  0.39870000  0.57240000  0.15680000  1.0 0.1278324332
H  H11  1  0.15680000  0.39870000  0.57240000  1.0 0.1278324332
H  H12  1  0.57240000  0.15680000  0.39870000  1.0 0.1278324332
H  H13  1  0.57190000  0.29960000  0.17810000  1.0 0.1204067379
H  H14  1  0.29960000  0.17810000  0.57190000  1.0 0.1204067379
H  H15  1  0.17810000  0.57190000  0.29960000  1.0 0.1204067379
H  H16  1  0.70040000  0.42810000  0.82190000  1.0 0.1204067379
H  H17  1  0.82190000  0.70040000  0.42810000  1.0 0.1204067379
H  H18  1  0.42810000  0.82190000  0.70040000  1.0 0.1204067379
H  H19  1  0.42810000  0.70040000  0.82190000  1.0 0.1204067379
H  H20  1  0.70040000  0.82190000  0.42810000  1.0 0.1204067379
H  H21  1  0.82190000  0.42810000  0.70040000  1.0 0.1204067379
H  H22  1  0.29960000  0.57190000  0.17810000  1.0 0.1204067379
H  H23  1  0.17810000  0.29960000  0.57190000  1.0 0.1204067379
H  H24  1  0.57190000  0.17810000  0.29960000  1.0 0.1204067379
H  H25  1  0.40760000  0.14060000  0.95060000  1.0 0.1204067379
H  H26  1  0.14060000  0.95060000  0.40760000  1.0 0.1204067379
H  H27  1  0.95060000  0.40760000  0.14060000  1.0 0.1204067379
H  H28  1  0.85940000  0.59240000  0.04940000  1.0 0.1204067379
H  H29  1  0.04940000  0.85940000  0.59240000  1.0 0.1204067379
H  H30  1  0.59240000  0.04940000  0.85940000  1.0 0.1204067379
H  H31  1  0.59240000  0.85940000  0.04940000  1.0 0.1204067379
H  H32  1  0.85940000  0.04940000  0.59240000  1.0 0.1204067379
H  H33  1  0.04940000  0.59240000  0.85940000  1.0 0.1204067379
H  H34  1  0.14060000  0.40760000  0.95060000  1.0 0.1204067379
H  H35  1  0.95060000  0.14060000  0.40760000  1.0 0.1204067379
H  H36  1  0.40760000  0.95060000  0.14060000  1.0 0.1204067379
H  H37  1  0.41100000  0.24140000  0.92920000  1.0 0.1204067379
H  H38  1  0.24140000  0.92920000  0.41100000  1.0 0.1204067379
H  H39  1  0.92920000  0.41100000  0.24140000  1.0 0.1204067379
H  H40  1  0.75860000  0.58900000  0.07080000  1.0 0.1204067379
H  H41  1  0.07080000  0.75860000  0.58900000  1.0 0.1204067379
H  H42  1  0.58900000  0.07080000  0.75860000  1.0 0.1204067379
H  H43  1  0.58900000  0.75860000  0.07080000  1.0 0.1204067379
H  H44  1  0.75860000  0.07080000  0.58900000  1.0 0.1204067379
H  H45  1  0.07080000  0.58900000  0.75860000  1.0 0.1204067379
H  H46  1  0.24140000  0.41100000  0.92920000  1.0 0.1204067379
H  H47  1  0.92920000  0.24140000  0.41100000  1.0 0.1204067379
H  H48  1  0.41100000  0.92920000  0.24140000  1.0 0.1204067379
H  H49  1  0.49330000  0.09410000  0.98010000  1.0 0.1098042832
H  H50  1  0.09410000  0.98010000  0.49330000  1.0 0.1098042832
H  H51  1  0.98010000  0.49330000  0.09410000  1.0 0.1098042832
H  H52  1  0.90590000  0.50670000  0.01990000  1.0 0.1098042832
H  H53  1  0.01990000  0.90590000  0.50670000  1.0 0.1098042832
H  H54  1  0.50670000  0.01990000  0.90590000  1.0 0.1098042832
H  H55  1  0.50670000  0.90590000  0.01990000  1.0 0.1098042832
H  H56  1  0.90590000  0.01990000  0.50670000  1.0 0.1098042832
H  H57  1  0.01990000  0.50670000  0.90590000  1.0 0.1098042832
H  H58  1  0.09410000  0.49330000  0.98010000  1.0 0.1098042832
H  H59  1  0.98010000  0.09410000  0.49330000  1.0 0.1098042832
H  H60  1  0.49330000  0.98010000  0.09410000  1.0 0.1098042832
C  C1  1  0.49503000  0.39393000  0.02660000  1.0 0.5798545138
C  C2  1  0.39393000  0.02660000  0.49503000  1.0 0.5798545138
C  C3  1  0.02660000  0.49503000  0.39393000  1.0 0.5798545138
C  C4  1  0.60607000  0.50497000  0.97340000  1.0 0.5798545138
C  C5  1  0.97340000  0.60607000  0.50497000  1.0 0.5798545138
C  C6  1  0.50497000  0.97340000  0.60607000  1.0 0.5798545138
C  C7  1  0.50497000  0.60607000  0.97340000  1.0 0.5798545138
C  C8  1  0.60607000  0.97340000  0.50497000  1.0 0.5798545138
C  C9  1  0.97340000  0.50497000  0.60607000  1.0 0.5798545138
C  C10  1  0.39393000  0.49503000  0.02660000  1.0 0.5798545138
C  C11  1  0.02660000  0.39393000  0.49503000  1.0 0.5798545138
C  C12  1  0.49503000  0.02660000  0.39393000  1.0 0.5798545138
C  C13  1  0.49151000  0.32944000  0.04088000  1.0 -0.0321889497
C  C14  1  0.32944000  0.04088000  0.49151000  1.0 -0.0239508434
C  C15  1  0.04088000  0.49151000  0.32944000  1.0 -0.0321889497
C  C16  1  0.67056000  0.50849000  0.95912000  1.0 -0.0239508434
C  C17  1  0.95912000  0.67056000  0.50849000  1.0 -0.0239508434
C  C18  1  0.50849000  0.95912000  0.67056000  1.0 -0.0239508434
C  C19  1  0.50849000  0.67056000  0.95912000  1.0 -0.0239508434
C  C20  1  0.67056000  0.95912000  0.50849000  1.0 -0.0239508434
C  C21  1  0.95912000  0.50849000  0.67056000  1.0 -0.0239508434
C  C22  1  0.32944000  0.49151000  0.04088000  1.0 -0.0321889497
C  C23  1  0.04088000  0.32944000  0.49151000  1.0 -0.0239508434
C  C24  1  0.49151000  0.04088000  0.32944000  1.0 -0.0239508434
C  C25  1  0.53909000  0.34617000  0.11451000  1.0 -0.0844730754
C  C26  1  0.34617000  0.11451000  0.53909000  1.0 -0.0844730754
C  C27  1  0.11451000  0.53909000  0.34617000  1.0 -0.0844730754
C  C28  1  0.65383000  0.46091000  0.88549000  1.0 -0.0844730754
C  C29  1  0.88549000  0.65383000  0.46091000  1.0 -0.0844730754
C  C30  1  0.46091000  0.88549000  0.65383000  1.0 -0.0844730754
C  C31  1  0.46091000  0.65383000  0.88549000  1.0 -0.0844730754
C  C32  1  0.65383000  0.88549000  0.46091000  1.0 -0.0844730754
C  C33  1  0.88549000  0.46091000  0.65383000  1.0 -0.0844730754
C  C34  1  0.34617000  0.53909000  0.11451000  1.0 -0.0844730754
C  C35  1  0.11451000  0.34617000  0.53909000  1.0 -0.0844730754
C  C36  1  0.53909000  0.11451000  0.34617000  1.0 -0.0844730754
C  C37  1  0.53870000  0.28720000  0.12737000  1.0 -0.1445748775
C  C38  1  0.28720000  0.12737000  0.53870000  1.0 -0.1445748775
C  C39  1  0.12737000  0.53870000  0.28720000  1.0 -0.1445748775
C  C40  1  0.71280000  0.46130000  0.87263000  1.0 -0.1445748775
C  C41  1  0.87263000  0.71280000  0.46130000  1.0 -0.1445748775
C  C42  1  0.46130000  0.87263000  0.71280000  1.0 -0.1445748775
C  C43  1  0.46130000  0.71280000  0.87263000  1.0 -0.1445748775
C  C44  1  0.71280000  0.87263000  0.46130000  1.0 -0.1445748775
C  C45  1  0.87263000  0.46130000  0.71280000  1.0 -0.1445748775
C  C46  1  0.28720000  0.53870000  0.12737000  1.0 -0.1445748775
C  C47  1  0.12737000  0.28720000  0.53870000  1.0 -0.1445748775
C  C48  1  0.53870000  0.12737000  0.28720000  1.0 -0.1445748775
C  C49  1  0.49002000  0.21057000  0.06644000  1.0 0.0882613442
C  C50  1  0.21057000  0.06644000  0.49002000  1.0 0.0882613442
C  C51  1  0.06644000  0.49002000  0.21057000  1.0 0.0882613442
C  C52  1  0.78943000  0.50998000  0.93356000  1.0 0.0882613442
C  C53  1  0.93356000  0.78943000  0.50998000  1.0 0.0882613442
C  C54  1  0.50998000  0.93356000  0.78943000  1.0 0.0882613442
C  C55  1  0.50998000  0.78943000  0.93356000  1.0 0.0882613442
C  C56  1  0.78943000  0.93356000  0.50998000  1.0 0.0882613442
C  C57  1  0.93356000  0.50998000  0.78943000  1.0 0.0882613442
C  C58  1  0.21057000  0.49002000  0.06644000  1.0 0.0882613442
C  C59  1  0.06644000  0.21057000  0.49002000  1.0 0.0882613442
C  C60  1  0.49002000  0.06644000  0.21057000  1.0 0.0882613442
C  C61  1  0.44181000  0.19329000  0.99270000  1.0 -0.1490269583
C  C62  1  0.19329000  0.99270000  0.44181000  1.0 -0.1490269583
C  C63  1  0.99270000  0.44181000  0.19329000  1.0 -0.1490269583
C  C64  1  0.80671000  0.55819000  0.00730000  1.0 -0.1490269583
C  C65  1  0.00730000  0.80671000  0.55819000  1.0 -0.1490269583
C  C66  1  0.55819000  0.00730000  0.80671000  1.0 -0.1490269583
C  C67  1  0.55819000  0.80671000  0.00730000  1.0 -0.1490269583
C  C68  1  0.80671000  0.00730000  0.55819000  1.0 -0.1490269583
C  C69  1  0.00730000  0.55819000  0.80671000  1.0 -0.1490269583
C  C70  1  0.19329000  0.44181000  0.99270000  1.0 -0.1490269583
C  C71  1  0.99270000  0.19329000  0.44181000  1.0 -0.1490269583
C  C72  1  0.44181000  0.99270000  0.19329000  1.0 -0.1490269583
C  C73  1  0.44338000  0.25342000  0.98008000  1.0 -0.0844730754
C  C74  1  0.25342000  0.98008000  0.44338000  1.0 -0.0844730754
C  C75  1  0.98008000  0.44338000  0.25342000  1.0 -0.0844730754
C  C76  1  0.74658000  0.55662000  0.01992000  1.0 -0.0852929298
C  C77  1  0.01992000  0.74658000  0.55662000  1.0 -0.0844730754
C  C78  1  0.55662000  0.01992000  0.74658000  1.0 -0.0844730754
C  C79  1  0.55662000  0.74658000  0.01992000  1.0 -0.0844730754
C  C80  1  0.74658000  0.01992000  0.55662000  1.0 -0.0852929298
C  C81  1  0.01992000  0.55662000  0.74658000  1.0 -0.0844730754
C  C82  1  0.25342000  0.44338000  0.98008000  1.0 -0.0844730754
C  C83  1  0.98008000  0.25342000  0.44338000  1.0 -0.0844730754
C  C84  1  0.44338000  0.98008000  0.25342000  1.0 -0.0844730754
C  C85  1  0.49220000  0.14616000  0.07737000  1.0 -0.0031489857
C  C86  1  0.14616000  0.07737000  0.49220000  1.0 -0.0031489857
C  C87  1  0.07737000  0.49220000  0.14616000  1.0 -0.0031489857
C  C88  1  0.85384000  0.50780000  0.92263000  1.0 -0.0031489857
C  C89  1  0.92263000  0.85384000  0.50780000  1.0 -0.0031489857
C  C90  1  0.50780000  0.92263000  0.85384000  1.0 -0.0031489857
C  C91  1  0.50780000  0.85384000  0.92263000  1.0 -0.0031489857
C  C92  1  0.85384000  0.92263000  0.50780000  1.0 -0.0031489857
C  C93  1  0.92263000  0.50780000  0.85384000  1.0 -0.0031489857
C  C94  1  0.14616000  0.49220000  0.07737000  1.0 -0.0031489857
C  C95  1  0.07737000  0.14616000  0.49220000  1.0 -0.0031489857
C  C96  1  0.49220000  0.07737000  0.14616000  1.0 -0.0031489857
C  C97  1  0.49417000  0.09013000  0.02301000  1.0 -0.1967837395
C  C98  1  0.09013000  0.02301000  0.49417000  1.0 -0.1967837395
C  C99  1  0.02301000  0.49417000  0.09013000  1.0 -0.1967837395
C  C100  1  0.90987000  0.50583000  0.97699000  1.0 -0.1967837395
C  C101  1  0.97699000  0.90987000  0.50583000  1.0 -0.1967837395
C  C102  1  0.50583000  0.97699000  0.90987000  1.0 -0.1967837395
C  C103  1  0.50583000  0.90987000  0.97699000  1.0 -0.1967837395
C  C104  1  0.90987000  0.97699000  0.50583000  1.0 -0.1967837395
C  C105  1  0.97699000  0.50583000  0.90987000  1.0 -0.1967837395
C  C106  1  0.09013000  0.49417000  0.02301000  1.0 -0.1967837395
C  C107  1  0.02301000  0.09013000  0.49417000  1.0 -0.1967837395
C  C108  1  0.49417000  0.02301000  0.09013000  1.0 -0.1967837395
C  C109  1  0.49732000  0.02804000  0.02804000  1.0 0.0756294485
C  C110  1  0.02804000  0.02804000  0.49732000  1.0 0.0756294485
C  C111  1  0.02804000  0.49732000  0.02804000  1.0 0.0756294485
C  C112  1  0.97196000  0.50268000  0.97196000  1.0 0.0756294485
C  C113  1  0.97196000  0.97196000  0.50268000  1.0 0.0748687815
C  C114  1  0.50268000  0.97196000  0.97196000  1.0 0.0756294485
C  C115  1  0.48944000  0.13878000  0.13878000  1.0 0.1760884505
C  C116  1  0.13878000  0.13878000  0.48944000  1.0 0.1749196853
C  C117  1  0.13878000  0.48944000  0.13878000  1.0 0.1749196853
C  C118  1  0.86122000  0.51056000  0.86122000  1.0 0.1760884505
C  C119  1  0.86122000  0.86122000  0.51056000  1.0 0.1760884505
C  C120  1  0.51056000  0.86122000  0.86122000  1.0 0.1760884505
C  C121  1  0.40950000  0.16480000  0.18880000  1.0 0.0974300969
C  C122  1  0.16480000  0.18880000  0.40950000  1.0 0.0974300969
C  C123  1  0.18880000  0.40950000  0.16480000  1.0 0.0974300969
C  C124  1  0.83520000  0.59050000  0.81120000  1.0 0.0974300969
C  C125  1  0.81120000  0.83520000  0.59050000  1.0 0.0974300969
C  C126  1  0.59050000  0.81120000  0.83520000  1.0 0.0974300969
C  C127  1  0.59050000  0.83520000  0.81120000  1.0 0.0974300969
C  C128  1  0.83520000  0.81120000  0.59050000  1.0 0.0974300969
C  C129  1  0.81120000  0.59050000  0.83520000  1.0 0.0974300969
C  C130  1  0.16480000  0.40950000  0.18880000  1.0 0.0974300969
C  C131  1  0.18880000  0.16480000  0.40950000  1.0 0.0974300969
C  C132  1  0.40950000  0.18880000  0.16480000  1.0 0.0974300969
C  C133  1  0.34500000  0.15210000  0.10940000  1.0 -0.1178914737
C  C134  1  0.15210000  0.10940000  0.34500000  1.0 -0.1178914737
C  C135  1  0.10940000  0.34500000  0.15210000  1.0 -0.1178914737
C  C136  1  0.84790000  0.65500000  0.89060000  1.0 -0.1178914737
C  C137  1  0.89060000  0.84790000  0.65500000  1.0 -0.1178914737
C  C138  1  0.65500000  0.89060000  0.84790000  1.0 -0.1178914737
C  C139  1  0.65500000  0.84790000  0.89060000  1.0 -0.1178914737
C  C140  1  0.84790000  0.89060000  0.65500000  1.0 -0.1178914737
C  C141  1  0.89060000  0.65500000  0.84790000  1.0 -0.1178914737
C  C142  1  0.15210000  0.34500000  0.10940000  1.0 -0.1178914737
C  C143  1  0.10940000  0.15210000  0.34500000  1.0 -0.1178914737
C  C144  1  0.34500000  0.10940000  0.15210000  1.0 -0.1178914737
C  C145  1  0.43300000  0.23200000  0.26760000  1.0 -0.0321889497
C  C146  1  0.23200000  0.26760000  0.43300000  1.0 -0.0321889497
C  C147  1  0.26760000  0.43300000  0.23200000  1.0 -0.035091864
C  C148  1  0.76800000  0.56700000  0.73240000  1.0 -0.035091864
C  C149  1  0.73240000  0.76800000  0.56700000  1.0 -0.0321889497
C  C150  1  0.56700000  0.73240000  0.76800000  1.0 -0.0321889497
C  C151  1  0.56700000  0.76800000  0.73240000  1.0 -0.0321889497
C  C152  1  0.76800000  0.73240000  0.56700000  1.0 -0.0321889497
C  C153  1  0.73240000  0.56700000  0.76800000  1.0 -0.0321889497
C  C154  1  0.23200000  0.43300000  0.26760000  1.0 -0.035091864
C  C155  1  0.26760000  0.23200000  0.43300000  1.0 -0.0321889497
C  C156  1  0.43300000  0.26760000  0.23200000  1.0 -0.0321889497
O  O1  1  0.45224000  0.37398000  0.95776000  1.0 -0.5168874158
O  O2  1  0.37398000  0.95776000  0.45224000  1.0 -0.5168874158
O  O3  1  0.95776000  0.45224000  0.37398000  1.0 -0.5168874158
O  O4  1  0.62602000  0.54776000  0.04224000  1.0 -0.5168874158
O  O5  1  0.04224000  0.62602000  0.54776000  1.0 -0.5168874158
O  O6  1  0.54776000  0.04224000  0.62602000  1.0 -0.5168874158
O  O7  1  0.54776000  0.62602000  0.04224000  1.0 -0.5168874158
O  O8  1  0.62602000  0.04224000  0.54776000  1.0 -0.5168874158
O  O9  1  0.04224000  0.54776000  0.62602000  1.0 -0.5168874158
O  O10  1  0.37398000  0.45224000  0.95776000  1.0 -0.5168874158
O  O11  1  0.95776000  0.37398000  0.45224000  1.0 -0.5168874158
O  O12  1  0.45224000  0.95776000  0.37398000  1.0 -0.5168874158
O  O13  1  0.54053000  0.46231000  0.08444000  1.0 -0.5126421594
O  O14  1  0.46231000  0.08444000  0.54053000  1.0 -0.5126421594
O  O15  1  0.08444000  0.54053000  0.46231000  1.0 -0.5126421594
O  O16  1  0.53769000  0.45947000  0.91556000  1.0 -0.5126421594
O  O17  1  0.91556000  0.53769000  0.45947000  1.0 -0.5126421594
O  O18  1  0.45947000  0.91556000  0.53769000  1.0 -0.5126421594
O  O19  1  0.45947000  0.53769000  0.91556000  1.0 -0.5126421594
O  O20  1  0.53769000  0.91556000  0.45947000  1.0 -0.5126421594
O  O21  1  0.91556000  0.45947000  0.53769000  1.0 -0.5126421594
O  O22  1  0.46231000  0.54053000  0.08444000  1.0 -0.5126421594
O  O23  1  0.08444000  0.46231000  0.54053000  1.0 -0.5126421594
O  O24  1  0.54053000  0.08444000  0.46231000  1.0 -0.5126421594
O  O25  1  0.48683000  0.19302000  0.19302000  1.0 -0.102729053
O  O26  1  0.19302000  0.19302000  0.48683000  1.0 -0.102729053
O  O27  1  0.19302000  0.48683000  0.19302000  1.0 -0.102729053
O  O28  1  0.80698000  0.51317000  0.80698000  1.0 -0.102729053
O  O29  1  0.80698000  0.80698000  0.51317000  1.0 -0.102729053
O  O30  1  0.51317000  0.80698000  0.80698000  1.0 -0.102729053
