# DDEC6 charges by PACMAN v1.1 (https://github.com/mtap-research/PACMAN-charge/)
data_UMOYOM05_ASR_pacman
_symmetry_space_group_name_H-M   'P 1'
_cell_length_a   21.49690000
_cell_length_b   21.49690000
_cell_length_c   21.49690000
_cell_angle_alpha   110.33600000
_cell_angle_beta   110.33600000
_cell_angle_gamma   110.33600000
_symmetry_Int_Tables_number   1
_chemical_formula_structural   CuH10(C5O)5
_chemical_formula_sum   'Cu6 H60 C150 O30'
_cell_volume   7392.28658316
_cell_formula_units_Z   6
loop_
 _symmetry_equiv_pos_site_id
 _symmetry_equiv_pos_as_xyz
  1  'x, y, z'
loop_
 _atom_site_type_symbol
 _atom_site_label
 _atom_site_symmetry_multiplicity
 _atom_site_fract_x
 _atom_site_fract_y
 _atom_site_fract_z
 _atom_site_occupancy
 _atom_site_charge
Cu  Cu1  1  0.57490000  0.05282000  0.05282000  1.0 0.8665075329
Cu  Cu2  1  0.05282000  0.05282000  0.57490000  1.0 0.8665075329
Cu  Cu3  1  0.05282000  0.57490000  0.05282000  1.0 0.8665075329
Cu  Cu4  1  0.94718000  0.42510000  0.94718000  1.0 0.8665075329
Cu  Cu5  1  0.94718000  0.94718000  0.42510000  1.0 0.8665075329
Cu  Cu6  1  0.42510000  0.94718000  0.94718000  1.0 0.8665075329
H  H1  1  0.34200000  0.09990000  0.92730000  1.0 0.1307351331
H  H2  1  0.09990000  0.92730000  0.34200000  1.0 0.1307351331
H  H3  1  0.92730000  0.34200000  0.09990000  1.0 0.1307351331
H  H4  1  0.90010000  0.65800000  0.07270000  1.0 0.1307351331
H  H5  1  0.07270000  0.90010000  0.65800000  1.0 0.1307351331
H  H6  1  0.65800000  0.07270000  0.90010000  1.0 0.1307351331
H  H7  1  0.65800000  0.90010000  0.07270000  1.0 0.1307351331
H  H8  1  0.90010000  0.07270000  0.65800000  1.0 0.1307351331
H  H9  1  0.07270000  0.65800000  0.90010000  1.0 0.1307351331
H  H10  1  0.09990000  0.34200000  0.92730000  1.0 0.1307351331
H  H11  1  0.92730000  0.09990000  0.34200000  1.0 0.1307351331
H  H12  1  0.34200000  0.92730000  0.09990000  1.0 0.1307351331
H  H13  1  0.32080000  0.19960000  0.92830000  1.0 0.1200764011
H  H14  1  0.19960000  0.92830000  0.32080000  1.0 0.1200764011
H  H15  1  0.92830000  0.32080000  0.19960000  1.0 0.1200764011
H  H16  1  0.80040000  0.67920000  0.07170000  1.0 0.1200764011
H  H17  1  0.07170000  0.80040000  0.67920000  1.0 0.1200764011
H  H18  1  0.67920000  0.07170000  0.80040000  1.0 0.1200764011
H  H19  1  0.67920000  0.80040000  0.07170000  1.0 0.1200764011
H  H20  1  0.80040000  0.07170000  0.67920000  1.0 0.1200764011
H  H21  1  0.07170000  0.67920000  0.80040000  1.0 0.1200764011
H  H22  1  0.19960000  0.32080000  0.92830000  1.0 0.1200764011
H  H23  1  0.92830000  0.19960000  0.32080000  1.0 0.1200764011
H  H24  1  0.32080000  0.92830000  0.19960000  1.0 0.1200764011
H  H25  1  0.54990000  0.36000000  0.09260000  1.0 0.1200764011
H  H26  1  0.36000000  0.09260000  0.54990000  1.0 0.1200764011
H  H27  1  0.09260000  0.54990000  0.36000000  1.0 0.1200764011
H  H28  1  0.64000000  0.45010000  0.90740000  1.0 0.1200764011
H  H29  1  0.90740000  0.64000000  0.45010000  1.0 0.1200764011
H  H30  1  0.45010000  0.90740000  0.64000000  1.0 0.1200764011
H  H31  1  0.45010000  0.64000000  0.90740000  1.0 0.1200764011
H  H32  1  0.64000000  0.90740000  0.45010000  1.0 0.1200764011
H  H33  1  0.90740000  0.45010000  0.64000000  1.0 0.1200764011
H  H34  1  0.36000000  0.54990000  0.09260000  1.0 0.1200764011
H  H35  1  0.09260000  0.36000000  0.54990000  1.0 0.1200764011
H  H36  1  0.54990000  0.09260000  0.36000000  1.0 0.1200764011
H  H37  1  0.57120000  0.26000000  0.09030000  1.0 0.1307351331
H  H38  1  0.26000000  0.09030000  0.57120000  1.0 0.1307351331
H  H39  1  0.09030000  0.57120000  0.26000000  1.0 0.1307351331
H  H40  1  0.74000000  0.42880000  0.90970000  1.0 0.1307351331
H  H41  1  0.90970000  0.74000000  0.42880000  1.0 0.1307351331
H  H42  1  0.42880000  0.90970000  0.74000000  1.0 0.1307351331
H  H43  1  0.42880000  0.74000000  0.90970000  1.0 0.1307351331
H  H44  1  0.74000000  0.90970000  0.42880000  1.0 0.1307351331
H  H45  1  0.90970000  0.42880000  0.74000000  1.0 0.1307351331
H  H46  1  0.26000000  0.57120000  0.09030000  1.0 0.1307351331
H  H47  1  0.09030000  0.26000000  0.57120000  1.0 0.1307351331
H  H48  1  0.57120000  0.09030000  0.26000000  1.0 0.1307351331
H  H49  1  0.51990000  0.40580000  0.00690000  1.0 0.1120255517
H  H50  1  0.40580000  0.00690000  0.51990000  1.0 0.1120255517
H  H51  1  0.00690000  0.51990000  0.40580000  1.0 0.1120255517
H  H52  1  0.59420000  0.48010000  0.99310000  1.0 0.1120255517
H  H53  1  0.99310000  0.59420000  0.48010000  1.0 0.1120255517
H  H54  1  0.48010000  0.99310000  0.59420000  1.0 0.1120255517
H  H55  1  0.48010000  0.59420000  0.99310000  1.0 0.1120255517
H  H56  1  0.59420000  0.99310000  0.48010000  1.0 0.1120255517
H  H57  1  0.99310000  0.48010000  0.59420000  1.0 0.1120255517
H  H58  1  0.40580000  0.51990000  0.00690000  1.0 0.1120255517
H  H59  1  0.00690000  0.40580000  0.51990000  1.0 0.1120255517
H  H60  1  0.51990000  0.00690000  0.40580000  1.0 0.1120255517
C  C1  1  0.47332000  0.10644000  0.00502000  1.0 0.5817666727
C  C2  1  0.10644000  0.00502000  0.47332000  1.0 0.5817666727
C  C3  1  0.00502000  0.47332000  0.10644000  1.0 0.5817666727
C  C4  1  0.89356000  0.52668000  0.99498000  1.0 0.5817666727
C  C5  1  0.99498000  0.89356000  0.52668000  1.0 0.5817666727
C  C6  1  0.52668000  0.99498000  0.89356000  1.0 0.5817666727
C  C7  1  0.52668000  0.89356000  0.99498000  1.0 0.5817666727
C  C8  1  0.89356000  0.99498000  0.52668000  1.0 0.5817666727
C  C9  1  0.99498000  0.52668000  0.89356000  1.0 0.5817666727
C  C10  1  0.10644000  0.47332000  0.00502000  1.0 0.5817666727
C  C11  1  0.00502000  0.10644000  0.47332000  1.0 0.5817666727
C  C12  1  0.47332000  0.00502000  0.10644000  1.0 0.5817666727
C  C13  1  0.45904000  0.17048000  0.00803000  1.0 -0.0299659079
C  C14  1  0.17048000  0.00803000  0.45904000  1.0 -0.0299659079
C  C15  1  0.00803000  0.45904000  0.17048000  1.0 -0.0299659079
C  C16  1  0.82952000  0.54096000  0.99197000  1.0 -0.0299659079
C  C17  1  0.99197000  0.82952000  0.54096000  1.0 -0.0299659079
C  C18  1  0.54096000  0.99197000  0.82952000  1.0 -0.0299659079
C  C19  1  0.54096000  0.82952000  0.99197000  1.0 -0.0299659079
C  C20  1  0.82952000  0.99197000  0.54096000  1.0 -0.0299659079
C  C21  1  0.99197000  0.54096000  0.82952000  1.0 -0.0299659079
C  C22  1  0.17048000  0.45904000  0.00803000  1.0 -0.0299659079
C  C23  1  0.00803000  0.17048000  0.45904000  1.0 -0.0299659079
C  C24  1  0.45904000  0.00803000  0.17048000  1.0 -0.0299659079
C  C25  1  0.38468000  0.15291000  0.96064000  1.0 -0.083165116
C  C26  1  0.15291000  0.96064000  0.38468000  1.0 -0.083165116
C  C27  1  0.96064000  0.38468000  0.15291000  1.0 -0.083165116
C  C28  1  0.84709000  0.61532000  0.03936000  1.0 -0.083165116
C  C29  1  0.03936000  0.84709000  0.61532000  1.0 -0.083165116
C  C30  1  0.61532000  0.03936000  0.84709000  1.0 -0.083165116
C  C31  1  0.61532000  0.84709000  0.03936000  1.0 -0.083165116
C  C32  1  0.84709000  0.03936000  0.61532000  1.0 -0.083165116
C  C33  1  0.03936000  0.61532000  0.84709000  1.0 -0.083165116
C  C34  1  0.15291000  0.38468000  0.96064000  1.0 -0.083165116
C  C35  1  0.96064000  0.15291000  0.38468000  1.0 -0.083165116
C  C36  1  0.38468000  0.96064000  0.15291000  1.0 -0.083165116
C  C37  1  0.37199000  0.21225000  0.96148000  1.0 -0.1492329066
C  C38  1  0.21225000  0.96148000  0.37199000  1.0 -0.1492329066
C  C39  1  0.96148000  0.37199000  0.21225000  1.0 -0.1492329066
C  C40  1  0.78775000  0.62801000  0.03852000  1.0 -0.1447605116
C  C41  1  0.03852000  0.78775000  0.62801000  1.0 -0.1492329066
C  C42  1  0.62801000  0.03852000  0.78775000  1.0 -0.1492329066
C  C43  1  0.62801000  0.78775000  0.03852000  1.0 -0.1492329066
C  C44  1  0.78775000  0.03852000  0.62801000  1.0 -0.1492329066
C  C45  1  0.03852000  0.62801000  0.78775000  1.0 -0.1492329066
C  C46  1  0.21225000  0.37199000  0.96148000  1.0 -0.1492329066
C  C47  1  0.96148000  0.21225000  0.37199000  1.0 -0.1492329066
C  C48  1  0.37199000  0.96148000  0.21225000  1.0 -0.1492329066
C  C49  1  0.43344000  0.28958000  0.01041000  1.0 0.0995691427
C  C50  1  0.28958000  0.01041000  0.43344000  1.0 0.0995691427
C  C51  1  0.01041000  0.43344000  0.28958000  1.0 0.0995691427
C  C52  1  0.71042000  0.56656000  0.98959000  1.0 0.0995691427
C  C53  1  0.98959000  0.71042000  0.56656000  1.0 0.0995691427
C  C54  1  0.56656000  0.98959000  0.71042000  1.0 0.0995691427
C  C55  1  0.56656000  0.71042000  0.98959000  1.0 0.0995691427
C  C56  1  0.71042000  0.98959000  0.56656000  1.0 0.0995691427
C  C57  1  0.98959000  0.56656000  0.71042000  1.0 0.0995691427
C  C58  1  0.28958000  0.43344000  0.01041000  1.0 0.0995691427
C  C59  1  0.01041000  0.28958000  0.43344000  1.0 0.0995691427
C  C60  1  0.43344000  0.01041000  0.28958000  1.0 0.0995691427
C  C61  1  0.50740000  0.30702000  0.05845000  1.0 -0.1492329066
C  C62  1  0.30702000  0.05845000  0.50740000  1.0 -0.1492329066
C  C63  1  0.05845000  0.50740000  0.30702000  1.0 -0.1492329066
C  C64  1  0.69298000  0.49260000  0.94155000  1.0 -0.1492329066
C  C65  1  0.94155000  0.69298000  0.49260000  1.0 -0.1492329066
C  C66  1  0.49260000  0.94155000  0.69298000  1.0 -0.1492329066
C  C67  1  0.49260000  0.69298000  0.94155000  1.0 -0.1492329066
C  C68  1  0.69298000  0.94155000  0.49260000  1.0 -0.1492329066
C  C69  1  0.94155000  0.49260000  0.69298000  1.0 -0.1492329066
C  C70  1  0.30702000  0.50740000  0.05845000  1.0 -0.1492329066
C  C71  1  0.05845000  0.30702000  0.50740000  1.0 -0.1492329066
C  C72  1  0.50740000  0.05845000  0.30702000  1.0 -0.1492329066
C  C73  1  0.52018000  0.24743000  0.05714000  1.0 -0.083165116
C  C74  1  0.24743000  0.05714000  0.52018000  1.0 -0.083165116
C  C75  1  0.05714000  0.52018000  0.24743000  1.0 -0.083165116
C  C76  1  0.75257000  0.47982000  0.94286000  1.0 -0.083165116
C  C77  1  0.94286000  0.75257000  0.47982000  1.0 -0.083165116
C  C78  1  0.47982000  0.94286000  0.75257000  1.0 -0.083165116
C  C79  1  0.47982000  0.75257000  0.94286000  1.0 -0.083165116
C  C80  1  0.75257000  0.94286000  0.47982000  1.0 -0.083165116
C  C81  1  0.94286000  0.47982000  0.75257000  1.0 -0.083165116
C  C82  1  0.24743000  0.52018000  0.05714000  1.0 -0.083165116
C  C83  1  0.05714000  0.24743000  0.52018000  1.0 -0.083165116
C  C84  1  0.52018000  0.05714000  0.24743000  1.0 -0.083165116
C  C85  1  0.42288000  0.35436000  0.00842000  1.0 -0.0157979251
C  C86  1  0.35436000  0.00842000  0.42288000  1.0 -0.0157979251
C  C87  1  0.00842000  0.42288000  0.35436000  1.0 -0.0157979251
C  C88  1  0.64564000  0.57712000  0.99158000  1.0 -0.0157979251
C  C89  1  0.99158000  0.64564000  0.57712000  1.0 -0.0157979251
C  C90  1  0.57712000  0.99158000  0.64564000  1.0 -0.0157979251
C  C91  1  0.57712000  0.64564000  0.99158000  1.0 -0.0157979251
C  C92  1  0.64564000  0.99158000  0.57712000  1.0 -0.0157979251
C  C93  1  0.99158000  0.57712000  0.64564000  1.0 -0.0157979251
C  C94  1  0.35436000  0.42288000  0.00842000  1.0 -0.0157979251
C  C95  1  0.00842000  0.35436000  0.42288000  1.0 -0.0157979251
C  C96  1  0.42288000  0.00842000  0.35436000  1.0 -0.0157979251
C  C97  1  0.47716000  0.40982000  0.00632000  1.0 -0.1878755351
C  C98  1  0.40982000  0.00632000  0.47716000  1.0 -0.1878755351
C  C99  1  0.00632000  0.47716000  0.40982000  1.0 -0.1878755351
C  C100  1  0.59018000  0.52284000  0.99368000  1.0 -0.1878755351
C  C101  1  0.99368000  0.59018000  0.52284000  1.0 -0.1878755351
C  C102  1  0.52284000  0.99368000  0.59018000  1.0 -0.1878755351
C  C103  1  0.52284000  0.59018000  0.99368000  1.0 -0.1878755351
C  C104  1  0.59018000  0.99368000  0.52284000  1.0 -0.1878755351
C  C105  1  0.99368000  0.52284000  0.59018000  1.0 -0.1878755351
C  C106  1  0.40982000  0.47716000  0.00632000  1.0 -0.1878755351
C  C107  1  0.00632000  0.40982000  0.47716000  1.0 -0.1878755351
C  C108  1  0.47716000  0.00632000  0.40982000  1.0 -0.1878755351
C  C109  1  0.47197000  0.47197000  0.00336000  1.0 0.0748827683
C  C110  1  0.47197000  0.00336000  0.47197000  1.0 0.0766997757
C  C111  1  0.00336000  0.47197000  0.47197000  1.0 0.0766997757
C  C112  1  0.52803000  0.52803000  0.99664000  1.0 0.0766997757
C  C113  1  0.99664000  0.52803000  0.52803000  1.0 0.0766997757
C  C114  1  0.52803000  0.99664000  0.52803000  1.0 0.0766997757
C  C115  1  0.35992000  0.35992000  0.00875000  1.0 0.2008129782
C  C116  1  0.35993000  0.00875000  0.35992000  1.0 0.2008129782
C  C117  1  0.00875000  0.35992000  0.35992000  1.0 0.2008129782
C  C118  1  0.64007000  0.64007000  0.99125000  1.0 0.2008129782
C  C119  1  0.99125000  0.64007000  0.64007000  1.0 0.2008129782
C  C120  1  0.64007000  0.99125000  0.64007000  1.0 0.2008129782
C  C121  1  0.31760000  0.31760000  0.08350000  1.0 0.2676152614
C  C122  1  0.31760000  0.08350000  0.31760000  1.0 0.2676152614
C  C123  1  0.08350000  0.31760000  0.31760000  1.0 0.2676152614
C  C124  1  0.68240000  0.68240000  0.91650000  1.0 0.2676152614
C  C125  1  0.91650000  0.68240000  0.68240000  1.0 0.2676152614
C  C126  1  0.68240000  0.91650000  0.68240000  1.0 0.2676152614
C  C127  1  0.23360000  0.26530000  0.06680000  1.0 -0.0132476545
C  C128  1  0.26530000  0.06680000  0.23360000  1.0 -0.0132476545
C  C129  1  0.06680000  0.23360000  0.26530000  1.0 -0.0132476545
C  C130  1  0.73470000  0.76640000  0.93320000  1.0 -0.0132476545
C  C131  1  0.93320000  0.73470000  0.76640000  1.0 -0.0132476545
C  C132  1  0.76640000  0.93320000  0.73470000  1.0 -0.0132476545
C  C133  1  0.76640000  0.73470000  0.93320000  1.0 -0.0132476545
C  C134  1  0.73470000  0.93320000  0.76640000  1.0 -0.0132476545
C  C135  1  0.93320000  0.76640000  0.73470000  1.0 -0.0132476545
C  C136  1  0.26530000  0.23360000  0.06680000  1.0 -0.0132476545
C  C137  1  0.06680000  0.26530000  0.23360000  1.0 -0.0132476545
C  C138  1  0.23360000  0.06680000  0.26530000  1.0 -0.0132476545
C  C139  1  0.34750000  0.38780000  0.15500000  1.0 -0.122936915
C  C140  1  0.38780000  0.15500000  0.34750000  1.0 -0.122936915
C  C141  1  0.15500000  0.34750000  0.38780000  1.0 -0.122936915
C  C142  1  0.61220000  0.65250000  0.84500000  1.0 -0.122936915
C  C143  1  0.84500000  0.61220000  0.65250000  1.0 -0.122936915
C  C144  1  0.65250000  0.84500000  0.61220000  1.0 -0.122936915
C  C145  1  0.65250000  0.61220000  0.84500000  1.0 -0.122936915
C  C146  1  0.61220000  0.84500000  0.65250000  1.0 -0.122936915
C  C147  1  0.84500000  0.65250000  0.61220000  1.0 -0.122936915
C  C148  1  0.38780000  0.34750000  0.15500000  1.0 -0.1273562533
C  C149  1  0.15500000  0.38780000  0.34750000  1.0 -0.122936915
C  C150  1  0.34750000  0.15500000  0.38780000  1.0 -0.122936915
O  O1  1  0.54306000  0.12688000  0.04903000  1.0 -0.5192262305
O  O2  1  0.12688000  0.04903000  0.54306000  1.0 -0.5192262305
O  O3  1  0.04903000  0.54306000  0.12688000  1.0 -0.5192262305
O  O4  1  0.87312000  0.45694000  0.95097000  1.0 -0.5192262305
O  O5  1  0.95097000  0.87312000  0.45694000  1.0 -0.5192262305
O  O6  1  0.45694000  0.95097000  0.87312000  1.0 -0.5192262305
O  O7  1  0.45694000  0.87312000  0.95097000  1.0 -0.5192262305
O  O8  1  0.87312000  0.95097000  0.45694000  1.0 -0.5192262305
O  O9  1  0.95097000  0.45694000  0.87312000  1.0 -0.5192262305
O  O10  1  0.12688000  0.54306000  0.04903000  1.0 -0.5192262305
O  O11  1  0.04903000  0.12688000  0.54306000  1.0 -0.5192262305
O  O12  1  0.54306000  0.04903000  0.12688000  1.0 -0.5192262305
O  O13  1  0.41511000  0.03679000  0.95879000  1.0 -0.5142331941
O  O14  1  0.03679000  0.95879000  0.41511000  1.0 -0.5142331941
O  O15  1  0.95879000  0.41511000  0.03679000  1.0 -0.5142331941
O  O16  1  0.96321000  0.58489000  0.04121000  1.0 -0.5142331941
O  O17  1  0.04121000  0.96321000  0.58489000  1.0 -0.5142331941
O  O18  1  0.58489000  0.04121000  0.96321000  1.0 -0.5142331941
O  O19  1  0.58489000  0.96321000  0.04121000  1.0 -0.5192262305
O  O20  1  0.96321000  0.04121000  0.58489000  1.0 -0.5142331941
O  O21  1  0.04121000  0.58489000  0.96321000  1.0 -0.5192262305
O  O22  1  0.03679000  0.41511000  0.95879000  1.0 -0.5192262305
O  O23  1  0.95879000  0.03679000  0.41511000  1.0 -0.5142331941
O  O24  1  0.41511000  0.95879000  0.03679000  1.0 -0.5192262305
O  O25  1  0.30654000  0.30654000  0.01337000  1.0 -0.2618229213
O  O26  1  0.30654000  0.01337000  0.30654000  1.0 -0.2618229213
O  O27  1  0.01337000  0.30654000  0.30654000  1.0 -0.2618229213
O  O28  1  0.69346000  0.69346000  0.98663000  1.0 -0.2618229213
O  O29  1  0.98663000  0.69346000  0.69346000  1.0 -0.2618229213
O  O30  1  0.69346000  0.98663000  0.69346000  1.0 -0.2618229213
