# DDEC6 charges by PACMAN v1.1 (https://github.com/mtap-research/PACMAN-charge/)
data_UMOYOM08_ASR_pacman
_symmetry_space_group_name_H-M   'P 1'
_cell_length_a   21.64100000
_cell_length_b   21.64100000
_cell_length_c   21.64100000
_cell_angle_alpha   107.76800000
_cell_angle_beta   107.76800000
_cell_angle_gamma   107.76800000
_symmetry_Int_Tables_number   1
_chemical_formula_structural   CuH10(C5O)5
_chemical_formula_sum   'Cu6 H60 C150 O30'
_cell_volume   8257.47109107
_cell_formula_units_Z   6
loop_
 _symmetry_equiv_pos_site_id
 _symmetry_equiv_pos_as_xyz
  1  'x, y, z'
loop_
 _atom_site_type_symbol
 _atom_site_label
 _atom_site_symmetry_multiplicity
 _atom_site_fract_x
 _atom_site_fract_y
 _atom_site_fract_z
 _atom_site_occupancy
 _atom_site_charge
Cu  Cu1  1  0.54339000  0.06869000  0.54339000  1.0 0.8483866071
Cu  Cu2  1  0.06869000  0.54339000  0.54339000  1.0 0.8483866071
Cu  Cu3  1  0.54339000  0.54339000  0.06869000  1.0 0.8483866071
Cu  Cu4  1  0.93131000  0.45661000  0.45661000  1.0 0.8483866071
Cu  Cu5  1  0.45661000  0.93131000  0.45661000  1.0 0.8483866071
Cu  Cu6  1  0.45661000  0.45661000  0.93131000  1.0 0.8483866071
H  H1  1  0.56420000  0.14510000  0.38320000  1.0 0.1364517426
H  H2  1  0.14510000  0.38320000  0.56420000  1.0 0.1364517426
H  H3  1  0.38320000  0.56420000  0.14510000  1.0 0.1364517426
H  H4  1  0.85490000  0.43580000  0.61680000  1.0 0.1364517426
H  H5  1  0.61680000  0.85490000  0.43580000  1.0 0.1364517426
H  H6  1  0.43580000  0.61680000  0.85490000  1.0 0.1364517426
H  H7  1  0.43580000  0.85490000  0.61680000  1.0 0.1364517426
H  H8  1  0.85490000  0.61680000  0.43580000  1.0 0.1364517426
H  H9  1  0.61680000  0.43580000  0.85490000  1.0 0.1364517426
H  H10  1  0.14510000  0.56420000  0.38320000  1.0 0.1364517426
H  H11  1  0.38320000  0.14510000  0.56420000  1.0 0.1364517426
H  H12  1  0.56420000  0.38320000  0.14510000  1.0 0.1364517426
H  H13  1  0.56180000  0.16330000  0.28340000  1.0 0.129961992
H  H14  1  0.16330000  0.28340000  0.56180000  1.0 0.129961992
H  H15  1  0.28340000  0.56180000  0.16330000  1.0 0.129961992
H  H16  1  0.83670000  0.43820000  0.71660000  1.0 0.129961992
H  H17  1  0.71660000  0.83670000  0.43820000  1.0 0.129961992
H  H18  1  0.43820000  0.71660000  0.83670000  1.0 0.129961992
H  H19  1  0.43820000  0.83670000  0.71660000  1.0 0.129961992
H  H20  1  0.83670000  0.71660000  0.43820000  1.0 0.129961992
H  H21  1  0.71660000  0.43820000  0.83670000  1.0 0.129961992
H  H22  1  0.16330000  0.56180000  0.28340000  1.0 0.129961992
H  H23  1  0.28340000  0.16330000  0.56180000  1.0 0.129961992
H  H24  1  0.56180000  0.28340000  0.16330000  1.0 0.129961992
H  H25  1  0.42130000  0.95710000  0.15370000  1.0 0.1202859497
H  H26  1  0.95710000  0.15370000  0.42130000  1.0 0.1202859497
H  H27  1  0.15370000  0.42130000  0.95710000  1.0 0.1202859497
H  H28  1  0.04290000  0.57870000  0.84630000  1.0 0.1202859497
H  H29  1  0.84630000  0.04290000  0.57870000  1.0 0.1202859497
H  H30  1  0.57870000  0.84630000  0.04290000  1.0 0.1202859497
H  H31  1  0.57870000  0.04290000  0.84630000  1.0 0.1202859497
H  H32  1  0.04290000  0.84630000  0.57870000  1.0 0.1202859497
H  H33  1  0.84630000  0.57870000  0.04290000  1.0 0.1202859497
H  H34  1  0.95710000  0.42130000  0.15370000  1.0 0.1202859497
H  H35  1  0.15370000  0.95710000  0.42130000  1.0 0.1202859497
H  H36  1  0.42130000  0.15370000  0.95710000  1.0 0.1202859497
H  H37  1  0.42550000  0.93740000  0.25380000  1.0 0.129961992
H  H38  1  0.93740000  0.25380000  0.42550000  1.0 0.129961992
H  H39  1  0.25380000  0.42550000  0.93740000  1.0 0.129961992
H  H40  1  0.06260000  0.57450000  0.74620000  1.0 0.129961992
H  H41  1  0.74620000  0.06260000  0.57450000  1.0 0.129961992
H  H42  1  0.57450000  0.74620000  0.06260000  1.0 0.129961992
H  H43  1  0.57450000  0.06260000  0.74620000  1.0 0.129961992
H  H44  1  0.06260000  0.74620000  0.57450000  1.0 0.129961992
H  H45  1  0.74620000  0.57450000  0.06260000  1.0 0.129961992
H  H46  1  0.93740000  0.42550000  0.25380000  1.0 0.129961992
H  H47  1  0.25380000  0.93740000  0.42550000  1.0 0.129961992
H  H48  1  0.42550000  0.25380000  0.93740000  1.0 0.129961992
H  H49  1  0.49800000  0.98130000  0.09510000  1.0 0.1126478485
H  H50  1  0.98130000  0.09510000  0.49800000  1.0 0.1126478485
H  H51  1  0.09510000  0.49800000  0.98130000  1.0 0.1126478485
H  H52  1  0.01870000  0.50200000  0.90490000  1.0 0.1126478485
H  H53  1  0.90490000  0.01870000  0.50200000  1.0 0.1126478485
H  H54  1  0.50200000  0.90490000  0.01870000  1.0 0.1126478485
H  H55  1  0.50200000  0.01870000  0.90490000  1.0 0.1126478485
H  H56  1  0.01870000  0.90490000  0.50200000  1.0 0.1126478485
H  H57  1  0.90490000  0.50200000  0.01870000  1.0 0.1126478485
H  H58  1  0.98130000  0.49800000  0.09510000  1.0 0.1126478485
H  H59  1  0.09510000  0.98130000  0.49800000  1.0 0.1126478485
H  H60  1  0.49800000  0.09510000  0.98130000  1.0 0.1126478485
C  C1  1  0.49523000  0.02498000  0.39349000  1.0 0.5776410119
C  C2  1  0.02498000  0.39349000  0.49523000  1.0 0.5776410119
C  C3  1  0.39349000  0.49523000  0.02498000  1.0 0.5776410119
C  C4  1  0.97502000  0.50477000  0.60651000  1.0 0.5776410119
C  C5  1  0.60651000  0.97502000  0.50477000  1.0 0.5776410119
C  C6  1  0.50477000  0.60651000  0.97502000  1.0 0.5776410119
C  C7  1  0.50477000  0.97502000  0.60651000  1.0 0.5776410119
C  C8  1  0.97502000  0.60651000  0.50477000  1.0 0.5776410119
C  C9  1  0.60651000  0.50477000  0.97502000  1.0 0.5776410119
C  C10  1  0.02498000  0.49523000  0.39349000  1.0 0.5776410119
C  C11  1  0.39349000  0.02498000  0.49523000  1.0 0.5776410119
C  C12  1  0.49523000  0.39349000  0.02498000  1.0 0.5776410119
C  C13  1  0.49424000  0.03930000  0.32916000  1.0 -0.0230092599
C  C14  1  0.03930000  0.32916000  0.49424000  1.0 -0.0254510055
C  C15  1  0.32916000  0.49424000  0.03930000  1.0 -0.0254510055
C  C16  1  0.96070000  0.50576000  0.67084000  1.0 -0.0230092599
C  C17  1  0.67084000  0.96070000  0.50576000  1.0 -0.0230092599
C  C18  1  0.50576000  0.67084000  0.96070000  1.0 -0.0230092599
C  C19  1  0.50576000  0.96070000  0.67084000  1.0 -0.0230092599
C  C20  1  0.96070000  0.67084000  0.50576000  1.0 -0.0230092599
C  C21  1  0.67084000  0.50576000  0.96070000  1.0 -0.0230092599
C  C22  1  0.03930000  0.49424000  0.32916000  1.0 -0.0230092599
C  C23  1  0.32916000  0.03930000  0.49424000  1.0 -0.0230092599
C  C24  1  0.49424000  0.32916000  0.03930000  1.0 -0.0230092599
C  C25  1  0.53545000  0.10692000  0.33733000  1.0 -0.0809424268
C  C26  1  0.10692000  0.33733000  0.53545000  1.0 -0.0809424268
C  C27  1  0.33733000  0.53545000  0.10692000  1.0 -0.0809424268
C  C28  1  0.89308000  0.46455000  0.66267000  1.0 -0.0809424268
C  C29  1  0.66267000  0.89308000  0.46455000  1.0 -0.0809424268
C  C30  1  0.46455000  0.66267000  0.89308000  1.0 -0.0809424268
C  C31  1  0.46455000  0.89308000  0.66267000  1.0 -0.0809424268
C  C32  1  0.89308000  0.66267000  0.46455000  1.0 -0.0809424268
C  C33  1  0.66267000  0.46455000  0.89308000  1.0 -0.0809424268
C  C34  1  0.10692000  0.53545000  0.33733000  1.0 -0.0809424268
C  C35  1  0.33733000  0.10692000  0.53545000  1.0 -0.0809424268
C  C36  1  0.53545000  0.33733000  0.10692000  1.0 -0.0809424268
C  C37  1  0.53378000  0.11758000  0.27704000  1.0 -0.1351995254
C  C38  1  0.11758000  0.27704000  0.53378000  1.0 -0.1351995254
C  C39  1  0.27704000  0.53378000  0.11758000  1.0 -0.1347129876
C  C40  1  0.88242000  0.46622000  0.72296000  1.0 -0.1347129876
C  C41  1  0.72296000  0.88242000  0.46622000  1.0 -0.1347129876
C  C42  1  0.46622000  0.72296000  0.88242000  1.0 -0.1347129876
C  C43  1  0.46622000  0.88242000  0.72296000  1.0 -0.1347129876
C  C44  1  0.88242000  0.72296000  0.46622000  1.0 -0.1347129876
C  C45  1  0.72296000  0.46622000  0.88242000  1.0 -0.1347129876
C  C46  1  0.11758000  0.53378000  0.27704000  1.0 -0.1347129876
C  C47  1  0.27704000  0.11758000  0.53378000  1.0 -0.1347129876
C  C48  1  0.53378000  0.27704000  0.11758000  1.0 -0.1347129876
C  C49  1  0.49227000  0.06303000  0.20810000  1.0 0.096231282
C  C50  1  0.06303000  0.20810000  0.49227000  1.0 0.096231282
C  C51  1  0.20810000  0.49227000  0.06303000  1.0 0.096231282
C  C52  1  0.93697000  0.50773000  0.79190000  1.0 0.096231282
C  C53  1  0.79190000  0.93697000  0.50773000  1.0 0.096231282
C  C54  1  0.50773000  0.79190000  0.93697000  1.0 0.096231282
C  C55  1  0.50773000  0.93697000  0.79190000  1.0 0.096231282
C  C56  1  0.93697000  0.79190000  0.50773000  1.0 0.096231282
C  C57  1  0.79190000  0.50773000  0.93697000  1.0 0.096231282
C  C58  1  0.06303000  0.49227000  0.20810000  1.0 0.096231282
C  C59  1  0.20810000  0.06303000  0.49227000  1.0 0.096231282
C  C60  1  0.49227000  0.20810000  0.06303000  1.0 0.096231282
C  C61  1  0.45064000  0.99500000  0.19986000  1.0 -0.1485251273
C  C62  1  0.99500000  0.19986000  0.45064000  1.0 -0.1485251273
C  C63  1  0.19986000  0.45064000  0.99500000  1.0 -0.1485251273
C  C64  1  0.00500000  0.54936000  0.80014000  1.0 -0.1485251273
C  C65  1  0.80014000  0.00500000  0.54936000  1.0 -0.1485251273
C  C66  1  0.54936000  0.80014000  0.00500000  1.0 -0.1485251273
C  C67  1  0.54936000  0.00500000  0.80014000  1.0 -0.1485251273
C  C68  1  0.00500000  0.80014000  0.54936000  1.0 -0.1485251273
C  C69  1  0.80014000  0.54936000  0.00500000  1.0 -0.1485251273
C  C70  1  0.99500000  0.45064000  0.19986000  1.0 -0.1485251273
C  C71  1  0.19986000  0.99500000  0.45064000  1.0 -0.1485251273
C  C72  1  0.45064000  0.19986000  0.99500000  1.0 -0.1485251273
C  C73  1  0.45259000  0.98333000  0.25998000  1.0 -0.0809424268
C  C74  1  0.98333000  0.25998000  0.45259000  1.0 -0.0809424268
C  C75  1  0.25998000  0.45259000  0.98333000  1.0 -0.0809424268
C  C76  1  0.01667000  0.54741000  0.74002000  1.0 -0.0809424268
C  C77  1  0.74002000  0.01667000  0.54741000  1.0 -0.0809424268
C  C78  1  0.54741000  0.74002000  0.01667000  1.0 -0.0809424268
C  C79  1  0.54741000  0.01667000  0.74002000  1.0 -0.0809424268
C  C80  1  0.01667000  0.74002000  0.54741000  1.0 -0.0809424268
C  C81  1  0.74002000  0.54741000  0.01667000  1.0 -0.0809424268
C  C82  1  0.98333000  0.45259000  0.25998000  1.0 -0.0809424268
C  C83  1  0.25998000  0.98333000  0.45259000  1.0 -0.0809424268
C  C84  1  0.45259000  0.25998000  0.98333000  1.0 -0.0809424268
C  C85  1  0.49142000  0.07373000  0.14335000  1.0 -0.0143879894
C  C86  1  0.07373000  0.14335000  0.49142000  1.0 -0.0143879894
C  C87  1  0.14335000  0.49142000  0.07373000  1.0 -0.0143879894
C  C88  1  0.92627000  0.50858000  0.85665000  1.0 -0.0143879894
C  C89  1  0.85665000  0.92627000  0.50858000  1.0 -0.0230092599
C  C90  1  0.50858000  0.85665000  0.92627000  1.0 -0.0143879894
C  C91  1  0.50858000  0.92627000  0.85665000  1.0 -0.0143879894
C  C92  1  0.92627000  0.85665000  0.50858000  1.0 -0.0230092599
C  C93  1  0.85665000  0.50858000  0.92627000  1.0 -0.0143879894
C  C94  1  0.07373000  0.49142000  0.14335000  1.0 -0.0143879894
C  C95  1  0.14335000  0.07373000  0.49142000  1.0 -0.0143879894
C  C96  1  0.49142000  0.14335000  0.07373000  1.0 -0.0143879894
C  C97  1  0.49654000  0.02194000  0.08982000  1.0 -0.1901884374
C  C98  1  0.02194000  0.08982000  0.49654000  1.0 -0.1901884374
C  C99  1  0.08982000  0.49654000  0.02194000  1.0 -0.1901884374
C  C100  1  0.97806000  0.50346000  0.91018000  1.0 -0.1901884374
C  C101  1  0.91018000  0.97806000  0.50346000  1.0 -0.1901884374
C  C102  1  0.50346000  0.91018000  0.97806000  1.0 -0.1901884374
C  C103  1  0.50346000  0.97806000  0.91018000  1.0 -0.1901884374
C  C104  1  0.97806000  0.91018000  0.50346000  1.0 -0.1901884374
C  C105  1  0.91018000  0.50346000  0.97806000  1.0 -0.1901884374
C  C106  1  0.02194000  0.49654000  0.08982000  1.0 -0.1901884374
C  C107  1  0.08982000  0.02194000  0.49654000  1.0 -0.1901884374
C  C108  1  0.49654000  0.08982000  0.02194000  1.0 -0.1901884374
C  C109  1  0.49948000  0.02951000  0.02951000  1.0 0.0841700848
C  C110  1  0.02951000  0.02951000  0.49948000  1.0 0.0841700848
C  C111  1  0.02951000  0.49948000  0.02951000  1.0 0.0841700848
C  C112  1  0.97049000  0.50052000  0.97049000  1.0 0.0841700848
C  C113  1  0.97049000  0.97049000  0.50052000  1.0 0.0841700848
C  C114  1  0.50052000  0.97049000  0.97049000  1.0 0.0841700848
C  C115  1  0.48960000  0.13375000  0.13375000  1.0 0.1790068984
C  C116  1  0.13375000  0.13375000  0.48960000  1.0 0.1790068984
C  C117  1  0.13375000  0.48960000  0.13375000  1.0 0.1790068984
C  C118  1  0.86625000  0.51040000  0.86625000  1.0 0.1790068984
C  C119  1  0.86625000  0.86625000  0.51040000  1.0 0.1790068984
C  C120  1  0.51040000  0.86625000  0.86625000  1.0 0.1790068984
C  C121  1  0.41504000  0.18033000  0.18033000  1.0 0.2885654882
C  C122  1  0.18033000  0.18033000  0.41504000  1.0 0.2885654882
C  C123  1  0.18033000  0.41504000  0.18033000  1.0 0.2885654882
C  C124  1  0.81967000  0.58496000  0.81967000  1.0 0.2885654882
C  C125  1  0.81967000  0.81967000  0.58496000  1.0 0.2885654882
C  C126  1  0.58496000  0.81967000  0.81967000  1.0 0.2885654882
C  C127  1  0.42260000  0.25650000  0.22260000  1.0 -0.0640247207
C  C128  1  0.25650000  0.22260000  0.42260000  1.0 -0.0640247207
C  C129  1  0.22260000  0.42260000  0.25650000  1.0 -0.0640247207
C  C130  1  0.74350000  0.57740000  0.77740000  1.0 -0.0640247207
C  C131  1  0.77740000  0.74350000  0.57740000  1.0 -0.0640247207
C  C132  1  0.57740000  0.77740000  0.74350000  1.0 -0.0640247207
C  C133  1  0.57740000  0.74350000  0.77740000  1.0 -0.0640247207
C  C134  1  0.74350000  0.77740000  0.57740000  1.0 -0.0640247207
C  C135  1  0.77740000  0.57740000  0.74350000  1.0 -0.0640247207
C  C136  1  0.25650000  0.42260000  0.22260000  1.0 -0.0640247207
C  C137  1  0.22260000  0.25650000  0.42260000  1.0 -0.0640247207
C  C138  1  0.42260000  0.22260000  0.25650000  1.0 -0.0640247207
C  C139  1  0.34910000  0.11200000  0.15740000  1.0 -0.1016412946
C  C140  1  0.11200000  0.15740000  0.34910000  1.0 -0.1016412946
C  C141  1  0.15740000  0.34910000  0.11200000  1.0 -0.1016412946
C  C142  1  0.88800000  0.65090000  0.84260000  1.0 -0.1016412946
C  C143  1  0.84260000  0.88800000  0.65090000  1.0 -0.1016412946
C  C144  1  0.65090000  0.84260000  0.88800000  1.0 -0.1016412946
C  C145  1  0.65090000  0.88800000  0.84260000  1.0 -0.1016412946
C  C146  1  0.88800000  0.84260000  0.65090000  1.0 -0.1016412946
C  C147  1  0.84260000  0.65090000  0.88800000  1.0 -0.1016412946
C  C148  1  0.11200000  0.34910000  0.15740000  1.0 -0.1016412946
C  C149  1  0.15740000  0.11200000  0.34910000  1.0 -0.1016412946
C  C150  1  0.34910000  0.15740000  0.11200000  1.0 -0.1016412946
O  O1  1  0.45922000  0.96155000  0.38082000  1.0 -0.5099082276
O  O2  1  0.96155000  0.38082000  0.45922000  1.0 -0.5099082276
O  O3  1  0.38082000  0.45922000  0.96155000  1.0 -0.5099082276
O  O4  1  0.03845000  0.54078000  0.61918000  1.0 -0.5099082276
O  O5  1  0.61918000  0.03845000  0.54078000  1.0 -0.5099082276
O  O6  1  0.54078000  0.61918000  0.03845000  1.0 -0.5099082276
O  O7  1  0.54078000  0.03845000  0.61918000  1.0 -0.5099082276
O  O8  1  0.03845000  0.61918000  0.54078000  1.0 -0.5099082276
O  O9  1  0.61918000  0.54078000  0.03845000  1.0 -0.5099082276
O  O10  1  0.96155000  0.45922000  0.38082000  1.0 -0.5099082276
O  O11  1  0.38082000  0.96155000  0.45922000  1.0 -0.5099082276
O  O12  1  0.45922000  0.38082000  0.96155000  1.0 -0.5099082276
O  O13  1  0.53188000  0.07821000  0.45319000  1.0 -0.5014208192
O  O14  1  0.07821000  0.45319000  0.53188000  1.0 -0.5014208192
O  O15  1  0.45319000  0.53188000  0.07821000  1.0 -0.5014208192
O  O16  1  0.92179000  0.46812000  0.54681000  1.0 -0.5014208192
O  O17  1  0.54681000  0.92179000  0.46812000  1.0 -0.5014208192
O  O18  1  0.46812000  0.54681000  0.92179000  1.0 -0.5014208192
O  O19  1  0.46812000  0.92179000  0.54681000  1.0 -0.5014208192
O  O20  1  0.92179000  0.54681000  0.46812000  1.0 -0.5014208192
O  O21  1  0.54681000  0.46812000  0.92179000  1.0 -0.5014208192
O  O22  1  0.07821000  0.53188000  0.45319000  1.0 -0.5014208192
O  O23  1  0.45319000  0.07821000  0.53188000  1.0 -0.5014208192
O  O24  1  0.53188000  0.45319000  0.07821000  1.0 -0.5014208192
O  O25  1  0.48542000  0.18699000  0.18699000  1.0 -0.30323543
O  O26  1  0.18699000  0.18699000  0.48542000  1.0 -0.30323543
O  O27  1  0.18699000  0.48542000  0.18699000  1.0 -0.30323543
O  O28  1  0.81301000  0.51458000  0.81301000  1.0 -0.30323543
O  O29  1  0.81301000  0.81301000  0.51458000  1.0 -0.30323543
O  O30  1  0.51458000  0.81301000  0.81301000  1.0 -0.30323543
