# DDEC6 charges by PACMAN v1.1 (https://github.com/mtap-research/PACMAN-charge/)
data_UMOYOM03_ASR_pacman
_symmetry_space_group_name_H-M   'P 1'
_cell_length_a   21.59960000
_cell_length_b   21.59960000
_cell_length_c   21.59960000
_cell_angle_alpha   108.95600000
_cell_angle_beta   108.95600000
_cell_angle_gamma   108.95600000
_symmetry_Int_Tables_number   1
_chemical_formula_structural   CuH10(C5O)5
_chemical_formula_sum   'Cu6 H60 C150 O30'
_cell_volume   7901.89479904
_cell_formula_units_Z   6
loop_
 _symmetry_equiv_pos_site_id
 _symmetry_equiv_pos_as_xyz
  1  'x, y, z'
loop_
 _atom_site_type_symbol
 _atom_site_label
 _atom_site_symmetry_multiplicity
 _atom_site_fract_x
 _atom_site_fract_y
 _atom_site_fract_z
 _atom_site_occupancy
 _atom_site_charge
Cu  Cu1  1  0.45230000  0.92877000  0.45229000  1.0 0.8622563766
Cu  Cu2  1  0.92877000  0.45229000  0.45229000  1.0 0.8622563766
Cu  Cu3  1  0.45229000  0.45229000  0.92877000  1.0 0.8622563766
Cu  Cu4  1  0.07123000  0.54771000  0.54771000  1.0 0.8622563766
Cu  Cu5  1  0.54771000  0.07123000  0.54771000  1.0 0.8622563766
Cu  Cu6  1  0.54770000  0.54770000  0.07123000  1.0 0.8622563766
H  H1  1  0.39150000  0.15040000  0.57010000  1.0 0.1291741302
H  H2  1  0.15040000  0.57010000  0.39150000  1.0 0.1291741302
H  H3  1  0.57010000  0.39150000  0.15040000  1.0 0.1291741302
H  H4  1  0.84960000  0.60850000  0.42990000  1.0 0.1291741302
H  H5  1  0.42990000  0.84960000  0.60850000  1.0 0.1291741302
H  H6  1  0.60850000  0.42990000  0.84960000  1.0 0.1291741302
H  H7  1  0.60850000  0.84960000  0.42990000  1.0 0.1291741302
H  H8  1  0.84960000  0.42990000  0.60850000  1.0 0.1291741302
H  H9  1  0.42990000  0.60850000  0.84960000  1.0 0.1291741302
H  H10  1  0.15040000  0.39150000  0.57010000  1.0 0.1291741302
H  H11  1  0.57010000  0.15040000  0.39150000  1.0 0.1291741302
H  H12  1  0.39150000  0.57010000  0.15040000  1.0 0.1291741302
H  H13  1  0.29220000  0.17100000  0.56810000  1.0 0.1291741302
H  H14  1  0.17100000  0.56810000  0.29220000  1.0 0.1291741302
H  H15  1  0.56810000  0.29220000  0.17100000  1.0 0.1291741302
H  H16  1  0.82900000  0.70780000  0.43190000  1.0 0.1291741302
H  H17  1  0.43190000  0.82900000  0.70780000  1.0 0.1291741302
H  H18  1  0.70780000  0.43190000  0.82900000  1.0 0.1291741302
H  H19  1  0.70780000  0.82900000  0.43190000  1.0 0.1291741302
H  H20  1  0.82900000  0.43190000  0.70780000  1.0 0.1291741302
H  H21  1  0.43190000  0.70780000  0.82900000  1.0 0.1291741302
H  H22  1  0.17100000  0.29220000  0.56810000  1.0 0.1291741302
H  H23  1  0.56810000  0.17100000  0.29220000  1.0 0.1291741302
H  H24  1  0.29220000  0.56810000  0.17100000  1.0 0.1291741302
H  H25  1  0.14870000  0.95550000  0.41650000  1.0 0.1190148691
H  H26  1  0.95550000  0.41650000  0.14870000  1.0 0.1190148691
H  H27  1  0.41650000  0.14870000  0.95550000  1.0 0.1190148691
H  H28  1  0.04450000  0.85130000  0.58350000  1.0 0.1190148691
H  H29  1  0.58350000  0.04450000  0.85130000  1.0 0.1190148691
H  H30  1  0.85130000  0.58350000  0.04450000  1.0 0.1190148691
H  H31  1  0.85130000  0.04450000  0.58350000  1.0 0.1190148691
H  H32  1  0.04450000  0.58350000  0.85130000  1.0 0.1190148691
H  H33  1  0.58350000  0.85130000  0.04450000  1.0 0.1190148691
H  H34  1  0.95550000  0.14870000  0.41650000  1.0 0.1190148691
H  H35  1  0.41650000  0.95550000  0.14870000  1.0 0.1190148691
H  H36  1  0.14870000  0.41650000  0.95550000  1.0 0.1190148691
H  H37  1  0.24850000  0.93530000  0.41880000  1.0 0.1291741302
H  H38  1  0.93530000  0.41880000  0.24850000  1.0 0.1291741302
H  H39  1  0.41880000  0.24850000  0.93530000  1.0 0.1291741302
H  H40  1  0.06470000  0.75150000  0.58120000  1.0 0.1291741302
H  H41  1  0.58120000  0.06470000  0.75150000  1.0 0.1291741302
H  H42  1  0.75150000  0.58120000  0.06470000  1.0 0.1291741302
H  H43  1  0.75150000  0.06470000  0.58120000  1.0 0.1291741302
H  H44  1  0.06470000  0.58120000  0.75150000  1.0 0.1291741302
H  H45  1  0.58120000  0.75150000  0.06470000  1.0 0.1291741302
H  H46  1  0.93530000  0.24850000  0.41880000  1.0 0.1291741302
H  H47  1  0.41880000  0.93530000  0.24850000  1.0 0.1291741302
H  H48  1  0.24850000  0.41880000  0.93530000  1.0 0.1291741302
H  H49  1  0.09640000  0.98250000  0.49850000  1.0 0.113941662
H  H50  1  0.98250000  0.49850000  0.09640000  1.0 0.113941662
H  H51  1  0.49850000  0.09640000  0.98250000  1.0 0.113941662
H  H52  1  0.01750000  0.90360000  0.50150000  1.0 0.113941662
H  H53  1  0.50150000  0.01750000  0.90360000  1.0 0.113941662
H  H54  1  0.90360000  0.50150000  0.01750000  1.0 0.113941662
H  H55  1  0.90360000  0.01750000  0.50150000  1.0 0.113941662
H  H56  1  0.01750000  0.50150000  0.90360000  1.0 0.113941662
H  H57  1  0.50150000  0.90360000  0.01750000  1.0 0.113941662
H  H58  1  0.98250000  0.09640000  0.49850000  1.0 0.113941662
H  H59  1  0.49850000  0.98250000  0.09640000  1.0 0.113941662
H  H60  1  0.09640000  0.49850000  0.98250000  1.0 0.113941662
C  C1  1  0.39388000  0.02664000  0.49615000  1.0 0.5835718798
C  C2  1  0.02664000  0.49615000  0.39388000  1.0 0.5835718798
C  C3  1  0.49615000  0.39388000  0.02664000  1.0 0.5835718798
C  C4  1  0.97336000  0.60612000  0.50385000  1.0 0.5835718798
C  C5  1  0.50385000  0.97336000  0.60612000  1.0 0.5835718798
C  C6  1  0.60612000  0.50385000  0.97336000  1.0 0.5835718798
C  C7  1  0.60612000  0.97336000  0.50385000  1.0 0.5835718798
C  C8  1  0.97336000  0.50385000  0.60612000  1.0 0.5835718798
C  C9  1  0.50385000  0.60612000  0.97336000  1.0 0.5835718798
C  C10  1  0.02664000  0.39388000  0.49615000  1.0 0.5835718798
C  C11  1  0.49615000  0.02664000  0.39388000  1.0 0.5835718798
C  C12  1  0.39388000  0.49615000  0.02664000  1.0 0.5835718798
C  C13  1  0.32977000  0.04069000  0.49404000  1.0 -0.0290798845
C  C14  1  0.04069000  0.49404000  0.32977000  1.0 -0.0290798845
C  C15  1  0.49404000  0.32977000  0.04069000  1.0 -0.0290798845
C  C16  1  0.95931000  0.67023000  0.50596000  1.0 -0.0290798845
C  C17  1  0.50596000  0.95931000  0.67023000  1.0 -0.0290798845
C  C18  1  0.67023000  0.50596000  0.95931000  1.0 -0.0290798845
C  C19  1  0.67023000  0.95931000  0.50596000  1.0 -0.0290798845
C  C20  1  0.95931000  0.50596000  0.67023000  1.0 -0.0290798845
C  C21  1  0.50596000  0.67023000  0.95931000  1.0 -0.0290798845
C  C22  1  0.04069000  0.32977000  0.49404000  1.0 -0.0290798845
C  C23  1  0.49404000  0.04069000  0.32977000  1.0 -0.0290798845
C  C24  1  0.32977000  0.49404000  0.04069000  1.0 -0.0290798845
C  C25  1  0.34233000  0.11085000  0.53879000  1.0 -0.0822677517
C  C26  1  0.11085000  0.53879000  0.34233000  1.0 -0.0822677517
C  C27  1  0.53879000  0.34233000  0.11085000  1.0 -0.0822677517
C  C28  1  0.88915000  0.65767000  0.46121000  1.0 -0.0822677517
C  C29  1  0.46121000  0.88915000  0.65767000  1.0 -0.0822677517
C  C30  1  0.65767000  0.46121000  0.88915000  1.0 -0.0822677517
C  C31  1  0.65767000  0.88915000  0.46121000  1.0 -0.0822677517
C  C32  1  0.88915000  0.46121000  0.65767000  1.0 -0.0822677517
C  C33  1  0.46121000  0.65767000  0.88915000  1.0 -0.0822677517
C  C34  1  0.11085000  0.34233000  0.53879000  1.0 -0.0822677517
C  C35  1  0.53879000  0.11085000  0.34233000  1.0 -0.0822677517
C  C36  1  0.34233000  0.53879000  0.11085000  1.0 -0.0822677517
C  C37  1  0.28289000  0.12300000  0.53760000  1.0 -0.1412966443
C  C38  1  0.12300000  0.53760000  0.28289000  1.0 -0.1412966443
C  C39  1  0.53760000  0.28289000  0.12300000  1.0 -0.1412966443
C  C40  1  0.87700000  0.71711000  0.46240000  1.0 -0.1412966443
C  C41  1  0.46240000  0.87700000  0.71711000  1.0 -0.1412966443
C  C42  1  0.71711000  0.46240000  0.87700000  1.0 -0.1412966443
C  C43  1  0.71711000  0.87700000  0.46240000  1.0 -0.1412966443
C  C44  1  0.87700000  0.46240000  0.71711000  1.0 -0.1412966443
C  C45  1  0.46240000  0.71711000  0.87700000  1.0 -0.1412966443
C  C46  1  0.12300000  0.28289000  0.53760000  1.0 -0.1412966443
C  C47  1  0.53760000  0.12300000  0.28289000  1.0 -0.1412966443
C  C48  1  0.28289000  0.53760000  0.12300000  1.0 -0.1412966443
C  C49  1  0.21021000  0.06581000  0.49245000  1.0 0.10200328
C  C50  1  0.06581000  0.49245000  0.21021000  1.0 0.10200328
C  C51  1  0.49245000  0.21021000  0.06581000  1.0 0.10200328
C  C52  1  0.93419000  0.78979000  0.50755000  1.0 0.10200328
C  C53  1  0.50755000  0.93419000  0.78979000  1.0 0.10200328
C  C54  1  0.78979000  0.50755000  0.93419000  1.0 0.10200328
C  C55  1  0.78979000  0.93419000  0.50755000  1.0 0.10200328
C  C56  1  0.93419000  0.50755000  0.78979000  1.0 0.10200328
C  C57  1  0.50755000  0.78979000  0.93419000  1.0 0.10200328
C  C58  1  0.06581000  0.21021000  0.49245000  1.0 0.10200328
C  C59  1  0.49245000  0.06581000  0.21021000  1.0 0.10200328
C  C60  1  0.21021000  0.49245000  0.06581000  1.0 0.10200328
C  C61  1  0.19775000  0.99529000  0.44778000  1.0 -0.1412966443
C  C62  1  0.99529000  0.44778000  0.19775000  1.0 -0.1412966443
C  C63  1  0.44778000  0.19775000  0.99529000  1.0 -0.1412966443
C  C64  1  0.00471000  0.80225000  0.55222000  1.0 -0.1514551554
C  C65  1  0.55222000  0.00471000  0.80225000  1.0 -0.1412966443
C  C66  1  0.80225000  0.55222000  0.00471000  1.0 -0.1412966443
C  C67  1  0.80225000  0.00471000  0.55222000  1.0 -0.1412966443
C  C68  1  0.00471000  0.55222000  0.80225000  1.0 -0.1412966443
C  C69  1  0.55222000  0.80225000  0.00471000  1.0 -0.1412966443
C  C70  1  0.99529000  0.19775000  0.44778000  1.0 -0.1412966443
C  C71  1  0.44778000  0.99529000  0.19775000  1.0 -0.1412966443
C  C72  1  0.19775000  0.44778000  0.99529000  1.0 -0.1412966443
C  C73  1  0.25754000  0.98322000  0.44902000  1.0 -0.0822677517
C  C74  1  0.98322000  0.44902000  0.25754000  1.0 -0.0822677517
C  C75  1  0.44902000  0.25754000  0.98322000  1.0 -0.0822677517
C  C76  1  0.01678000  0.74246000  0.55098000  1.0 -0.0822677517
C  C77  1  0.55098000  0.01678000  0.74246000  1.0 -0.0822677517
C  C78  1  0.74246000  0.55098000  0.01678000  1.0 -0.0822677517
C  C79  1  0.74246000  0.01678000  0.55098000  1.0 -0.0822677517
C  C80  1  0.01678000  0.55098000  0.74246000  1.0 -0.0822677517
C  C81  1  0.55098000  0.74246000  0.01678000  1.0 -0.0822677517
C  C82  1  0.98322000  0.25754000  0.44902000  1.0 -0.0822677517
C  C83  1  0.44902000  0.98322000  0.25754000  1.0 -0.0822677517
C  C84  1  0.25754000  0.44902000  0.98322000  1.0 -0.0822677517
C  C85  1  0.14510000  0.07601000  0.49261000  1.0 -0.0100320254
C  C86  1  0.07601000  0.49261000  0.14510000  1.0 -0.0100320254
C  C87  1  0.49261000  0.14510000  0.07601000  1.0 -0.0100320254
C  C88  1  0.92399000  0.85490000  0.50739000  1.0 -0.0100320254
C  C89  1  0.50739000  0.92399000  0.85490000  1.0 -0.0100320254
C  C90  1  0.85490000  0.50739000  0.92399000  1.0 -0.0100320254
C  C91  1  0.85490000  0.92399000  0.50739000  1.0 -0.0100320254
C  C92  1  0.92399000  0.50739000  0.85490000  1.0 -0.0100320254
C  C93  1  0.50739000  0.85490000  0.92399000  1.0 -0.0100320254
C  C94  1  0.07601000  0.14510000  0.49261000  1.0 -0.0100320254
C  C95  1  0.49261000  0.07601000  0.14510000  1.0 -0.0100320254
C  C96  1  0.14510000  0.49261000  0.07601000  1.0 -0.0100320254
C  C97  1  0.09074000  0.02333000  0.49654000  1.0 -0.1885558554
C  C98  1  0.02333000  0.49654000  0.09074000  1.0 -0.1885558554
C  C99  1  0.49654000  0.09074000  0.02333000  1.0 -0.1885558554
C  C100  1  0.97667000  0.90926000  0.50346000  1.0 -0.1885558554
C  C101  1  0.50346000  0.97667000  0.90926000  1.0 -0.1885558554
C  C102  1  0.90926000  0.50346000  0.97667000  1.0 -0.1885558554
C  C103  1  0.90926000  0.97667000  0.50346000  1.0 -0.1885558554
C  C104  1  0.97667000  0.50346000  0.90926000  1.0 -0.1885558554
C  C105  1  0.50346000  0.90926000  0.97667000  1.0 -0.1885558554
C  C106  1  0.02333000  0.09074000  0.49654000  1.0 -0.1885558554
C  C107  1  0.49654000  0.02333000  0.09074000  1.0 -0.1885558554
C  C108  1  0.09074000  0.49654000  0.02333000  1.0 -0.1885558554
C  C109  1  0.02830000  0.02830000  0.49779000  1.0 0.0810172843
C  C110  1  0.02830000  0.49779000  0.02830000  1.0 0.0810172843
C  C111  1  0.49779000  0.02830000  0.02830000  1.0 0.0810172843
C  C112  1  0.97170000  0.97170000  0.50221000  1.0 0.0810172843
C  C113  1  0.50221000  0.97170000  0.97170000  1.0 0.0810172843
C  C114  1  0.97170000  0.50221000  0.97170000  1.0 0.0810172843
C  C115  1  0.13754000  0.13754000  0.49083000  1.0 0.2011067432
C  C116  1  0.13755000  0.49083000  0.13755000  1.0 0.2011067432
C  C117  1  0.49083000  0.13755000  0.13755000  1.0 0.2011067432
C  C118  1  0.86245000  0.86245000  0.50917000  1.0 0.2011067432
C  C119  1  0.50917000  0.86246000  0.86246000  1.0 0.2011067432
C  C120  1  0.86246000  0.50917000  0.86246000  1.0 0.2011067432
C  C121  1  0.26113000  0.22760000  0.42947000  1.0 -0.0100320254
C  C122  1  0.22760000  0.42947000  0.26113000  1.0 -0.0100320254
C  C123  1  0.42947000  0.26113000  0.22760000  1.0 -0.0100320254
C  C124  1  0.77240000  0.73887000  0.57053000  1.0 -0.0100320254
C  C125  1  0.57053000  0.77240000  0.73887000  1.0 -0.0100320254
C  C126  1  0.73887000  0.57053000  0.77240000  1.0 -0.0100320254
C  C127  1  0.73887000  0.77240000  0.57053000  1.0 -0.0100320254
C  C128  1  0.77240000  0.57053000  0.73887000  1.0 -0.0100320254
C  C129  1  0.57053000  0.73887000  0.77240000  1.0 -0.0100320254
C  C130  1  0.22760000  0.26113000  0.42947000  1.0 -0.0100320254
C  C131  1  0.42947000  0.22760000  0.26113000  1.0 -0.0100320254
C  C132  1  0.26113000  0.42947000  0.22760000  1.0 -0.0100320254
C  C133  1  0.11610000  0.15870000  0.35540000  1.0 -0.1559445295
C  C134  1  0.15870000  0.35540000  0.11610000  1.0 -0.1559445295
C  C135  1  0.35540000  0.11610000  0.15870000  1.0 -0.1559445295
C  C136  1  0.84130000  0.88390000  0.64460000  1.0 -0.1559445295
C  C137  1  0.64460000  0.84130000  0.88390000  1.0 -0.1559445295
C  C138  1  0.88390000  0.64460000  0.84130000  1.0 -0.1514551554
C  C139  1  0.88390000  0.84130000  0.64460000  1.0 -0.1559445295
C  C140  1  0.84130000  0.64460000  0.88390000  1.0 -0.1514551554
C  C141  1  0.64460000  0.88390000  0.84130000  1.0 -0.1559445295
C  C142  1  0.15870000  0.11610000  0.35540000  1.0 -0.1559445295
C  C143  1  0.35540000  0.15870000  0.11610000  1.0 -0.1559445295
C  C144  1  0.11610000  0.35540000  0.15870000  1.0 -0.1559445295
C  C145  1  0.17992000  0.17992000  0.41556000  1.0 0.233884743
C  C146  1  0.17992000  0.41556000  0.17992000  1.0 0.233884743
C  C147  1  0.41556000  0.17992000  0.17992000  1.0 0.233884743
C  C148  1  0.82008000  0.82008000  0.58444000  1.0 0.233884743
C  C149  1  0.58444000  0.82008000  0.82008000  1.0 0.233884743
C  C150  1  0.82008000  0.58444000  0.82008000  1.0 0.233884743
O  O1  1  0.37772000  0.96025000  0.45621000  1.0 -0.5193432831
O  O2  1  0.96025000  0.45621000  0.37772000  1.0 -0.5193432831
O  O3  1  0.45621000  0.37772000  0.96025000  1.0 -0.5193432831
O  O4  1  0.03975000  0.62228000  0.54379000  1.0 -0.5193432831
O  O5  1  0.54379000  0.03975000  0.62228000  1.0 -0.5193432831
O  O6  1  0.62228000  0.54379000  0.03975000  1.0 -0.5193432831
O  O7  1  0.62228000  0.03975000  0.54379000  1.0 -0.5193432831
O  O8  1  0.03975000  0.54379000  0.62228000  1.0 -0.5193432831
O  O9  1  0.54379000  0.62228000  0.03975000  1.0 -0.5193432831
O  O10  1  0.96025000  0.37772000  0.45621000  1.0 -0.5193432831
O  O11  1  0.45621000  0.96025000  0.37772000  1.0 -0.5193432831
O  O12  1  0.37772000  0.45621000  0.96025000  1.0 -0.5193432831
O  O13  1  0.45826000  0.08149000  0.53700000  1.0 -0.5083734952
O  O14  1  0.08149000  0.53700000  0.45826000  1.0 -0.5083734952
O  O15  1  0.53700000  0.45826000  0.08149000  1.0 -0.5083734952
O  O16  1  0.91851000  0.54174000  0.46300000  1.0 -0.5083734952
O  O17  1  0.46300000  0.91851000  0.54174000  1.0 -0.5083734952
O  O18  1  0.54174000  0.46300000  0.91851000  1.0 -0.5083734952
O  O19  1  0.54174000  0.91851000  0.46300000  1.0 -0.5083734952
O  O20  1  0.91851000  0.46300000  0.54174000  1.0 -0.5083734952
O  O21  1  0.46300000  0.54174000  0.91851000  1.0 -0.5083734952
O  O22  1  0.08149000  0.45826000  0.53700000  1.0 -0.5083734952
O  O23  1  0.53700000  0.08149000  0.45826000  1.0 -0.5083734952
O  O24  1  0.45826000  0.53700000  0.08149000  1.0 -0.5083734952
O  O25  1  0.19029000  0.19029000  0.48711000  1.0 -0.2531969014
O  O26  1  0.19028000  0.48711000  0.19029000  1.0 -0.2531969014
O  O27  1  0.48711000  0.19029000  0.19029000  1.0 -0.2531969014
O  O28  1  0.80972000  0.80971000  0.51289000  1.0 -0.2531969014
O  O29  1  0.51289000  0.80972000  0.80972000  1.0 -0.2531969014
O  O30  1  0.80972000  0.51289000  0.80972000  1.0 -0.2531969014
