# DDEC6 charges by PACMAN v1.1 (https://github.com/mtap-research/PACMAN-charge/)
data_UMOYOM04_ASR_pacman
_symmetry_space_group_name_H-M   'P 1'
_cell_length_a   21.59630000
_cell_length_b   21.59630000
_cell_length_c   21.59630000
_cell_angle_alpha   108.84700000
_cell_angle_beta   108.84700000
_cell_angle_gamma   108.84700000
_symmetry_Int_Tables_number   1
_chemical_formula_structural   CuH10(C5O)5
_chemical_formula_sum   'Cu6 H60 C150 O30'
_cell_volume   7927.96401211
_cell_formula_units_Z   6
loop_
 _symmetry_equiv_pos_site_id
 _symmetry_equiv_pos_as_xyz
  1  'x, y, z'
loop_
 _atom_site_type_symbol
 _atom_site_label
 _atom_site_symmetry_multiplicity
 _atom_site_fract_x
 _atom_site_fract_y
 _atom_site_fract_z
 _atom_site_occupancy
 _atom_site_charge
Cu  Cu1  1  0.95252000  0.42887000  0.95251000  1.0 0.865218108
Cu  Cu2  1  0.42887000  0.95252000  0.95251000  1.0 0.865218108
Cu  Cu3  1  0.95252000  0.95252000  0.42887000  1.0 0.865218108
Cu  Cu4  1  0.57113000  0.04748000  0.04748000  1.0 0.865218108
Cu  Cu5  1  0.04749000  0.57113000  0.04748000  1.0 0.8646590164
Cu  Cu6  1  0.04748000  0.04748000  0.57113000  1.0 0.8646590164
H  H1  1  0.07010000  0.64990000  0.89020000  1.0 0.1262826616
H  H2  1  0.64990000  0.89020000  0.07010000  1.0 0.1262826616
H  H3  1  0.89020000  0.07010000  0.64990000  1.0 0.1262826616
H  H4  1  0.35010000  0.92990000  0.10980000  1.0 0.1262826616
H  H5  1  0.10980000  0.35010000  0.92990000  1.0 0.1262826616
H  H6  1  0.92990000  0.10980000  0.35010000  1.0 0.1262826616
H  H7  1  0.92990000  0.35010000  0.10980000  1.0 0.1262826616
H  H8  1  0.35010000  0.10980000  0.92990000  1.0 0.1262826616
H  H9  1  0.10980000  0.92990000  0.35010000  1.0 0.1262826616
H  H10  1  0.64990000  0.07010000  0.89020000  1.0 0.1262826616
H  H11  1  0.89020000  0.64990000  0.07010000  1.0 0.1262826616
H  H12  1  0.07010000  0.89020000  0.64990000  1.0 0.1262826616
H  H13  1  0.06790000  0.66990000  0.79140000  1.0 0.1177533394
H  H14  1  0.66990000  0.79140000  0.06790000  1.0 0.1177533394
H  H15  1  0.79140000  0.06790000  0.66990000  1.0 0.1177533394
H  H16  1  0.33010000  0.93210000  0.20860000  1.0 0.1177533394
H  H17  1  0.20860000  0.33010000  0.93210000  1.0 0.1177533394
H  H18  1  0.93210000  0.20860000  0.33010000  1.0 0.1177533394
H  H19  1  0.93210000  0.33010000  0.20860000  1.0 0.1177533394
H  H20  1  0.33010000  0.20860000  0.93210000  1.0 0.1177533394
H  H21  1  0.20860000  0.93210000  0.33010000  1.0 0.1177533394
H  H22  1  0.66990000  0.06790000  0.79140000  1.0 0.1177533394
H  H23  1  0.79140000  0.66990000  0.06790000  1.0 0.1177533394
H  H24  1  0.06790000  0.79140000  0.66990000  1.0 0.1177533394
H  H25  1  0.91640000  0.45650000  0.64930000  1.0 0.1118510006
H  H26  1  0.45650000  0.64930000  0.91640000  1.0 0.1118510006
H  H27  1  0.64930000  0.91640000  0.45650000  1.0 0.1118510006
H  H28  1  0.54350000  0.08360000  0.35070000  1.0 0.1118510006
H  H29  1  0.35070000  0.54350000  0.08360000  1.0 0.1118510006
H  H30  1  0.08360000  0.35070000  0.54350000  1.0 0.1118510006
H  H31  1  0.08360000  0.54350000  0.35070000  1.0 0.1118510006
H  H32  1  0.54350000  0.35070000  0.08360000  1.0 0.1118510006
H  H33  1  0.35070000  0.08360000  0.54350000  1.0 0.1118510006
H  H34  1  0.45650000  0.91640000  0.64930000  1.0 0.1118510006
H  H35  1  0.64930000  0.45650000  0.91640000  1.0 0.1118510006
H  H36  1  0.91640000  0.64930000  0.45650000  1.0 0.1118510006
H  H37  1  0.91940000  0.43620000  0.74910000  1.0 0.1262826616
H  H38  1  0.43620000  0.74910000  0.91940000  1.0 0.1262826616
H  H39  1  0.74910000  0.91940000  0.43620000  1.0 0.1262826616
H  H40  1  0.56380000  0.08060000  0.25090000  1.0 0.1262826616
H  H41  1  0.25090000  0.56380000  0.08060000  1.0 0.1262826616
H  H42  1  0.08060000  0.25090000  0.56380000  1.0 0.1262826616
H  H43  1  0.08060000  0.56380000  0.25090000  1.0 0.1262826616
H  H44  1  0.56380000  0.25090000  0.08060000  1.0 0.1262826616
H  H45  1  0.25090000  0.08060000  0.56380000  1.0 0.1262826616
H  H46  1  0.43620000  0.91940000  0.74910000  1.0 0.1262826616
H  H47  1  0.74910000  0.43620000  0.91940000  1.0 0.1262826616
H  H48  1  0.91940000  0.74910000  0.43620000  1.0 0.1262826616
H  H49  1  0.99800000  0.48280000  0.59630000  1.0 0.1118510006
H  H50  1  0.48280000  0.59630000  0.99800000  1.0 0.1118510006
H  H51  1  0.59630000  0.99800000  0.48280000  1.0 0.1118510006
H  H52  1  0.51720000  0.00200000  0.40370000  1.0 0.1118510006
H  H53  1  0.40370000  0.51720000  0.00200000  1.0 0.1118510006
H  H54  1  0.00200000  0.40370000  0.51720000  1.0 0.1118510006
H  H55  1  0.00200000  0.51720000  0.40370000  1.0 0.1118510006
H  H56  1  0.51720000  0.40370000  0.00200000  1.0 0.1118510006
H  H57  1  0.40370000  0.00200000  0.51720000  1.0 0.1118510006
H  H58  1  0.48280000  0.99800000  0.59630000  1.0 0.1118510006
H  H59  1  0.59630000  0.48280000  0.99800000  1.0 0.1118510006
H  H60  1  0.99800000  0.59630000  0.48280000  1.0 0.1118510006
C  C1  1  0.99663000  0.52701000  0.89435000  1.0 0.5821043502
C  C2  1  0.52701000  0.89435000  0.99663000  1.0 0.5821043502
C  C3  1  0.89435000  0.99663000  0.52701000  1.0 0.5821043502
C  C4  1  0.47299000  0.00337000  0.10565000  1.0 0.5821043502
C  C5  1  0.10565000  0.47299000  0.00337000  1.0 0.5821043502
C  C6  1  0.00337000  0.10565000  0.47299000  1.0 0.5821043502
C  C7  1  0.00337000  0.47299000  0.10565000  1.0 0.5821043502
C  C8  1  0.47299000  0.10565000  0.00337000  1.0 0.5821043502
C  C9  1  0.10565000  0.00337000  0.47299000  1.0 0.5821043502
C  C10  1  0.52701000  0.99663000  0.89435000  1.0 0.5821043502
C  C11  1  0.89435000  0.52701000  0.99663000  1.0 0.5821043502
C  C12  1  0.99663000  0.89435000  0.52701000  1.0 0.5821043502
C  C13  1  0.99411000  0.54042000  0.82952000  1.0 -0.0314498708
C  C14  1  0.54042000  0.82952000  0.99411000  1.0 -0.0314498708
C  C15  1  0.82952000  0.99411000  0.54042000  1.0 -0.0314498708
C  C16  1  0.45958000  0.00589000  0.17048000  1.0 -0.0314498708
C  C17  1  0.17048000  0.45958000  0.00589000  1.0 -0.0314498708
C  C18  1  0.00589000  0.17048000  0.45958000  1.0 -0.0314498708
C  C19  1  0.00589000  0.45958000  0.17048000  1.0 -0.0314498708
C  C20  1  0.45958000  0.17048000  0.00589000  1.0 -0.0314498708
C  C21  1  0.17048000  0.00589000  0.45958000  1.0 -0.0314498708
C  C22  1  0.54042000  0.99411000  0.82952000  1.0 -0.0314498708
C  C23  1  0.82952000  0.54042000  0.99411000  1.0 -0.0314498708
C  C24  1  0.99411000  0.82952000  0.54042000  1.0 -0.0314498708
C  C25  1  0.03913000  0.61075000  0.84182000  1.0 -0.0861360141
C  C26  1  0.61075000  0.84182000  0.03913000  1.0 -0.0861360141
C  C27  1  0.84182000  0.03913000  0.61075000  1.0 -0.0861360141
C  C28  1  0.38925000  0.96087000  0.15818000  1.0 -0.0861360141
C  C29  1  0.15818000  0.38925000  0.96087000  1.0 -0.0861360141
C  C30  1  0.96087000  0.15818000  0.38925000  1.0 -0.0861360141
C  C31  1  0.96087000  0.38925000  0.15818000  1.0 -0.0861360141
C  C32  1  0.38925000  0.15818000  0.96087000  1.0 -0.0861360141
C  C33  1  0.15818000  0.96087000  0.38925000  1.0 -0.0861360141
C  C34  1  0.61075000  0.03913000  0.84182000  1.0 -0.0861360141
C  C35  1  0.84182000  0.61075000  0.03913000  1.0 -0.0861360141
C  C36  1  0.03913000  0.84182000  0.61075000  1.0 -0.0861360141
C  C37  1  0.03797000  0.62268000  0.78251000  1.0 -0.1484353656
C  C38  1  0.62268000  0.78251000  0.03797000  1.0 -0.1425857692
C  C39  1  0.78251000  0.03797000  0.62268000  1.0 -0.1484353656
C  C40  1  0.37732000  0.96203000  0.21749000  1.0 -0.1484353656
C  C41  1  0.21749000  0.37732000  0.96203000  1.0 -0.1484353656
C  C42  1  0.96203000  0.21749000  0.37732000  1.0 -0.1425857692
C  C43  1  0.96203000  0.37732000  0.21749000  1.0 -0.1425857692
C  C44  1  0.37732000  0.21749000  0.96203000  1.0 -0.1484353656
C  C45  1  0.21749000  0.96203000  0.37732000  1.0 -0.1484353656
C  C46  1  0.62268000  0.03797000  0.78251000  1.0 -0.1484353656
C  C47  1  0.78251000  0.62268000  0.03797000  1.0 -0.1484353656
C  C48  1  0.03797000  0.78251000  0.62268000  1.0 -0.1425857692
C  C49  1  0.99337000  0.56586000  0.71050000  1.0 0.0887706268
C  C50  1  0.56586000  0.71050000  0.99337000  1.0 0.0887706268
C  C51  1  0.71050000  0.99337000  0.56586000  1.0 0.0887706268
C  C52  1  0.43414000  0.00663000  0.28950000  1.0 0.0887706268
C  C53  1  0.28950000  0.43414000  0.00663000  1.0 0.0887706268
C  C54  1  0.00663000  0.28950000  0.43414000  1.0 0.0887706268
C  C55  1  0.00663000  0.43414000  0.28950000  1.0 0.0887706268
C  C56  1  0.43414000  0.28950000  0.00663000  1.0 0.0887706268
C  C57  1  0.28950000  0.00663000  0.43414000  1.0 0.0887706268
C  C58  1  0.56586000  0.99337000  0.71050000  1.0 0.0887706268
C  C59  1  0.71050000  0.56586000  0.99337000  1.0 0.0887706268
C  C60  1  0.99337000  0.71050000  0.56586000  1.0 0.0887706268
C  C61  1  0.94771000  0.49542000  0.69778000  1.0 -0.1484353656
C  C62  1  0.49542000  0.69778000  0.94771000  1.0 -0.1484353656
C  C63  1  0.69778000  0.94771000  0.49542000  1.0 -0.1484353656
C  C64  1  0.50458000  0.05229000  0.30222000  1.0 -0.1484353656
C  C65  1  0.30222000  0.50458000  0.05229000  1.0 -0.1484353656
C  C66  1  0.05229000  0.30222000  0.50458000  1.0 -0.1484353656
C  C67  1  0.05229000  0.50458000  0.30222000  1.0 -0.1484353656
C  C68  1  0.50458000  0.30222000  0.05229000  1.0 -0.1484353656
C  C69  1  0.30222000  0.05229000  0.50458000  1.0 -0.1484353656
C  C70  1  0.49542000  0.94771000  0.69778000  1.0 -0.1484353656
C  C71  1  0.69778000  0.49542000  0.94771000  1.0 -0.1484353656
C  C72  1  0.94771000  0.69778000  0.49542000  1.0 -0.1484353656
C  C73  1  0.94927000  0.48346000  0.75783000  1.0 -0.0861360141
C  C74  1  0.48346000  0.75783000  0.94927000  1.0 -0.0846746066
C  C75  1  0.75783000  0.94927000  0.48346000  1.0 -0.0861360141
C  C76  1  0.51654000  0.05073000  0.24217000  1.0 -0.0846746066
C  C77  1  0.24217000  0.51654000  0.05073000  1.0 -0.0861360141
C  C78  1  0.05073000  0.24217000  0.51654000  1.0 -0.0846746066
C  C79  1  0.05073000  0.51654000  0.24217000  1.0 -0.0846746066
C  C80  1  0.51654000  0.24217000  0.05073000  1.0 -0.0861360141
C  C81  1  0.24217000  0.05073000  0.51654000  1.0 -0.0861360141
C  C82  1  0.48346000  0.94927000  0.75783000  1.0 -0.0846746066
C  C83  1  0.75783000  0.48346000  0.94927000  1.0 -0.0861360141
C  C84  1  0.94927000  0.75783000  0.48346000  1.0 -0.0861360141
C  C85  1  0.99350000  0.57571000  0.64502000  1.0 -0.0189090802
C  C86  1  0.57571000  0.64502000  0.99350000  1.0 -0.0189090802
C  C87  1  0.64502000  0.99350000  0.57571000  1.0 -0.0189090802
C  C88  1  0.42429000  0.00650000  0.35498000  1.0 -0.0189090802
C  C89  1  0.35498000  0.42429000  0.00650000  1.0 -0.0189090802
C  C90  1  0.00650000  0.35498000  0.42429000  1.0 -0.0189090802
C  C91  1  0.00650000  0.42429000  0.35498000  1.0 -0.0189090802
C  C92  1  0.42429000  0.35498000  0.00650000  1.0 -0.0189090802
C  C93  1  0.35498000  0.00650000  0.42429000  1.0 -0.0189090802
C  C94  1  0.57571000  0.99350000  0.64502000  1.0 -0.0189090802
C  C95  1  0.64502000  0.57571000  0.99350000  1.0 -0.0189090802
C  C96  1  0.99350000  0.64502000  0.57571000  1.0 -0.0189090802
C  C97  1  0.99682000  0.52351000  0.59109000  1.0 -0.191642935
C  C98  1  0.52351000  0.59109000  0.99682000  1.0 -0.191642935
C  C99  1  0.59109000  0.99682000  0.52351000  1.0 -0.191642935
C  C100  1  0.47649000  0.00318000  0.40891000  1.0 -0.191642935
C  C101  1  0.40891000  0.47649000  0.00318000  1.0 -0.191642935
C  C102  1  0.00318000  0.40891000  0.47649000  1.0 -0.191642935
C  C103  1  0.00318000  0.47649000  0.40891000  1.0 -0.191642935
C  C104  1  0.47649000  0.40891000  0.00318000  1.0 -0.191642935
C  C105  1  0.40891000  0.00318000  0.47649000  1.0 -0.191642935
C  C106  1  0.52351000  0.99682000  0.59109000  1.0 -0.191642935
C  C107  1  0.59109000  0.52351000  0.99682000  1.0 -0.191642935
C  C108  1  0.99682000  0.59109000  0.52351000  1.0 -0.191642935
C  C109  1  0.99843000  0.52900000  0.52900000  1.0 0.0764245267
C  C110  1  0.52900000  0.52900000  0.99843000  1.0 0.0764245267
C  C111  1  0.52900000  0.99843000  0.52900000  1.0 0.0764245267
C  C112  1  0.47100000  0.00157000  0.47100000  1.0 0.0764245267
C  C113  1  0.47100000  0.47100000  0.00157000  1.0 0.0764245267
C  C114  1  0.00157000  0.47100000  0.47100000  1.0 0.0764245267
C  C115  1  0.99182000  0.63759000  0.63759000  1.0 0.2000875797
C  C116  1  0.63759000  0.63759000  0.99182000  1.0 0.2000875797
C  C117  1  0.63759000  0.99182000  0.63759000  1.0 0.2000875797
C  C118  1  0.36241000  0.00818000  0.36241000  1.0 0.2000875797
C  C119  1  0.36241000  0.36241000  0.00818000  1.0 0.2000875797
C  C120  1  0.00818000  0.36241000  0.36241000  1.0 0.2000875797
C  C121  1  0.91382000  0.67944000  0.67944000  1.0 0.2739412835
C  C122  1  0.67944000  0.67944000  0.91382000  1.0 0.2739412835
C  C123  1  0.67944000  0.91382000  0.67944000  1.0 0.2739412835
C  C124  1  0.32056000  0.08618000  0.32056000  1.0 0.2739412835
C  C125  1  0.32056000  0.32056000  0.08618000  1.0 0.2812288454
C  C126  1  0.08618000  0.32056000  0.32056000  1.0 0.2739412835
C  C127  1  0.93250000  0.73450000  0.76140000  1.0 0.0394099439
C  C128  1  0.73450000  0.76140000  0.93250000  1.0 0.0394099439
C  C129  1  0.76140000  0.93250000  0.73450000  1.0 0.0394099439
C  C130  1  0.26550000  0.06750000  0.23860000  1.0 0.0394099439
C  C131  1  0.23860000  0.26550000  0.06750000  1.0 0.0394099439
C  C132  1  0.06750000  0.23860000  0.26550000  1.0 0.0394099439
C  C133  1  0.06750000  0.26550000  0.23860000  1.0 0.0394099439
C  C134  1  0.26550000  0.23860000  0.06750000  1.0 0.0394099439
C  C135  1  0.23860000  0.06750000  0.26550000  1.0 0.0394099439
C  C136  1  0.73450000  0.93250000  0.76140000  1.0 0.0394099439
C  C137  1  0.76140000  0.73450000  0.93250000  1.0 0.0394099439
C  C138  1  0.93250000  0.76140000  0.73450000  1.0 0.0394099439
C  C139  1  0.84470000  0.64840000  0.61190000  1.0 -0.1314412417
C  C140  1  0.64840000  0.61190000  0.84470000  1.0 -0.1314412417
C  C141  1  0.61190000  0.84470000  0.64840000  1.0 -0.1314412417
C  C142  1  0.35160000  0.15530000  0.38810000  1.0 -0.1314412417
C  C143  1  0.38810000  0.35160000  0.15530000  1.0 -0.1425857692
C  C144  1  0.15530000  0.38810000  0.35160000  1.0 -0.1314412417
C  C145  1  0.15530000  0.35160000  0.38810000  1.0 -0.1314412417
C  C146  1  0.35160000  0.38810000  0.15530000  1.0 -0.1425857692
C  C147  1  0.38810000  0.15530000  0.35160000  1.0 -0.1314412417
C  C148  1  0.64840000  0.84470000  0.61190000  1.0 -0.1314412417
C  C149  1  0.61190000  0.64840000  0.84470000  1.0 -0.1314412417
C  C150  1  0.84470000  0.61190000  0.64840000  1.0 -0.1314412417
O  O1  1  0.95617000  0.46009000  0.87762000  1.0 -0.5302156309
O  O2  1  0.46009000  0.87762000  0.95617000  1.0 -0.5302156309
O  O3  1  0.87762000  0.95617000  0.46009000  1.0 -0.5302156309
O  O4  1  0.53991000  0.04383000  0.12238000  1.0 -0.5302156309
O  O5  1  0.12238000  0.53991000  0.04383000  1.0 -0.5302156309
O  O6  1  0.04383000  0.12238000  0.53991000  1.0 -0.5302156309
O  O7  1  0.04383000  0.53991000  0.12238000  1.0 -0.5302156309
O  O8  1  0.53991000  0.12238000  0.04383000  1.0 -0.5302156309
O  O9  1  0.12238000  0.04383000  0.53991000  1.0 -0.5302156309
O  O10  1  0.46009000  0.95617000  0.87762000  1.0 -0.5302156309
O  O11  1  0.87762000  0.46009000  0.95617000  1.0 -0.5302156309
O  O12  1  0.95617000  0.87762000  0.46009000  1.0 -0.5302156309
O  O13  1  0.03696000  0.58148000  0.95816000  1.0 -0.5083731462
O  O14  1  0.58148000  0.95816000  0.03696000  1.0 -0.5083731462
O  O15  1  0.95816000  0.03696000  0.58148000  1.0 -0.5083731462
O  O16  1  0.41852000  0.96304000  0.04184000  1.0 -0.5083731462
O  O17  1  0.04184000  0.41852000  0.96304000  1.0 -0.5083731462
O  O18  1  0.96304000  0.04184000  0.41852000  1.0 -0.5083731462
O  O19  1  0.96304000  0.41852000  0.04184000  1.0 -0.5083731462
O  O20  1  0.41852000  0.04184000  0.96304000  1.0 -0.5083731462
O  O21  1  0.04184000  0.96304000  0.41852000  1.0 -0.5083731462
O  O22  1  0.58148000  0.03696000  0.95816000  1.0 -0.5083731462
O  O23  1  0.95816000  0.58148000  0.03696000  1.0 -0.5083731462
O  O24  1  0.03696000  0.95816000  0.58148000  1.0 -0.5083731462
O  O25  1  0.98908000  0.69104000  0.69104000  1.0 -0.2643642971
O  O26  1  0.69104000  0.69104000  0.98908000  1.0 -0.2643642971
O  O27  1  0.69104000  0.98908000  0.69104000  1.0 -0.2643642971
O  O28  1  0.30896000  0.01092000  0.30896000  1.0 -0.2643642971
O  O29  1  0.30896000  0.30896000  0.01092000  1.0 -0.2643642971
O  O30  1  0.01092000  0.30896000  0.30896000  1.0 -0.2643642971
