# DDEC6 charges by PACMAN v1.1 (https://github.com/mtap-research/PACMAN-charge/)
data_UMOYOM12_ASR_pacman
_symmetry_space_group_name_H-M   'P 1'
_cell_length_a   21.45600000
_cell_length_b   21.45600000
_cell_length_c   21.45600000
_cell_angle_alpha   111.58300000
_cell_angle_beta   111.58300000
_cell_angle_gamma   111.58300000
_symmetry_Int_Tables_number   1
_chemical_formula_structural   CuH10C24O5
_chemical_formula_sum   'Cu6 H60 C144 O30'
_cell_volume   6946.00523001
_cell_formula_units_Z   6
loop_
 _symmetry_equiv_pos_site_id
 _symmetry_equiv_pos_as_xyz
  1  'x, y, z'
loop_
 _atom_site_type_symbol
 _atom_site_label
 _atom_site_symmetry_multiplicity
 _atom_site_fract_x
 _atom_site_fract_y
 _atom_site_fract_z
 _atom_site_occupancy
 _atom_site_charge
Cu  Cu1  1  0.44183000  0.92141000  0.44183000  1.0 0.8537643698
Cu  Cu2  1  0.92141000  0.44183000  0.44183000  1.0 0.8537643698
Cu  Cu3  1  0.44183000  0.44183000  0.92141000  1.0 0.8537643698
Cu  Cu4  1  0.07859000  0.55817000  0.55817000  1.0 0.8537643698
Cu  Cu5  1  0.55817000  0.07859000  0.55817000  1.0 0.8537643698
Cu  Cu6  1  0.55817000  0.55817000  0.07859000  1.0 0.8537643698
H  H1  1  0.59120000  0.83530000  0.42060000  1.0 0.1325835334
H  H2  1  0.83530000  0.42060000  0.59120000  1.0 0.1325835334
H  H3  1  0.42060000  0.59120000  0.83530000  1.0 0.1325835334
H  H4  1  0.16470000  0.40880000  0.57940000  1.0 0.1325835334
H  H5  1  0.57940000  0.16470000  0.40880000  1.0 0.1325835334
H  H6  1  0.40880000  0.57940000  0.16470000  1.0 0.1325835334
H  H7  1  0.40880000  0.16470000  0.57940000  1.0 0.1325835334
H  H8  1  0.16470000  0.57940000  0.40880000  1.0 0.1325835334
H  H9  1  0.57940000  0.40880000  0.16470000  1.0 0.1325835334
H  H10  1  0.83530000  0.59120000  0.42060000  1.0 0.1325835334
H  H11  1  0.42060000  0.83530000  0.59120000  1.0 0.1325835334
H  H12  1  0.59120000  0.42060000  0.83530000  1.0 0.1325835334
H  H13  1  0.69270000  0.81400000  0.42680000  1.0 0.1325835334
H  H14  1  0.81400000  0.42680000  0.69270000  1.0 0.1325835334
H  H15  1  0.42680000  0.69270000  0.81400000  1.0 0.1325835334
H  H16  1  0.18600000  0.30730000  0.57320000  1.0 0.1325835334
H  H17  1  0.57320000  0.18600000  0.30730000  1.0 0.1325835334
H  H18  1  0.30730000  0.57320000  0.18600000  1.0 0.1325835334
H  H19  1  0.30730000  0.18600000  0.57320000  1.0 0.1325835334
H  H20  1  0.18600000  0.57320000  0.30730000  1.0 0.1325835334
H  H21  1  0.57320000  0.30730000  0.18600000  1.0 0.1325835334
H  H22  1  0.81400000  0.69270000  0.42680000  1.0 0.1325835334
H  H23  1  0.42680000  0.81400000  0.69270000  1.0 0.1325835334
H  H24  1  0.69270000  0.42680000  0.81400000  1.0 0.1325835334
H  H25  1  0.86930000  0.05700000  0.60450000  1.0 0.1177318105
H  H26  1  0.05700000  0.60450000  0.86930000  1.0 0.1177318105
H  H27  1  0.60450000  0.86930000  0.05700000  1.0 0.1177318105
H  H28  1  0.94300000  0.13070000  0.39550000  1.0 0.1177318105
H  H29  1  0.39550000  0.94300000  0.13070000  1.0 0.1177318105
H  H30  1  0.13070000  0.39550000  0.94300000  1.0 0.1177318105
H  H31  1  0.13070000  0.94300000  0.39550000  1.0 0.1177318105
H  H32  1  0.94300000  0.39550000  0.13070000  1.0 0.1177318105
H  H33  1  0.39550000  0.13070000  0.94300000  1.0 0.1177318105
H  H34  1  0.05700000  0.86930000  0.60450000  1.0 0.1177318105
H  H35  1  0.60450000  0.05700000  0.86930000  1.0 0.1177318105
H  H36  1  0.86930000  0.60450000  0.05700000  1.0 0.1177318105
H  H37  1  0.76630000  0.07630000  0.59700000  1.0 0.1325835334
H  H38  1  0.07630000  0.59700000  0.76630000  1.0 0.1325835334
H  H39  1  0.59700000  0.76630000  0.07630000  1.0 0.1325835334
H  H40  1  0.92370000  0.23370000  0.40300000  1.0 0.1325835334
H  H41  1  0.40300000  0.92370000  0.23370000  1.0 0.1325835334
H  H42  1  0.23370000  0.40300000  0.92370000  1.0 0.1325835334
H  H43  1  0.23370000  0.92370000  0.40300000  1.0 0.1325835334
H  H44  1  0.92370000  0.40300000  0.23370000  1.0 0.1325835334
H  H45  1  0.40300000  0.23370000  0.92370000  1.0 0.1325835334
H  H46  1  0.07630000  0.76630000  0.59700000  1.0 0.1325835334
H  H47  1  0.59700000  0.07630000  0.76630000  1.0 0.1325835334
H  H48  1  0.76630000  0.59700000  0.07630000  1.0 0.1325835334
H  H49  1  0.90480000  0.01810000  0.50560000  1.0 0.1177318105
H  H50  1  0.01810000  0.50560000  0.90480000  1.0 0.1177318105
H  H51  1  0.50560000  0.90480000  0.01810000  1.0 0.1177318105
H  H52  1  0.98190000  0.09520000  0.49440000  1.0 0.1177318105
H  H53  1  0.49440000  0.98190000  0.09520000  1.0 0.1177318105
H  H54  1  0.09520000  0.49440000  0.98190000  1.0 0.1177318105
H  H55  1  0.09520000  0.98190000  0.49440000  1.0 0.1177318105
H  H56  1  0.98190000  0.49440000  0.09520000  1.0 0.1177318105
H  H57  1  0.49440000  0.09520000  0.98190000  1.0 0.1177318105
H  H58  1  0.01810000  0.90480000  0.50560000  1.0 0.1177318105
H  H59  1  0.50560000  0.01810000  0.90480000  1.0 0.1177318105
H  H60  1  0.90480000  0.50560000  0.01810000  1.0 0.1177318105
C  C1  1  0.60475000  0.97164000  0.50471000  1.0 0.5825794634
C  C2  1  0.97164000  0.50471000  0.60475000  1.0 0.5825794634
C  C3  1  0.50471000  0.60475000  0.97164000  1.0 0.5825794634
C  C4  1  0.02836000  0.39525000  0.49529000  1.0 0.5825794634
C  C5  1  0.49529000  0.02836000  0.39525000  1.0 0.5825794634
C  C6  1  0.39525000  0.49529000  0.02836000  1.0 0.5825794634
C  C7  1  0.39525000  0.02836000  0.49529000  1.0 0.5825794634
C  C8  1  0.02836000  0.49529000  0.39525000  1.0 0.5825794634
C  C9  1  0.49529000  0.39525000  0.02836000  1.0 0.5825794634
C  C10  1  0.97164000  0.60475000  0.50471000  1.0 0.5825794634
C  C11  1  0.50471000  0.97164000  0.60475000  1.0 0.5825794634
C  C12  1  0.60475000  0.50471000  0.97164000  1.0 0.5825794634
C  C13  1  0.67058000  0.95880000  0.51082000  1.0 -0.0227559667
C  C14  1  0.95880000  0.51082000  0.67058000  1.0 -0.0227559667
C  C15  1  0.51082000  0.67058000  0.95880000  1.0 -0.0227559667
C  C16  1  0.04120000  0.32942000  0.48918000  1.0 -0.0227559667
C  C17  1  0.48918000  0.04120000  0.32942000  1.0 -0.0227559667
C  C18  1  0.32942000  0.48918000  0.04120000  1.0 -0.0227559667
C  C19  1  0.32942000  0.04120000  0.48918000  1.0 -0.0227559667
C  C20  1  0.04120000  0.48918000  0.32942000  1.0 -0.0227559667
C  C21  1  0.48918000  0.32942000  0.04120000  1.0 -0.0227559667
C  C22  1  0.95880000  0.67058000  0.51082000  1.0 -0.0227559667
C  C23  1  0.51082000  0.95880000  0.67058000  1.0 -0.0227559667
C  C24  1  0.67058000  0.51082000  0.95880000  1.0 -0.0227559667
C  C25  1  0.64778000  0.88044000  0.45838000  1.0 -0.0795989273
C  C26  1  0.88044000  0.45838000  0.64778000  1.0 -0.0795989273
C  C27  1  0.45838000  0.64778000  0.88044000  1.0 -0.0795989273
C  C28  1  0.11956000  0.35222000  0.54162000  1.0 -0.0795989273
C  C29  1  0.54162000  0.11956000  0.35222000  1.0 -0.0795989273
C  C30  1  0.35222000  0.54162000  0.11956000  1.0 -0.0795989273
C  C31  1  0.35222000  0.11956000  0.54162000  1.0 -0.0795989273
C  C32  1  0.11956000  0.54162000  0.35222000  1.0 -0.0795989273
C  C33  1  0.54162000  0.35222000  0.11956000  1.0 -0.0795989273
C  C34  1  0.88044000  0.64778000  0.45838000  1.0 -0.0795989273
C  C35  1  0.45838000  0.88044000  0.64778000  1.0 -0.0795989273
C  C36  1  0.64778000  0.45838000  0.88044000  1.0 -0.0795989273
C  C37  1  0.70845000  0.86799000  0.46116000  1.0 -0.1310704602
C  C38  1  0.86799000  0.46116000  0.70845000  1.0 -0.1310704602
C  C39  1  0.46116000  0.70845000  0.86799000  1.0 -0.1310704602
C  C40  1  0.13201000  0.29155000  0.53884000  1.0 -0.1310704602
C  C41  1  0.53884000  0.13201000  0.29155000  1.0 -0.1310704602
C  C42  1  0.29155000  0.53884000  0.13201000  1.0 -0.1310704602
C  C43  1  0.29155000  0.13201000  0.53884000  1.0 -0.1310704602
C  C44  1  0.13201000  0.53884000  0.29155000  1.0 -0.1310704602
C  C45  1  0.53884000  0.29155000  0.13201000  1.0 -0.1310704602
C  C46  1  0.86799000  0.70845000  0.46116000  1.0 -0.1310704602
C  C47  1  0.46116000  0.86799000  0.70845000  1.0 -0.1310704602
C  C48  1  0.70845000  0.46116000  0.86799000  1.0 -0.1310704602
C  C49  1  0.78940000  0.93247000  0.51253000  1.0 0.1003981602
C  C50  1  0.93247000  0.51253000  0.78940000  1.0 0.1003981602
C  C51  1  0.51253000  0.78940000  0.93247000  1.0 0.1003981602
C  C52  1  0.06753000  0.21060000  0.48747000  1.0 0.1003981602
C  C53  1  0.48747000  0.06753000  0.21060000  1.0 0.1003981602
C  C54  1  0.21060000  0.48747000  0.06753000  1.0 0.1003981602
C  C55  1  0.21060000  0.06753000  0.48747000  1.0 0.1003981602
C  C56  1  0.06753000  0.48747000  0.21060000  1.0 0.1003981602
C  C57  1  0.48747000  0.21060000  0.06753000  1.0 0.1003981602
C  C58  1  0.93247000  0.78940000  0.51253000  1.0 0.1003981602
C  C59  1  0.51253000  0.93247000  0.78940000  1.0 0.1003981602
C  C60  1  0.78940000  0.51253000  0.93247000  1.0 0.1003981602
C  C61  1  0.81280000  0.01165000  0.56625000  1.0 -0.1466201535
C  C62  1  0.01165000  0.56625000  0.81280000  1.0 -0.1466201535
C  C63  1  0.56625000  0.81280000  0.01165000  1.0 -0.1466201535
C  C64  1  0.98835000  0.18720000  0.43375000  1.0 -0.1466201535
C  C65  1  0.43375000  0.98835000  0.18720000  1.0 -0.1466201535
C  C66  1  0.18720000  0.43375000  0.98835000  1.0 -0.1466201535
C  C67  1  0.18720000  0.98835000  0.43375000  1.0 -0.1466201535
C  C68  1  0.98835000  0.43375000  0.18720000  1.0 -0.1466201535
C  C69  1  0.43375000  0.18720000  0.98835000  1.0 -0.1466201535
C  C70  1  0.01165000  0.81280000  0.56625000  1.0 -0.1466201535
C  C71  1  0.56625000  0.01165000  0.81280000  1.0 -0.1466201535
C  C72  1  0.81280000  0.56625000  0.01165000  1.0 -0.1466201535
C  C73  1  0.75095000  0.02253000  0.56232000  1.0 -0.0795989273
C  C74  1  0.02253000  0.56232000  0.75095000  1.0 -0.0795989273
C  C75  1  0.56232000  0.75095000  0.02253000  1.0 -0.0795989273
C  C76  1  0.97747000  0.24905000  0.43768000  1.0 -0.0795989273
C  C77  1  0.43768000  0.97747000  0.24905000  1.0 -0.0795989273
C  C78  1  0.24905000  0.43768000  0.97747000  1.0 -0.0795989273
C  C79  1  0.24905000  0.97747000  0.43768000  1.0 -0.0795989273
C  C80  1  0.97747000  0.43768000  0.24905000  1.0 -0.0795989273
C  C81  1  0.43768000  0.24905000  0.97747000  1.0 -0.0795989273
C  C82  1  0.02253000  0.75095000  0.56232000  1.0 -0.0795989273
C  C83  1  0.56232000  0.02253000  0.75095000  1.0 -0.0795989273
C  C84  1  0.75095000  0.56232000  0.02253000  1.0 -0.0795989273
C  C85  1  0.85512000  0.92358000  0.51180000  1.0 0.0004316628
C  C86  1  0.92358000  0.51180000  0.85512000  1.0 -0.0005872219
C  C87  1  0.51180000  0.85512000  0.92358000  1.0 0.0004316628
C  C88  1  0.07642000  0.14488000  0.48820000  1.0 -0.0005872219
C  C89  1  0.48820000  0.07642000  0.14488000  1.0 -0.0005872219
C  C90  1  0.14488000  0.48820000  0.07642000  1.0 -0.0005872219
C  C91  1  0.14488000  0.07642000  0.48820000  1.0 -0.0005872219
C  C92  1  0.07642000  0.48820000  0.14488000  1.0 -0.0005872219
C  C93  1  0.48820000  0.14488000  0.07642000  1.0 -0.0005872219
C  C94  1  0.92358000  0.85512000  0.51180000  1.0 -0.0005872219
C  C95  1  0.51180000  0.92358000  0.85512000  1.0 -0.0005872219
C  C96  1  0.85512000  0.51180000  0.92358000  1.0 -0.0005872219
C  C97  1  0.90912000  0.97588000  0.50660000  1.0 -0.1764900041
C  C98  1  0.97588000  0.50660000  0.90912000  1.0 -0.1764900041
C  C99  1  0.50660000  0.90912000  0.97588000  1.0 -0.1764900041
C  C100  1  0.02412000  0.09088000  0.49340000  1.0 -0.1764900041
C  C101  1  0.49340000  0.02412000  0.09088000  1.0 -0.1764900041
C  C102  1  0.09088000  0.49340000  0.02412000  1.0 -0.1764900041
C  C103  1  0.09088000  0.02412000  0.49340000  1.0 -0.1764900041
C  C104  1  0.02412000  0.49340000  0.09088000  1.0 -0.1764900041
C  C105  1  0.49340000  0.09088000  0.02412000  1.0 -0.1764900041
C  C106  1  0.97588000  0.90912000  0.50660000  1.0 -0.1764900041
C  C107  1  0.50660000  0.97588000  0.90912000  1.0 -0.1764900041
C  C108  1  0.90912000  0.50660000  0.97588000  1.0 -0.1764900041
C  C109  1  0.97049000  0.97049000  0.50282000  1.0 0.0830905223
C  C110  1  0.97049000  0.50282000  0.97049000  1.0 0.0830905223
C  C111  1  0.50282000  0.97049000  0.97049000  1.0 0.0830905223
C  C112  1  0.02951000  0.02951000  0.49718000  1.0 0.0830905223
C  C113  1  0.49718000  0.02951000  0.02951000  1.0 0.0830905223
C  C114  1  0.02951000  0.49718000  0.02951000  1.0 0.0830905223
C  C115  1  0.86193000  0.86193000  0.51444000  1.0 0.1974556294
C  C116  1  0.86193000  0.51444000  0.86193000  1.0 0.1974556294
C  C117  1  0.51444000  0.86193000  0.86193000  1.0 0.1974556294
C  C118  1  0.13807000  0.13807000  0.48556000  1.0 0.1974556294
C  C119  1  0.48556000  0.13807000  0.13807000  1.0 0.1974556294
C  C120  1  0.13807000  0.48556000  0.13807000  1.0 0.1974556294
C  C121  1  0.87340000  0.87340000  0.65710000  1.0 -0.3870906684
C  C122  1  0.87340000  0.65710000  0.87340000  1.0 -0.3846527043
C  C123  1  0.65710000  0.87340000  0.87340000  1.0 -0.3846527043
C  C124  1  0.12660000  0.12660000  0.34290000  1.0 -0.3846527043
C  C125  1  0.34290000  0.12660000  0.12660000  1.0 -0.3846527043
C  C126  1  0.12660000  0.34290000  0.12660000  1.0 -0.3870906684
C  C127  1  0.83060000  0.83060000  0.59720000  1.0 0.3015905169
C  C128  1  0.83060000  0.59720000  0.83060000  1.0 0.287844446
C  C129  1  0.59720000  0.83060000  0.83060000  1.0 0.287844446
C  C130  1  0.16940000  0.16940000  0.40280000  1.0 0.287844446
C  C131  1  0.40280000  0.16940000  0.16940000  1.0 0.287844446
C  C132  1  0.16940000  0.40280000  0.16940000  1.0 0.287844446
C  C133  1  0.74190000  0.78270000  0.58770000  1.0 -0.047905836
C  C134  1  0.78270000  0.58770000  0.74190000  1.0 -0.047905836
C  C135  1  0.58770000  0.74190000  0.78270000  1.0 -0.047905836
C  C136  1  0.21730000  0.25810000  0.41230000  1.0 -0.047905836
C  C137  1  0.41230000  0.21730000  0.25810000  1.0 -0.047905836
C  C138  1  0.25810000  0.41230000  0.21730000  1.0 -0.047905836
C  C139  1  0.25810000  0.21730000  0.41230000  1.0 -0.047905836
C  C140  1  0.21730000  0.41230000  0.25810000  1.0 -0.047905836
C  C141  1  0.41230000  0.25810000  0.21730000  1.0 -0.047905836
C  C142  1  0.78270000  0.74190000  0.58770000  1.0 -0.047905836
C  C143  1  0.58770000  0.78270000  0.74190000  1.0 -0.047905836
C  C144  1  0.74190000  0.58770000  0.78270000  1.0 -0.047905836
O  O1  1  0.63125000  0.04603000  0.55406000  1.0 -0.5237930917
O  O2  1  0.04603000  0.55406000  0.63125000  1.0 -0.5237930917
O  O3  1  0.55406000  0.63125000  0.04603000  1.0 -0.5237930917
O  O4  1  0.95397000  0.36875000  0.44594000  1.0 -0.5237930917
O  O5  1  0.44594000  0.95397000  0.36875000  1.0 -0.5237930917
O  O6  1  0.36875000  0.44594000  0.95397000  1.0 -0.5237930917
O  O7  1  0.36875000  0.95397000  0.44594000  1.0 -0.5237930917
O  O8  1  0.95397000  0.44594000  0.36875000  1.0 -0.5237930917
O  O9  1  0.44594000  0.36875000  0.95397000  1.0 -0.5237930917
O  O10  1  0.04603000  0.63125000  0.55406000  1.0 -0.5237930917
O  O11  1  0.55406000  0.04603000  0.63125000  1.0 -0.5237930917
O  O12  1  0.63125000  0.55406000  0.04603000  1.0 -0.5237930917
O  O13  1  0.53232000  0.91106000  0.45478000  1.0 -0.4861695472
O  O14  1  0.91106000  0.45478000  0.53232000  1.0 -0.4861695472
O  O15  1  0.45478000  0.53232000  0.91106000  1.0 -0.4861695472
O  O16  1  0.08894000  0.46768000  0.54522000  1.0 -0.4861695472
O  O17  1  0.54522000  0.08894000  0.46768000  1.0 -0.4861695472
O  O18  1  0.46768000  0.54522000  0.08894000  1.0 -0.4861695472
O  O19  1  0.46768000  0.08894000  0.54522000  1.0 -0.4861695472
O  O20  1  0.08894000  0.54522000  0.46768000  1.0 -0.4861695472
O  O21  1  0.54522000  0.46768000  0.08894000  1.0 -0.4861695472
O  O22  1  0.91106000  0.53232000  0.45478000  1.0 -0.4861695472
O  O23  1  0.45478000  0.91106000  0.53232000  1.0 -0.4861695472
O  O24  1  0.53232000  0.45478000  0.91106000  1.0 -0.4861695472
O  O25  1  0.80434000  0.80434000  0.51592000  1.0 -0.2825236671
O  O26  1  0.80434000  0.51592000  0.80434000  1.0 -0.2825236671
O  O27  1  0.51592000  0.80434000  0.80434000  1.0 -0.2825236671
O  O28  1  0.19566000  0.19566000  0.48408000  1.0 -0.2825236671
O  O29  1  0.48408000  0.19566000  0.19566000  1.0 -0.2825236671
O  O30  1  0.19566000  0.48408000  0.19566000  1.0 -0.2825236671
