# DDEC6 charges by PACMAN v1.1 (https://github.com/mtap-research/PACMAN-charge/)
data_UMOYOM11_ASR_pacman
_symmetry_space_group_name_H-M   'P 1'
_cell_length_a   21.50250000
_cell_length_b   21.50250000
_cell_length_c   21.50250000
_cell_angle_alpha   110.64400000
_cell_angle_beta   110.64400000
_cell_angle_gamma   110.64400000
_symmetry_Int_Tables_number   1
_chemical_formula_structural   CuH10(C5O)5
_chemical_formula_sum   'Cu6 H60 C150 O30'
_cell_volume   7302.06378423
_cell_formula_units_Z   6
loop_
 _symmetry_equiv_pos_site_id
 _symmetry_equiv_pos_as_xyz
  1  'x, y, z'
loop_
 _atom_site_type_symbol
 _atom_site_label
 _atom_site_symmetry_multiplicity
 _atom_site_fract_x
 _atom_site_fract_y
 _atom_site_fract_z
 _atom_site_occupancy
 _atom_site_charge
Cu  Cu1  1  0.94538000  0.42412000  0.94538000  1.0 0.8585831978
Cu  Cu2  1  0.42412000  0.94538000  0.94538000  1.0 0.8585831978
Cu  Cu3  1  0.94538000  0.94538000  0.42412000  1.0 0.8585831978
Cu  Cu4  1  0.57588000  0.05462000  0.05462000  1.0 0.8585831978
Cu  Cu5  1  0.05462000  0.57588000  0.05462000  1.0 0.8585831978
Cu  Cu6  1  0.05462000  0.05462000  0.57588000  1.0 0.8585831978
H  H1  1  0.92270000  0.34030000  0.09730000  1.0 0.1303521854
H  H2  1  0.34030000  0.09730000  0.92270000  1.0 0.1303521854
H  H3  1  0.09730000  0.92270000  0.34030000  1.0 0.1303521854
H  H4  1  0.65970000  0.07730000  0.90270000  1.0 0.1303521854
H  H5  1  0.90270000  0.65970000  0.07730000  1.0 0.1303521854
H  H6  1  0.07730000  0.90270000  0.65970000  1.0 0.1303521854
H  H7  1  0.07730000  0.65970000  0.90270000  1.0 0.1303521854
H  H8  1  0.65970000  0.90270000  0.07730000  1.0 0.1303521854
H  H9  1  0.90270000  0.07730000  0.65970000  1.0 0.1303521854
H  H10  1  0.34030000  0.92270000  0.09730000  1.0 0.1303521854
H  H11  1  0.09730000  0.34030000  0.92270000  1.0 0.1303521854
H  H12  1  0.92270000  0.09730000  0.34030000  1.0 0.1303521854
H  H13  1  0.92750000  0.31950000  0.19730000  1.0 0.1303521854
H  H14  1  0.31950000  0.19730000  0.92750000  1.0 0.1303521854
H  H15  1  0.19730000  0.92750000  0.31950000  1.0 0.1303521854
H  H16  1  0.68050000  0.07250000  0.80270000  1.0 0.1303521854
H  H17  1  0.80270000  0.68050000  0.07250000  1.0 0.1303521854
H  H18  1  0.07250000  0.80270000  0.68050000  1.0 0.1303521854
H  H19  1  0.07250000  0.68050000  0.80270000  1.0 0.1303521854
H  H20  1  0.68050000  0.80270000  0.07250000  1.0 0.1303521854
H  H21  1  0.80270000  0.07250000  0.68050000  1.0 0.1303521854
H  H22  1  0.31950000  0.92750000  0.19730000  1.0 0.1303521854
H  H23  1  0.19730000  0.31950000  0.92750000  1.0 0.1303521854
H  H24  1  0.92750000  0.19730000  0.31950000  1.0 0.1303521854
H  H25  1  0.09250000  0.54940000  0.36070000  1.0 0.1135967065
H  H26  1  0.54940000  0.36070000  0.09250000  1.0 0.1135967065
H  H27  1  0.36070000  0.09250000  0.54940000  1.0 0.1135967065
H  H28  1  0.45060000  0.90750000  0.63930000  1.0 0.1135967065
H  H29  1  0.63930000  0.45060000  0.90750000  1.0 0.1135967065
H  H30  1  0.90750000  0.63930000  0.45060000  1.0 0.1135967065
H  H31  1  0.90750000  0.45060000  0.63930000  1.0 0.1135967065
H  H32  1  0.45060000  0.63930000  0.90750000  1.0 0.1135967065
H  H33  1  0.63930000  0.90750000  0.45060000  1.0 0.1135967065
H  H34  1  0.54940000  0.09250000  0.36070000  1.0 0.1135967065
H  H35  1  0.36070000  0.54940000  0.09250000  1.0 0.1135967065
H  H36  1  0.09250000  0.36070000  0.54940000  1.0 0.1135967065
H  H37  1  0.08920000  0.56990000  0.25950000  1.0 0.1303521854
H  H38  1  0.56990000  0.25950000  0.08920000  1.0 0.1303521854
H  H39  1  0.25950000  0.08920000  0.56990000  1.0 0.1303521854
H  H40  1  0.43010000  0.91080000  0.74050000  1.0 0.1303521854
H  H41  1  0.74050000  0.43010000  0.91080000  1.0 0.1303521854
H  H42  1  0.91080000  0.74050000  0.43010000  1.0 0.1303521854
H  H43  1  0.91080000  0.43010000  0.74050000  1.0 0.1303521854
H  H44  1  0.43010000  0.74050000  0.91080000  1.0 0.1303521854
H  H45  1  0.74050000  0.91080000  0.43010000  1.0 0.1303521854
H  H46  1  0.56990000  0.08920000  0.25950000  1.0 0.1303521854
H  H47  1  0.25950000  0.56990000  0.08920000  1.0 0.1303521854
H  H48  1  0.08920000  0.25950000  0.56990000  1.0 0.1303521854
H  H49  1  0.00520000  0.51760000  0.40540000  1.0 0.1135967065
H  H50  1  0.51760000  0.40540000  0.00520000  1.0 0.1135967065
H  H51  1  0.40540000  0.00520000  0.51760000  1.0 0.1135967065
H  H52  1  0.48240000  0.99480000  0.59460000  1.0 0.1135967065
H  H53  1  0.59460000  0.48240000  0.99480000  1.0 0.1135967065
H  H54  1  0.99480000  0.59460000  0.48240000  1.0 0.1135967065
H  H55  1  0.99480000  0.48240000  0.59460000  1.0 0.1135967065
H  H56  1  0.48240000  0.59460000  0.99480000  1.0 0.1135967065
H  H57  1  0.59460000  0.99480000  0.48240000  1.0 0.1135967065
H  H58  1  0.51760000  0.00520000  0.40540000  1.0 0.1135967065
H  H59  1  0.40540000  0.51760000  0.00520000  1.0 0.1135967065
H  H60  1  0.00520000  0.40540000  0.51760000  1.0 0.1135967065
C  C1  1  0.00454000  0.47248000  0.10528000  1.0 0.5821972149
C  C2  1  0.47248000  0.10528000  0.00454000  1.0 0.5821972149
C  C3  1  0.10528000  0.00454000  0.47248000  1.0 0.5821972149
C  C4  1  0.52752000  0.99546000  0.89472000  1.0 0.5821972149
C  C5  1  0.89472000  0.52752000  0.99546000  1.0 0.5821972149
C  C6  1  0.99546000  0.89472000  0.52752000  1.0 0.5821972149
C  C7  1  0.99546000  0.52752000  0.89472000  1.0 0.5821972149
C  C8  1  0.52752000  0.89472000  0.99546000  1.0 0.5821972149
C  C9  1  0.89472000  0.99546000  0.52752000  1.0 0.5821972149
C  C10  1  0.47248000  0.00454000  0.10528000  1.0 0.5821972149
C  C11  1  0.10528000  0.47248000  0.00454000  1.0 0.5821972149
C  C12  1  0.00454000  0.10528000  0.47248000  1.0 0.5821972149
C  C13  1  0.00860000  0.45849000  0.17011000  1.0 -0.0216366543
C  C14  1  0.45849000  0.17011000  0.00860000  1.0 -0.0216366543
C  C15  1  0.17011000  0.00860000  0.45849000  1.0 -0.0216366543
C  C16  1  0.54151000  0.99140000  0.82989000  1.0 -0.0216366543
C  C17  1  0.82989000  0.54151000  0.99140000  1.0 -0.0216366543
C  C18  1  0.99140000  0.82989000  0.54151000  1.0 -0.0216366543
C  C19  1  0.99140000  0.54151000  0.82989000  1.0 -0.0216366543
C  C20  1  0.54151000  0.82989000  0.99140000  1.0 -0.0216366543
C  C21  1  0.82989000  0.99140000  0.54151000  1.0 -0.0216366543
C  C22  1  0.45849000  0.00860000  0.17011000  1.0 -0.0216366543
C  C23  1  0.17011000  0.45849000  0.00860000  1.0 -0.0216366543
C  C24  1  0.00860000  0.17011000  0.45849000  1.0 -0.0216366543
C  C25  1  0.95757000  0.38225000  0.15008000  1.0 -0.0819997404
C  C26  1  0.38225000  0.15008000  0.95757000  1.0 -0.0819997404
C  C27  1  0.15008000  0.95757000  0.38225000  1.0 -0.0819997404
C  C28  1  0.61775000  0.04243000  0.84992000  1.0 -0.0819997404
C  C29  1  0.84992000  0.61775000  0.04243000  1.0 -0.0819997404
C  C30  1  0.04243000  0.84992000  0.61775000  1.0 -0.0819997404
C  C31  1  0.04243000  0.61775000  0.84992000  1.0 -0.0819997404
C  C32  1  0.61775000  0.84992000  0.04243000  1.0 -0.0819997404
C  C33  1  0.84992000  0.04243000  0.61775000  1.0 -0.0819997404
C  C34  1  0.38225000  0.95757000  0.15008000  1.0 -0.0819997404
C  C35  1  0.15008000  0.38225000  0.95757000  1.0 -0.0819997404
C  C36  1  0.95757000  0.15008000  0.38225000  1.0 -0.0819997404
C  C37  1  0.95964000  0.37021000  0.21015000  1.0 -0.1249859971
C  C38  1  0.37021000  0.21015000  0.95964000  1.0 -0.1259861045
C  C39  1  0.21015000  0.95964000  0.37021000  1.0 -0.1259861045
C  C40  1  0.62979000  0.04036000  0.78985000  1.0 -0.1259861045
C  C41  1  0.78985000  0.62979000  0.04036000  1.0 -0.1249859971
C  C42  1  0.04036000  0.78985000  0.62979000  1.0 -0.1259861045
C  C43  1  0.04036000  0.62979000  0.78985000  1.0 -0.1259861045
C  C44  1  0.62979000  0.78985000  0.04036000  1.0 -0.1249859971
C  C45  1  0.78985000  0.04036000  0.62979000  1.0 -0.1259861045
C  C46  1  0.37021000  0.95964000  0.21015000  1.0 -0.1249859971
C  C47  1  0.21015000  0.37021000  0.95964000  1.0 -0.1259861045
C  C48  1  0.95964000  0.21015000  0.37021000  1.0 -0.1249859971
C  C49  1  0.00790000  0.43140000  0.28730000  1.0 0.097840182
C  C50  1  0.43140000  0.28730000  0.00790000  1.0 0.097840182
C  C51  1  0.28730000  0.00790000  0.43140000  1.0 0.097840182
C  C52  1  0.56860000  0.99210000  0.71270000  1.0 0.097840182
C  C53  1  0.71270000  0.56860000  0.99210000  1.0 0.097840182
C  C54  1  0.99210000  0.71270000  0.56860000  1.0 0.097840182
C  C55  1  0.99210000  0.56860000  0.71270000  1.0 0.097840182
C  C56  1  0.56860000  0.71270000  0.99210000  1.0 0.097840182
C  C57  1  0.71270000  0.99210000  0.56860000  1.0 0.097840182
C  C58  1  0.43140000  0.00790000  0.28730000  1.0 0.097840182
C  C59  1  0.28730000  0.43140000  0.00790000  1.0 0.097840182
C  C60  1  0.00790000  0.28730000  0.43140000  1.0 0.097840182
C  C61  1  0.05836000  0.50738000  0.30786000  1.0 -0.1411813142
C  C62  1  0.50738000  0.30786000  0.05836000  1.0 -0.1411813142
C  C63  1  0.30786000  0.05836000  0.50738000  1.0 -0.1411813142
C  C64  1  0.49262000  0.94164000  0.69214000  1.0 -0.1411813142
C  C65  1  0.69214000  0.49262000  0.94164000  1.0 -0.1411813142
C  C66  1  0.94164000  0.69214000  0.49262000  1.0 -0.1411813142
C  C67  1  0.94164000  0.49262000  0.69214000  1.0 -0.1411813142
C  C68  1  0.49262000  0.69214000  0.94164000  1.0 -0.1411813142
C  C69  1  0.69214000  0.94164000  0.49262000  1.0 -0.1411813142
C  C70  1  0.50738000  0.05836000  0.30786000  1.0 -0.1411813142
C  C71  1  0.30786000  0.50738000  0.05836000  1.0 -0.1411813142
C  C72  1  0.05836000  0.30786000  0.50738000  1.0 -0.1411813142
C  C73  1  0.05667000  0.51931000  0.24662000  1.0 -0.0819997404
C  C74  1  0.51931000  0.24662000  0.05667000  1.0 -0.0819997404
C  C75  1  0.24662000  0.05667000  0.51931000  1.0 -0.0819997404
C  C76  1  0.48069000  0.94333000  0.75338000  1.0 -0.0819997404
C  C77  1  0.75338000  0.48069000  0.94333000  1.0 -0.0819997404
C  C78  1  0.94333000  0.75338000  0.48069000  1.0 -0.0819997404
C  C79  1  0.94333000  0.48069000  0.75338000  1.0 -0.0819997404
C  C80  1  0.48069000  0.75338000  0.94333000  1.0 -0.0819997404
C  C81  1  0.75338000  0.94333000  0.48069000  1.0 -0.0819997404
C  C82  1  0.51931000  0.05667000  0.24662000  1.0 -0.0819997404
C  C83  1  0.24662000  0.51931000  0.05667000  1.0 -0.0819997404
C  C84  1  0.05667000  0.24662000  0.51931000  1.0 -0.0819997404
C  C85  1  0.00873000  0.42238000  0.35369000  1.0 -0.0023774449
C  C86  1  0.42238000  0.35369000  0.00873000  1.0 -0.0023774449
C  C87  1  0.35369000  0.00873000  0.42238000  1.0 -0.0023774449
C  C88  1  0.57762000  0.99127000  0.64631000  1.0 -0.0023774449
C  C89  1  0.64631000  0.57762000  0.99127000  1.0 -0.0023774449
C  C90  1  0.99127000  0.64631000  0.57762000  1.0 -0.0023774449
C  C91  1  0.99127000  0.57762000  0.64631000  1.0 -0.0023774449
C  C92  1  0.57762000  0.64631000  0.99127000  1.0 -0.0023774449
C  C93  1  0.64631000  0.99127000  0.57762000  1.0 -0.0023774449
C  C94  1  0.42238000  0.00873000  0.35369000  1.0 -0.0023774449
C  C95  1  0.35369000  0.42238000  0.00873000  1.0 -0.0023774449
C  C96  1  0.00873000  0.35369000  0.42238000  1.0 -0.0023774449
C  C97  1  0.00539000  0.47608000  0.40953000  1.0 -0.1807879289
C  C98  1  0.47608000  0.40953000  0.00539000  1.0 -0.1807879289
C  C99  1  0.40953000  0.00539000  0.47608000  1.0 -0.1807879289
C  C100  1  0.52392000  0.99461000  0.59047000  1.0 -0.1807879289
C  C101  1  0.59047000  0.52392000  0.99461000  1.0 -0.1807879289
C  C102  1  0.99461000  0.59047000  0.52392000  1.0 -0.1807879289
C  C103  1  0.99461000  0.52392000  0.59047000  1.0 -0.1807879289
C  C104  1  0.52392000  0.59047000  0.99461000  1.0 -0.1807879289
C  C105  1  0.59047000  0.99461000  0.52392000  1.0 -0.1807879289
C  C106  1  0.47608000  0.00539000  0.40953000  1.0 -0.1807879289
C  C107  1  0.40953000  0.47608000  0.00539000  1.0 -0.1807879289
C  C108  1  0.00539000  0.40953000  0.47608000  1.0 -0.1807879289
C  C109  1  0.00212000  0.47114000  0.47114000  1.0 0.0829350099
C  C110  1  0.47114000  0.47114000  0.00212000  1.0 0.0829350099
C  C111  1  0.47114000  0.00212000  0.47114000  1.0 0.0829350099
C  C112  1  0.52886000  0.99788000  0.52886000  1.0 0.0829350099
C  C113  1  0.52886000  0.52886000  0.99788000  1.0 0.0829350099
C  C114  1  0.99788000  0.52886000  0.52886000  1.0 0.0829350099
C  C115  1  0.00972000  0.36024000  0.36024000  1.0 0.1935674631
C  C116  1  0.36024000  0.36024000  0.00972000  1.0 0.1935674631
C  C117  1  0.36024000  0.00972000  0.36024000  1.0 0.1935674631
C  C118  1  0.63976000  0.99028000  0.63976000  1.0 0.1935674631
C  C119  1  0.63976000  0.63976000  0.99028000  1.0 0.1935674631
C  C120  1  0.99028000  0.63976000  0.63976000  1.0 0.1935674631
C  C121  1  0.08280000  0.31650000  0.31650000  1.0 0.3158713537
C  C122  1  0.31650000  0.31650000  0.08280000  1.0 0.2874122444
C  C123  1  0.31650000  0.08280000  0.31650000  1.0 0.2874122444
C  C124  1  0.68350000  0.91720000  0.68350000  1.0 0.2874122444
C  C125  1  0.68350000  0.68350000  0.91720000  1.0 0.2874122444
C  C126  1  0.91720000  0.68350000  0.68350000  1.0 0.312975313
C  C127  1  0.08090000  0.23920000  0.28200000  1.0 -0.0496757085
C  C128  1  0.23920000  0.28200000  0.08090000  1.0 -0.0496757085
C  C129  1  0.28200000  0.08090000  0.23920000  1.0 -0.0423875058
C  C130  1  0.76080000  0.91910000  0.71800000  1.0 -0.0496757085
C  C131  1  0.71800000  0.76080000  0.91910000  1.0 -0.0423875058
C  C132  1  0.91910000  0.71800000  0.76080000  1.0 -0.0496757085
C  C133  1  0.91910000  0.76080000  0.71800000  1.0 -0.0496757085
C  C134  1  0.76080000  0.71800000  0.91910000  1.0 -0.0423875058
C  C135  1  0.71800000  0.91910000  0.76080000  1.0 -0.0423875058
C  C136  1  0.23920000  0.08090000  0.28200000  1.0 -0.0423875058
C  C137  1  0.28200000  0.23920000  0.08090000  1.0 -0.0423875058
C  C138  1  0.08090000  0.28200000  0.23920000  1.0 -0.0496757085
C  C139  1  0.15520000  0.39210000  0.34940000  1.0 -0.1581076153
C  C140  1  0.39210000  0.34940000  0.15520000  1.0 -0.1531886575
C  C141  1  0.34940000  0.15520000  0.39210000  1.0 -0.1581076153
C  C142  1  0.60790000  0.84480000  0.65060000  1.0 -0.1531886575
C  C143  1  0.65060000  0.60790000  0.84480000  1.0 -0.1531886575
C  C144  1  0.84480000  0.65060000  0.60790000  1.0 -0.1581076153
C  C145  1  0.84480000  0.60790000  0.65060000  1.0 -0.1531886575
C  C146  1  0.60790000  0.65060000  0.84480000  1.0 -0.1531886575
C  C147  1  0.65060000  0.84480000  0.60790000  1.0 -0.1581076153
C  C148  1  0.39210000  0.15520000  0.34940000  1.0 -0.1531886575
C  C149  1  0.34940000  0.39210000  0.15520000  1.0 -0.1581076153
C  C150  1  0.15520000  0.34940000  0.39210000  1.0 -0.1581076153
O  O1  1  0.05069000  0.54383000  0.12842000  1.0 -0.5278345985
O  O2  1  0.54383000  0.12842000  0.05069000  1.0 -0.5278345985
O  O3  1  0.12842000  0.05069000  0.54383000  1.0 -0.5278345985
O  O4  1  0.45617000  0.94931000  0.87158000  1.0 -0.5278345985
O  O5  1  0.87158000  0.45617000  0.94931000  1.0 -0.5278345985
O  O6  1  0.94931000  0.87158000  0.45617000  1.0 -0.5278345985
O  O7  1  0.94931000  0.45617000  0.87158000  1.0 -0.5278345985
O  O8  1  0.45617000  0.87158000  0.94931000  1.0 -0.5278345985
O  O9  1  0.87158000  0.94931000  0.45617000  1.0 -0.5278345985
O  O10  1  0.54383000  0.05069000  0.12842000  1.0 -0.5278345985
O  O11  1  0.12842000  0.54383000  0.05069000  1.0 -0.5278345985
O  O12  1  0.05069000  0.12842000  0.54383000  1.0 -0.5278345985
O  O13  1  0.95775000  0.41409000  0.03550000  1.0 -0.5067702276
O  O14  1  0.41409000  0.03550000  0.95775000  1.0 -0.5067702276
O  O15  1  0.03550000  0.95775000  0.41409000  1.0 -0.5067702276
O  O16  1  0.58591000  0.04225000  0.96450000  1.0 -0.5067702276
O  O17  1  0.96450000  0.58591000  0.04225000  1.0 -0.5067702276
O  O18  1  0.04225000  0.96450000  0.58591000  1.0 -0.5067702276
O  O19  1  0.04225000  0.58591000  0.96450000  1.0 -0.5067702276
O  O20  1  0.58591000  0.96450000  0.04225000  1.0 -0.5067702276
O  O21  1  0.96450000  0.04225000  0.58591000  1.0 -0.5067702276
O  O22  1  0.41409000  0.95775000  0.03550000  1.0 -0.5067702276
O  O23  1  0.03550000  0.41409000  0.95775000  1.0 -0.5067702276
O  O24  1  0.95775000  0.03550000  0.41409000  1.0 -0.5067702276
O  O25  1  0.00970000  0.30325000  0.30325000  1.0 -0.2836663964
O  O26  1  0.30325000  0.30325000  0.00970000  1.0 -0.2836663964
O  O27  1  0.30325000  0.00970000  0.30325000  1.0 -0.2836663964
O  O28  1  0.69675000  0.99030000  0.69675000  1.0 -0.2851391477
O  O29  1  0.69675000  0.69675000  0.99030000  1.0 -0.2851391477
O  O30  1  0.99030000  0.69675000  0.69675000  1.0 -0.2851391477
