# DDEC6 charges by PACMAN v1.1 (https://github.com/mtap-research/PACMAN-charge/)
data_UMOYOM17_ASR_pacman
_symmetry_space_group_name_H-M   'P 1'
_cell_length_a   21.31830000
_cell_length_b   21.31830000
_cell_length_c   21.31830000
_cell_angle_alpha   114.46500000
_cell_angle_beta   114.46500000
_cell_angle_gamma   114.46500000
_symmetry_Int_Tables_number   1
_chemical_formula_structural   CuH10C23O5
_chemical_formula_sum   'Cu6 H60 C138 O30'
_cell_volume   5677.62299034
_cell_formula_units_Z   6
loop_
 _symmetry_equiv_pos_site_id
 _symmetry_equiv_pos_as_xyz
  1  'x, y, z'
loop_
 _atom_site_type_symbol
 _atom_site_label
 _atom_site_symmetry_multiplicity
 _atom_site_fract_x
 _atom_site_fract_y
 _atom_site_fract_z
 _atom_site_occupancy
 _atom_site_charge
Cu  Cu1  1  0.58012000  0.58012000  0.09301000  1.0 0.8595312184
Cu  Cu2  1  0.58012000  0.09301000  0.58012000  1.0 0.8595312184
Cu  Cu3  1  0.09301000  0.58012000  0.58012000  1.0 0.8595312184
Cu  Cu4  1  0.41988000  0.41988000  0.90699000  1.0 0.8595312184
Cu  Cu5  1  0.90699000  0.41988000  0.41988000  1.0 0.8595312184
Cu  Cu6  1  0.41988000  0.90699000  0.41988000  1.0 0.8595312184
H  H1  1  0.38160000  0.54800000  0.79250000  1.0 0.1310173542
H  H2  1  0.54800000  0.79250000  0.38160000  1.0 0.1310173542
H  H3  1  0.79250000  0.38160000  0.54800000  1.0 0.1310173542
H  H4  1  0.45200000  0.61840000  0.20750000  1.0 0.1310173542
H  H5  1  0.20750000  0.45200000  0.61840000  1.0 0.1310173542
H  H6  1  0.61840000  0.20750000  0.45200000  1.0 0.1310173542
H  H7  1  0.61840000  0.45200000  0.20750000  1.0 0.1310173542
H  H8  1  0.45200000  0.20750000  0.61840000  1.0 0.1310173542
H  H9  1  0.20750000  0.61840000  0.45200000  1.0 0.1310173542
H  H10  1  0.54800000  0.38160000  0.79250000  1.0 0.1310173542
H  H11  1  0.79250000  0.54800000  0.38160000  1.0 0.1310173542
H  H12  1  0.38160000  0.79250000  0.54800000  1.0 0.1310173542
H  H13  1  0.37840000  0.64570000  0.77420000  1.0 0.1310173542
H  H14  1  0.64570000  0.77420000  0.37840000  1.0 0.1310173542
H  H15  1  0.77420000  0.37840000  0.64570000  1.0 0.1310173542
H  H16  1  0.35430000  0.62160000  0.22580000  1.0 0.1310173542
H  H17  1  0.22580000  0.35430000  0.62160000  1.0 0.1310173542
H  H18  1  0.62160000  0.22580000  0.35430000  1.0 0.1310173542
H  H19  1  0.62160000  0.35430000  0.22580000  1.0 0.1310173542
H  H20  1  0.35430000  0.22580000  0.62160000  1.0 0.1310173542
H  H21  1  0.22580000  0.62160000  0.35430000  1.0 0.1310173542
H  H22  1  0.64570000  0.37840000  0.77420000  1.0 0.1310173542
H  H23  1  0.77420000  0.64570000  0.37840000  1.0 0.1310173542
H  H24  1  0.37840000  0.77420000  0.64570000  1.0 0.1310173542
H  H25  1  0.61120000  0.87770000  0.05730000  1.0 0.1310173542
H  H26  1  0.87770000  0.05730000  0.61120000  1.0 0.1310173542
H  H27  1  0.05730000  0.61120000  0.87770000  1.0 0.1310173542
H  H28  1  0.12230000  0.38880000  0.94270000  1.0 0.1310173542
H  H29  1  0.94270000  0.12230000  0.38880000  1.0 0.1310173542
H  H30  1  0.38880000  0.94270000  0.12230000  1.0 0.1310173542
H  H31  1  0.38880000  0.12230000  0.94270000  1.0 0.1310173542
H  H32  1  0.12230000  0.94270000  0.38880000  1.0 0.1310173542
H  H33  1  0.94270000  0.38880000  0.12230000  1.0 0.1310173542
H  H34  1  0.87770000  0.61120000  0.05730000  1.0 0.1310173542
H  H35  1  0.05730000  0.87770000  0.61120000  1.0 0.1310173542
H  H36  1  0.61120000  0.05730000  0.87770000  1.0 0.1310173542
H  H37  1  0.61170000  0.78240000  0.08010000  1.0 0.1380142963
H  H38  1  0.78240000  0.08010000  0.61170000  1.0 0.1380142963
H  H39  1  0.08010000  0.61170000  0.78240000  1.0 0.1380142963
H  H40  1  0.21760000  0.38830000  0.91990000  1.0 0.1380142963
H  H41  1  0.91990000  0.21760000  0.38830000  1.0 0.1380142963
H  H42  1  0.38830000  0.91990000  0.21760000  1.0 0.1380142963
H  H43  1  0.38830000  0.21760000  0.91990000  1.0 0.1380142963
H  H44  1  0.21760000  0.91990000  0.38830000  1.0 0.1380142963
H  H45  1  0.91990000  0.38830000  0.21760000  1.0 0.1380142963
H  H46  1  0.78240000  0.61170000  0.08010000  1.0 0.1380142963
H  H47  1  0.08010000  0.78240000  0.61170000  1.0 0.1380142963
H  H48  1  0.61170000  0.08010000  0.78240000  1.0 0.1380142963
H  H49  1  0.49420000  0.89560000  0.00670000  1.0 0.1204011014
H  H50  1  0.89560000  0.00670000  0.49420000  1.0 0.1204011014
H  H51  1  0.00670000  0.49420000  0.89560000  1.0 0.1204011014
H  H52  1  0.10440000  0.50580000  0.99330000  1.0 0.1204011014
H  H53  1  0.99330000  0.10440000  0.50580000  1.0 0.1204011014
H  H54  1  0.50580000  0.99330000  0.10440000  1.0 0.1204011014
H  H55  1  0.50580000  0.10440000  0.99330000  1.0 0.1204011014
H  H56  1  0.10440000  0.99330000  0.50580000  1.0 0.1204011014
H  H57  1  0.99330000  0.50580000  0.10440000  1.0 0.1204011014
H  H58  1  0.89560000  0.49420000  0.00670000  1.0 0.1204011014
H  H59  1  0.00670000  0.89560000  0.49420000  1.0 0.1204011014
H  H60  1  0.49420000  0.00670000  0.89560000  1.0 0.1204011014
C  C1  1  0.49304000  0.59289000  0.95657000  1.0 0.5842981881
C  C2  1  0.59289000  0.95657000  0.49304000  1.0 0.5842981881
C  C3  1  0.95657000  0.49304000  0.59289000  1.0 0.5842981881
C  C4  1  0.40711000  0.50696000  0.04343000  1.0 0.5842981881
C  C5  1  0.04343000  0.40711000  0.50696000  1.0 0.5842981881
C  C6  1  0.50696000  0.04343000  0.40711000  1.0 0.5842981881
C  C7  1  0.50696000  0.40711000  0.04343000  1.0 0.5842981881
C  C8  1  0.40711000  0.04343000  0.50696000  1.0 0.5842981881
C  C9  1  0.04343000  0.50696000  0.40711000  1.0 0.5842981881
C  C10  1  0.59289000  0.49304000  0.95657000  1.0 0.5842981881
C  C11  1  0.95657000  0.59289000  0.49304000  1.0 0.5842981881
C  C12  1  0.49304000  0.95657000  0.59289000  1.0 0.5842981881
C  C13  1  0.49319000  0.65413000  0.94078000  1.0 -0.0278355682
C  C14  1  0.65413000  0.94078000  0.49319000  1.0 -0.0278355682
C  C15  1  0.94078000  0.49319000  0.65413000  1.0 -0.0278355682
C  C16  1  0.34587000  0.50681000  0.05922000  1.0 -0.0278355682
C  C17  1  0.05922000  0.34587000  0.50681000  1.0 -0.0278355682
C  C18  1  0.50681000  0.05922000  0.34587000  1.0 -0.0278355682
C  C19  1  0.50681000  0.34587000  0.05922000  1.0 -0.0278355682
C  C20  1  0.34587000  0.05922000  0.50681000  1.0 -0.0278355682
C  C21  1  0.05922000  0.50681000  0.34587000  1.0 -0.0278355682
C  C22  1  0.65413000  0.49319000  0.94078000  1.0 -0.0278355682
C  C23  1  0.94078000  0.65413000  0.49319000  1.0 -0.0278355682
C  C24  1  0.49319000  0.94078000  0.65413000  1.0 -0.0278355682
C  C25  1  0.42600000  0.61440000  0.84700000  1.0 -0.077091364
C  C26  1  0.61440000  0.84700000  0.42600000  1.0 -0.077091364
C  C27  1  0.84700000  0.42600000  0.61440000  1.0 -0.077091364
C  C28  1  0.38560000  0.57400000  0.15300000  1.0 -0.077091364
C  C29  1  0.15300000  0.38560000  0.57400000  1.0 -0.077091364
C  C30  1  0.57400000  0.15300000  0.38560000  1.0 -0.077091364
C  C31  1  0.57400000  0.38560000  0.15300000  1.0 -0.077091364
C  C32  1  0.38560000  0.15300000  0.57400000  1.0 -0.077091364
C  C33  1  0.15300000  0.57400000  0.38560000  1.0 -0.077091364
C  C34  1  0.61440000  0.42600000  0.84700000  1.0 -0.077091364
C  C35  1  0.84700000  0.61440000  0.42600000  1.0 -0.077091364
C  C36  1  0.42600000  0.84700000  0.61440000  1.0 -0.077091364
C  C37  1  0.42600000  0.67320000  0.83590000  1.0 -0.1151056791
C  C38  1  0.67320000  0.83590000  0.42600000  1.0 -0.1151056791
C  C39  1  0.83590000  0.42600000  0.67320000  1.0 -0.1151056791
C  C40  1  0.32680000  0.57400000  0.16410000  1.0 -0.1151056791
C  C41  1  0.16410000  0.32680000  0.57400000  1.0 -0.1151056791
C  C42  1  0.57400000  0.16410000  0.32680000  1.0 -0.1151056791
C  C43  1  0.57400000  0.32680000  0.16410000  1.0 -0.1151056791
C  C44  1  0.32680000  0.16410000  0.57400000  1.0 -0.1151056791
C  C45  1  0.16410000  0.57400000  0.32680000  1.0 -0.1151056791
C  C46  1  0.67320000  0.42600000  0.83590000  1.0 -0.1151056791
C  C47  1  0.83590000  0.67320000  0.42600000  1.0 -0.1151056791
C  C48  1  0.42600000  0.83590000  0.67320000  1.0 -0.1151056791
C  C49  1  0.49453000  0.77186000  0.91411000  1.0 0.0993370509
C  C50  1  0.77186000  0.91411000  0.49453000  1.0 0.0993370509
C  C51  1  0.91411000  0.49453000  0.77186000  1.0 0.0993370509
C  C52  1  0.22814000  0.50547000  0.08589000  1.0 0.0993370509
C  C53  1  0.08589000  0.22814000  0.50547000  1.0 0.0993370509
C  C54  1  0.50547000  0.08589000  0.22814000  1.0 0.0993370509
C  C55  1  0.50547000  0.22814000  0.08589000  1.0 0.0993370509
C  C56  1  0.22814000  0.08589000  0.50547000  1.0 0.0993370509
C  C57  1  0.08589000  0.50547000  0.22814000  1.0 0.0993370509
C  C58  1  0.77186000  0.49453000  0.91411000  1.0 0.0993370509
C  C59  1  0.91411000  0.77186000  0.49453000  1.0 0.0993370509
C  C60  1  0.49453000  0.91411000  0.77186000  1.0 0.0993370509
C  C61  1  0.56320000  0.81050000  0.00390000  1.0 -0.1272061632
C  C62  1  0.81050000  0.00390000  0.56320000  1.0 -0.1272061632
C  C63  1  0.00390000  0.56320000  0.81050000  1.0 -0.1272061632
C  C64  1  0.18950000  0.43680000  0.99610000  1.0 -0.1272061632
C  C65  1  0.99610000  0.18950000  0.43680000  1.0 -0.1272061632
C  C66  1  0.43680000  0.99610000  0.18950000  1.0 -0.1272061632
C  C67  1  0.43680000  0.18950000  0.99610000  1.0 -0.1272061632
C  C68  1  0.18950000  0.99610000  0.43680000  1.0 -0.1272061632
C  C69  1  0.99610000  0.43680000  0.18950000  1.0 -0.1272061632
C  C70  1  0.81050000  0.56320000  0.00390000  1.0 -0.1272061632
C  C71  1  0.00390000  0.81050000  0.56320000  1.0 -0.1272061632
C  C72  1  0.56320000  0.00390000  0.81050000  1.0 -0.1272061632
C  C73  1  0.56350000  0.75360000  0.01790000  1.0 -0.0734811119
C  C74  1  0.75360000  0.01790000  0.56350000  1.0 -0.0734811119
C  C75  1  0.01790000  0.56350000  0.75360000  1.0 -0.0734811119
C  C76  1  0.24640000  0.43650000  0.98210000  1.0 -0.0734811119
C  C77  1  0.98210000  0.24640000  0.43650000  1.0 -0.0734811119
C  C78  1  0.43650000  0.98210000  0.24640000  1.0 -0.0734811119
C  C79  1  0.43650000  0.24640000  0.98210000  1.0 -0.0734811119
C  C80  1  0.24640000  0.98210000  0.43650000  1.0 -0.0734811119
C  C81  1  0.98210000  0.43650000  0.24640000  1.0 -0.0734811119
C  C82  1  0.75360000  0.56350000  0.01790000  1.0 -0.0734811119
C  C83  1  0.01790000  0.75360000  0.56350000  1.0 -0.0734811119
C  C84  1  0.56350000  0.01790000  0.75360000  1.0 -0.0734811119
C  C85  1  0.49364000  0.83851000  0.90595000  1.0 -0.0021882949
C  C86  1  0.83851000  0.90595000  0.49364000  1.0 -0.0021882949
C  C87  1  0.90595000  0.49364000  0.83851000  1.0 -0.0021882949
C  C88  1  0.16149000  0.50636000  0.09405000  1.0 -0.0021882949
C  C89  1  0.09405000  0.16149000  0.50636000  1.0 -0.0021882949
C  C90  1  0.50636000  0.09405000  0.16149000  1.0 -0.0021882949
C  C91  1  0.50636000  0.16149000  0.09405000  1.0 -0.0021882949
C  C92  1  0.16149000  0.09405000  0.50636000  1.0 -0.0021882949
C  C93  1  0.09405000  0.50636000  0.16149000  1.0 -0.0021882949
C  C94  1  0.83851000  0.49364000  0.90595000  1.0 -0.0021882949
C  C95  1  0.90595000  0.83851000  0.49364000  1.0 -0.0021882949
C  C96  1  0.49364000  0.90595000  0.83851000  1.0 -0.0021882949
C  C97  1  0.49575000  0.89920000  0.96525000  1.0 -0.1703330481
C  C98  1  0.89920000  0.96525000  0.49575000  1.0 -0.1703330481
C  C99  1  0.96525000  0.49575000  0.89920000  1.0 -0.1703330481
C  C100  1  0.10080000  0.50425000  0.03475000  1.0 -0.1703330481
C  C101  1  0.03475000  0.10080000  0.50425000  1.0 -0.1703330481
C  C102  1  0.50425000  0.03475000  0.10080000  1.0 -0.1703330481
C  C103  1  0.50425000  0.10080000  0.03475000  1.0 -0.1703330481
C  C104  1  0.10080000  0.03475000  0.50425000  1.0 -0.1703330481
C  C105  1  0.03475000  0.50425000  0.10080000  1.0 -0.1703330481
C  C106  1  0.89920000  0.49575000  0.96525000  1.0 -0.1703330481
C  C107  1  0.96525000  0.89920000  0.49575000  1.0 -0.1703330481
C  C108  1  0.49575000  0.96525000  0.89920000  1.0 -0.1703330481
C  C109  1  0.50000000  0.96700000  0.96700000  1.0 0.0857477134
C  C110  1  0.96700000  0.96700000  0.50000000  1.0 0.0857477134
C  C111  1  0.96700000  0.50000000  0.96700000  1.0 0.0857477134
C  C112  1  0.03300000  0.50000000  0.03300000  1.0 0.0857477134
C  C113  1  0.03300000  0.03300000  0.50000000  1.0 0.0857477134
C  C114  1  0.50000000  0.03300000  0.03300000  1.0 0.0857477134
C  C115  1  0.48868000  0.83916000  0.83916000  1.0 0.1874902045
C  C116  1  0.83916000  0.83916000  0.48868000  1.0 0.1874902045
C  C117  1  0.83916000  0.48868000  0.83916000  1.0 0.1874902045
C  C118  1  0.16084000  0.51132000  0.16084000  1.0 0.1874902045
C  C119  1  0.16084000  0.16084000  0.51132000  1.0 0.1874902045
C  C120  1  0.51132000  0.16084000  0.16084000  1.0 0.1874902045
C  C121  1  0.56510000  0.79330000  0.79330000  1.0 0.3867465204
C  C122  1  0.79330000  0.79330000  0.56510000  1.0 0.3867465204
C  C123  1  0.79330000  0.56510000  0.79330000  1.0 0.3867465204
C  C124  1  0.20670000  0.43490000  0.20670000  1.0 0.3867465204
C  C125  1  0.20670000  0.20670000  0.43490000  1.0 0.3867465204
C  C126  1  0.43490000  0.20670000  0.20670000  1.0 0.3867465204
C  C127  1  0.54040000  0.71280000  0.71280000  1.0 -0.273352981
C  C128  1  0.71280000  0.71280000  0.54040000  1.0 -0.273352981
C  C129  1  0.71280000  0.54040000  0.71280000  1.0 -0.273352981
C  C130  1  0.28720000  0.45960000  0.28720000  1.0 -0.273352981
C  C131  1  0.28720000  0.28720000  0.45960000  1.0 -0.273352981
C  C132  1  0.45960000  0.28720000  0.28720000  1.0 -0.273352981
C  C133  1  0.66780000  0.88220000  0.88220000  1.0 -0.4241809303
C  C134  1  0.88220000  0.88220000  0.66780000  1.0 -0.4241809303
C  C135  1  0.88220000  0.66780000  0.88220000  1.0 -0.4241809303
C  C136  1  0.11780000  0.33220000  0.11780000  1.0 -0.4253740464
C  C137  1  0.11780000  0.11780000  0.33220000  1.0 -0.4253740464
C  C138  1  0.33220000  0.11780000  0.11780000  1.0 -0.4253740464
O  O1  1  0.56050000  0.63823000  0.04537000  1.0 -0.5336987083
O  O2  1  0.63823000  0.04537000  0.56050000  1.0 -0.5336987083
O  O3  1  0.04537000  0.56050000  0.63823000  1.0 -0.5336987083
O  O4  1  0.36177000  0.43950000  0.95463000  1.0 -0.5336987083
O  O5  1  0.95463000  0.36177000  0.43950000  1.0 -0.5336987083
O  O6  1  0.43950000  0.95463000  0.36177000  1.0 -0.5336987083
O  O7  1  0.43950000  0.36177000  0.95463000  1.0 -0.5336987083
O  O8  1  0.36177000  0.95463000  0.43950000  1.0 -0.5336987083
O  O9  1  0.95463000  0.43950000  0.36177000  1.0 -0.5336987083
O  O10  1  0.63823000  0.56050000  0.04537000  1.0 -0.5336987083
O  O11  1  0.04537000  0.63823000  0.56050000  1.0 -0.5336987083
O  O12  1  0.56050000  0.04537000  0.63823000  1.0 -0.5336987083
O  O13  1  0.42491000  0.50239000  0.88630000  1.0 -0.4903032237
O  O14  1  0.50239000  0.88630000  0.42491000  1.0 -0.4903032237
O  O15  1  0.88630000  0.42491000  0.50239000  1.0 -0.4903032237
O  O16  1  0.49761000  0.57509000  0.11370000  1.0 -0.4903032237
O  O17  1  0.11370000  0.49761000  0.57509000  1.0 -0.4903032237
O  O18  1  0.57509000  0.11370000  0.49761000  1.0 -0.4903032237
O  O19  1  0.57509000  0.49761000  0.11370000  1.0 -0.4903032237
O  O20  1  0.49761000  0.11370000  0.57509000  1.0 -0.4903032237
O  O21  1  0.11370000  0.57509000  0.49761000  1.0 -0.4903032237
O  O22  1  0.50239000  0.42491000  0.88630000  1.0 -0.4903032237
O  O23  1  0.88630000  0.50239000  0.42491000  1.0 -0.4903032237
O  O24  1  0.42491000  0.88630000  0.50239000  1.0 -0.4903032237
O  O25  1  0.48760000  0.77775000  0.77775000  1.0 -0.2571042632
O  O26  1  0.77775000  0.77775000  0.48760000  1.0 -0.2571042632
O  O27  1  0.77775000  0.48760000  0.77775000  1.0 -0.2571042632
O  O28  1  0.22225000  0.51240000  0.22225000  1.0 -0.2571042632
O  O29  1  0.22225000  0.22225000  0.51240000  1.0 -0.2571042632
O  O30  1  0.51240000  0.22225000  0.22225000  1.0 -0.2571042632
