# DDEC6 charges by PACMAN v1.1 (https://github.com/mtap-research/PACMAN-charge/)
data_UMOYOM13_ASR_pacman
_symmetry_space_group_name_H-M   'P 1'
_cell_length_a   21.42340000
_cell_length_b   21.42340000
_cell_length_c   21.42340000
_cell_angle_alpha   112.24900000
_cell_angle_beta   112.24900000
_cell_angle_gamma   112.24900000
_symmetry_Int_Tables_number   1
_chemical_formula_structural   CuH10(C5O)5
_chemical_formula_sum   'Cu6 H60 C150 O30'
_cell_volume   6678.51578792
_cell_formula_units_Z   6
loop_
 _symmetry_equiv_pos_site_id
 _symmetry_equiv_pos_as_xyz
  1  'x, y, z'
loop_
 _atom_site_type_symbol
 _atom_site_label
 _atom_site_symmetry_multiplicity
 _atom_site_fract_x
 _atom_site_fract_y
 _atom_site_fract_z
 _atom_site_occupancy
 _atom_site_charge
Cu  Cu1  1  0.41844000  0.93806000  0.93806000  1.0 0.8526331588
Cu  Cu2  1  0.93806000  0.93806000  0.41844000  1.0 0.8526331588
Cu  Cu3  1  0.93806000  0.41844000  0.93806000  1.0 0.8526331588
Cu  Cu4  1  0.06194000  0.58156000  0.06194000  1.0 0.8526331588
Cu  Cu5  1  0.06194000  0.06194000  0.58156000  1.0 0.8526331588
Cu  Cu6  1  0.58156000  0.06194000  0.06194000  1.0 0.8526331588
H  H1  1  0.33060000  0.91720000  0.08660000  1.0 0.1298682194
H  H2  1  0.91720000  0.08660000  0.33060000  1.0 0.1298682194
H  H3  1  0.08660000  0.33060000  0.91720000  1.0 0.1298682194
H  H4  1  0.08280000  0.66940000  0.91340000  1.0 0.1298682194
H  H5  1  0.91340000  0.08280000  0.66940000  1.0 0.1298682194
H  H6  1  0.66940000  0.91340000  0.08280000  1.0 0.1298682194
H  H7  1  0.66940000  0.08280000  0.91340000  1.0 0.1298682194
H  H8  1  0.08280000  0.91340000  0.66940000  1.0 0.1298682194
H  H9  1  0.91340000  0.66940000  0.08280000  1.0 0.1298682194
H  H10  1  0.91720000  0.33060000  0.08660000  1.0 0.1298682194
H  H11  1  0.08660000  0.91720000  0.33060000  1.0 0.1298682194
H  H12  1  0.33060000  0.08660000  0.91720000  1.0 0.1298682194
H  H13  1  0.31050000  0.92630000  0.18940000  1.0 0.1298682194
H  H14  1  0.92630000  0.18940000  0.31050000  1.0 0.1298682194
H  H15  1  0.18940000  0.31050000  0.92630000  1.0 0.1298682194
H  H16  1  0.07370000  0.68950000  0.81060000  1.0 0.1298682194
H  H17  1  0.81060000  0.07370000  0.68950000  1.0 0.1298682194
H  H18  1  0.68950000  0.81060000  0.07370000  1.0 0.1298682194
H  H19  1  0.68950000  0.07370000  0.81060000  1.0 0.1298682194
H  H20  1  0.07370000  0.81060000  0.68950000  1.0 0.1298682194
H  H21  1  0.81060000  0.68950000  0.07370000  1.0 0.1298682194
H  H22  1  0.92630000  0.31050000  0.18940000  1.0 0.1298682194
H  H23  1  0.18940000  0.92630000  0.31050000  1.0 0.1298682194
H  H24  1  0.31050000  0.18940000  0.92630000  1.0 0.1298682194
H  H25  1  0.56100000  0.10900000  0.37390000  1.0 0.116366533
H  H26  1  0.10900000  0.37390000  0.56100000  1.0 0.116366533
H  H27  1  0.37390000  0.56100000  0.10900000  1.0 0.116366533
H  H28  1  0.89100000  0.43900000  0.62610000  1.0 0.116366533
H  H29  1  0.62610000  0.89100000  0.43900000  1.0 0.116366533
H  H30  1  0.43900000  0.62610000  0.89100000  1.0 0.116366533
H  H31  1  0.43900000  0.89100000  0.62610000  1.0 0.116366533
H  H32  1  0.89100000  0.62610000  0.43900000  1.0 0.116366533
H  H33  1  0.62610000  0.43900000  0.89100000  1.0 0.116366533
H  H34  1  0.10900000  0.56100000  0.37390000  1.0 0.116366533
H  H35  1  0.37390000  0.10900000  0.56100000  1.0 0.116366533
H  H36  1  0.56100000  0.37390000  0.10900000  1.0 0.116366533
H  H37  1  0.57960000  0.10350000  0.27170000  1.0 0.1298682194
H  H38  1  0.10350000  0.27170000  0.57960000  1.0 0.1298682194
H  H39  1  0.27170000  0.57960000  0.10350000  1.0 0.1298682194
H  H40  1  0.89650000  0.42040000  0.72830000  1.0 0.1298682194
H  H41  1  0.72830000  0.89650000  0.42040000  1.0 0.1298682194
H  H42  1  0.42040000  0.72830000  0.89650000  1.0 0.1298682194
H  H43  1  0.42040000  0.89650000  0.72830000  1.0 0.1298682194
H  H44  1  0.89650000  0.72830000  0.42040000  1.0 0.1298682194
H  H45  1  0.72830000  0.42040000  0.89650000  1.0 0.1298682194
H  H46  1  0.10350000  0.57960000  0.27170000  1.0 0.1298682194
H  H47  1  0.27170000  0.10350000  0.57960000  1.0 0.1298682194
H  H48  1  0.57960000  0.27170000  0.10350000  1.0 0.1298682194
H  H49  1  0.51760000  0.00560000  0.40490000  1.0 0.116366533
H  H50  1  0.00560000  0.40490000  0.51760000  1.0 0.116366533
H  H51  1  0.40490000  0.51760000  0.00560000  1.0 0.1144094646
H  H52  1  0.99440000  0.48240000  0.59510000  1.0 0.116366533
H  H53  1  0.59510000  0.99440000  0.48240000  1.0 0.116366533
H  H54  1  0.48240000  0.59510000  0.99440000  1.0 0.116366533
H  H55  1  0.48240000  0.99440000  0.59510000  1.0 0.116366533
H  H56  1  0.99440000  0.59510000  0.48240000  1.0 0.116366533
H  H57  1  0.59510000  0.48240000  0.99440000  1.0 0.116366533
H  H58  1  0.00560000  0.51760000  0.40490000  1.0 0.116366533
H  H59  1  0.40490000  0.00560000  0.51760000  1.0 0.116366533
H  H60  1  0.51760000  0.40490000  0.00560000  1.0 0.1144094646
C  C1  1  0.47152000  0.00493000  0.10485000  1.0 0.5801198686
C  C2  1  0.00493000  0.10485000  0.47152000  1.0 0.5801198686
C  C3  1  0.10485000  0.47152000  0.00493000  1.0 0.5801198686
C  C4  1  0.99507000  0.52848000  0.89515000  1.0 0.5801198686
C  C5  1  0.89515000  0.99507000  0.52848000  1.0 0.5801198686
C  C6  1  0.52848000  0.89515000  0.99507000  1.0 0.5801198686
C  C7  1  0.52848000  0.99507000  0.89515000  1.0 0.5801198686
C  C8  1  0.99507000  0.89515000  0.52848000  1.0 0.5801198686
C  C9  1  0.89515000  0.52848000  0.99507000  1.0 0.5801198686
C  C10  1  0.00493000  0.47152000  0.10485000  1.0 0.5801198686
C  C11  1  0.10485000  0.00493000  0.47152000  1.0 0.5801198686
C  C12  1  0.47152000  0.10485000  0.00493000  1.0 0.5801198686
C  C13  1  0.45806000  0.01060000  0.17006000  1.0 -0.022318892
C  C14  1  0.01060000  0.17006000  0.45806000  1.0 -0.022318892
C  C15  1  0.17006000  0.45806000  0.01060000  1.0 -0.022318892
C  C16  1  0.98940000  0.54194000  0.82994000  1.0 -0.022318892
C  C17  1  0.82994000  0.98940000  0.54194000  1.0 -0.022318892
C  C18  1  0.54194000  0.82994000  0.98940000  1.0 -0.022318892
C  C19  1  0.54194000  0.98940000  0.82994000  1.0 -0.022318892
C  C20  1  0.98940000  0.82994000  0.54194000  1.0 -0.022318892
C  C21  1  0.82994000  0.54194000  0.98940000  1.0 -0.022318892
C  C22  1  0.01060000  0.45806000  0.17006000  1.0 -0.022318892
C  C23  1  0.17006000  0.01060000  0.45806000  1.0 -0.022318892
C  C24  1  0.45806000  0.17006000  0.01060000  1.0 -0.022318892
C  C25  1  0.37794000  0.95705000  0.14521000  1.0 -0.0827421168
C  C26  1  0.95705000  0.14521000  0.37794000  1.0 -0.0827421168
C  C27  1  0.14521000  0.37794000  0.95705000  1.0 -0.0827421168
C  C28  1  0.04295000  0.62206000  0.85479000  1.0 -0.0827421168
C  C29  1  0.85479000  0.04295000  0.62206000  1.0 -0.0827421168
C  C30  1  0.62206000  0.85479000  0.04295000  1.0 -0.0827421168
C  C31  1  0.62206000  0.04295000  0.85479000  1.0 -0.0827421168
C  C32  1  0.04295000  0.85479000  0.62206000  1.0 -0.0827421168
C  C33  1  0.85479000  0.62206000  0.04295000  1.0 -0.0827421168
C  C34  1  0.95705000  0.37794000  0.14521000  1.0 -0.0827421168
C  C35  1  0.14521000  0.95705000  0.37794000  1.0 -0.0827421168
C  C36  1  0.37794000  0.14521000  0.95705000  1.0 -0.0827421168
C  C37  1  0.36625000  0.96143000  0.20682000  1.0 -0.1312633984
C  C38  1  0.96143000  0.20682000  0.36625000  1.0 -0.1312633984
C  C39  1  0.20682000  0.36625000  0.96143000  1.0 -0.1312633984
C  C40  1  0.03857000  0.63375000  0.79318000  1.0 -0.1312633984
C  C41  1  0.79318000  0.03857000  0.63375000  1.0 -0.1312633984
C  C42  1  0.63375000  0.79318000  0.03857000  1.0 -0.1312633984
C  C43  1  0.63375000  0.03857000  0.79318000  1.0 -0.1312633984
C  C44  1  0.03857000  0.79318000  0.63375000  1.0 -0.1312633984
C  C45  1  0.79318000  0.63375000  0.03857000  1.0 -0.1312633984
C  C46  1  0.96143000  0.36625000  0.20682000  1.0 -0.1312633984
C  C47  1  0.20682000  0.96143000  0.36625000  1.0 -0.1312633984
C  C48  1  0.36625000  0.20682000  0.96143000  1.0 -0.1312633984
C  C49  1  0.43270000  0.01437000  0.28963000  1.0 0.1026770912
C  C50  1  0.01437000  0.28963000  0.43270000  1.0 0.1026770912
C  C51  1  0.28963000  0.43270000  0.01437000  1.0 0.1026770912
C  C52  1  0.98563000  0.56730000  0.71037000  1.0 0.1026770912
C  C53  1  0.71037000  0.98563000  0.56730000  1.0 0.1026770912
C  C54  1  0.56730000  0.71037000  0.98563000  1.0 0.1026770912
C  C55  1  0.56730000  0.98563000  0.71037000  1.0 0.1026770912
C  C56  1  0.98563000  0.71037000  0.56730000  1.0 0.1026770912
C  C57  1  0.71037000  0.56730000  0.98563000  1.0 0.1026770912
C  C58  1  0.01437000  0.43270000  0.28963000  1.0 0.1026770912
C  C59  1  0.28963000  0.01437000  0.43270000  1.0 0.1026770912
C  C60  1  0.43270000  0.28963000  0.01437000  1.0 0.1026770912
C  C61  1  0.51353000  0.06938000  0.31519000  1.0 -0.1431664434
C  C62  1  0.06938000  0.31519000  0.51353000  1.0 -0.1431664434
C  C63  1  0.31519000  0.51353000  0.06938000  1.0 -0.1431664434
C  C64  1  0.93062000  0.48647000  0.68481000  1.0 -0.1431664434
C  C65  1  0.68481000  0.93062000  0.48647000  1.0 -0.1431664434
C  C66  1  0.48647000  0.68481000  0.93062000  1.0 -0.1431664434
C  C67  1  0.48647000  0.93062000  0.68481000  1.0 -0.1431664434
C  C68  1  0.93062000  0.68481000  0.48647000  1.0 -0.1431664434
C  C69  1  0.68481000  0.48647000  0.93062000  1.0 -0.1431664434
C  C70  1  0.06938000  0.51353000  0.31519000  1.0 -0.1431664434
C  C71  1  0.31519000  0.06938000  0.51353000  1.0 -0.1431664434
C  C72  1  0.51353000  0.31519000  0.06938000  1.0 -0.1431664434
C  C73  1  0.52420000  0.06593000  0.25397000  1.0 -0.0827421168
C  C74  1  0.06593000  0.25397000  0.52420000  1.0 -0.0827421168
C  C75  1  0.25397000  0.52420000  0.06593000  1.0 -0.0827421168
C  C76  1  0.93407000  0.47580000  0.74603000  1.0 -0.0827421168
C  C77  1  0.74603000  0.93407000  0.47580000  1.0 -0.0827421168
C  C78  1  0.47580000  0.74603000  0.93407000  1.0 -0.0827421168
C  C79  1  0.47580000  0.93407000  0.74603000  1.0 -0.0827421168
C  C80  1  0.93407000  0.74603000  0.47580000  1.0 -0.0827421168
C  C81  1  0.74603000  0.47580000  0.93407000  1.0 -0.0827421168
C  C82  1  0.06593000  0.52420000  0.25397000  1.0 -0.0827421168
C  C83  1  0.25397000  0.06593000  0.52420000  1.0 -0.0827421168
C  C84  1  0.52420000  0.25397000  0.06593000  1.0 -0.0827421168
C  C85  1  0.42289000  0.01315000  0.35496000  1.0 0.0003562112
C  C86  1  0.01315000  0.35496000  0.42289000  1.0 0.0003562112
C  C87  1  0.35496000  0.42289000  0.01315000  1.0 0.0003562112
C  C88  1  0.98685000  0.57711000  0.64504000  1.0 0.0003562112
C  C89  1  0.64504000  0.98685000  0.57711000  1.0 0.0003562112
C  C90  1  0.57711000  0.64504000  0.98685000  1.0 0.0003562112
C  C91  1  0.57711000  0.98685000  0.64504000  1.0 0.0003562112
C  C92  1  0.98685000  0.64504000  0.57711000  1.0 0.0003562112
C  C93  1  0.64504000  0.57711000  0.98685000  1.0 0.0003562112
C  C94  1  0.01315000  0.42289000  0.35496000  1.0 0.0003562112
C  C95  1  0.35496000  0.01315000  0.42289000  1.0 0.0003562112
C  C96  1  0.42289000  0.35496000  0.01315000  1.0 0.0003562112
C  C97  1  0.47611000  0.00774000  0.40975000  1.0 -0.183637246
C  C98  1  0.00774000  0.40975000  0.47611000  1.0 -0.183637246
C  C99  1  0.40975000  0.47611000  0.00774000  1.0 -0.183637246
C  C100  1  0.99226000  0.52389000  0.59025000  1.0 -0.183637246
C  C101  1  0.59025000  0.99226000  0.52389000  1.0 -0.183637246
C  C102  1  0.52389000  0.59025000  0.99226000  1.0 -0.183637246
C  C103  1  0.52389000  0.99226000  0.59025000  1.0 -0.183637246
C  C104  1  0.99226000  0.59025000  0.52389000  1.0 -0.183637246
C  C105  1  0.59025000  0.52389000  0.99226000  1.0 -0.183637246
C  C106  1  0.00774000  0.47611000  0.40975000  1.0 -0.183637246
C  C107  1  0.40975000  0.00774000  0.47611000  1.0 -0.183637246
C  C108  1  0.47611000  0.40975000  0.00774000  1.0 -0.183637246
C  C109  1  0.47212000  0.00546000  0.47212000  1.0 0.0828307636
C  C110  1  0.00546000  0.47212000  0.47212000  1.0 0.0828307636
C  C111  1  0.47212000  0.47212000  0.00546000  1.0 0.0828307636
C  C112  1  0.99454000  0.52788000  0.52788000  1.0 0.0828307636
C  C113  1  0.52788000  0.99454000  0.52788000  1.0 0.0828307636
C  C114  1  0.52788000  0.52788000  0.99454000  1.0 0.0828307636
C  C115  1  0.36190000  0.01680000  0.36190000  1.0 0.1957706615
C  C116  1  0.01680000  0.36190000  0.36190000  1.0 0.1946117759
C  C117  1  0.36190000  0.36190000  0.01680000  1.0 0.1957706615
C  C118  1  0.98320000  0.63810000  0.63810000  1.0 0.1946117759
C  C119  1  0.63810000  0.98320000  0.63810000  1.0 0.1946117759
C  C120  1  0.63810000  0.63810000  0.98320000  1.0 0.1946117759
C  C121  1  0.32965000  0.10110000  0.32965000  1.0 0.1805946112
C  C122  1  0.10110000  0.32965000  0.32965000  1.0 0.1805946112
C  C123  1  0.32965000  0.32965000  0.10110000  1.0 0.1805946112
C  C124  1  0.89890000  0.67035000  0.67035000  1.0 0.1805946112
C  C125  1  0.67035000  0.89890000  0.67035000  1.0 0.1805946112
C  C126  1  0.67035000  0.67035000  0.89890000  1.0 0.1805946112
C  C127  1  0.24410000  0.08870000  0.28270000  1.0 0.0113960042
C  C128  1  0.08870000  0.28270000  0.24410000  1.0 0.0113960042
C  C129  1  0.28270000  0.24410000  0.08870000  1.0 0.0158547249
C  C130  1  0.91130000  0.75590000  0.71730000  1.0 0.0113960042
C  C131  1  0.71730000  0.91130000  0.75590000  1.0 0.0113960042
C  C132  1  0.75590000  0.71730000  0.91130000  1.0 0.0113960042
C  C133  1  0.75590000  0.91130000  0.71730000  1.0 0.0113960042
C  C134  1  0.91130000  0.71730000  0.75590000  1.0 0.0113960042
C  C135  1  0.71730000  0.75590000  0.91130000  1.0 0.0113960042
C  C136  1  0.08870000  0.24410000  0.28270000  1.0 0.0113960042
C  C137  1  0.28270000  0.08870000  0.24410000  1.0 0.0113960042
C  C138  1  0.24410000  0.28270000  0.08870000  1.0 0.0158547249
C  C139  1  0.39780000  0.16120000  0.36130000  1.0 -0.1607968986
C  C140  1  0.16120000  0.36130000  0.39780000  1.0 -0.1607968986
C  C141  1  0.36130000  0.39780000  0.16120000  1.0 -0.1695432037
C  C142  1  0.83880000  0.60220000  0.63870000  1.0 -0.1607968986
C  C143  1  0.63870000  0.83880000  0.60220000  1.0 -0.1607968986
C  C144  1  0.60220000  0.63870000  0.83880000  1.0 -0.1607968986
C  C145  1  0.60220000  0.83880000  0.63870000  1.0 -0.1607968986
C  C146  1  0.83880000  0.63870000  0.60220000  1.0 -0.1607968986
C  C147  1  0.63870000  0.60220000  0.83880000  1.0 -0.1607968986
C  C148  1  0.16120000  0.39780000  0.36130000  1.0 -0.1607968986
C  C149  1  0.36130000  0.16120000  0.39780000  1.0 -0.1607968986
C  C150  1  0.39780000  0.36130000  0.16120000  1.0 -0.1695432037
O  O1  1  0.54806000  0.05742000  0.13440000  1.0 -0.5270325437
O  O2  1  0.05742000  0.13440000  0.54806000  1.0 -0.5270325437
O  O3  1  0.13440000  0.54806000  0.05742000  1.0 -0.5270325437
O  O4  1  0.94258000  0.45194000  0.86560000  1.0 -0.5270325437
O  O5  1  0.86560000  0.94258000  0.45194000  1.0 -0.5270325437
O  O6  1  0.45194000  0.86560000  0.94258000  1.0 -0.5270325437
O  O7  1  0.45194000  0.94258000  0.86560000  1.0 -0.5270325437
O  O8  1  0.94258000  0.86560000  0.45194000  1.0 -0.5270325437
O  O9  1  0.86560000  0.45194000  0.94258000  1.0 -0.5270325437
O  O10  1  0.05742000  0.54806000  0.13440000  1.0 -0.5270325437
O  O11  1  0.13440000  0.05742000  0.54806000  1.0 -0.5270325437
O  O12  1  0.54806000  0.13440000  0.05742000  1.0 -0.5270325437
O  O13  1  0.40880000  0.95171000  0.02906000  1.0 -0.4958563262
O  O14  1  0.95171000  0.02906000  0.40880000  1.0 -0.4958563262
O  O15  1  0.02906000  0.40880000  0.95171000  1.0 -0.4958563262
O  O16  1  0.04829000  0.59120000  0.97094000  1.0 -0.4958563262
O  O17  1  0.97094000  0.04829000  0.59120000  1.0 -0.4958563262
O  O18  1  0.59120000  0.97094000  0.04829000  1.0 -0.4958563262
O  O19  1  0.59120000  0.04829000  0.97094000  1.0 -0.4942752317
O  O20  1  0.04829000  0.97094000  0.59120000  1.0 -0.4958563262
O  O21  1  0.97094000  0.59120000  0.04829000  1.0 -0.4958563262
O  O22  1  0.95171000  0.40880000  0.02906000  1.0 -0.4958563262
O  O23  1  0.02906000  0.95171000  0.40880000  1.0 -0.4958563262
O  O24  1  0.40880000  0.02906000  0.95171000  1.0 -0.4958563262
O  O25  1  0.30698000  0.02134000  0.30698000  1.0 -0.2836426928
O  O26  1  0.02134000  0.30698000  0.30698000  1.0 -0.2836426928
O  O27  1  0.30698000  0.30698000  0.02134000  1.0 -0.2836426928
O  O28  1  0.97866000  0.69302000  0.69302000  1.0 -0.2836426928
O  O29  1  0.69302000  0.97866000  0.69302000  1.0 -0.2851889625
O  O30  1  0.69302000  0.69302000  0.97866000  1.0 -0.2836426928
