# DDEC6 charges by PACMAN v1.1 (https://github.com/mtap-research/PACMAN-charge/)
data_UMOYOM10_ASR_pacman
_symmetry_space_group_name_H-M   'P 1'
_cell_length_a   21.56700000
_cell_length_b   21.56700000
_cell_length_c   21.56700000
_cell_angle_alpha   109.32900000
_cell_angle_beta   109.32900000
_cell_angle_gamma   109.32900000
_symmetry_Int_Tables_number   1
_chemical_formula_structural   CuH10(C5O)5
_chemical_formula_sum   'Cu6 H60 C150 O30'
_cell_volume   7762.70782456
_cell_formula_units_Z   6
loop_
 _symmetry_equiv_pos_site_id
 _symmetry_equiv_pos_as_xyz
  1  'x, y, z'
loop_
 _atom_site_type_symbol
 _atom_site_label
 _atom_site_symmetry_multiplicity
 _atom_site_fract_x
 _atom_site_fract_y
 _atom_site_fract_z
 _atom_site_occupancy
 _atom_site_charge
Cu  Cu1  1  0.55005000  0.07233000  0.55005000  1.0 0.8667162019
Cu  Cu2  1  0.07233000  0.55005000  0.55005000  1.0 0.8667162019
Cu  Cu3  1  0.55005000  0.55005000  0.07233000  1.0 0.8667162019
Cu  Cu4  1  0.92767000  0.44995000  0.44995000  1.0 0.8667162019
Cu  Cu5  1  0.44995000  0.92767000  0.44995000  1.0 0.8667162019
Cu  Cu6  1  0.44995000  0.44995000  0.92767000  1.0 0.8667162019
H  H1  1  0.42560000  0.84600000  0.60380000  1.0 0.1291056611
H  H2  1  0.84600000  0.60380000  0.42560000  1.0 0.1291056611
H  H3  1  0.60380000  0.42560000  0.84600000  1.0 0.1291056611
H  H4  1  0.15400000  0.57440000  0.39620000  1.0 0.1291056611
H  H5  1  0.39620000  0.15400000  0.57440000  1.0 0.1291056611
H  H6  1  0.57440000  0.39620000  0.15400000  1.0 0.1291056611
H  H7  1  0.57440000  0.15400000  0.39620000  1.0 0.1291056611
H  H8  1  0.15400000  0.39620000  0.57440000  1.0 0.1291056611
H  H9  1  0.39620000  0.57440000  0.15400000  1.0 0.1291056611
H  H10  1  0.84600000  0.42560000  0.60380000  1.0 0.1291056611
H  H11  1  0.60380000  0.84600000  0.42560000  1.0 0.1291056611
H  H12  1  0.42560000  0.60380000  0.84600000  1.0 0.1291056611
H  H13  1  0.42830000  0.82510000  0.70360000  1.0 0.1291056611
H  H14  1  0.82510000  0.70360000  0.42830000  1.0 0.1291056611
H  H15  1  0.70360000  0.42830000  0.82510000  1.0 0.1291056611
H  H16  1  0.17490000  0.57170000  0.29640000  1.0 0.1291056611
H  H17  1  0.29640000  0.17490000  0.57170000  1.0 0.1291056611
H  H18  1  0.57170000  0.29640000  0.17490000  1.0 0.1291056611
H  H19  1  0.57170000  0.17490000  0.29640000  1.0 0.1291056611
H  H20  1  0.17490000  0.29640000  0.57170000  1.0 0.1291056611
H  H21  1  0.29640000  0.57170000  0.17490000  1.0 0.1291056611
H  H22  1  0.82510000  0.42830000  0.70360000  1.0 0.1291056611
H  H23  1  0.70360000  0.82510000  0.42830000  1.0 0.1291056611
H  H24  1  0.42830000  0.70360000  0.82510000  1.0 0.1291056611
H  H25  1  0.58400000  0.04440000  0.85360000  1.0 0.1155428634
H  H26  1  0.04440000  0.85360000  0.58400000  1.0 0.1155428634
H  H27  1  0.85360000  0.58400000  0.04440000  1.0 0.1155428634
H  H28  1  0.95560000  0.41600000  0.14640000  1.0 0.1155428634
H  H29  1  0.14640000  0.95560000  0.41600000  1.0 0.1155428634
H  H30  1  0.41600000  0.14640000  0.95560000  1.0 0.1155428634
H  H31  1  0.41600000  0.95560000  0.14640000  1.0 0.1155428634
H  H32  1  0.95560000  0.14640000  0.41600000  1.0 0.1155428634
H  H33  1  0.14640000  0.41600000  0.95560000  1.0 0.1155428634
H  H34  1  0.04440000  0.58400000  0.85360000  1.0 0.1155428634
H  H35  1  0.85360000  0.04440000  0.58400000  1.0 0.1155428634
H  H36  1  0.58400000  0.85360000  0.04440000  1.0 0.1155428634
H  H37  1  0.58390000  0.06530000  0.75330000  1.0 0.1291056611
H  H38  1  0.06530000  0.75330000  0.58390000  1.0 0.1291056611
H  H39  1  0.75330000  0.58390000  0.06530000  1.0 0.1291056611
H  H40  1  0.93470000  0.41610000  0.24670000  1.0 0.1291056611
H  H41  1  0.24670000  0.93470000  0.41610000  1.0 0.1291056611
H  H42  1  0.41610000  0.24670000  0.93470000  1.0 0.1291056611
H  H43  1  0.41610000  0.93470000  0.24670000  1.0 0.1291056611
H  H44  1  0.93470000  0.24670000  0.41610000  1.0 0.1291056611
H  H45  1  0.24670000  0.41610000  0.93470000  1.0 0.1291056611
H  H46  1  0.06530000  0.58390000  0.75330000  1.0 0.1291056611
H  H47  1  0.75330000  0.06530000  0.58390000  1.0 0.1291056611
H  H48  1  0.58390000  0.75330000  0.06530000  1.0 0.1291056611
H  H49  1  0.50030000  0.01580000  0.90200000  1.0 0.1155428634
H  H50  1  0.01580000  0.90200000  0.50030000  1.0 0.1155428634
H  H51  1  0.90200000  0.50030000  0.01580000  1.0 0.1155428634
H  H52  1  0.98420000  0.49970000  0.09800000  1.0 0.1155428634
H  H53  1  0.09800000  0.98420000  0.49970000  1.0 0.1155428634
H  H54  1  0.49970000  0.09800000  0.98420000  1.0 0.1155428634
H  H55  1  0.49970000  0.98420000  0.09800000  1.0 0.1155428634
H  H56  1  0.98420000  0.09800000  0.49970000  1.0 0.1155428634
H  H57  1  0.09800000  0.49970000  0.98420000  1.0 0.1155428634
H  H58  1  0.01580000  0.50030000  0.90200000  1.0 0.1155428634
H  H59  1  0.90200000  0.01580000  0.50030000  1.0 0.1155428634
H  H60  1  0.50030000  0.90200000  0.01580000  1.0 0.1155428634
C  C1  1  0.50395000  0.97267000  0.60563000  1.0 0.5840384522
C  C2  1  0.97267000  0.60563000  0.50395000  1.0 0.5840384522
C  C3  1  0.60563000  0.50395000  0.97267000  1.0 0.5840384522
C  C4  1  0.02733000  0.49605000  0.39437000  1.0 0.5840384522
C  C5  1  0.39437000  0.02733000  0.49605000  1.0 0.5840384522
C  C6  1  0.49605000  0.39437000  0.02733000  1.0 0.5840384522
C  C7  1  0.49605000  0.02733000  0.39437000  1.0 0.5840384522
C  C8  1  0.02733000  0.39437000  0.49605000  1.0 0.5840384522
C  C9  1  0.39437000  0.49605000  0.02733000  1.0 0.5840384522
C  C10  1  0.97267000  0.50395000  0.60563000  1.0 0.5840384522
C  C11  1  0.60563000  0.97267000  0.50395000  1.0 0.5840384522
C  C12  1  0.50395000  0.60563000  0.97267000  1.0 0.5840384522
C  C13  1  0.50628000  0.95881000  0.67008000  1.0 -0.0244428242
C  C14  1  0.95881000  0.67008000  0.50628000  1.0 -0.025982609
C  C15  1  0.67008000  0.50628000  0.95881000  1.0 -0.0244428242
C  C16  1  0.04119000  0.49372000  0.32992000  1.0 -0.025982609
C  C17  1  0.32992000  0.04119000  0.49372000  1.0 -0.025982609
C  C18  1  0.49372000  0.32992000  0.04119000  1.0 -0.025982609
C  C19  1  0.49372000  0.04119000  0.32992000  1.0 -0.025982609
C  C20  1  0.04119000  0.32992000  0.49372000  1.0 -0.025982609
C  C21  1  0.32992000  0.49372000  0.04119000  1.0 -0.025982609
C  C22  1  0.95881000  0.50628000  0.67008000  1.0 -0.0244428242
C  C23  1  0.67008000  0.95881000  0.50628000  1.0 -0.0244428242
C  C24  1  0.50628000  0.67008000  0.95881000  1.0 -0.0244428242
C  C25  1  0.45843000  0.88626000  0.65449000  1.0 -0.0863858807
C  C26  1  0.88626000  0.65449000  0.45843000  1.0 -0.0863858807
C  C27  1  0.65449000  0.45843000  0.88626000  1.0 -0.0863858807
C  C28  1  0.11374000  0.54157000  0.34551000  1.0 -0.0863858807
C  C29  1  0.34551000  0.11374000  0.54157000  1.0 -0.0863858807
C  C30  1  0.54157000  0.34551000  0.11374000  1.0 -0.0863858807
C  C31  1  0.54157000  0.11374000  0.34551000  1.0 -0.0863858807
C  C32  1  0.11374000  0.34551000  0.54157000  1.0 -0.0863858807
C  C33  1  0.34551000  0.54157000  0.11374000  1.0 -0.0863858807
C  C34  1  0.88626000  0.45843000  0.65449000  1.0 -0.0863858807
C  C35  1  0.65449000  0.88626000  0.45843000  1.0 -0.0863858807
C  C36  1  0.45843000  0.65449000  0.88626000  1.0 -0.0863858807
C  C37  1  0.45969000  0.87433000  0.71394000  1.0 -0.1401343189
C  C38  1  0.87433000  0.71394000  0.45969000  1.0 -0.1401343189
C  C39  1  0.71394000  0.45969000  0.87433000  1.0 -0.1401343189
C  C40  1  0.12567000  0.54031000  0.28606000  1.0 -0.1401343189
C  C41  1  0.28606000  0.12567000  0.54031000  1.0 -0.1401343189
C  C42  1  0.54031000  0.28606000  0.12567000  1.0 -0.1401343189
C  C43  1  0.54031000  0.12567000  0.28606000  1.0 -0.1401343189
C  C44  1  0.12567000  0.28606000  0.54031000  1.0 -0.1401343189
C  C45  1  0.28606000  0.54031000  0.12567000  1.0 -0.1401343189
C  C46  1  0.87433000  0.45969000  0.71394000  1.0 -0.1401343189
C  C47  1  0.71394000  0.87433000  0.45969000  1.0 -0.1401343189
C  C48  1  0.45969000  0.71394000  0.87433000  1.0 -0.1401343189
C  C49  1  0.50514000  0.93172000  0.78744000  1.0 0.1008215754
C  C50  1  0.93172000  0.78744000  0.50514000  1.0 0.1008215754
C  C51  1  0.78744000  0.50514000  0.93172000  1.0 0.1008215754
C  C52  1  0.06828000  0.49486000  0.21256000  1.0 0.1008215754
C  C53  1  0.21256000  0.06828000  0.49486000  1.0 0.1008215754
C  C54  1  0.49486000  0.21256000  0.06828000  1.0 0.1008215754
C  C55  1  0.49486000  0.06828000  0.21256000  1.0 0.1008215754
C  C56  1  0.06828000  0.21256000  0.49486000  1.0 0.1008215754
C  C57  1  0.21256000  0.49486000  0.06828000  1.0 0.1008215754
C  C58  1  0.93172000  0.50514000  0.78744000  1.0 0.1008215754
C  C59  1  0.78744000  0.93172000  0.50514000  1.0 0.1008215754
C  C60  1  0.50514000  0.78744000  0.93172000  1.0 0.1008215754
C  C61  1  0.55221000  0.00409000  0.80300000  1.0 -0.1512813398
C  C62  1  0.00409000  0.80300000  0.55221000  1.0 -0.1512813398
C  C63  1  0.80300000  0.55221000  0.00409000  1.0 -0.1512813398
C  C64  1  0.99591000  0.44779000  0.19700000  1.0 -0.1512813398
C  C65  1  0.19700000  0.99591000  0.44779000  1.0 -0.1512813398
C  C66  1  0.44779000  0.19700000  0.99591000  1.0 -0.1512813398
C  C67  1  0.44779000  0.99591000  0.19700000  1.0 -0.1512813398
C  C68  1  0.99591000  0.19700000  0.44779000  1.0 -0.1512813398
C  C69  1  0.19700000  0.44779000  0.99591000  1.0 -0.1512813398
C  C70  1  0.00409000  0.55221000  0.80300000  1.0 -0.1512813398
C  C71  1  0.80300000  0.00409000  0.55221000  1.0 -0.1512813398
C  C72  1  0.55221000  0.80300000  0.00409000  1.0 -0.1512813398
C  C73  1  0.55184000  0.01628000  0.74288000  1.0 -0.0863858807
C  C74  1  0.01628000  0.74288000  0.55184000  1.0 -0.0845996673
C  C75  1  0.74288000  0.55184000  0.01628000  1.0 -0.0863858807
C  C76  1  0.98372000  0.44816000  0.25712000  1.0 -0.0845996673
C  C77  1  0.25712000  0.98372000  0.44816000  1.0 -0.0845996673
C  C78  1  0.44816000  0.25712000  0.98372000  1.0 -0.0845996673
C  C79  1  0.44816000  0.98372000  0.25712000  1.0 -0.0845996673
C  C80  1  0.98372000  0.25712000  0.44816000  1.0 -0.0845996673
C  C81  1  0.25712000  0.44816000  0.98372000  1.0 -0.0845996673
C  C82  1  0.01628000  0.55184000  0.74288000  1.0 -0.0845996673
C  C83  1  0.74288000  0.01628000  0.55184000  1.0 -0.0863858807
C  C84  1  0.55184000  0.74288000  0.01628000  1.0 -0.0863858807
C  C85  1  0.50562000  0.92281000  0.85407000  1.0 -0.0085076616
C  C86  1  0.92281000  0.85407000  0.50562000  1.0 -0.0085076616
C  C87  1  0.85407000  0.50562000  0.92281000  1.0 -0.0085076616
C  C88  1  0.07719000  0.49438000  0.14593000  1.0 -0.0085076616
C  C89  1  0.14593000  0.07719000  0.49438000  1.0 -0.0085076616
C  C90  1  0.49438000  0.14593000  0.07719000  1.0 -0.0085076616
C  C91  1  0.49438000  0.07719000  0.14593000  1.0 -0.0085076616
C  C92  1  0.07719000  0.14593000  0.49438000  1.0 -0.0085076616
C  C93  1  0.14593000  0.49438000  0.07719000  1.0 -0.0085076616
C  C94  1  0.92281000  0.50562000  0.85407000  1.0 -0.0085076616
C  C95  1  0.85407000  0.92281000  0.50562000  1.0 -0.0085076616
C  C96  1  0.50562000  0.85407000  0.92281000  1.0 -0.0085076616
C  C97  1  0.50221000  0.97456000  0.90773000  1.0 -0.1824498019
C  C98  1  0.97456000  0.90773000  0.50221000  1.0 -0.1824498019
C  C99  1  0.90773000  0.50221000  0.97456000  1.0 -0.1824498019
C  C100  1  0.02544000  0.49779000  0.09227000  1.0 -0.1824498019
C  C101  1  0.09227000  0.02544000  0.49779000  1.0 -0.1824498019
C  C102  1  0.49779000  0.09227000  0.02544000  1.0 -0.1824498019
C  C103  1  0.49779000  0.02544000  0.09227000  1.0 -0.1824498019
C  C104  1  0.02544000  0.09227000  0.49779000  1.0 -0.1824498019
C  C105  1  0.09227000  0.49779000  0.02544000  1.0 -0.1824498019
C  C106  1  0.97456000  0.50221000  0.90773000  1.0 -0.1824498019
C  C107  1  0.90773000  0.97456000  0.50221000  1.0 -0.1824498019
C  C108  1  0.50221000  0.90773000  0.97456000  1.0 -0.1824498019
C  C109  1  0.50136000  0.97067000  0.97067000  1.0 0.0815372984
C  C110  1  0.97067000  0.97067000  0.50136000  1.0 0.0815372984
C  C111  1  0.97067000  0.50136000  0.97067000  1.0 0.0815372984
C  C112  1  0.02933000  0.49864000  0.02933000  1.0 0.0815372984
C  C113  1  0.02933000  0.02933000  0.49864000  1.0 0.0815372984
C  C114  1  0.49864000  0.02933000  0.02933000  1.0 0.0815372984
C  C115  1  0.50578000  0.85986000  0.85986000  1.0 0.2067618875
C  C116  1  0.85986000  0.85986000  0.50578000  1.0 0.2067618875
C  C117  1  0.85986000  0.50578000  0.85986000  1.0 0.2067618875
C  C118  1  0.14014000  0.49422000  0.14014000  1.0 0.2067618875
C  C119  1  0.14014000  0.14014000  0.49422000  1.0 0.2067618875
C  C120  1  0.49422000  0.14014000  0.14014000  1.0 0.2067618875
C  C121  1  0.58650000  0.82055000  0.82055000  1.0 0.2595046916
C  C122  1  0.82055000  0.82055000  0.58650000  1.0 0.2595046916
C  C123  1  0.82055000  0.58650000  0.82055000  1.0 0.2595046916
C  C124  1  0.17945000  0.41350000  0.17945000  1.0 0.2595046916
C  C125  1  0.17945000  0.17945000  0.41350000  1.0 0.2595046916
C  C126  1  0.41350000  0.17945000  0.17945000  1.0 0.2595046916
C  C127  1  0.57230000  0.77410000  0.73900000  1.0 -0.0469745836
C  C128  1  0.77410000  0.73900000  0.57230000  1.0 -0.0469745836
C  C129  1  0.73900000  0.57230000  0.77410000  1.0 -0.0435341191
C  C130  1  0.22590000  0.42770000  0.26100000  1.0 -0.0435341191
C  C131  1  0.26100000  0.22590000  0.42770000  1.0 -0.0435341191
C  C132  1  0.42770000  0.26100000  0.22590000  1.0 -0.0435341191
C  C133  1  0.42770000  0.22590000  0.26100000  1.0 -0.0435341191
C  C134  1  0.22590000  0.26100000  0.42770000  1.0 -0.0435341191
C  C135  1  0.26100000  0.42770000  0.22590000  1.0 -0.0435341191
C  C136  1  0.77410000  0.57230000  0.73900000  1.0 -0.0435341191
C  C137  1  0.73900000  0.77410000  0.57230000  1.0 -0.0469745836
C  C138  1  0.57230000  0.73900000  0.77410000  1.0 -0.0435341191
C  C139  1  0.64880000  0.84310000  0.88930000  1.0 -0.118763839
C  C140  1  0.84310000  0.88930000  0.64880000  1.0 -0.118763839
C  C141  1  0.88930000  0.64880000  0.84310000  1.0 -0.118763839
C  C142  1  0.15690000  0.35120000  0.11070000  1.0 -0.118763839
C  C143  1  0.11070000  0.15690000  0.35120000  1.0 -0.118763839
C  C144  1  0.35120000  0.11070000  0.15690000  1.0 -0.118763839
C  C145  1  0.35120000  0.15690000  0.11070000  1.0 -0.118763839
C  C146  1  0.15690000  0.11070000  0.35120000  1.0 -0.118763839
C  C147  1  0.11070000  0.35120000  0.15690000  1.0 -0.118763839
C  C148  1  0.84310000  0.64880000  0.88930000  1.0 -0.118763839
C  C149  1  0.88930000  0.84310000  0.64880000  1.0 -0.118763839
C  C150  1  0.64880000  0.88930000  0.84310000  1.0 -0.118763839
O  O1  1  0.54499000  0.03972000  0.62306000  1.0 -0.5222474924
O  O2  1  0.03972000  0.62306000  0.54499000  1.0 -0.5222474924
O  O3  1  0.62306000  0.54499000  0.03972000  1.0 -0.5222474924
O  O4  1  0.96028000  0.45501000  0.37694000  1.0 -0.5222474924
O  O5  1  0.37694000  0.96028000  0.45501000  1.0 -0.5222474924
O  O6  1  0.45501000  0.37694000  0.96028000  1.0 -0.5222474924
O  O7  1  0.45501000  0.96028000  0.37694000  1.0 -0.5222474924
O  O8  1  0.96028000  0.37694000  0.45501000  1.0 -0.5222474924
O  O9  1  0.37694000  0.45501000  0.96028000  1.0 -0.5222474924
O  O10  1  0.03972000  0.54499000  0.62306000  1.0 -0.5222474924
O  O11  1  0.62306000  0.03972000  0.54499000  1.0 -0.5222474924
O  O12  1  0.54499000  0.62306000  0.03972000  1.0 -0.5222474924
O  O13  1  0.46154000  0.91736000  0.54003000  1.0 -0.5127316804
O  O14  1  0.91736000  0.54003000  0.46154000  1.0 -0.5127316804
O  O15  1  0.54003000  0.46154000  0.91736000  1.0 -0.5127316804
O  O16  1  0.08264000  0.53846000  0.45997000  1.0 -0.5127316804
O  O17  1  0.45997000  0.08264000  0.53846000  1.0 -0.5127316804
O  O18  1  0.53846000  0.45997000  0.08264000  1.0 -0.5127316804
O  O19  1  0.53846000  0.08264000  0.45997000  1.0 -0.5127316804
O  O20  1  0.08264000  0.45997000  0.53846000  1.0 -0.5127316804
O  O21  1  0.45997000  0.53846000  0.08264000  1.0 -0.5127316804
O  O22  1  0.91736000  0.46154000  0.54003000  1.0 -0.5127316804
O  O23  1  0.54003000  0.91736000  0.46154000  1.0 -0.5127316804
O  O24  1  0.46154000  0.54003000  0.91736000  1.0 -0.5127316804
O  O25  1  0.50892000  0.80609000  0.80609000  1.0 -0.2661808472
O  O26  1  0.80609000  0.80609000  0.50892000  1.0 -0.2661808472
O  O27  1  0.80609000  0.50892000  0.80609000  1.0 -0.2661808472
O  O28  1  0.19391000  0.49108000  0.19391000  1.0 -0.2661808472
O  O29  1  0.19391000  0.19391000  0.49108000  1.0 -0.2661808472
O  O30  1  0.49108000  0.19391000  0.19391000  1.0 -0.2661808472
