# DDEC6 charges by PACMAN v1.1 (https://github.com/mtap-research/PACMAN-charge/)
data_UNABIV_ASR_pacman
_symmetry_space_group_name_H-M   'P 1'
_cell_length_a   15.39490000
_cell_length_b   15.39490000
_cell_length_c   17.35000000
_cell_angle_alpha   81.65230000
_cell_angle_beta   98.34770000
_cell_angle_gamma   126.90200000
_symmetry_Int_Tables_number   1
_chemical_formula_structural   Cu3MoH16C22(SN2)3
_chemical_formula_sum   'Cu12 Mo4 H64 C88 S12 N24'
_cell_volume   3244.62462585
_cell_formula_units_Z   4
loop_
 _symmetry_equiv_pos_site_id
 _symmetry_equiv_pos_as_xyz
  1  'x, y, z'
loop_
 _atom_site_type_symbol
 _atom_site_label
 _atom_site_symmetry_multiplicity
 _atom_site_fract_x
 _atom_site_fract_y
 _atom_site_fract_z
 _atom_site_occupancy
 _atom_site_charge
Cu  Cu1  1  0.70296000  0.52378000  0.73428000  1.0 0.3461333571
Cu  Cu2  1  0.52378000  0.70296000  0.76572000  1.0 0.3461333571
Cu  Cu3  1  0.29704000  0.47622000  0.26572000  1.0 0.3461333571
Cu  Cu4  1  0.47622000  0.29704000  0.23428000  1.0 0.3461333571
Cu  Cu5  1  0.90793000  0.52995000  0.62212000  1.0 0.2757377459
Cu  Cu6  1  0.52995000  0.90793000  0.87788000  1.0 0.2757377459
Cu  Cu7  1  0.09207000  0.47005000  0.37788000  1.0 0.2757377459
Cu  Cu8  1  0.47005000  0.09207000  0.12212000  1.0 0.2757377459
Cu  Cu9  1  0.69783000  0.27643000  0.73575000  1.0 0.3861591948
Cu  Cu10  1  0.27643000  0.69783000  0.76425000  1.0 0.3861591948
Cu  Cu11  1  0.30217000  0.72357000  0.26425000  1.0 0.3861591948
Cu  Cu12  1  0.72357000  0.30217000  0.23575000  1.0 0.3861591948
Mo  Mo1  1  0.68949000  0.40995000  0.62166000  1.0 0.7889467014
Mo  Mo2  1  0.40995000  0.68949000  0.87834000  1.0 0.7889467014
Mo  Mo3  1  0.31051000  0.59005000  0.37834000  1.0 0.7889467014
Mo  Mo4  1  0.59005000  0.31051000  0.12166000  1.0 0.7889467014
H  H1  1  0.08300000  0.73840000  0.53720000  1.0 0.0986812771
H  H2  1  0.73840000  0.08300000  0.96280000  1.0 0.0986812771
H  H3  1  0.91700000  0.26160000  0.46280000  1.0 0.0986812771
H  H4  1  0.26160000  0.91700000  0.03720000  1.0 0.0986812771
H  H5  1  0.12150000  0.82730000  0.41570000  1.0 0.1231054133
H  H6  1  0.82730000  0.12150000  0.08430000  1.0 0.1231054133
H  H7  1  0.87850000  0.17270000  0.58430000  1.0 0.1231054133
H  H8  1  0.17270000  0.87850000  0.91570000  1.0 0.1231054133
H  H9  1  0.86720000  0.55080000  0.32580000  1.0 0.1375639161
H  H10  1  0.55080000  0.86720000  0.17420000  1.0 0.1375639161
H  H11  1  0.13280000  0.44920000  0.67420000  1.0 0.1375639161
H  H12  1  0.44920000  0.13280000  0.82580000  1.0 0.1375639161
H  H13  1  0.84000000  0.46860000  0.44880000  1.0 0.0986812771
H  H14  1  0.46860000  0.84000000  0.05120000  1.0 0.0986812771
H  H15  1  0.16000000  0.53140000  0.55120000  1.0 0.0986812771
H  H16  1  0.53140000  0.16000000  0.94880000  1.0 0.0986812771
H  H17  1  0.18270000  0.85990000  0.29470000  1.0 0.1257522387
H  H18  1  0.85990000  0.18270000  0.20530000  1.0 0.1257522387
H  H19  1  0.81730000  0.14010000  0.70530000  1.0 0.1257522387
H  H20  1  0.14010000  0.81730000  0.79470000  1.0 0.1257522387
H  H21  1  0.21510000  0.94810000  0.17110000  1.0 0.106908424
H  H22  1  0.94810000  0.21510000  0.32890000  1.0 0.106908424
H  H23  1  0.78490000  0.05190000  0.82890000  1.0 0.106908424
H  H24  1  0.05190000  0.78490000  0.67110000  1.0 0.106908424
H  H25  1  0.90740000  0.76620000  0.10680000  1.0 0.0986812771
H  H26  1  0.76620000  0.90740000  0.39320000  1.0 0.0986812771
H  H27  1  0.09260000  0.23380000  0.89320000  1.0 0.0986812771
H  H28  1  0.23380000  0.09260000  0.60680000  1.0 0.0986812771
H  H29  1  0.86550000  0.67490000  0.22780000  1.0 0.1375639161
H  H30  1  0.67490000  0.86550000  0.27220000  1.0 0.1375639161
H  H31  1  0.13450000  0.32510000  0.77220000  1.0 0.1375639161
H  H32  1  0.32510000  0.13450000  0.72780000  1.0 0.1375639161
H  H33  1  0.93750000  0.60870000  0.77890000  1.0 0.0906599773
H  H34  1  0.60870000  0.93750000  0.72110000  1.0 0.0906599773
H  H35  1  0.06250000  0.39130000  0.22110000  1.0 0.0906599773
H  H36  1  0.39130000  0.06250000  0.27890000  1.0 0.0906599773
H  H37  1  0.05580000  0.63760000  0.88360000  1.0 0.1231054133
H  H38  1  0.63760000  0.05580000  0.61640000  1.0 0.1231054133
H  H39  1  0.94420000  0.36240000  0.11640000  1.0 0.1231054133
H  H40  1  0.36240000  0.94420000  0.38360000  1.0 0.1231054133
H  H41  1  0.83220000  0.57080000  0.02080000  1.0 0.1231054133
H  H42  1  0.57080000  0.83220000  0.47920000  1.0 0.1231054133
H  H43  1  0.16780000  0.42920000  0.97920000  1.0 0.1231054133
H  H44  1  0.42920000  0.16780000  0.52080000  1.0 0.1231054133
H  H45  1  0.71660000  0.53720000  0.91050000  1.0 0.0986812771
H  H46  1  0.53720000  0.71660000  0.58950000  1.0 0.0986812771
H  H47  1  0.28340000  0.46280000  0.08950000  1.0 0.0986812771
H  H48  1  0.46280000  0.28340000  0.41050000  1.0 0.0986812771
H  H49  1  0.05100000  0.60040000  0.22400000  1.0 0.0986812771
H  H50  1  0.60040000  0.05100000  0.27600000  1.0 0.0986812771
H  H51  1  0.94900000  0.39960000  0.77600000  1.0 0.0986812771
H  H52  1  0.39960000  0.94900000  0.72400000  1.0 0.0986812771
H  H53  1  0.93050000  0.57230000  0.11980000  1.0 0.1231054133
H  H54  1  0.57230000  0.93050000  0.38020000  1.0 0.1231054133
H  H55  1  0.06950000  0.42770000  0.88020000  1.0 0.1231054133
H  H56  1  0.42770000  0.06950000  0.61980000  1.0 0.1231054133
H  H57  1  0.16970000  0.68470000  0.98050000  1.0 0.1231054133
H  H58  1  0.68470000  0.16970000  0.51950000  1.0 0.1231054133
H  H59  1  0.83030000  0.31530000  0.01950000  1.0 0.1231054133
H  H60  1  0.31530000  0.83030000  0.48050000  1.0 0.1231054133
H  H61  1  0.27960000  0.70440000  0.09080000  1.0 0.0986812771
H  H62  1  0.70440000  0.27960000  0.40920000  1.0 0.0986812771
H  H63  1  0.72040000  0.29560000  0.90920000  1.0 0.0986812771
H  H64  1  0.29560000  0.72040000  0.59080000  1.0 0.0986812771
C  C1  1  0.03920000  0.69980000  0.49420000  1.0 0.0798488876
C  C2  1  0.69980000  0.03920000  0.00580000  1.0 0.0798488876
C  C3  1  0.96080000  0.30020000  0.50580000  1.0 0.0798488876
C  C4  1  0.30020000  0.96080000  0.99420000  1.0 0.0798488876
C  C5  1  0.06280000  0.75420000  0.42100000  1.0 -0.1905690821
C  C6  1  0.75420000  0.06280000  0.07900000  1.0 -0.1905690821
C  C7  1  0.93720000  0.24580000  0.57900000  1.0 -0.1905690821
C  C8  1  0.24580000  0.93720000  0.92100000  1.0 -0.1905690821
C  C9  1  0.99840000  0.69980000  0.35460000  1.0 0.0986812771
C  C10  1  0.69980000  0.99840000  0.14540000  1.0 0.0986812771
C  C11  1  0.00160000  0.30020000  0.64540000  1.0 0.0986812771
C  C12  1  0.30020000  0.00160000  0.85460000  1.0 0.0986812771
C  C13  1  0.91330000  0.59110000  0.36750000  1.0 -0.1787370907
C  C14  1  0.59110000  0.91330000  0.13250000  1.0 -0.1787370907
C  C15  1  0.08670000  0.40890000  0.63250000  1.0 -0.1787370907
C  C16  1  0.40890000  0.08670000  0.86750000  1.0 -0.1787370907
C  C17  1  0.89670000  0.54230000  0.44240000  1.0 0.0798488876
C  C18  1  0.54230000  0.89670000  0.05760000  1.0 0.0798488876
C  C19  1  0.10330000  0.45770000  0.55760000  1.0 0.0798488876
C  C20  1  0.45770000  0.10330000  0.94240000  1.0 0.0798488876
C  C21  1  0.02030000  0.75670000  0.27630000  1.0 0.0986812771
C  C22  1  0.75670000  0.02030000  0.22370000  1.0 0.0986812771
C  C23  1  0.97970000  0.24330000  0.72370000  1.0 0.0986812771
C  C24  1  0.24330000  0.97970000  0.77630000  1.0 0.0986812771
C  C25  1  0.12470000  0.83930000  0.25760000  1.0 -0.1787370907
C  C26  1  0.83930000  0.12470000  0.24240000  1.0 -0.1787370907
C  C27  1  0.87530000  0.16070000  0.74240000  1.0 -0.1787370907
C  C28  1  0.16070000  0.87530000  0.75760000  1.0 -0.1787370907
C  C29  1  0.14380000  0.89260000  0.18270000  1.0 0.0906599773
C  C30  1  0.89260000  0.14380000  0.31730000  1.0 0.0906599773
C  C31  1  0.85620000  0.10740000  0.81730000  1.0 0.0906599773
C  C32  1  0.10740000  0.85620000  0.68270000  1.0 0.0906599773
C  C33  1  0.96390000  0.78650000  0.14520000  1.0 0.0798488876
C  C34  1  0.78650000  0.96390000  0.35480000  1.0 0.0798488876
C  C35  1  0.03610000  0.21350000  0.85480000  1.0 0.0798488876
C  C36  1  0.21350000  0.03610000  0.64520000  1.0 0.0798488876
C  C37  1  0.93770000  0.73010000  0.21810000  1.0 -0.2016821316
C  C38  1  0.73010000  0.93770000  0.28190000  1.0 -0.2016821316
C  C39  1  0.06230000  0.26990000  0.78190000  1.0 -0.2016821316
C  C40  1  0.26990000  0.06230000  0.71810000  1.0 -0.2016821316
C  C41  1  0.91470000  0.59870000  0.82830000  1.0 0.0906599773
C  C42  1  0.59870000  0.91470000  0.67170000  1.0 0.0906599773
C  C43  1  0.08530000  0.40130000  0.17170000  1.0 0.0906599773
C  C44  1  0.40130000  0.08530000  0.32830000  1.0 0.0906599773
C  C45  1  0.98730000  0.61790000  0.89110000  1.0 -0.2016821316
C  C46  1  0.61790000  0.98730000  0.60890000  1.0 -0.2016821316
C  C47  1  0.01270000  0.38210000  0.10890000  1.0 -0.2016821316
C  C48  1  0.38210000  0.01270000  0.39110000  1.0 -0.2016821316
C  C49  1  0.95930000  0.60830000  0.96600000  1.0 0.0906599773
C  C50  1  0.60830000  0.95930000  0.53400000  1.0 0.0906599773
C  C51  1  0.04070000  0.39170000  0.03400000  1.0 0.0906599773
C  C52  1  0.39170000  0.04070000  0.46600000  1.0 0.0906599773
C  C53  1  0.85540000  0.57780000  0.97220000  1.0 -0.2016821316
C  C54  1  0.57780000  0.85540000  0.52780000  1.0 -0.2016821316
C  C55  1  0.14460000  0.42220000  0.02780000  1.0 -0.2016821316
C  C56  1  0.42220000  0.14460000  0.47220000  1.0 -0.2016821316
C  C57  1  0.78610000  0.55790000  0.90510000  1.0 0.0798488876
C  C58  1  0.55790000  0.78610000  0.59490000  1.0 0.0798488876
C  C59  1  0.21390000  0.44210000  0.09490000  1.0 0.0798488876
C  C60  1  0.44210000  0.21390000  0.40510000  1.0 0.0798488876
C  C61  1  0.07510000  0.61790000  0.17410000  1.0 0.0798488876
C  C62  1  0.61790000  0.07510000  0.32590000  1.0 0.0798488876
C  C63  1  0.92490000  0.38210000  0.82590000  1.0 0.0798488876
C  C64  1  0.38210000  0.92490000  0.67410000  1.0 0.0798488876
C  C65  1  0.00170000  0.60030000  0.11180000  1.0 -0.1905690821
C  C66  1  0.60030000  0.00170000  0.38820000  1.0 -0.1905690821
C  C67  1  0.99830000  0.39970000  0.88820000  1.0 -0.1905690821
C  C68  1  0.39970000  0.99830000  0.61180000  1.0 -0.1905690821
C  C69  1  0.14280000  0.66620000  0.02950000  1.0 -0.2016821316
C  C70  1  0.66620000  0.14280000  0.47050000  1.0 -0.2016821316
C  C71  1  0.85720000  0.33380000  0.97050000  1.0 -0.2016821316
C  C72  1  0.33380000  0.85720000  0.52950000  1.0 -0.2016821316
C  C73  1  0.20860000  0.67900000  0.09650000  1.0 0.0906599773
C  C74  1  0.67900000  0.20860000  0.40350000  1.0 0.0906599773
C  C75  1  0.79140000  0.32100000  0.90350000  1.0 0.0906599773
C  C76  1  0.32100000  0.79140000  0.59650000  1.0 0.0906599773
C  C77  1  0.03530000  0.62490000  0.03680000  1.0 0.0986812771
C  C78  1  0.62490000  0.03530000  0.46320000  1.0 0.0986812771
C  C79  1  0.96470000  0.37510000  0.96320000  1.0 0.0986812771
C  C80  1  0.37510000  0.96470000  0.53680000  1.0 0.0986812771
C  C81  1  0.62890000  0.59310000  0.74300000  1.0 -0.0753518844
C  C82  1  0.59310000  0.62890000  0.75700000  1.0 -0.0753518844
C  C83  1  0.37110000  0.40690000  0.25700000  1.0 -0.0753518844
C  C84  1  0.40690000  0.37110000  0.24300000  1.0 -0.0753518844
C  C85  1  0.04370000  0.59290000  0.68480000  1.0 -0.1189364146
C  C86  1  0.59290000  0.04370000  0.81520000  1.0 -0.1189364146
C  C87  1  0.95630000  0.40710000  0.31520000  1.0 -0.1189364146
C  C88  1  0.40710000  0.95630000  0.18480000  1.0 -0.1189364146
S  S1  1  0.78836000  0.34422000  0.62477000  1.0 -0.5560738312
S  S2  1  0.34422000  0.78836000  0.87523000  1.0 -0.5560738312
S  S3  1  0.21164000  0.65578000  0.37523000  1.0 -0.5560738312
S  S4  1  0.65578000  0.21164000  0.12477000  1.0 -0.5560738312
S  S5  1  0.80496000  0.59260000  0.62823000  1.0 -0.4834358262
S  S6  1  0.59260000  0.80496000  0.87177000  1.0 -0.4834358262
S  S7  1  0.19504000  0.40740000  0.37177000  1.0 -0.4834358262
S  S8  1  0.40740000  0.19504000  0.12823000  1.0 -0.4834358262
S  S9  1  0.59344000  0.33806000  0.72922000  1.0 -0.5281091796
S  S10  1  0.33806000  0.59344000  0.77078000  1.0 -0.5281091796
S  S11  1  0.40656000  0.66194000  0.27078000  1.0 -0.5281091796
S  S12  1  0.66194000  0.40656000  0.22922000  1.0 -0.5281091796
N  N1  1  0.17830000  0.65810000  0.16810000  1.0 -0.2084363455
N  N2  1  0.65810000  0.17830000  0.33190000  1.0 -0.2084363455
N  N3  1  0.82170000  0.34190000  0.83190000  1.0 -0.2084363455
N  N4  1  0.34190000  0.82170000  0.66810000  1.0 -0.2084363455
N  N5  1  0.81410000  0.56690000  0.83270000  1.0 -0.2084363455
N  N6  1  0.56690000  0.81410000  0.66730000  1.0 -0.2084363455
N  N7  1  0.18590000  0.43310000  0.16730000  1.0 -0.2084363455
N  N8  1  0.43310000  0.18590000  0.33270000  1.0 -0.2084363455
N  N9  1  0.95620000  0.59360000  0.50660000  1.0 -0.1905690821
N  N10  1  0.59360000  0.95620000  0.99340000  1.0 -0.1905690821
N  N11  1  0.04380000  0.40640000  0.49340000  1.0 -0.1905690821
N  N12  1  0.40640000  0.04380000  0.00660000  1.0 -0.1905690821
N  N13  1  0.06320000  0.86660000  0.12720000  1.0 -0.2618761377
N  N14  1  0.86660000  0.06320000  0.37280000  1.0 -0.2618761377
N  N15  1  0.93680000  0.13340000  0.87280000  1.0 -0.2618761377
N  N16  1  0.13340000  0.93680000  0.62720000  1.0 -0.2618761377
N  N17  1  0.12660000  0.62860000  0.72140000  1.0 -0.365466045
N  N18  1  0.62860000  0.12660000  0.77860000  1.0 -0.365466045
N  N19  1  0.87340000  0.37140000  0.27860000  1.0 -0.365466045
N  N20  1  0.37140000  0.87340000  0.22140000  1.0 -0.365466045
N  N21  1  0.62600000  0.58000000  0.75000000  1.0 -0.1189364146
N  N22  1  0.58000000  0.62600000  0.75000000  1.0 -0.1189364146
N  N23  1  0.37400000  0.42000000  0.25000000  1.0 -0.1189364146
N  N24  1  0.42000000  0.37400000  0.25000000  1.0 -0.1189364146
