# DDEC6 charges by PACMAN v1.1 (https://github.com/mtap-research/PACMAN-charge/)
data_UNABOB_FSR_pacman
_symmetry_space_group_name_H-M   'P 1'
_cell_length_a   15.29210000
_cell_length_b   15.29210000
_cell_length_c   20.35600000
_cell_angle_alpha   83.67040000
_cell_angle_beta   96.32960000
_cell_angle_gamma   128.52500000
_symmetry_Int_Tables_number   1
_chemical_formula_structural   Cu3MoH7C23S3N5O
_chemical_formula_sum   'Cu12 Mo4 H28 C92 S12 N20 O4'
_cell_volume   3696.09361514
_cell_formula_units_Z   4
loop_
 _symmetry_equiv_pos_site_id
 _symmetry_equiv_pos_as_xyz
  1  'x, y, z'
loop_
 _atom_site_type_symbol
 _atom_site_label
 _atom_site_symmetry_multiplicity
 _atom_site_fract_x
 _atom_site_fract_y
 _atom_site_fract_z
 _atom_site_occupancy
 _atom_site_charge
Cu  Cu1  1  0.79136000  0.36760000  0.23954000  1.0 0.3992573861
Cu  Cu2  1  0.36760000  0.79136000  0.26046000  1.0 0.3992573861
Cu  Cu3  1  0.20864000  0.63240000  0.76046000  1.0 0.3992573861
Cu  Cu4  1  0.63240000  0.20864000  0.73954000  1.0 0.3992573861
Cu  Cu5  1  0.54093000  0.16021000  0.13077000  1.0 0.2854128425
Cu  Cu6  1  0.16021000  0.54093000  0.36923000  1.0 0.2837781404
Cu  Cu7  1  0.45907000  0.83979000  0.86923000  1.0 0.2837781404
Cu  Cu8  1  0.83979000  0.45907000  0.63077000  1.0 0.2854128425
Cu  Cu9  1  0.54259000  0.36637000  0.22850000  1.0 0.3596013505
Cu  Cu10  1  0.36637000  0.54259000  0.27150000  1.0 0.3596013505
Cu  Cu11  1  0.45741000  0.63363000  0.77150000  1.0 0.3596013505
Cu  Cu12  1  0.63363000  0.45741000  0.72850000  1.0 0.3596013505
Mo  Mo1  1  0.67171000  0.38543000  0.13891000  1.0 1.0880747382
Mo  Mo2  1  0.38543000  0.67171000  0.36109000  1.0 1.0880747382
Mo  Mo3  1  0.32829000  0.61457000  0.86109000  1.0 1.0880747382
Mo  Mo4  1  0.61457000  0.32829000  0.63891000  1.0 1.0880747382
H  H1  1  0.58750000  0.10630000  0.30160000  1.0 0.1276975191
H  H2  1  0.10630000  0.58750000  0.19840000  1.0 0.1276975191
H  H3  1  0.41250000  0.89370000  0.69840000  1.0 0.1276975191
H  H4  1  0.89370000  0.41250000  0.80160000  1.0 0.1276975191
H  H5  1  0.55820000  0.87720000  0.73760000  1.0 0.1276975191
H  H6  1  0.87720000  0.55820000  0.76240000  1.0 0.1276975191
H  H7  1  0.44180000  0.12280000  0.26240000  1.0 0.1276975191
H  H8  1  0.12280000  0.44180000  0.23760000  1.0 0.1276975191
H  H9  1  0.55150000  0.26510000  0.99120000  1.0 0.1117481124
H  H10  1  0.26510000  0.55150000  0.50880000  1.0 0.1117481124
H  H11  1  0.44850000  0.73490000  0.00880000  1.0 0.1117481124
H  H12  1  0.73490000  0.44850000  0.49120000  1.0 0.1117481124
H  H13  1  0.73940000  0.34580000  0.38020000  1.0 0.1276975191
H  H14  1  0.34580000  0.73940000  0.11980000  1.0 0.1276975191
H  H15  1  0.26060000  0.65420000  0.61980000  1.0 0.1276975191
H  H16  1  0.65420000  0.26060000  0.88020000  1.0 0.1276975191
H  H17  1  0.49460000  0.64580000  0.62860000  1.0 0.1276975191
H  H18  1  0.64580000  0.49460000  0.87140000  1.0 0.1276975191
H  H19  1  0.50540000  0.35420000  0.37140000  1.0 0.1276975191
H  H20  1  0.35420000  0.50540000  0.12860000  1.0 0.1276975191
H  H21  1  0.38120000  0.95000000  0.05290000  1.0 0.1117481124
H  H22  1  0.95000000  0.38120000  0.44710000  1.0 0.1117481124
H  H23  1  0.61880000  0.05000000  0.94710000  1.0 0.1117481124
H  H24  1  0.05000000  0.61880000  0.55290000  1.0 0.1117481124
H  H25  1  0.76830000  0.24030000  0.45470000  1.0 0.1117481124
H  H26  1  0.24030000  0.76830000  0.04530000  1.0 0.1117481124
H  H27  1  0.23170000  0.75970000  0.54530000  1.0 0.1117481124
H  H28  1  0.75970000  0.23170000  0.95470000  1.0 0.1117481124
C  C1  1  0.02060000  0.47280000  0.31720000  1.0 -0.0196188348
C  C2  1  0.47280000  0.02060000  0.18280000  1.0 -0.0196188348
C  C3  1  0.97940000  0.52720000  0.68280000  1.0 -0.0196188348
C  C4  1  0.52720000  0.97940000  0.81720000  1.0 -0.0196188348
C  C5  1  0.58990000  0.93190000  0.64230000  1.0 -0.0676495227
C  C6  1  0.93190000  0.58990000  0.85770000  1.0 -0.0676495227
C  C7  1  0.41010000  0.06810000  0.35770000  1.0 -0.0676495227
C  C8  1  0.06810000  0.41010000  0.14230000  1.0 -0.0676495227
C  C9  1  0.66640000  0.13460000  0.31180000  1.0 0.0612504049
C  C10  1  0.13460000  0.66640000  0.18820000  1.0 0.0612504049
C  C11  1  0.33360000  0.86540000  0.68820000  1.0 0.0612504049
C  C12  1  0.86540000  0.33360000  0.81180000  1.0 0.0664508436
C  C13  1  0.55600000  0.85440000  0.69550000  1.0 -0.0395328872
C  C14  1  0.85440000  0.55600000  0.80450000  1.0 -0.0395328872
C  C15  1  0.44400000  0.14560000  0.30450000  1.0 -0.0395328872
C  C16  1  0.14560000  0.44400000  0.19550000  1.0 -0.0395328872
C  C17  1  0.49570000  0.18830000  0.98260000  1.0 0.0391850281
C  C18  1  0.18830000  0.49570000  0.51740000  1.0 0.0391850281
C  C19  1  0.50430000  0.81170000  0.01740000  1.0 0.0391850281
C  C20  1  0.81170000  0.50430000  0.48260000  1.0 0.0391850281
C  C21  1  0.44090000  0.16070000  0.92000000  1.0 -0.0049534025
C  C22  1  0.16070000  0.44090000  0.58000000  1.0 -0.0077714676
C  C23  1  0.55910000  0.83930000  0.08000000  1.0 -0.0077714676
C  C24  1  0.83930000  0.55910000  0.42000000  1.0 -0.0077714676
C  C25  1  0.71430000  0.27170000  0.37690000  1.0 -0.0196188348
C  C26  1  0.27170000  0.71430000  0.12310000  1.0 -0.0196188348
C  C27  1  0.28570000  0.72830000  0.62310000  1.0 -0.0196188348
C  C28  1  0.72830000  0.28570000  0.87690000  1.0 -0.0196188348
C  C29  1  0.51980000  0.71960000  0.63250000  1.0 -0.0395328872
C  C30  1  0.71960000  0.51980000  0.86750000  1.0 -0.0395328872
C  C31  1  0.48020000  0.28040000  0.36750000  1.0 -0.0395328872
C  C32  1  0.28040000  0.48020000  0.13250000  1.0 -0.0395328872
C  C33  1  0.39630000  0.00470000  0.01880000  1.0 0.0203122799
C  C34  1  0.00470000  0.39630000  0.48120000  1.0 0.0203122799
C  C35  1  0.60370000  0.99530000  0.98120000  1.0 0.0203122799
C  C36  1  0.99530000  0.60370000  0.51880000  1.0 0.0203122799
C  C37  1  0.69070000  0.20530000  0.43530000  1.0 -0.1214969005
C  C38  1  0.20530000  0.69070000  0.06470000  1.0 -0.1214969005
C  C39  1  0.30930000  0.79470000  0.56470000  1.0 -0.1214969005
C  C40  1  0.79470000  0.30930000  0.93530000  1.0 -0.1214969005
C  C41  1  0.49640000  0.45540000  0.24420000  1.0 -0.1285435843
C  C42  1  0.45540000  0.49640000  0.25580000  1.0 -0.1285435843
C  C43  1  0.50360000  0.54460000  0.75580000  1.0 -0.1285435843
C  C44  1  0.54460000  0.50360000  0.74420000  1.0 -0.1285435843
C  C45  1  0.61910000  0.99150000  0.47040000  1.0 -0.0196188348
C  C46  1  0.99150000  0.61910000  0.02960000  1.0 -0.0196188348
C  C47  1  0.38090000  0.00850000  0.52960000  1.0 -0.0196188348
C  C48  1  0.00850000  0.38090000  0.97040000  1.0 -0.0196188348
C  C49  1  0.63550000  0.04950000  0.35660000  1.0 -0.0494317887
C  C50  1  0.04950000  0.63550000  0.14340000  1.0 -0.0494317887
C  C51  1  0.36450000  0.95050000  0.64340000  1.0 -0.0494317887
C  C52  1  0.95050000  0.36450000  0.85660000  1.0 -0.0494317887
C  C53  1  0.55440000  0.79200000  0.57610000  1.0 0.0391850281
C  C54  1  0.79200000  0.55440000  0.92390000  1.0 0.0391850281
C  C55  1  0.44560000  0.20800000  0.42390000  1.0 0.0391850281
C  C56  1  0.20800000  0.44560000  0.07610000  1.0 0.0391850281
C  C57  1  0.61170000  0.95090000  0.51110000  1.0 0.0116231023
C  C58  1  0.95090000  0.61170000  0.98890000  1.0 0.0116231023
C  C59  1  0.38830000  0.04910000  0.48890000  1.0 0.0116231023
C  C60  1  0.04910000  0.38830000  0.01110000  1.0 0.0116231023
C  C61  1  0.33570000  0.96790000  0.95800000  1.0 -0.0262480427
C  C62  1  0.96790000  0.33570000  0.54200000  1.0 -0.0196188348
C  C63  1  0.66430000  0.03210000  0.04200000  1.0 -0.0262480427
C  C64  1  0.03210000  0.66430000  0.45800000  1.0 -0.0262480427
C  C65  1  0.58290000  0.87570000  0.57450000  1.0 0.0998451543
C  C66  1  0.87570000  0.58290000  0.92550000  1.0 0.0998451543
C  C67  1  0.41710000  0.12430000  0.42550000  1.0 0.0998451543
C  C68  1  0.12430000  0.41710000  0.07450000  1.0 0.0998451543
C  C69  1  0.64900000  0.07540000  0.41690000  1.0 0.0868942011
C  C70  1  0.07540000  0.64900000  0.08310000  1.0 0.0868942011
C  C71  1  0.35100000  0.92460000  0.58310000  1.0 0.0868942011
C  C72  1  0.92460000  0.35100000  0.91690000  1.0 0.0868942011
C  C73  1  0.40560000  0.08220000  0.41260000  1.0 0.0998451543
C  C74  1  0.08220000  0.40560000  0.08740000  1.0 0.0998451543
C  C75  1  0.59440000  0.91780000  0.58740000  1.0 0.0998451543
C  C76  1  0.91780000  0.59440000  0.91260000  1.0 0.0998451543
C  C77  1  0.36470000  0.94750000  0.49600000  1.0 -0.0676495227
C  C78  1  0.94750000  0.36470000  0.00400000  1.0 -0.0676495227
C  C79  1  0.63530000  0.05250000  0.50400000  1.0 -0.0676495227
C  C80  1  0.05250000  0.63530000  0.99600000  1.0 -0.0676495227
C  C81  1  0.34730000  0.88830000  0.56010000  1.0 0.0664508436
C  C82  1  0.88830000  0.34730000  0.93990000  1.0 0.0664508436
C  C83  1  0.65270000  0.11170000  0.43990000  1.0 0.0664508436
C  C84  1  0.11170000  0.65270000  0.06010000  1.0 0.0664508436
C  C85  1  0.37330000  0.99010000  0.46650000  1.0 -0.0494317887
C  C86  1  0.99010000  0.37330000  0.03350000  1.0 -0.0494317887
C  C87  1  0.62670000  0.00990000  0.53350000  1.0 -0.0494317887
C  C88  1  0.00990000  0.62670000  0.96650000  1.0 -0.0494317887
C  C89  1  0.36090000  0.92810000  0.61850000  1.0 0.0612504049
C  C90  1  0.92810000  0.36090000  0.88150000  1.0 0.0612504049
C  C91  1  0.63910000  0.07190000  0.38150000  1.0 0.0612504049
C  C92  1  0.07190000  0.63910000  0.11850000  1.0 0.0612504049
S  S1  1  0.73377000  0.47503000  0.23392000  1.0 -0.5429944154
S  S2  1  0.47503000  0.73377000  0.26608000  1.0 -0.5429944154
S  S3  1  0.26623000  0.52497000  0.76608000  1.0 -0.5429944154
S  S4  1  0.52497000  0.26623000  0.73392000  1.0 -0.5429944154
S  S5  1  0.48248000  0.26728000  0.13605000  1.0 -0.5471673067
S  S6  1  0.26728000  0.48248000  0.36395000  1.0 -0.5471673067
S  S7  1  0.51752000  0.73272000  0.86395000  1.0 -0.5471673067
S  S8  1  0.73272000  0.51752000  0.63605000  1.0 -0.5471673067
S  S9  1  0.73361000  0.28361000  0.14052000  1.0 -0.5856087065
S  S10  1  0.28361000  0.73361000  0.35948000  1.0 -0.5802229698
S  S11  1  0.26639000  0.71639000  0.85948000  1.0 -0.5856087065
S  S12  1  0.71639000  0.26639000  0.64052000  1.0 -0.5856087065
N  N1  1  0.70380000  0.23860000  0.31690000  1.0 -0.1783659961
N  N2  1  0.23860000  0.70380000  0.18310000  1.0 -0.1783659961
N  N3  1  0.29620000  0.76140000  0.68310000  1.0 -0.1783659961
N  N4  1  0.76140000  0.29620000  0.81690000  1.0 -0.1783659961
N  N5  1  0.47340000  0.11120000  0.03130000  1.0 -0.1214969005
N  N6  1  0.11120000  0.47340000  0.46870000  1.0 -0.1285435843
N  N7  1  0.52660000  0.88880000  0.96870000  1.0 -0.1285435843
N  N8  1  0.88880000  0.52660000  0.53130000  1.0 -0.1285435843
N  N9  1  0.52040000  0.75000000  0.69190000  1.0 -0.1285435843
N  N10  1  0.75000000  0.52040000  0.80810000  1.0 -0.1285435843
N  N11  1  0.47960000  0.25000000  0.30810000  1.0 -0.1285435843
N  N12  1  0.25000000  0.47960000  0.19190000  1.0 -0.1285435843
N  N13  1  0.93950000  0.43610000  0.28440000  1.0 -0.3010574933
N  N14  1  0.43610000  0.93950000  0.21560000  1.0 -0.3010574933
N  N15  1  0.06050000  0.56390000  0.71560000  1.0 -0.3010574933
N  N16  1  0.56390000  0.06050000  0.78440000  1.0 -0.3010574933
N  N17  1  0.44070000  0.47890000  0.25750000  1.0 -0.0554036628
N  N18  1  0.47890000  0.44070000  0.24250000  1.0 -0.0494317887
N  N19  1  0.55930000  0.52110000  0.74250000  1.0 -0.0494317887
N  N20  1  0.52110000  0.55930000  0.75750000  1.0 -0.0494317887
O  O1  1  0.71910000  0.48050000  0.07210000  1.0 -0.4508242737
O  O2  1  0.48050000  0.71910000  0.42790000  1.0 -0.4508242737
O  O3  1  0.28090000  0.51950000  0.92790000  1.0 -0.4508242737
O  O4  1  0.51950000  0.28090000  0.57210000  1.0 -0.4508242737
