# DDEC6 charges by PACMAN v1.1 (https://github.com/mtap-research/PACMAN-charge/)
data_UNADIX_ion_pacman
_symmetry_space_group_name_H-M   'P 1'
_cell_length_a   19.56180000
_cell_length_b   17.67950000
_cell_length_c   16.21430000
_cell_angle_alpha   70.34870000
_cell_angle_beta   58.33590000
_cell_angle_gamma   51.31540000
_symmetry_Int_Tables_number   1
_chemical_formula_structural   Zn3H26C32(NO4)4
_chemical_formula_sum   'Zn12 H104 C128 N16 O64'
_cell_volume   3725.39872196
_cell_formula_units_Z   4
loop_
 _symmetry_equiv_pos_site_id
 _symmetry_equiv_pos_as_xyz
  1  'x, y, z'
loop_
 _atom_site_type_symbol
 _atom_site_label
 _atom_site_symmetry_multiplicity
 _atom_site_fract_x
 _atom_site_fract_y
 _atom_site_fract_z
 _atom_site_occupancy
 _atom_site_charge
Zn  Zn1  1  0.94371000  0.95875000  0.71271000  1.0 0.90945867
Zn  Zn2  1  0.38483000  0.71271000  0.95875000  1.0 0.90945867
Zn  Zn3  1  0.29125000  0.30629000  0.86517000  1.0 0.90945867
Zn  Zn4  1  0.53729000  0.86517000  0.30629000  1.0 0.90945867
Zn  Zn5  1  0.03489000  0.83585000  0.33643000  1.0 0.90945867
Zn  Zn6  1  0.79283000  0.33643000  0.83585000  1.0 0.90945867
Zn  Zn7  1  0.41415000  0.21511000  0.45717000  1.0 0.90945867
Zn  Zn8  1  0.91357000  0.45717000  0.21511000  1.0 0.90945867
Zn  Zn9  1  0.28175000  0.72501000  0.20909000  1.0 0.90945867
Zn  Zn10  1  0.78415000  0.20909000  0.72501000  1.0 0.90945867
Zn  Zn11  1  0.52499000  0.96825000  0.46585000  1.0 0.90945867
Zn  Zn12  1  0.04091000  0.46585000  0.96825000  1.0 0.90945867
H  H1  1  0.17750000  0.98150000  0.53290000  1.0 0.1414998278
H  H2  1  0.30810000  0.53290000  0.98150000  1.0 0.1414998278
H  H3  1  0.26850000  0.07250000  0.94190000  1.0 0.1414998278
H  H4  1  0.71710000  0.94190000  0.07250000  1.0 0.1414998278
H  H5  1  0.10680000  0.64500000  0.73980000  1.0 0.1299640845
H  H6  1  0.50840000  0.73980000  0.64500000  1.0 0.1299640845
H  H7  1  0.60500000  0.14320000  0.74160000  1.0 0.1299640845
H  H8  1  0.51020000  0.74160000  0.14320000  1.0 0.1299640845
H  H9  1  0.26470000  0.52030000  0.43770000  1.0 0.1299640845
H  H10  1  0.77730000  0.43770000  0.52030000  1.0 0.1299640845
H  H11  1  0.72970000  0.98530000  0.47270000  1.0 0.1299640845
H  H12  1  0.81230000  0.47270000  0.98530000  1.0 0.1299640845
H  H13  1  0.13980000  0.25260000  0.57640000  1.0 0.1414998278
H  H14  1  0.03120000  0.57640000  0.25260000  1.0 0.1414998278
H  H15  1  0.99740000  0.11020000  0.21880000  1.0 0.1414998278
H  H16  1  0.67360000  0.21880000  0.11020000  1.0 0.1414998278
H  H17  1  0.62810000  0.71090000  0.89410000  1.0 0.1414998278
H  H18  1  0.72940000  0.68860000  0.81200000  1.0 0.1209288585
H  H19  1  0.63440000  0.78760000  0.81160000  1.0 0.1414998278
H  H20  1  0.87030000  0.73030000  0.38510000  1.0 0.1299640845
H  H21  1  0.76250000  0.81970000  0.41490000  1.0 0.1299640845
H  H22  1  0.82710000  0.81010000  0.45210000  1.0 0.1299640845
H  H23  1  0.59120000  0.70920000  0.78120000  1.0 0.1209288585
H  H24  1  0.68410000  0.60870000  0.78530000  1.0 0.1209288585
H  H25  1  0.81270000  0.53250000  0.67010000  1.0 0.1414998278
H  H26  1  0.89680000  0.57520000  0.48640000  1.0 0.1414998278
H  H27  1  0.65330000  0.81710000  0.62930000  1.0 0.1414998278
H  H28  1  0.76690000  0.89410000  0.71090000  1.0 0.1414998278
H  H29  1  0.77000000  0.81200000  0.68860000  1.0 0.1209288585
H  H30  1  0.76640000  0.81160000  0.78760000  1.0 0.1414998278
H  H31  1  0.01430000  0.38510000  0.73030000  1.0 0.1299640845
H  H32  1  0.00290000  0.41490000  0.81970000  1.0 0.1299640845
H  H33  1  0.91070000  0.45210000  0.81010000  1.0 0.1299640845
H  H34  1  0.91840000  0.78120000  0.70920000  1.0 0.1209288585
H  H35  1  0.92190000  0.78530000  0.60870000  1.0 0.1209288585
H  H36  1  0.98470000  0.67010000  0.53250000  1.0 0.1414998278
H  H37  1  0.04160000  0.48640000  0.57520000  1.0 0.1414998278
H  H38  1  0.90030000  0.62930000  0.81710000  1.0 0.1414998278
H  H39  1  0.53910000  0.62190000  0.48310000  1.0 0.1414998278
H  H40  1  0.56140000  0.52060000  0.48000000  1.0 0.1209288585
H  H41  1  0.46240000  0.61560000  0.48360000  1.0 0.1414998278
H  H42  1  0.51970000  0.37970000  0.23570000  1.0 0.1299640845
H  H43  1  0.43030000  0.48750000  0.24710000  1.0 0.1299640845
H  H44  1  0.43990000  0.42290000  0.33930000  1.0 0.1299640845
H  H45  1  0.54080000  0.65880000  0.33160000  1.0 0.1209288585
H  H46  1  0.64130000  0.56590000  0.32810000  1.0 0.1209288585
H  H47  1  0.71750000  0.43730000  0.26530000  1.0 0.1414998278
H  H48  1  0.67480000  0.35320000  0.20840000  1.0 0.1414998278
H  H49  1  0.43290000  0.59670000  0.34970000  1.0 0.1414998278
H  H50  1  0.35590000  0.48310000  0.62190000  1.0 0.1414998278
H  H51  1  0.43800000  0.48000000  0.52060000  1.0 0.1209288585
H  H52  1  0.43840000  0.48360000  0.61560000  1.0 0.1414998278
H  H53  1  0.86490000  0.23570000  0.37970000  1.0 0.1299640845
H  H54  1  0.83510000  0.24710000  0.48750000  1.0 0.1299640845
H  H55  1  0.79790000  0.33930000  0.42290000  1.0 0.1299640845
H  H56  1  0.46880000  0.33160000  0.65880000  1.0 0.1209288585
H  H57  1  0.46470000  0.32810000  0.56590000  1.0 0.1209288585
H  H58  1  0.57990000  0.26530000  0.43730000  1.0 0.1414998278
H  H59  1  0.76360000  0.20840000  0.35320000  1.0 0.1414998278
H  H60  1  0.62070000  0.34970000  0.59670000  1.0 0.1414998278
H  H61  1  0.51120000  0.12240000  0.97500000  1.0 0.1414998278
H  H62  1  0.48340000  0.22380000  0.92380000  1.0 0.1414998278
H  H63  1  0.57970000  0.15710000  0.93670000  1.0 0.1299640845
H  H64  1  0.42400000  0.44280000  0.18940000  1.0 0.1089176397
H  H65  1  0.48370000  0.33130000  0.17430000  1.0 0.098237333
H  H66  1  0.43300000  0.40580000  0.10660000  1.0 0.0930177729
H  H67  1  0.32930000  0.37290000  0.30770000  1.0 0.1209288585
H  H68  1  0.27580000  0.45240000  0.24040000  1.0 0.1089176397
H  H69  1  0.37340000  0.15940000  0.26880000  1.0 0.1538684136
H  H70  1  0.48320000  0.07500000  0.10000000  1.0 0.1089176397
H  H71  1  0.46880000  0.35220000  0.02720000  1.0 0.0782552167
H  H72  1  0.39140000  0.97500000  0.12240000  1.0 0.1414998278
H  H73  1  0.36900000  0.92380000  0.22380000  1.0 0.1414998278
H  H74  1  0.32650000  0.93670000  0.15710000  1.0 0.1299640845
H  H75  1  0.94380000  0.18940000  0.44280000  1.0 0.1089176397
H  H76  1  0.01070000  0.17430000  0.33130000  1.0 0.098237333
H  H77  1  0.05460000  0.10660000  0.40580000  1.0 0.0930177729
H  H78  1  0.99010000  0.30770000  0.37290000  1.0 0.1209288585
H  H79  1  0.03140000  0.24040000  0.45240000  1.0 0.1089176397
H  H80  1  0.19840000  0.26880000  0.15940000  1.0 0.1538684136
H  H81  1  0.34180000  0.10000000  0.07500000  1.0 0.1089176397
H  H82  1  0.15180000  0.02720000  0.35220000  1.0 0.0782552167
H  H83  1  0.12760000  0.73880000  0.85860000  1.0 0.1414998278
H  H84  1  0.02620000  0.76660000  0.88100000  1.0 0.1414998278
H  H85  1  0.09290000  0.67030000  0.92350000  1.0 0.1299640845
H  H86  1  0.80720000  0.82600000  0.30620000  1.0 0.1089176397
H  H87  1  0.91870000  0.76630000  0.23930000  1.0 0.098237333
H  H88  1  0.84420000  0.81700000  0.19540000  1.0 0.0930177729
H  H89  1  0.87710000  0.92070000  0.25990000  1.0 0.1209288585
H  H90  1  0.79760000  0.97420000  0.21860000  1.0 0.1089176397
H  H91  1  0.09060000  0.87660000  0.05160000  1.0 0.1538684136
H  H92  1  0.17500000  0.76680000  0.90820000  1.0 0.1089176397
H  H93  1  0.89780000  0.78120000  0.09820000  1.0 0.0782552167
H  H94  1  0.27500000  0.85860000  0.73880000  1.0 0.1414998278
H  H95  1  0.32620000  0.88100000  0.76660000  1.0 0.1414998278
H  H96  1  0.31330000  0.92350000  0.67030000  1.0 0.1299640845
H  H97  1  0.06060000  0.30620000  0.82600000  1.0 0.1089176397
H  H98  1  0.07570000  0.23930000  0.76630000  1.0 0.098237333
H  H99  1  0.14340000  0.19540000  0.81700000  1.0 0.0930177729
H  H100  1  0.94230000  0.25990000  0.92070000  1.0 0.1209288585
H  H101  1  0.00960000  0.21860000  0.97420000  1.0 0.1089176397
H  H102  1  0.98120000  0.05160000  0.87660000  1.0 0.1538684136
H  H103  1  0.15000000  0.90820000  0.76680000  1.0 0.1089176397
H  H104  1  0.22280000  0.09820000  0.78120000  1.0 0.0782552167
C  C1  1  0.35080000  0.95280000  0.44260000  1.0 0.5232542335
C  C2  1  0.25380000  0.44260000  0.95280000  1.0 0.5232542335
C  C3  1  0.29720000  0.89920000  0.99620000  1.0 0.5232542335
C  C4  1  0.80740000  0.99620000  0.89920000  1.0 0.5232542335
C  C5  1  0.99730000  0.10070000  0.63830000  1.0 0.6050536066
C  C6  1  0.26370000  0.63830000  0.10070000  1.0 0.6050536066
C  C7  1  0.14930000  0.25270000  0.98630000  1.0 0.6050536066
C  C8  1  0.61170000  0.98630000  0.25270000  1.0 0.6050536066
C  C9  1  0.17050000  0.03530000  0.54290000  1.0 -0.1087521658
C  C10  1  0.25130000  0.54290000  0.03530000  1.0 -0.1087521658
C  C11  1  0.21470000  0.07950000  0.99870000  1.0 -0.1087521658
C  C12  1  0.70710000  0.99870000  0.07950000  1.0 -0.1087521658
C  C13  1  0.08030000  0.11130000  0.59650000  1.0 -0.0378496734
C  C14  1  0.21190000  0.59650000  0.11130000  1.0 -0.0378496734
C  C15  1  0.13870000  0.16970000  0.03810000  1.0 -0.0378496734
C  C16  1  0.65350000  0.03810000  0.16970000  1.0 -0.0378496734
C  C17  1  0.06690000  0.19430000  0.60870000  1.0 -0.011400719
C  C18  1  0.13010000  0.60870000  0.19430000  1.0 -0.011400719
C  C19  1  0.05570000  0.18310000  0.11990000  1.0 -0.011400719
C  C20  1  0.64130000  0.11990000  0.18310000  1.0 -0.011400719
C  C21  1  0.96960000  0.27880000  0.66900000  1.0 0.5671193232
C  C22  1  0.08260000  0.66900000  0.27880000  1.0 0.5671193232
C  C23  1  0.97120000  0.28040000  0.16740000  1.0 0.5671193232
C  C24  1  0.58100000  0.16740000  0.28040000  1.0 0.5671193232
C  C25  1  0.14230000  0.68170000  0.59590000  1.0 -0.0378496734
C  C26  1  0.58010000  0.59590000  0.68170000  1.0 -0.0378496734
C  C27  1  0.56830000  0.10770000  0.66990000  1.0 -0.0378496734
C  C28  1  0.65410000  0.66990000  0.10770000  1.0 -0.0378496734
C  C29  1  0.09720000  0.78660000  0.61120000  1.0 0.5671193232
C  C30  1  0.50500000  0.61120000  0.78660000  1.0 0.5671193232
C  C31  1  0.46340000  0.15280000  0.74500000  1.0 0.5671193232
C  C32  1  0.63880000  0.74500000  0.15280000  1.0 0.5671193232
C  C33  1  0.22650000  0.48530000  0.57910000  1.0 -0.0287744807
C  C34  1  0.70910000  0.57910000  0.48530000  1.0 -0.0287744807
C  C35  1  0.76470000  0.02350000  0.54090000  1.0 -0.0287744807
C  C36  1  0.67090000  0.54090000  0.02350000  1.0 -0.0287744807
C  C37  1  0.13810000  0.61990000  0.67890000  1.0 -0.1370293469
C  C38  1  0.56310000  0.67890000  0.61990000  1.0 -0.1370293469
C  C39  1  0.63010000  0.11190000  0.68690000  1.0 -0.1370293469
C  C40  1  0.57110000  0.68690000  0.11190000  1.0 -0.1370293469
C  C41  1  0.23110000  0.54610000  0.49870000  1.0 -0.1268888487
C  C42  1  0.72410000  0.49870000  0.54610000  1.0 -0.1268888487
C  C43  1  0.70390000  0.01890000  0.52590000  1.0 -0.1268888487
C  C44  1  0.75130000  0.52590000  0.01890000  1.0 -0.1268888487
C  C45  1  0.18700000  0.64460000  0.50620000  1.0 -0.0287744807
C  C46  1  0.66220000  0.50620000  0.64460000  1.0 -0.0287744807
C  C47  1  0.60540000  0.06300000  0.58780000  1.0 -0.0287744807
C  C48  1  0.74380000  0.58780000  0.06300000  1.0 -0.0287744807
C  C49  1  0.27070000  0.38250000  0.56250000  1.0 0.5623172252
C  C50  1  0.78430000  0.56250000  0.38250000  1.0 0.5623172252
C  C51  1  0.86750000  0.97930000  0.46570000  1.0 0.5623172252
C  C52  1  0.68750000  0.46570000  0.97930000  1.0 0.5623172252
C  C53  1  0.14720000  0.19740000  0.56980000  1.0 -0.1225555063
C  C54  1  0.08560000  0.56980000  0.19740000  1.0 -0.1225555063
C  C55  1  0.05260000  0.10280000  0.16440000  1.0 -0.1225555063
C  C56  1  0.68020000  0.16440000  0.10280000  1.0 -0.1225555063
C  C57  1  0.25240000  0.03880000  0.50300000  1.0 -0.0191543334
C  C58  1  0.20580000  0.50300000  0.03880000  1.0 -0.0191543334
C  C59  1  0.21120000  0.99760000  0.04420000  1.0 -0.0191543334
C  C60  1  0.74700000  0.04420000  0.99760000  1.0 -0.0191543334
C  C61  1  0.23870000  0.11810000  0.52090000  1.0 -0.0378496734
C  C62  1  0.12230000  0.52090000  0.11810000  1.0 -0.0378496734
C  C63  1  0.13190000  0.01130000  0.12770000  1.0 -0.0378496734
C  C64  1  0.72910000  0.12770000  0.01130000  1.0 -0.0378496734
C  C65  1  0.18240000  0.70540000  0.41500000  1.0 0.6018291965
C  C66  1  0.69720000  0.41500000  0.70540000  1.0 0.6018291965
C  C67  1  0.54460000  0.06760000  0.55280000  1.0 0.6018291965
C  C68  1  0.83500000  0.55280000  0.06760000  1.0 0.6018291965
C  C69  1  0.17990000  0.52290000  0.67010000  1.0 -0.0378496734
C  C70  1  0.62710000  0.67010000  0.52290000  1.0 -0.0378496734
C  C71  1  0.72710000  0.07010000  0.62290000  1.0 -0.0378496734
C  C72  1  0.57990000  0.62290000  0.07010000  1.0 -0.0378496734
C  C73  1  0.17400000  0.46420000  0.76200000  1.0 0.6018291965
C  C74  1  0.59980000  0.76200000  0.46420000  1.0 0.6018291965
C  C75  1  0.78580000  0.07600000  0.65020000  1.0 0.6018291965
C  C76  1  0.48800000  0.65020000  0.07600000  1.0 0.6018291965
C  C77  1  0.32820000  0.11040000  0.49880000  1.0 0.5671193232
C  C78  1  0.06260000  0.49880000  0.11040000  1.0 0.5671193232
C  C79  1  0.13960000  0.92180000  0.18740000  1.0 0.5671193232
C  C80  1  0.75120000  0.18740000  0.92180000  1.0 0.5671193232
C  C81  1  0.66300000  0.71960000  0.82640000  1.0 -0.4165749595
C  C82  1  0.81270000  0.77550000  0.43650000  1.0 -0.3719104126
C  C83  1  0.65800000  0.67680000  0.76860000  1.0 -0.0287744807
C  C84  1  0.79290000  0.59250000  0.63890000  1.0 -0.1728175998
C  C85  1  0.83960000  0.61740000  0.53560000  1.0 -0.0496823237
C  C86  1  0.70320000  0.75200000  0.61660000  1.0 0.0600948973
C  C87  1  0.79100000  0.82640000  0.71960000  1.0 -0.4165749595
C  C88  1  0.97530000  0.43650000  0.77550000  1.0 -0.3719104126
C  C89  1  0.89660000  0.76860000  0.67680000  1.0 -0.0287744807
C  C90  1  0.97570000  0.63890000  0.59250000  1.0 -0.1728175998
C  C91  1  0.00740000  0.53560000  0.61740000  1.0 -0.0496823237
C  C92  1  0.92820000  0.61660000  0.75200000  1.0 0.0600948973
C  C93  1  0.53040000  0.58700000  0.45900000  1.0 -0.4165749595
C  C94  1  0.47450000  0.43730000  0.27470000  1.0 -0.3719104126
C  C95  1  0.57320000  0.59200000  0.35340000  1.0 -0.0287744807
C  C96  1  0.65750000  0.45710000  0.27430000  1.0 -0.1728175998
C  C97  1  0.63260000  0.41040000  0.24260000  1.0 -0.0496823237
C  C98  1  0.49800000  0.54680000  0.32180000  1.0 0.0600948973
C  C99  1  0.42360000  0.45900000  0.58700000  1.0 -0.4165749595
C  C100  1  0.81350000  0.27470000  0.43730000  1.0 -0.3719104126
C  C101  1  0.48140000  0.35340000  0.59200000  1.0 -0.0287744807
C  C102  1  0.61110000  0.27430000  0.45710000  1.0 -0.1728175998
C  C103  1  0.71440000  0.24260000  0.41040000  1.0 -0.0496823237
C  C104  1  0.63340000  0.32180000  0.54680000  1.0 0.0600948973
C  C105  1  0.51300000  0.17700000  0.96700000  1.0 -0.3102374346
C  C106  1  0.42900000  0.39300000  0.17100000  1.0 -0.3425524951
C  C107  1  0.33560000  0.39360000  0.24240000  1.0 -0.1268888487
C  C108  1  0.39940000  0.18140000  0.20660000  1.0 -0.2340044648
C  C109  1  0.45780000  0.13580000  0.11620000  1.0 -0.0496823237
C  C110  1  0.45060000  0.30940000  0.06460000  1.0 0.0600948973
C  C111  1  0.34300000  0.96700000  0.17700000  1.0 -0.3102374346
C  C112  1  0.00700000  0.17100000  0.39300000  1.0 -0.3425524951
C  C113  1  0.02840000  0.24240000  0.39360000  1.0 -0.1268888487
C  C114  1  0.21260000  0.20660000  0.18140000  1.0 -0.2340044648
C  C115  1  0.29020000  0.11620000  0.13580000  1.0 -0.0496823237
C  C116  1  0.17540000  0.06460000  0.30940000  1.0 0.0600948973
C  C117  1  0.07300000  0.73700000  0.90700000  1.0 -0.3102374346
C  C118  1  0.85700000  0.82100000  0.24300000  1.0 -0.3425524951
C  C119  1  0.85640000  0.91440000  0.22160000  1.0 -0.1268888487
C  C120  1  0.06860000  0.85060000  0.03740000  1.0 -0.2340044648
C  C121  1  0.11420000  0.79220000  0.95980000  1.0 -0.0496823237
C  C122  1  0.94060000  0.79940000  0.07460000  1.0 0.0600948973
C  C123  1  0.28300000  0.90700000  0.73700000  1.0 -0.3102374346
C  C124  1  0.07900000  0.24300000  0.82100000  1.0 -0.3425524951
C  C125  1  0.00760000  0.22160000  0.91440000  1.0 -0.1268888487
C  C126  1  0.04340000  0.03740000  0.85060000  1.0 -0.2352793783
C  C127  1  0.13380000  0.95980000  0.79220000  1.0 -0.0496823237
C  C128  1  0.18540000  0.07460000  0.79940000  1.0 0.0600948973
N  N1  1  0.77920000  0.71660000  0.52940000  1.0 0.1089176397
N  N2  1  0.70870000  0.68710000  0.67690000  1.0 0.0474930062
N  N3  1  0.97480000  0.52940000  0.71660000  1.0 0.1089176397
N  N4  1  0.92730000  0.67690000  0.68710000  1.0 0.0474930062
N  N5  1  0.53340000  0.47080000  0.27520000  1.0 0.1089176397
N  N6  1  0.56290000  0.54130000  0.32270000  1.0 0.0474930062
N  N7  1  0.72060000  0.27520000  0.47080000  1.0 0.1089176397
N  N8  1  0.57310000  0.32270000  0.54130000  1.0 0.0474930062
N  N9  1  0.39380000  0.29720000  0.16280000  1.0 -0.0287744807
N  N10  1  0.46530000  0.21870000  0.05330000  1.0 0.1591422177
N  N11  1  0.14620000  0.16280000  0.29720000  1.0 -0.0287744807
N  N12  1  0.26270000  0.05330000  0.21870000  1.0 0.1591422177
N  N13  1  0.95280000  0.85620000  0.10380000  1.0 -0.0378496734
N  N14  1  0.03130000  0.78470000  0.98730000  1.0 0.1591422177
N  N15  1  0.08720000  0.10380000  0.85620000  1.0 -0.0287744807
N  N16  1  0.19670000  0.98730000  0.78470000  1.0 0.1591422177
O  O1  1  0.09870000  0.77170000  0.42230000  1.0 -0.5405335397
O  O2  1  0.70730000  0.42230000  0.77170000  1.0 -0.5405335397
O  O3  1  0.47830000  0.15130000  0.54270000  1.0 -0.5405335397
O  O4  1  0.82770000  0.54270000  0.15130000  1.0 -0.5405335397
O  O5  1  0.25890000  0.68110000  0.34390000  1.0 -0.5103449494
O  O6  1  0.71610000  0.34390000  0.68110000  1.0 -0.5103449494
O  O7  1  0.56890000  0.99110000  0.53390000  1.0 -0.5103449494
O  O8  1  0.90610000  0.53390000  0.99110000  1.0 -0.5103449494
O  O9  1  0.23030000  0.34150000  0.62290000  1.0 -0.5246266097
O  O10  1  0.80530000  0.62290000  0.34150000  1.0 -0.5281424195
O  O11  1  0.90850000  0.01970000  0.44470000  1.0 -0.5246266097
O  O12  1  0.62710000  0.44470000  0.01970000  1.0 -0.5281424195
O  O13  1  0.34550000  0.34850000  0.48390000  1.0 -0.5624277637
O  O14  1  0.82210000  0.48390000  0.34850000  1.0 -0.5624277637
O  O15  1  0.90150000  0.90450000  0.42790000  1.0 -0.5624277637
O  O16  1  0.76610000  0.42790000  0.90450000  1.0 -0.5624277637
O  O17  1  0.92840000  0.25800000  0.75480000  1.0 -0.5405335397
O  O18  1  0.05880000  0.75480000  0.25800000  1.0 -0.5405335397
O  O19  1  0.99200000  0.32160000  0.19120000  1.0 -0.5405335397
O  O20  1  0.49520000  0.19120000  0.32160000  1.0 -0.5405335397
O  O21  1  0.93690000  0.36010000  0.63090000  1.0 -0.5405335397
O  O22  1  0.07210000  0.63090000  0.36010000  1.0 -0.5405335397
O  O23  1  0.88990000  0.31310000  0.17790000  1.0 -0.5405335397
O  O24  1  0.61910000  0.17790000  0.31310000  1.0 -0.5405335397
O  O25  1  0.91530000  0.17570000  0.64590000  1.0 -0.5516035975
O  O26  1  0.26310000  0.64590000  0.17570000  1.0 -0.5516035975
O  O27  1  0.07430000  0.33470000  0.98690000  1.0 -0.5516035975
O  O28  1  0.60410000  0.98690000  0.33470000  1.0 -0.5516035975
O  O29  1  0.01590000  0.01610000  0.66230000  1.0 -0.5405335397
O  O30  1  0.30570000  0.66230000  0.01610000  1.0 -0.5405335397
O  O31  1  0.23390000  0.23410000  0.94430000  1.0 -0.5405335397
O  O32  1  0.58770000  0.94430000  0.23410000  1.0 -0.5405335397
O  O33  1  0.40860000  0.96700000  0.37920000  1.0 -0.443560195
O  O34  1  0.24520000  0.37920000  0.96700000  1.0 -0.443560195
O  O35  1  0.28300000  0.84140000  0.00480000  1.0 -0.443560195
O  O36  1  0.87080000  0.00480000  0.84140000  1.0 -0.443560195
O  O37  1  0.02910000  0.82070000  0.69270000  1.0 -0.5624277637
O  O38  1  0.45750000  0.69270000  0.82070000  1.0 -0.5624277637
O  O39  1  0.42930000  0.22090000  0.79250000  1.0 -0.5624277637
O  O40  1  0.55730000  0.79250000  0.22090000  1.0 -0.5624277637
O  O41  1  0.25430000  0.38730000  0.76030000  1.0 -0.5405335397
O  O42  1  0.59810000  0.76030000  0.38730000  1.0 -0.5405335397
O  O43  1  0.86270000  0.99570000  0.65190000  1.0 -0.5405335397
O  O44  1  0.48970000  0.65190000  0.99570000  1.0 -0.5405335397
O  O45  1  0.09480000  0.49580000  0.83160000  1.0 -0.5281424195
O  O46  1  0.57780000  0.83160000  0.49580000  1.0 -0.5281424195
O  O47  1  0.75420000  0.15520000  0.67220000  1.0 -0.5281424195
O  O48  1  0.41840000  0.67220000  0.15520000  1.0 -0.5281424195
O  O49  1  0.33070000  0.17610000  0.47710000  1.0 -0.3519854144
O  O50  1  0.01610000  0.47710000  0.17610000  1.0 -0.3519854144
O  O51  1  0.07390000  0.91930000  0.23390000  1.0 -0.3519854144
O  O52  1  0.77290000  0.23390000  0.91930000  1.0 -0.3519854144
O  O53  1  0.39800000  0.02880000  0.51020000  1.0 -0.4975672409
O  O54  1  0.06300000  0.51020000  0.02880000  1.0 -0.4975672409
O  O55  1  0.22120000  0.85200000  0.18700000  1.0 -0.4975672409
O  O56  1  0.73980000  0.18700000  0.85200000  1.0 -0.4975672409
O  O57  1  0.13290000  0.82830000  0.54430000  1.0 -0.5103449494
O  O58  1  0.49450000  0.54430000  0.82830000  1.0 -0.5103449494
O  O59  1  0.42170000  0.11710000  0.75550000  1.0 -0.5103449494
O  O60  1  0.70570000  0.75550000  0.11710000  1.0 -0.5103449494
O  O61  1  0.36710000  0.87370000  0.46210000  1.0 -0.4302177102
O  O62  1  0.29710000  0.46210000  0.87370000  1.0 -0.4302177102
O  O63  1  0.37630000  0.88290000  0.95290000  1.0 -0.4302177102
O  O64  1  0.78790000  0.95290000  0.88290000  1.0 -0.4302177102
