# DDEC6 charges by PACMAN v1.1 (https://github.com/mtap-research/PACMAN-charge/)
data_UNECOH_ASR_pacman
_symmetry_space_group_name_H-M   'P 1'
_cell_length_a   16.99370000
_cell_length_b   16.99370000
_cell_length_c   16.99370000
_cell_angle_alpha   105.97100000
_cell_angle_beta   105.97100000
_cell_angle_gamma   116.72500000
_symmetry_Int_Tables_number   1
_chemical_formula_structural   ZnCo2H6(C6O5)3
_chemical_formula_sum   'Zn4 Co8 H24 C72 O60'
_cell_volume   3731.83825535
_cell_formula_units_Z   4
loop_
 _symmetry_equiv_pos_site_id
 _symmetry_equiv_pos_as_xyz
  1  'x, y, z'
loop_
 _atom_site_type_symbol
 _atom_site_label
 _atom_site_symmetry_multiplicity
 _atom_site_fract_x
 _atom_site_fract_y
 _atom_site_fract_z
 _atom_site_occupancy
 _atom_site_charge
Zn  Zn1  1  0.84860000  0.66040000  0.50000000  1.0 0.9739674799
Zn  Zn2  1  0.16040000  0.34860000  0.50000000  1.0 0.9739674799
Zn  Zn3  1  0.34860000  0.84860000  0.18820000  1.0 0.9739674799
Zn  Zn4  1  0.66040000  0.16040000  0.81180000  1.0 0.9739674799
Co  Co1  1  0.90841000  0.76960000  0.37669000  1.0 0.9374820357
Co  Co2  1  0.39291000  0.53172000  0.62331000  1.0 0.9374820357
Co  Co3  1  0.53172000  0.90841000  0.13881000  1.0 0.9374820357
Co  Co4  1  0.76960000  0.39291000  0.86119000  1.0 0.9374820357
Co  Co5  1  0.40841000  0.03172000  0.13881000  1.0 0.9374820357
Co  Co6  1  0.89291000  0.26960000  0.86119000  1.0 0.9374820357
Co  Co7  1  0.03172000  0.89291000  0.62331000  1.0 0.9333589099
Co  Co8  1  0.26960000  0.40841000  0.37669000  1.0 0.9374820357
H  H1  1  0.09900000  0.06530000  0.39310000  1.0 0.1302466092
H  H2  1  0.67220000  0.70590000  0.60690000  1.0 0.1302466092
H  H3  1  0.70590000  0.09900000  0.03370000  1.0 0.1302466092
H  H4  1  0.06530000  0.67220000  0.96630000  1.0 0.1302466092
H  H5  1  0.59900000  0.20590000  0.03370000  1.0 0.1302466092
H  H6  1  0.17220000  0.56530000  0.96630000  1.0 0.1302466092
H  H7  1  0.20590000  0.17220000  0.60690000  1.0 0.1302466092
H  H8  1  0.56530000  0.59900000  0.39310000  1.0 0.1302466092
H  H9  1  0.31110000  0.16840000  0.31510000  1.0 0.1302466092
H  H10  1  0.85330000  0.99600000  0.68490000  1.0 0.1302466092
H  H11  1  0.99600000  0.31110000  0.14270000  1.0 0.1302466092
H  H12  1  0.16840000  0.85330000  0.85730000  1.0 0.1302466092
H  H13  1  0.81110000  0.49600000  0.14270000  1.0 0.1302466092
H  H14  1  0.35330000  0.66840000  0.85730000  1.0 0.1302466092
H  H15  1  0.49600000  0.35330000  0.68490000  1.0 0.1302466092
H  H16  1  0.66840000  0.81110000  0.31510000  1.0 0.1302466092
H  H17  1  0.20400000  0.90510000  0.31690000  1.0 0.1302466092
H  H18  1  0.58820000  0.88710000  0.68310000  1.0 0.1302466092
H  H19  1  0.88710000  0.20400000  0.29890000  1.0 0.1302466092
H  H20  1  0.90510000  0.58820000  0.70110000  1.0 0.1302466092
H  H21  1  0.70400000  0.38710000  0.29890000  1.0 0.1302466092
H  H22  1  0.08820000  0.40510000  0.70110000  1.0 0.1302466092
H  H23  1  0.38710000  0.08820000  0.68310000  1.0 0.1302466092
H  H24  1  0.40510000  0.70400000  0.31690000  1.0 0.1302466092
C  C1  1  0.06575000  0.88831000  0.36544000  1.0 0.5236343764
C  C2  1  0.52287000  0.70031000  0.63456000  1.0 0.5236343764
C  C3  1  0.70031000  0.06575000  0.17744000  1.0 0.5236343764
C  C4  1  0.88831000  0.52287000  0.82256000  1.0 0.5236343764
C  C5  1  0.56575000  0.20031000  0.17744000  1.0 0.5236343764
C  C6  1  0.02287000  0.38831000  0.82256000  1.0 0.5236343764
C  C7  1  0.20031000  0.02287000  0.63456000  1.0 0.5236343764
C  C8  1  0.38831000  0.56575000  0.36544000  1.0 0.5236343764
C  C9  1  0.14042000  0.97239000  0.35645000  1.0 -0.0319458234
C  C10  1  0.61594000  0.78397000  0.64355000  1.0 -0.0319458234
C  C11  1  0.78397000  0.14042000  0.16803000  1.0 -0.0319458234
C  C12  1  0.97239000  0.61594000  0.83197000  1.0 -0.0319458234
C  C13  1  0.64042000  0.28397000  0.16803000  1.0 -0.0319458234
C  C14  1  0.11594000  0.47239000  0.83197000  1.0 -0.0319458234
C  C15  1  0.28397000  0.11594000  0.64355000  1.0 -0.0319458234
C  C16  1  0.47239000  0.64042000  0.35645000  1.0 -0.0319458234
C  C17  1  0.14156000  0.05768000  0.37220000  1.0 -0.1037042924
C  C18  1  0.68548000  0.76936000  0.62780000  1.0 -0.1037042924
C  C19  1  0.76936000  0.14156000  0.08388000  1.0 -0.1037042924
C  C20  1  0.05768000  0.68548000  0.91612000  1.0 -0.1037042924
C  C21  1  0.64156000  0.26936000  0.08388000  1.0 -0.1037042924
C  C22  1  0.18548000  0.55768000  0.91612000  1.0 -0.1037042924
C  C23  1  0.26936000  0.18548000  0.62780000  1.0 -0.1037042924
C  C24  1  0.55768000  0.64156000  0.37220000  1.0 -0.1037042924
C  C25  1  0.20514000  0.13118000  0.35720000  1.0 -0.0366150861
C  C26  1  0.77398000  0.84794000  0.64280000  1.0 -0.0366150861
C  C27  1  0.84794000  0.20514000  0.07396000  1.0 -0.0366150861
C  C28  1  0.13118000  0.77398000  0.92604000  1.0 -0.0366150861
C  C29  1  0.70514000  0.34794000  0.07396000  1.0 -0.0366150861
C  C30  1  0.27398000  0.63118000  0.92604000  1.0 -0.0366150861
C  C31  1  0.34794000  0.27398000  0.64280000  1.0 -0.0366150861
C  C32  1  0.63118000  0.70514000  0.35720000  1.0 -0.0366150861
C  C33  1  0.26841000  0.11931000  0.32570000  1.0 -0.1037042924
C  C34  1  0.79361000  0.94271000  0.67430000  1.0 -0.1037042924
C  C35  1  0.94271000  0.26841000  0.14910000  1.0 -0.1037042924
C  C36  1  0.11931000  0.79361000  0.85090000  1.0 -0.1037042924
C  C37  1  0.76841000  0.44271000  0.14910000  1.0 -0.1037042924
C  C38  1  0.29361000  0.61931000  0.85090000  1.0 -0.1037042924
C  C39  1  0.44271000  0.29361000  0.67430000  1.0 -0.1037042924
C  C40  1  0.61931000  0.76841000  0.32570000  1.0 -0.1037042924
C  C41  1  0.26810000  0.03507000  0.31015000  1.0 -0.018282812
C  C42  1  0.72492000  0.95795000  0.68985000  1.0 -0.018282812
C  C43  1  0.95795000  0.26810000  0.23303000  1.0 -0.018282812
C  C44  1  0.03507000  0.72492000  0.76697000  1.0 -0.018282812
C  C45  1  0.76810000  0.45795000  0.23303000  1.0 -0.018282812
C  C46  1  0.22492000  0.53507000  0.76697000  1.0 -0.018282812
C  C47  1  0.45795000  0.22492000  0.68985000  1.0 -0.018282812
C  C48  1  0.53507000  0.76810000  0.31015000  1.0 -0.018282812
C  C49  1  0.20378000  0.96160000  0.32646000  1.0 -0.1079149783
C  C50  1  0.63514000  0.87732000  0.67354000  1.0 -0.1079149783
C  C51  1  0.87732000  0.20378000  0.24218000  1.0 -0.1079149783
C  C52  1  0.96160000  0.63514000  0.75782000  1.0 -0.1079149783
C  C53  1  0.70378000  0.37732000  0.24218000  1.0 -0.1079149783
C  C54  1  0.13514000  0.46160000  0.75782000  1.0 -0.1079149783
C  C55  1  0.37732000  0.13514000  0.67354000  1.0 -0.1079149783
C  C56  1  0.46160000  0.70378000  0.32646000  1.0 -0.1079149783
C  C57  1  0.20849000  0.22511000  0.37818000  1.0 0.5901222177
C  C58  1  0.84693000  0.83031000  0.62182000  1.0 0.5901222177
C  C59  1  0.83031000  0.20849000  0.98338000  1.0 0.5901222177
C  C60  1  0.22511000  0.84693000  0.01662000  1.0 0.5901222177
C  C61  1  0.70849000  0.33031000  0.98338000  1.0 0.5901222177
C  C62  1  0.34693000  0.72511000  0.01662000  1.0 0.5901222177
C  C63  1  0.33031000  0.34693000  0.62182000  1.0 0.5901222177
C  C64  1  0.72511000  0.70849000  0.37818000  1.0 0.5901222177
C  C65  1  0.33038000  0.01606000  0.26868000  1.0 0.5901222177
C  C66  1  0.74738000  0.06170000  0.73132000  1.0 0.5901222177
C  C67  1  0.06170000  0.33038000  0.31432000  1.0 0.5901222177
C  C68  1  0.01606000  0.74738000  0.68568000  1.0 0.5901222177
C  C69  1  0.83038000  0.56170000  0.31432000  1.0 0.5901222177
C  C70  1  0.24738000  0.51606000  0.68568000  1.0 0.5901222177
C  C71  1  0.56170000  0.24738000  0.73132000  1.0 0.5901222177
C  C72  1  0.51606000  0.83038000  0.26868000  1.0 0.5901222177
O  O1  1  0.99153000  0.88475000  0.36480000  1.0 -0.471186021
O  O2  1  0.51995000  0.62673000  0.63520000  1.0 -0.471186021
O  O3  1  0.62673000  0.99153000  0.10678000  1.0 -0.471186021
O  O4  1  0.88475000  0.51995000  0.89322000  1.0 -0.471186021
O  O5  1  0.49153000  0.12673000  0.10678000  1.0 -0.471186021
O  O6  1  0.01995000  0.38475000  0.89322000  1.0 -0.471186021
O  O7  1  0.12673000  0.01995000  0.63520000  1.0 -0.471186021
O  O8  1  0.38475000  0.49153000  0.36480000  1.0 -0.471186021
O  O9  1  0.07947000  0.82515000  0.37112000  1.0 -0.3243570902
O  O10  1  0.45403000  0.70835000  0.62888000  1.0 -0.3251613952
O  O11  1  0.70835000  0.07947000  0.25432000  1.0 -0.3251613952
O  O12  1  0.82515000  0.45403000  0.74568000  1.0 -0.3251613952
O  O13  1  0.57947000  0.20835000  0.25432000  1.0 -0.3251613952
O  O14  1  0.95403000  0.32515000  0.74568000  1.0 -0.3251613952
O  O15  1  0.20835000  0.95403000  0.62888000  1.0 -0.3243570902
O  O16  1  0.32515000  0.57947000  0.37112000  1.0 -0.3251613952
O  O17  1  0.35638000  0.06272000  0.22368000  1.0 -0.5444061734
O  O18  1  0.83904000  0.13270000  0.77632000  1.0 -0.5451441385
O  O19  1  0.13270000  0.35638000  0.29366000  1.0 -0.5451441385
O  O20  1  0.06272000  0.83904000  0.70634000  1.0 -0.5444061734
O  O21  1  0.85638000  0.63270000  0.29366000  1.0 -0.5451441385
O  O22  1  0.33904000  0.56272000  0.70634000  1.0 -0.5451441385
O  O23  1  0.63270000  0.33904000  0.77632000  1.0 -0.5444061734
O  O24  1  0.56272000  0.85638000  0.22368000  1.0 -0.5444061734
O  O25  1  0.35138000  0.95819000  0.28403000  1.0 -0.5279893071
O  O26  1  0.67416000  0.06735000  0.71597000  1.0 -0.5279893071
O  O27  1  0.06735000  0.35138000  0.39319000  1.0 -0.5279893071
O  O28  1  0.95819000  0.67416000  0.60681000  1.0 -0.5279893071
O  O29  1  0.85138000  0.56735000  0.39319000  1.0 -0.5279893071
O  O30  1  0.17416000  0.45819000  0.60681000  1.0 -0.5279893071
O  O31  1  0.56735000  0.17416000  0.71597000  1.0 -0.5279893071
O  O32  1  0.45819000  0.85138000  0.28403000  1.0 -0.5279893071
O  O33  1  0.27012000  0.28989000  0.36581000  1.0 -0.5279893071
O  O34  1  0.92408000  0.90431000  0.63419000  1.0 -0.5279893071
O  O35  1  0.90431000  0.27012000  0.98023000  1.0 -0.5279893071
O  O36  1  0.28989000  0.92408000  0.01977000  1.0 -0.5279893071
O  O37  1  0.77012000  0.40431000  0.98023000  1.0 -0.5279893071
O  O38  1  0.42408000  0.78989000  0.01977000  1.0 -0.5279893071
O  O39  1  0.40431000  0.42408000  0.63419000  1.0 -0.5279893071
O  O40  1  0.78989000  0.77012000  0.36581000  1.0 -0.5279893071
O  O41  1  0.14882000  0.23139000  0.40339000  1.0 -0.5451441385
O  O42  1  0.82800000  0.74543000  0.59661000  1.0 -0.5451441385
O  O43  1  0.74543000  0.14882000  0.91743000  1.0 -0.5451441385
O  O44  1  0.23139000  0.82800000  0.08257000  1.0 -0.5451441385
O  O45  1  0.64882000  0.24543000  0.91743000  1.0 -0.5451441385
O  O46  1  0.32800000  0.73139000  0.08257000  1.0 -0.5451441385
O  O47  1  0.24543000  0.32800000  0.59661000  1.0 -0.5451441385
O  O48  1  0.73139000  0.64882000  0.40339000  1.0 -0.5451441385
O  O49  1  0.96451000  0.78299000  0.50000000  1.0 -0.5880293973
O  O50  1  0.28299000  0.46451000  0.50000000  1.0 -0.5880293973
O  O51  1  0.46451000  0.96451000  0.18152000  1.0 -0.5880293973
O  O52  1  0.78299000  0.28299000  0.81848000  1.0 -0.5880293973
O  O53  1  0.01765000  0.75140000  0.42185000  1.0 0.1196572076
O  O54  1  0.32955000  0.59580000  0.57815000  1.0 0.1196572076
O  O55  1  0.59580000  0.01765000  0.26625000  1.0 0.1196572076
O  O56  1  0.75140000  0.32955000  0.73375000  1.0 0.1196572076
O  O57  1  0.51765000  0.09580000  0.26625000  1.0 0.1196572076
O  O58  1  0.82955000  0.25140000  0.73375000  1.0 0.1196572076
O  O59  1  0.09580000  0.82955000  0.57815000  1.0 0.1196572076
O  O60  1  0.25140000  0.51765000  0.42185000  1.0 0.1196572076
