# DDEC6 charges by PACMAN v1.1 (https://github.com/mtap-research/PACMAN-charge/)
data_UNECUN_ASR_pacman
_symmetry_space_group_name_H-M   'P 1'
_cell_length_a   17.07570000
_cell_length_b   17.07570000
_cell_length_c   17.07570000
_cell_angle_alpha   105.79600000
_cell_angle_beta   105.79600000
_cell_angle_gamma   117.10100000
_symmetry_Int_Tables_number   1
_chemical_formula_structural   Zn2CdH6(C6O5)3
_chemical_formula_sum   'Zn8 Cd4 H24 C72 O60'
_cell_volume   3781.19986020
_cell_formula_units_Z   4
loop_
 _symmetry_equiv_pos_site_id
 _symmetry_equiv_pos_as_xyz
  1  'x, y, z'
loop_
 _atom_site_type_symbol
 _atom_site_label
 _atom_site_symmetry_multiplicity
 _atom_site_fract_x
 _atom_site_fract_y
 _atom_site_fract_z
 _atom_site_occupancy
 _atom_site_charge
Zn  Zn1  1  0.72328000  0.58383000  0.37733000  1.0 0.9306465704
Zn  Zn2  1  0.20650000  0.34595000  0.62267000  1.0 0.9306465704
Zn  Zn3  1  0.34595000  0.72328000  0.13945000  1.0 0.9306465704
Zn  Zn4  1  0.58383000  0.20650000  0.86055000  1.0 0.9306465704
Zn  Zn5  1  0.22328000  0.84595000  0.13945000  1.0 0.9306465704
Zn  Zn6  1  0.70650000  0.08383000  0.86055000  1.0 0.9306465704
Zn  Zn7  1  0.84595000  0.70650000  0.62267000  1.0 0.9306465704
Zn  Zn8  1  0.08383000  0.22328000  0.37733000  1.0 0.9306465704
Cd  Cd1  1  0.66173000  0.46995000  0.50000000  1.0 1.0699001867
Cd  Cd2  1  0.96995000  0.16173000  0.50000000  1.0 1.0699001867
Cd  Cd3  1  0.16173000  0.66173000  0.19178000  1.0 1.0699001867
Cd  Cd4  1  0.46995000  0.96995000  0.80822000  1.0 1.0699001867
H  H1  1  0.38040000  0.41390000  0.39190000  1.0 0.1315712035
H  H2  1  0.02200000  0.98850000  0.60810000  1.0 0.1315712035
H  H3  1  0.98850000  0.38040000  0.96650000  1.0 0.1315712035
H  H4  1  0.41390000  0.02200000  0.03350000  1.0 0.1315712035
H  H5  1  0.88040000  0.48850000  0.96650000  1.0 0.1315712035
H  H6  1  0.52200000  0.91390000  0.03350000  1.0 0.1315712035
H  H7  1  0.48850000  0.52200000  0.60810000  1.0 0.1315712035
H  H8  1  0.91390000  0.88040000  0.39190000  1.0 0.1315712035
H  H9  1  0.22040000  0.52150000  0.31590000  1.0 0.1315712035
H  H10  1  0.20560000  0.90450000  0.68410000  1.0 0.1315712035
H  H11  1  0.90450000  0.22040000  0.69890000  1.0 0.1315712035
H  H12  1  0.52150000  0.20560000  0.30110000  1.0 0.1315712035
H  H13  1  0.72040000  0.40450000  0.69890000  1.0 0.1315712035
H  H14  1  0.70560000  0.02150000  0.30110000  1.0 0.1315712035
H  H15  1  0.40450000  0.70560000  0.68410000  1.0 0.1315712035
H  H16  1  0.02150000  0.72040000  0.31590000  1.0 0.1315712035
H  H17  1  0.48370000  0.62460000  0.31190000  1.0 0.135991266
H  H18  1  0.31270000  0.17180000  0.68810000  1.0 0.135991266
H  H19  1  0.17180000  0.48370000  0.85910000  1.0 0.135991266
H  H20  1  0.62460000  0.31270000  0.14090000  1.0 0.135991266
H  H21  1  0.98370000  0.67180000  0.85910000  1.0 0.135991266
H  H22  1  0.81270000  0.12460000  0.14090000  1.0 0.135991266
H  H23  1  0.67180000  0.81270000  0.68810000  1.0 0.135991266
H  H24  1  0.12460000  0.98370000  0.31190000  1.0 0.135991266
C  C1  1  0.53900000  0.52180000  0.37620000  1.0 0.595719533
C  C2  1  0.14560000  0.16280000  0.62380000  1.0 0.5892820526
C  C3  1  0.16280000  0.53900000  0.01720000  1.0 0.5892820526
C  C4  1  0.52180000  0.14560000  0.98280000  1.0 0.595719533
C  C5  1  0.03900000  0.66280000  0.01720000  1.0 0.5892820526
C  C6  1  0.64560000  0.02180000  0.98280000  1.0 0.595719533
C  C7  1  0.66280000  0.64560000  0.62380000  1.0 0.595719533
C  C8  1  0.02180000  0.03900000  0.37620000  1.0 0.5892820526
C  C9  1  0.44460000  0.51890000  0.35610000  1.0 -0.0267433245
C  C10  1  0.16280000  0.08850000  0.64390000  1.0 -0.0267433245
C  C11  1  0.08850000  0.44460000  0.92570000  1.0 -0.0267433245
C  C12  1  0.51890000  0.16280000  0.07430000  1.0 -0.0267433245
C  C13  1  0.94460000  0.58850000  0.92570000  1.0 -0.0267433245
C  C14  1  0.66280000  0.01890000  0.07430000  1.0 -0.0267433245
C  C15  1  0.58850000  0.66280000  0.64390000  1.0 -0.0267433245
C  C16  1  0.01890000  0.94460000  0.35610000  1.0 -0.0267433245
C  C17  1  0.37280000  0.45610000  0.37090000  1.0 -0.1043034699
C  C18  1  0.08520000  0.00190000  0.62910000  1.0 -0.1043034699
C  C19  1  0.00190000  0.37280000  0.91670000  1.0 -0.1043034699
C  C20  1  0.45610000  0.08520000  0.08330000  1.0 -0.1043034699
C  C21  1  0.87280000  0.50190000  0.91670000  1.0 -0.1043034699
C  C22  1  0.58520000  0.95610000  0.08330000  1.0 -0.1043034699
C  C23  1  0.50190000  0.58520000  0.62910000  1.0 -0.1043034699
C  C24  1  0.95610000  0.87280000  0.37090000  1.0 -0.1043034699
C  C25  1  0.28670000  0.45500000  0.35470000  1.0 -0.0226658277
C  C26  1  0.10030000  0.93200000  0.64530000  1.0 -0.0226658277
C  C27  1  0.93200000  0.28670000  0.83170000  1.0 -0.0226658277
C  C28  1  0.45500000  0.10030000  0.16830000  1.0 -0.0226658277
C  C29  1  0.78670000  0.43200000  0.83170000  1.0 -0.0226658277
C  C30  1  0.60030000  0.95500000  0.16830000  1.0 -0.0226658277
C  C31  1  0.43200000  0.60030000  0.64530000  1.0 -0.0226658277
C  C32  1  0.95500000  0.78670000  0.35470000  1.0 -0.0226658277
C  C33  1  0.27590000  0.52013000  0.32505000  1.0 -0.1137712707
C  C34  1  0.19508000  0.95085000  0.67495000  1.0 -0.1150831189
C  C35  1  0.95085000  0.27590000  0.75577000  1.0 -0.1137712707
C  C36  1  0.52013000  0.19508000  0.24423000  1.0 -0.1137712707
C  C37  1  0.77590000  0.45085000  0.75577000  1.0 -0.1137712707
C  C38  1  0.69508000  0.02013000  0.24423000  1.0 -0.1137712707
C  C39  1  0.45085000  0.69508000  0.67495000  1.0 -0.1137712707
C  C40  1  0.02013000  0.77590000  0.32505000  1.0 -0.1137712707
C  C41  1  0.35178000  0.58330000  0.30948000  1.0 -0.0123670333
C  C42  1  0.27382000  0.04230000  0.69052000  1.0 -0.0123670333
C  C43  1  0.04230000  0.35178000  0.76848000  1.0 -0.0123670333
C  C44  1  0.58330000  0.27382000  0.23152000  1.0 -0.0123670333
C  C45  1  0.85178000  0.54230000  0.76848000  1.0 -0.0123670333
C  C46  1  0.77382000  0.08330000  0.23152000  1.0 -0.0123670333
C  C47  1  0.54230000  0.77382000  0.69052000  1.0 -0.0123670333
C  C48  1  0.08330000  0.85178000  0.30948000  1.0 -0.0123670333
C  C49  1  0.43498000  0.58320000  0.32358000  1.0 -0.1043034699
C  C50  1  0.25962000  0.11140000  0.67642000  1.0 -0.1043034699
C  C51  1  0.11140000  0.43498000  0.85178000  1.0 -0.1043034699
C  C52  1  0.58320000  0.25962000  0.14822000  1.0 -0.1043034699
C  C53  1  0.93498000  0.61140000  0.85178000  1.0 -0.1043034699
C  C54  1  0.75962000  0.08320000  0.14822000  1.0 -0.1043034699
C  C55  1  0.61140000  0.75962000  0.67642000  1.0 -0.1043034699
C  C56  1  0.08320000  0.93498000  0.32358000  1.0 -0.1043034699
C  C57  1  0.20170000  0.38190000  0.36380000  1.0 0.5256997068
C  C58  1  0.01810000  0.83790000  0.63620000  1.0 0.5256997068
C  C59  1  0.83790000  0.20170000  0.81980000  1.0 0.5244476158
C  C60  1  0.38190000  0.01810000  0.18020000  1.0 0.5244476158
C  C61  1  0.70170000  0.33790000  0.81980000  1.0 0.5244476158
C  C62  1  0.51810000  0.88190000  0.18020000  1.0 0.5256997068
C  C63  1  0.33790000  0.51810000  0.63620000  1.0 0.5244476158
C  C64  1  0.88190000  0.70170000  0.36380000  1.0 0.5244476158
C  C65  1  0.33470000  0.64780000  0.26990000  1.0 0.5892820526
C  C66  1  0.37790000  0.06480000  0.73010000  1.0 0.5892820526
C  C67  1  0.06480000  0.33470000  0.68690000  1.0 0.5892820526
C  C68  1  0.64780000  0.37790000  0.31310000  1.0 0.5892820526
C  C69  1  0.83470000  0.56480000  0.68690000  1.0 0.5892820526
C  C70  1  0.87790000  0.14780000  0.31310000  1.0 0.5892820526
C  C71  1  0.56480000  0.87790000  0.73010000  1.0 0.5892820526
C  C72  1  0.14780000  0.83470000  0.26990000  1.0 0.5892820526
O  O1  1  0.54281000  0.46033000  0.40128000  1.0 -0.5703332405
O  O2  1  0.05905000  0.14153000  0.59872000  1.0 -0.5703332405
O  O3  1  0.14153000  0.54281000  0.08248000  1.0 -0.5703332405
O  O4  1  0.46033000  0.05905000  0.91752000  1.0 -0.5703332405
O  O5  1  0.04281000  0.64153000  0.08248000  1.0 -0.5703332405
O  O6  1  0.55905000  0.96033000  0.91752000  1.0 -0.5703332405
O  O7  1  0.64153000  0.55905000  0.59872000  1.0 -0.5703332405
O  O8  1  0.96033000  0.04281000  0.40128000  1.0 -0.5703332405
O  O9  1  0.60407000  0.58318000  0.36561000  1.0 -0.4996938687
O  O10  1  0.21757000  0.23846000  0.63439000  1.0 -0.4996938687
O  O11  1  0.23846000  0.60407000  0.02089000  1.0 -0.4996938687
O  O12  1  0.58318000  0.21757000  0.97911000  1.0 -0.4996938687
O  O13  1  0.10407000  0.73846000  0.02089000  1.0 -0.4996938687
O  O14  1  0.71757000  0.08318000  0.97911000  1.0 -0.4996938687
O  O15  1  0.73846000  0.71757000  0.63439000  1.0 -0.4996938687
O  O16  1  0.08318000  0.10407000  0.36561000  1.0 -0.4996938687
O  O17  1  0.19701000  0.30586000  0.36255000  1.0 -0.4996938687
O  O18  1  0.94331000  0.83446000  0.63745000  1.0 -0.4996938687
O  O19  1  0.83446000  0.19701000  0.89115000  1.0 -0.4996938687
O  O20  1  0.30586000  0.94331000  0.10885000  1.0 -0.4996938687
O  O21  1  0.69701000  0.33446000  0.89115000  1.0 -0.4996938687
O  O22  1  0.44331000  0.80586000  0.10885000  1.0 -0.4996938687
O  O23  1  0.33446000  0.44331000  0.63745000  1.0 -0.4996938687
O  O24  1  0.80586000  0.69701000  0.36255000  1.0 -0.4996938687
O  O25  1  0.13971000  0.39731000  0.36980000  1.0 -0.3332277518
O  O26  1  0.02751000  0.76991000  0.63020000  1.0 -0.3220941256
O  O27  1  0.76991000  0.13971000  0.74240000  1.0 -0.3332277518
O  O28  1  0.39731000  0.02751000  0.25760000  1.0 -0.3332277518
O  O29  1  0.63971000  0.26991000  0.74240000  1.0 -0.3332277518
O  O30  1  0.52751000  0.89731000  0.25760000  1.0 -0.3220941256
O  O31  1  0.26991000  0.52751000  0.63020000  1.0 -0.3332277518
O  O32  1  0.89731000  0.63971000  0.36980000  1.0 -0.3332277518
O  O33  1  0.38027000  0.67110000  0.22277000  1.0 -0.5313501526
O  O34  1  0.44833000  0.15750000  0.77723000  1.0 -0.5313501526
O  O35  1  0.15750000  0.38027000  0.70917000  1.0 -0.5313501526
O  O36  1  0.67110000  0.44833000  0.29083000  1.0 -0.5313501526
O  O37  1  0.88027000  0.65750000  0.70917000  1.0 -0.5313501526
O  O38  1  0.94833000  0.17110000  0.29083000  1.0 -0.5313501526
O  O39  1  0.65750000  0.94833000  0.77723000  1.0 -0.5313501526
O  O40  1  0.17110000  0.88027000  0.22277000  1.0 -0.5313501526
O  O41  1  0.27767000  0.66867000  0.28436000  1.0 -0.5313501526
O  O42  1  0.38431000  0.99331000  0.71564000  1.0 -0.5313501526
O  O43  1  0.99331000  0.27767000  0.60900000  1.0 -0.5313501526
O  O44  1  0.66867000  0.38431000  0.39100000  1.0 -0.5313501526
O  O45  1  0.77767000  0.49331000  0.60900000  1.0 -0.5313501526
O  O46  1  0.88431000  0.16867000  0.39100000  1.0 -0.5313501526
O  O47  1  0.49331000  0.88431000  0.71564000  1.0 -0.5313501526
O  O48  1  0.16867000  0.77767000  0.28436000  1.0 -0.5313501526
O  O49  1  0.77741000  0.59719000  0.50000000  1.0 -0.6585794668
O  O50  1  0.09719000  0.27741000  0.50000000  1.0 -0.6585794668
O  O51  1  0.27741000  0.77741000  0.18022000  1.0 -0.6585794668
O  O52  1  0.59719000  0.09719000  0.81978000  1.0 -0.6585794668
O  O53  1  0.83488000  0.56770000  0.42198000  1.0 0.1038584236
O  O54  1  0.14572000  0.41290000  0.57802000  1.0 0.1070183783
O  O55  1  0.41290000  0.83488000  0.26718000  1.0 0.1038584236
O  O56  1  0.56770000  0.14572000  0.73282000  1.0 0.1038584236
O  O57  1  0.33488000  0.91290000  0.26718000  1.0 0.1070183783
O  O58  1  0.64572000  0.06770000  0.73282000  1.0 0.1038584236
O  O59  1  0.91290000  0.64572000  0.57802000  1.0 0.1070183783
O  O60  1  0.06770000  0.33488000  0.42198000  1.0 0.1038584236
