# DDEC6 charges by PACMAN v1.1 (https://github.com/mtap-research/PACMAN-charge/)
data_UNERUB_FSR_pacman
_symmetry_space_group_name_H-M   'P 1'
_cell_length_a   13.23330000
_cell_length_b   13.23330000
_cell_length_c   13.23330000
_cell_angle_alpha   99.50030000
_cell_angle_beta   99.50030000
_cell_angle_gamma   132.05900000
_symmetry_Int_Tables_number   1
_chemical_formula_structural   Co3P4(WO7)4
_chemical_formula_sum   'Co6 P8 W8 O56'
_cell_volume   1572.18707762
_cell_formula_units_Z   2
loop_
 _symmetry_equiv_pos_site_id
 _symmetry_equiv_pos_as_xyz
  1  'x, y, z'
loop_
 _atom_site_type_symbol
 _atom_site_label
 _atom_site_symmetry_multiplicity
 _atom_site_fract_x
 _atom_site_fract_y
 _atom_site_fract_z
 _atom_site_occupancy
 _atom_site_charge
Co  Co1  1  0.12500000  0.87500000  0.25000000  1.0 1.4032017619
Co  Co2  1  0.62500000  0.87500000  0.75000000  1.0 1.4032017619
Co  Co3  1  0.12500000  0.87500000  0.75000000  1.0 1.4056894214
Co  Co4  1  0.12500000  0.37500000  0.25000000  1.0 1.4032017619
Co  Co5  1  0.50000000  0.50000000  0.00000000  1.0 1.2817459733
Co  Co6  1  0.75000000  0.25000000  0.50000000  1.0 1.2817459733
P  P1  1  0.81253000  0.59526000  0.05169000  1.0 1.4863620772
P  P2  1  0.54357000  0.76084000  0.94831000  1.0 1.4863620772
P  P3  1  0.01084000  0.56253000  0.71727000  1.0 1.4863620772
P  P4  1  0.84526000  0.29357000  0.28273000  1.0 1.4816299111
P  P5  1  0.43747000  0.15474000  0.44831000  1.0 1.4863620772
P  P6  1  0.70643000  0.98916000  0.55169000  1.0 1.4863620772
P  P7  1  0.23916000  0.18747000  0.78273000  1.0 1.4863620772
P  P8  1  0.40474000  0.45643000  0.21727000  1.0 1.4863620772
W  W1  1  0.98693000  0.51680000  0.14617000  1.0 2.3586944968
W  W2  1  0.37063000  0.84076000  0.85383000  1.0 2.3703496685
W  W3  1  0.09076000  0.73693000  0.97013000  1.0 2.3703496685
W  W4  1  0.76680000  0.12063000  0.02987000  1.0 2.3586944968
W  W5  1  0.26307000  0.23320000  0.35383000  1.0 2.3703496685
W  W6  1  0.87937000  0.90924000  0.64617000  1.0 2.3703496685
W  W7  1  0.15924000  0.01307000  0.52987000  1.0 2.3703496685
W  W8  1  0.48320000  0.62937000  0.47013000  1.0 2.3703496685
O  O1  1  0.10900000  0.50180000  0.19260000  1.0 -0.7192973985
O  O2  1  0.30920000  0.91640000  0.80740000  1.0 -0.7192973985
O  O3  1  0.16640000  0.85900000  0.10720000  1.0 -0.7192973985
O  O4  1  0.75180000  0.05920000  0.89280000  1.0 -0.7192973985
O  O5  1  0.14100000  0.24820000  0.30740000  1.0 -0.7192973985
O  O6  1  0.94080000  0.83360000  0.69260000  1.0 -0.7192973985
O  O7  1  0.08360000  0.89100000  0.39280000  1.0 -0.7192973985
O  O8  1  0.49820000  0.69080000  0.60720000  1.0 -0.7192973985
O  O9  1  0.80540000  0.48400000  0.08580000  1.0 -0.6687676056
O  O10  1  0.39820000  0.71960000  0.91420000  1.0 -0.6687676056
O  O11  1  0.96960000  0.55540000  0.82140000  1.0 -0.6687676056
O  O12  1  0.73400000  0.14820000  0.17860000  1.0 -0.6687676056
O  O13  1  0.44460000  0.26600000  0.41420000  1.0 -0.6687676056
O  O14  1  0.85180000  0.03040000  0.58580000  1.0 -0.6687676056
O  O15  1  0.28040000  0.19460000  0.67860000  1.0 -0.6687676056
O  O16  1  0.51600000  0.60180000  0.32140000  1.0 -0.6687676056
O  O17  1  0.08330000  0.69060000  0.24530000  1.0 -0.7017014235
O  O18  1  0.44530000  0.83800000  0.75470000  1.0 -0.7017014235
O  O19  1  0.08800000  0.83330000  0.89270000  1.0 -0.7017014235
O  O20  1  0.94060000  0.19530000  0.10730000  1.0 -0.7017014235
O  O21  1  0.16670000  0.05940000  0.25470000  1.0 -0.7017014235
O  O22  1  0.80470000  0.91200000  0.74530000  1.0 -0.7017014235
O  O23  1  0.16200000  0.91670000  0.60730000  1.0 -0.7017014235
O  O24  1  0.30940000  0.55470000  0.39270000  1.0 -0.7017014235
O  O25  1  0.82430000  0.29180000  0.03490000  1.0 -0.7471423044
O  O26  1  0.25690000  0.78940000  0.96510000  1.0 -0.7471423044
O  O27  1  0.03940000  0.57430000  0.03250000  1.0 -0.7471423044
O  O28  1  0.54180000  0.00690000  0.96750000  1.0 -0.7471423044
O  O29  1  0.42570000  0.45820000  0.46510000  1.0 -0.7471423044
O  O30  1  0.99310000  0.96060000  0.53490000  1.0 -0.7471423044
O  O31  1  0.21060000  0.17570000  0.46750000  1.0 -0.7471423044
O  O32  1  0.70820000  0.74310000  0.53250000  1.0 -0.7471423044
O  O33  1  0.88220000  0.62950000  0.96250000  1.0 -0.6866736084
O  O34  1  0.66700000  0.91970000  0.03750000  1.0 -0.6817201047
O  O35  1  0.16970000  0.63220000  0.75270000  1.0 -0.6817201047
O  O36  1  0.87950000  0.41700000  0.24730000  1.0 -0.6817201047
O  O37  1  0.36780000  0.12050000  0.53750000  1.0 -0.6866736084
O  O38  1  0.58300000  0.83030000  0.46250000  1.0 -0.6817201047
O  O39  1  0.08030000  0.11780000  0.74730000  1.0 -0.6817201047
O  O40  1  0.37050000  0.33300000  0.25270000  1.0 -0.6817201047
O  O41  1  0.90230000  0.73510000  0.15200000  1.0 -0.7075216243
O  O42  1  0.58310000  0.75030000  0.84800000  1.0 -0.7075216243
O  O43  1  0.00030000  0.65230000  0.66720000  1.0 -0.7075216243
O  O44  1  0.98510000  0.33310000  0.33280000  1.0 -0.7017014235
O  O45  1  0.34770000  0.01490000  0.34800000  1.0 -0.7075216243
O  O46  1  0.66690000  0.99970000  0.65200000  1.0 -0.7075216243
O  O47  1  0.24970000  0.09770000  0.83280000  1.0 -0.7017014235
O  O48  1  0.26490000  0.41690000  0.16720000  1.0 -0.7075216243
O  O49  1  0.65760000  0.51980000  0.99500000  1.0 -0.649620977
O  O50  1  0.52480000  0.66260000  0.00500000  1.0 -0.649620977
O  O51  1  0.91260000  0.40760000  0.63780000  1.0 -0.649620977
O  O52  1  0.76980000  0.27480000  0.36220000  1.0 -0.649620977
O  O53  1  0.59240000  0.23020000  0.50500000  1.0 -0.649620977
O  O54  1  0.72520000  0.08740000  0.49500000  1.0 -0.649620977
O  O55  1  0.33740000  0.34240000  0.86220000  1.0 -0.649620977
O  O56  1  0.48020000  0.47520000  0.13780000  1.0 -0.649620977
