# DDEC6 charges by PACMAN v1.1 (https://github.com/mtap-research/PACMAN-charge/)
data_UNIPAJ_FSR_pacman
_symmetry_space_group_name_H-M   'P 1'
_cell_length_a   14.17770000
_cell_length_b   14.17770000
_cell_length_c   12.59840000
_cell_angle_alpha   81.74450000
_cell_angle_beta   98.25550000
_cell_angle_gamma   81.31970000
_symmetry_Int_Tables_number   1
_chemical_formula_structural   CdH16C22N4O5
_chemical_formula_sum   'Cd4 H64 C88 N16 O20'
_cell_volume   2441.81930637
_cell_formula_units_Z   4
loop_
 _symmetry_equiv_pos_site_id
 _symmetry_equiv_pos_as_xyz
  1  'x, y, z'
loop_
 _atom_site_type_symbol
 _atom_site_label
 _atom_site_symmetry_multiplicity
 _atom_site_fract_x
 _atom_site_fract_y
 _atom_site_fract_z
 _atom_site_occupancy
 _atom_site_charge
Cd  Cd1  1  0.40133000  0.69495000  0.42300000  1.0 0.8328938824
Cd  Cd2  1  0.69495000  0.40133000  0.07700000  1.0 0.8328938824
Cd  Cd3  1  0.59867000  0.30505000  0.57700000  1.0 0.8328938824
Cd  Cd4  1  0.30505000  0.59867000  0.92300000  1.0 0.8328938824
H  H1  1  0.62760000  0.84420000  0.62400000  1.0 0.1299743793
H  H2  1  0.84420000  0.62760000  0.87600000  1.0 0.1299743793
H  H3  1  0.37240000  0.15580000  0.37600000  1.0 0.1299743793
H  H4  1  0.15580000  0.37240000  0.12400000  1.0 0.1299743793
H  H5  1  0.74990000  0.94170000  0.69390000  1.0 0.1207058673
H  H6  1  0.94170000  0.74990000  0.80610000  1.0 0.1207058673
H  H7  1  0.25010000  0.05830000  0.30610000  1.0 0.1207058673
H  H8  1  0.05830000  0.25010000  0.19390000  1.0 0.1207058673
H  H9  1  0.83760000  0.98580000  0.83990000  1.0 0.0999463574
H  H10  1  0.98580000  0.83760000  0.66010000  1.0 0.0999463574
H  H11  1  0.16240000  0.01420000  0.16010000  1.0 0.0999463574
H  H12  1  0.01420000  0.16240000  0.33990000  1.0 0.0999463574
H  H13  1  0.82080000  0.92660000  0.01470000  1.0 0.1090705847
H  H14  1  0.92660000  0.82080000  0.48530000  1.0 0.1090705847
H  H15  1  0.17920000  0.07340000  0.98530000  1.0 0.1090705847
H  H16  1  0.07340000  0.17920000  0.51470000  1.0 0.1090705847
H  H17  1  0.71340000  0.82620000  0.04590000  1.0 0.1299743793
H  H18  1  0.82620000  0.71340000  0.45410000  1.0 0.1299743793
H  H19  1  0.28660000  0.17380000  0.95410000  1.0 0.1299743793
H  H20  1  0.17380000  0.28660000  0.54590000  1.0 0.1299743793
H  H21  1  0.58340000  0.74060000  0.97430000  1.0 0.1207058673
H  H22  1  0.74060000  0.58340000  0.52570000  1.0 0.1207058673
H  H23  1  0.41660000  0.25940000  0.02570000  1.0 0.1207058673
H  H24  1  0.25940000  0.41660000  0.47430000  1.0 0.1207058673
H  H25  1  0.46860000  0.89160000  0.34610000  1.0 0.1207058673
H  H26  1  0.89160000  0.46860000  0.15390000  1.0 0.1207058673
H  H27  1  0.53140000  0.10840000  0.65390000  1.0 0.1207058673
H  H28  1  0.10840000  0.53140000  0.84610000  1.0 0.1207058673
H  H29  1  0.50520000  0.99020000  0.20110000  1.0 0.140425269
H  H30  1  0.99020000  0.50520000  0.29890000  1.0 0.140425269
H  H31  1  0.49480000  0.00980000  0.79890000  1.0 0.140425269
H  H32  1  0.00980000  0.49480000  0.70110000  1.0 0.140425269
H  H33  1  0.39690000  0.82070000  0.00720000  1.0 0.140425269
H  H34  1  0.82070000  0.39690000  0.49280000  1.0 0.140425269
H  H35  1  0.60310000  0.17930000  0.99280000  1.0 0.140425269
H  H36  1  0.17930000  0.60310000  0.50720000  1.0 0.140425269
H  H37  1  0.36850000  0.72310000  0.15740000  1.0 0.1207058673
H  H38  1  0.72310000  0.36850000  0.34260000  1.0 0.1207058673
H  H39  1  0.63150000  0.27690000  0.84260000  1.0 0.1207058673
H  H40  1  0.27690000  0.63150000  0.65740000  1.0 0.1207058673
H  H41  1  0.30030000  0.82090000  0.58850000  1.0 0.1207058673
H  H42  1  0.82090000  0.30030000  0.91150000  1.0 0.1207058673
H  H43  1  0.69970000  0.17910000  0.41150000  1.0 0.1207058673
H  H44  1  0.17910000  0.69970000  0.08850000  1.0 0.1207058673
H  H45  1  0.16600000  0.92800000  0.60250000  1.0 0.1299743793
H  H46  1  0.92800000  0.16600000  0.89750000  1.0 0.1299743793
H  H47  1  0.83400000  0.07200000  0.39750000  1.0 0.1299743793
H  H48  1  0.07200000  0.83400000  0.10250000  1.0 0.1299743793
H  H49  1  0.04820000  0.89620000  0.30550000  1.0 0.140425269
H  H50  1  0.89620000  0.04820000  0.19450000  1.0 0.140425269
H  H51  1  0.95180000  0.10380000  0.69450000  1.0 0.140425269
H  H52  1  0.10380000  0.95180000  0.80550000  1.0 0.140425269
H  H53  1  0.18490000  0.78890000  0.30070000  1.0 0.1090705847
H  H54  1  0.78890000  0.18490000  0.19930000  1.0 0.1090705847
H  H55  1  0.81510000  0.21110000  0.69930000  1.0 0.1090705847
H  H56  1  0.21110000  0.81510000  0.80070000  1.0 0.1090705847
H  H57  1  0.56990000  0.56470000  0.45430000  1.0 0.3014363837
H  H58  1  0.56470000  0.56990000  0.04570000  1.0 0.3014363837
H  H59  1  0.43010000  0.43530000  0.54570000  1.0 0.3014363837
H  H60  1  0.43530000  0.43010000  0.95430000  1.0 0.3014363837
H  H61  1  0.53770000  0.57190000  0.36060000  1.0 0.2770153326
H  H62  1  0.57190000  0.53770000  0.13940000  1.0 0.2770153326
H  H63  1  0.46230000  0.42810000  0.63940000  1.0 0.2770153326
H  H64  1  0.42810000  0.46230000  0.86060000  1.0 0.2770153326
C  C1  1  0.49178000  0.74538000  0.61060000  1.0 0.5531795216
C  C2  1  0.74538000  0.49178000  0.88940000  1.0 0.5531795216
C  C3  1  0.50822000  0.25462000  0.38940000  1.0 0.5531795216
C  C4  1  0.25462000  0.50822000  0.11060000  1.0 0.5531795216
C  C5  1  0.54665000  0.77303000  0.71000000  1.0 -0.0100889085
C  C6  1  0.77303000  0.54665000  0.79000000  1.0 -0.0100889085
C  C7  1  0.45335000  0.22697000  0.29000000  1.0 -0.0100889085
C  C8  1  0.22697000  0.45335000  0.21000000  1.0 -0.0100889085
C  C9  1  0.61668000  0.82628000  0.69450000  1.0 -0.158078616
C  C10  1  0.82628000  0.61668000  0.80550000  1.0 -0.158078616
C  C11  1  0.38332000  0.17372000  0.30550000  1.0 -0.158078616
C  C12  1  0.17372000  0.38332000  0.19450000  1.0 -0.158078616
C  C13  1  0.67437000  0.85577000  0.78140000  1.0 0.0671150067
C  C14  1  0.85577000  0.67437000  0.71860000  1.0 0.0648520333
C  C15  1  0.32563000  0.14423000  0.21860000  1.0 0.0671150067
C  C16  1  0.14423000  0.32563000  0.28140000  1.0 0.0671150067
C  C17  1  0.74160000  0.91840000  0.76420000  1.0 -0.1451816517
C  C18  1  0.91840000  0.74160000  0.73580000  1.0 -0.1451816517
C  C19  1  0.25840000  0.08160000  0.23580000  1.0 -0.1451816517
C  C20  1  0.08160000  0.25840000  0.26420000  1.0 -0.1451816517
C  C21  1  0.79400000  0.94400000  0.85120000  1.0 -0.10601877
C  C22  1  0.94400000  0.79400000  0.64880000  1.0 -0.10601877
C  C23  1  0.20600000  0.05600000  0.14880000  1.0 -0.10601877
C  C24  1  0.05600000  0.20600000  0.35120000  1.0 -0.10601877
C  C25  1  0.78350000  0.90890000  0.95630000  1.0 -0.0972937937
C  C26  1  0.90890000  0.78350000  0.54370000  1.0 -0.0972937937
C  C27  1  0.21650000  0.09110000  0.04370000  1.0 -0.0972937937
C  C28  1  0.09110000  0.21650000  0.45630000  1.0 -0.0972937937
C  C29  1  0.71970000  0.84910000  0.97480000  1.0 -0.1397513631
C  C30  1  0.84910000  0.71970000  0.52520000  1.0 -0.1397513631
C  C31  1  0.28030000  0.15090000  0.02520000  1.0 -0.1397513631
C  C32  1  0.15090000  0.28030000  0.47480000  1.0 -0.1397513631
C  C33  1  0.66283000  0.82083000  0.88790000  1.0 0.0671150067
C  C34  1  0.82083000  0.66283000  0.61210000  1.0 0.0671150067
C  C35  1  0.33717000  0.17917000  0.11210000  1.0 0.0671150067
C  C36  1  0.17917000  0.33717000  0.38790000  1.0 0.0671150067
C  C37  1  0.59068000  0.76388000  0.90360000  1.0 -0.158078616
C  C38  1  0.76388000  0.59068000  0.59640000  1.0 -0.158078616
C  C39  1  0.40932000  0.23612000  0.09640000  1.0 -0.158078616
C  C40  1  0.23612000  0.40932000  0.40360000  1.0 -0.158078616
C  C41  1  0.53184000  0.74160000  0.81950000  1.0 -0.0240835398
C  C42  1  0.74160000  0.53184000  0.68050000  1.0 -0.0240835398
C  C43  1  0.46816000  0.25840000  0.18050000  1.0 -0.0240835398
C  C44  1  0.25840000  0.46816000  0.31950000  1.0 -0.0240835398
C  C45  1  0.44580000  0.69760000  0.84510000  1.0 0.5593849611
C  C46  1  0.69760000  0.44580000  0.65490000  1.0 0.5593849611
C  C47  1  0.55420000  0.30240000  0.15490000  1.0 0.5593849611
C  C48  1  0.30240000  0.55420000  0.34510000  1.0 0.5593849611
C  C49  1  0.45570000  0.87590000  0.27690000  1.0 0.0892261254
C  C50  1  0.87590000  0.45570000  0.22310000  1.0 0.0999463574
C  C51  1  0.54430000  0.12410000  0.72310000  1.0 0.0892261254
C  C52  1  0.12410000  0.54430000  0.77690000  1.0 0.0892261254
C  C53  1  0.47680000  0.93660000  0.19030000  1.0 -0.1889921161
C  C54  1  0.93660000  0.47680000  0.30970000  1.0 -0.1889921161
C  C55  1  0.52320000  0.06340000  0.80970000  1.0 -0.1889921161
C  C56  1  0.06340000  0.52320000  0.69030000  1.0 -0.1889921161
C  C57  1  0.45440000  0.91480000  0.08840000  1.0 0.1790828449
C  C58  1  0.91480000  0.45440000  0.41160000  1.0 0.1790828449
C  C59  1  0.54560000  0.08520000  0.91160000  1.0 0.1790828449
C  C60  1  0.08520000  0.54560000  0.58840000  1.0 0.1790828449
C  C61  1  0.41340000  0.83580000  0.07620000  1.0 -0.1889921161
C  C62  1  0.83580000  0.41340000  0.42380000  1.0 -0.1889921161
C  C63  1  0.58660000  0.16420000  0.92380000  1.0 -0.1889921161
C  C64  1  0.16420000  0.58660000  0.57620000  1.0 -0.1889921161
C  C65  1  0.39620000  0.77740000  0.16680000  1.0 0.0892261254
C  C66  1  0.77740000  0.39620000  0.33320000  1.0 0.0892261254
C  C67  1  0.60380000  0.22260000  0.83320000  1.0 0.0892261254
C  C68  1  0.22260000  0.60380000  0.66680000  1.0 0.0892261254
C  C69  1  0.24890000  0.83630000  0.53070000  1.0 0.0999463574
C  C70  1  0.83630000  0.24890000  0.96930000  1.0 0.0999463574
C  C71  1  0.75110000  0.16370000  0.46930000  1.0 0.0999463574
C  C72  1  0.16370000  0.75110000  0.03070000  1.0 0.0999463574
C  C73  1  0.16830000  0.90090000  0.53980000  1.0 -0.2088175474
C  C74  1  0.90090000  0.16830000  0.96020000  1.0 -0.2046994525
C  C75  1  0.83170000  0.09910000  0.46020000  1.0 -0.2046994525
C  C76  1  0.09910000  0.83170000  0.03980000  1.0 -0.2088175474
C  C77  1  0.09231000  0.92431000  0.45560000  1.0 0.1790828449
C  C78  1  0.92431000  0.09231000  0.04440000  1.0 0.1790828449
C  C79  1  0.90769000  0.07569000  0.54440000  1.0 0.1790828449
C  C80  1  0.07569000  0.90769000  0.95560000  1.0 0.1790828449
C  C81  1  0.09880000  0.88180000  0.36440000  1.0 -0.2088175474
C  C82  1  0.88180000  0.09880000  0.13560000  1.0 -0.2088175474
C  C83  1  0.90120000  0.11820000  0.63560000  1.0 -0.2088175474
C  C84  1  0.11820000  0.90120000  0.86440000  1.0 -0.2088175474
C  C85  1  0.18140000  0.81780000  0.36210000  1.0 0.0892261254
C  C86  1  0.81780000  0.18140000  0.13790000  1.0 0.0892261254
C  C87  1  0.81860000  0.18220000  0.63790000  1.0 0.0892261254
C  C88  1  0.18220000  0.81860000  0.86210000  1.0 0.0892261254
N  N1  1  0.41787000  0.79663000  0.26700000  1.0 -0.2267522714
N  N2  1  0.79663000  0.41787000  0.23300000  1.0 -0.2267522714
N  N3  1  0.58213000  0.20337000  0.73300000  1.0 -0.2267522714
N  N4  1  0.20337000  0.58213000  0.76700000  1.0 -0.2267522714
N  N5  1  0.25619000  0.79505000  0.44270000  1.0 -0.2267522714
N  N6  1  0.79505000  0.25619000  0.05730000  1.0 -0.2267522714
N  N7  1  0.74381000  0.20495000  0.55730000  1.0 -0.2267522714
N  N8  1  0.20495000  0.74381000  0.94270000  1.0 -0.2267522714
N  N9  1  0.00464000  0.98988000  0.45460000  1.0 -0.122836295
N  N10  1  0.98988000  0.00464000  0.04540000  1.0 -0.122836295
N  N11  1  0.99536000  0.01012000  0.54540000  1.0 -0.122836295
N  N12  1  0.01012000  0.99536000  0.95460000  1.0 -0.122836295
N  N13  1  0.47165000  0.97265000  0.99070000  1.0 -0.0877632829
N  N14  1  0.97265000  0.47165000  0.50930000  1.0 -0.0877632829
N  N15  1  0.52835000  0.02735000  0.00930000  1.0 -0.0877632829
N  N16  1  0.02735000  0.52835000  0.49070000  1.0 -0.0877632829
O  O1  1  0.47556000  0.80666000  0.52454000  1.0 -0.5613148245
O  O2  1  0.80666000  0.47556000  0.97546000  1.0 -0.5613148245
O  O3  1  0.52444000  0.19334000  0.47546000  1.0 -0.5613148245
O  O4  1  0.19334000  0.52444000  0.02454000  1.0 -0.5613148245
O  O5  1  0.46648000  0.66484000  0.61168000  1.0 -0.5205673981
O  O6  1  0.66484000  0.46648000  0.88832000  1.0 -0.5205673981
O  O7  1  0.53352000  0.33516000  0.38832000  1.0 -0.5205673981
O  O8  1  0.33516000  0.53352000  0.11168000  1.0 -0.5205673981
O  O9  1  0.36670000  0.72084000  0.78263000  1.0 -0.5613148245
O  O10  1  0.72084000  0.36670000  0.71737000  1.0 -0.5613148245
O  O11  1  0.63330000  0.27916000  0.21737000  1.0 -0.5613148245
O  O12  1  0.27916000  0.63330000  0.28263000  1.0 -0.5613148245
O  O13  1  0.45583000  0.64045000  0.93528000  1.0 -0.5413718778
O  O14  1  0.64045000  0.45583000  0.56472000  1.0 -0.5413718778
O  O15  1  0.54417000  0.35955000  0.06472000  1.0 -0.5413718778
O  O16  1  0.35955000  0.54417000  0.43528000  1.0 -0.5413718778
O  O17  1  0.55314000  0.61174000  0.40149000  1.0 -0.638052057
O  O18  1  0.61174000  0.55314000  0.09851000  1.0 -0.638052057
O  O19  1  0.44686000  0.38826000  0.59851000  1.0 -0.638052057
O  O20  1  0.38826000  0.44686000  0.90149000  1.0 -0.638052057
