# DDEC6 charges by PACMAN v1.1 (https://github.com/mtap-research/PACMAN-charge/)
data_UNOCAE_ASR_pacman
_symmetry_space_group_name_H-M   'P 1'
_cell_length_a   11.46100000
_cell_length_b   25.86700000
_cell_length_c   11.96000000
_cell_angle_alpha   90.00000000
_cell_angle_beta   106.49000000
_cell_angle_gamma   90.00000000
_symmetry_Int_Tables_number   1
_chemical_formula_structural   Co3H44C46S8(NO4)4
_chemical_formula_sum   'Co6 H88 C92 S16 N8 O32'
_cell_volume   3399.84536866
_cell_formula_units_Z   2
loop_
 _symmetry_equiv_pos_site_id
 _symmetry_equiv_pos_as_xyz
  1  'x, y, z'
loop_
 _atom_site_type_symbol
 _atom_site_label
 _atom_site_symmetry_multiplicity
 _atom_site_fract_x
 _atom_site_fract_y
 _atom_site_fract_z
 _atom_site_occupancy
 _atom_site_charge
Co  Co1  1  0.35811000  0.53148000  0.71995000  1.0 0.8601587471
Co  Co2  1  0.14189000  0.03148000  0.28005000  1.0 0.8601587471
Co  Co3  1  0.64189000  0.46852000  0.28005000  1.0 0.8601587471
Co  Co4  1  0.85811000  0.96852000  0.71995000  1.0 0.8601587471
Co  Co5  1  0.50000000  0.50000000  0.50000000  1.0 1.0874683466
Co  Co6  1  0.00000000  0.00000000  0.50000000  1.0 1.0874683466
H  H1  1  0.68787000  0.53029000  0.02749000  1.0 0.1509946641
H  H2  1  0.89739000  0.51321000  0.14113000  1.0 0.1206188742
H  H3  1  0.45074000  0.66471000  0.34871000  1.0 0.0794675814
H  H4  1  0.38812000  0.75561000  0.31709000  1.0 0.0794675814
H  H5  1  0.20624000  0.80146000  0.61020000  1.0 0.1113154795
H  H6  1  0.15421000  0.89459000  0.57564000  1.0 0.1332798358
H  H7  1  0.18725000  0.53079000  0.49662000  1.0 0.1405625753
H  H8  1  0.91325000  0.58969000  0.34871000  1.0 0.1007876071
H  H9  1  0.02029000  0.55444000  0.32866000  1.0 0.1007876071
H  H10  1  0.04223000  0.61493000  0.35416000  1.0 0.1113154795
H  H11  1  0.99115000  0.63229000  0.57481000  1.0 0.1113154795
H  H12  1  0.99203000  0.57785000  0.63862000  1.0 0.1206188742
H  H13  1  0.88575000  0.59099000  0.52276000  1.0 0.090124758
H  H14  1  0.35893000  0.65244000  0.30245000  1.0 0.090124758
H  H15  1  0.27982000  0.74052000  0.25981000  1.0 0.0794675814
H  H16  1  0.18995000  0.61288000  0.66858000  1.0 0.0686887368
H  H17  1  0.89762000  0.63586000  0.66634000  1.0 0.1113154795
H  H18  1  0.94487000  0.65956000  0.56346000  1.0 0.090124758
H  H19  1  0.03089000  0.66055000  0.69481000  1.0 0.090124758
H  H20  1  0.86192000  0.55522000  0.60652000  1.0 0.1007876071
H  H21  1  0.97273000  0.51757000  0.60652000  1.0 0.0794675814
H  H22  1  0.90860000  0.55082000  0.49283000  1.0 0.1007876071
H  H23  1  0.81213000  0.03029000  0.97251000  1.0 0.1509946641
H  H24  1  0.60261000  0.01321000  0.85887000  1.0 0.1206188742
H  H25  1  0.04926000  0.16471000  0.65129000  1.0 0.0794675814
H  H26  1  0.11188000  0.25561000  0.68291000  1.0 0.0794675814
H  H27  1  0.29376000  0.30146000  0.38980000  1.0 0.1113154795
H  H28  1  0.34579000  0.39459000  0.42436000  1.0 0.1332798358
H  H29  1  0.31275000  0.03079000  0.50338000  1.0 0.1405625753
H  H30  1  0.58675000  0.08969000  0.65129000  1.0 0.1007876071
H  H31  1  0.47971000  0.05444000  0.67134000  1.0 0.1007876071
H  H32  1  0.45777000  0.11493000  0.64584000  1.0 0.1113154795
H  H33  1  0.50885000  0.13229000  0.42519000  1.0 0.1113154795
H  H34  1  0.50797000  0.07785000  0.36138000  1.0 0.1206188742
H  H35  1  0.61425000  0.09099000  0.47724000  1.0 0.090124758
H  H36  1  0.14107000  0.15244000  0.69755000  1.0 0.090124758
H  H37  1  0.22018000  0.24052000  0.74019000  1.0 0.0794675814
H  H38  1  0.31005000  0.11288000  0.33142000  1.0 0.0686887368
H  H39  1  0.60238000  0.13586000  0.33366000  1.0 0.1113154795
H  H40  1  0.55513000  0.15956000  0.43654000  1.0 0.090124758
H  H41  1  0.46911000  0.16055000  0.30519000  1.0 0.090124758
H  H42  1  0.63808000  0.05522000  0.39348000  1.0 0.1007876071
H  H43  1  0.52727000  0.01757000  0.39348000  1.0 0.0794675814
H  H44  1  0.59140000  0.05082000  0.50717000  1.0 0.1007876071
H  H45  1  0.31213000  0.46971000  0.97251000  1.0 0.1509946641
H  H46  1  0.10261000  0.48679000  0.85887000  1.0 0.1206188742
H  H47  1  0.54926000  0.33529000  0.65129000  1.0 0.0794675814
H  H48  1  0.61188000  0.24439000  0.68291000  1.0 0.0794675814
H  H49  1  0.79376000  0.19854000  0.38980000  1.0 0.1113154795
H  H50  1  0.84579000  0.10541000  0.42436000  1.0 0.1332798358
H  H51  1  0.81275000  0.46921000  0.50338000  1.0 0.1405625753
H  H52  1  0.08675000  0.41031000  0.65129000  1.0 0.1007876071
H  H53  1  0.97971000  0.44556000  0.67134000  1.0 0.1007876071
H  H54  1  0.95777000  0.38507000  0.64584000  1.0 0.1113154795
H  H55  1  0.00885000  0.36771000  0.42519000  1.0 0.1113154795
H  H56  1  0.00797000  0.42215000  0.36138000  1.0 0.1206188742
H  H57  1  0.11425000  0.40901000  0.47724000  1.0 0.090124758
H  H58  1  0.64107000  0.34756000  0.69755000  1.0 0.090124758
H  H59  1  0.72018000  0.25948000  0.74019000  1.0 0.0794675814
H  H60  1  0.81005000  0.38712000  0.33142000  1.0 0.0686887368
H  H61  1  0.10238000  0.36414000  0.33366000  1.0 0.1113154795
H  H62  1  0.05513000  0.34044000  0.43654000  1.0 0.090124758
H  H63  1  0.96911000  0.33945000  0.30519000  1.0 0.090124758
H  H64  1  0.13808000  0.44478000  0.39348000  1.0 0.1007876071
H  H65  1  0.02727000  0.48243000  0.39348000  1.0 0.0794675814
H  H66  1  0.09140000  0.44918000  0.50717000  1.0 0.1007876071
H  H67  1  0.18787000  0.96971000  0.02749000  1.0 0.1509946641
H  H68  1  0.39739000  0.98679000  0.14113000  1.0 0.1206188742
H  H69  1  0.95074000  0.83529000  0.34871000  1.0 0.0794675814
H  H70  1  0.88812000  0.74439000  0.31709000  1.0 0.0794675814
H  H71  1  0.70624000  0.69854000  0.61020000  1.0 0.1113154795
H  H72  1  0.65421000  0.60541000  0.57564000  1.0 0.1332798358
H  H73  1  0.68725000  0.96921000  0.49662000  1.0 0.1405625753
H  H74  1  0.41325000  0.91031000  0.34871000  1.0 0.1007876071
H  H75  1  0.52029000  0.94556000  0.32866000  1.0 0.1007876071
H  H76  1  0.54223000  0.88507000  0.35416000  1.0 0.1113154795
H  H77  1  0.49115000  0.86771000  0.57481000  1.0 0.1113154795
H  H78  1  0.49203000  0.92215000  0.63862000  1.0 0.1206188742
H  H79  1  0.38575000  0.90901000  0.52276000  1.0 0.090124758
H  H80  1  0.85893000  0.84756000  0.30245000  1.0 0.090124758
H  H81  1  0.77982000  0.75948000  0.25981000  1.0 0.0794675814
H  H82  1  0.68995000  0.88712000  0.66858000  1.0 0.0686887368
H  H83  1  0.39762000  0.86414000  0.66634000  1.0 0.1113154795
H  H84  1  0.44487000  0.84044000  0.56346000  1.0 0.090124758
H  H85  1  0.53089000  0.83945000  0.69481000  1.0 0.090124758
H  H86  1  0.36192000  0.94478000  0.60652000  1.0 0.1007876071
H  H87  1  0.47273000  0.98243000  0.60652000  1.0 0.0794675814
H  H88  1  0.40860000  0.94918000  0.49283000  1.0 0.1007876071
C  C1  1  0.61460000  0.52102000  0.77390000  1.0 0.5919458475
C  C2  1  0.72950000  0.51840000  0.87120000  1.0 -0.0972561985
C  C3  1  0.75080000  0.52220000  0.99300000  1.0 -0.110134365
C  C4  1  0.86860000  0.51350000  0.05840000  1.0 -0.1491089072
C  C5  1  0.93770000  0.50510000  0.98240000  1.0 -0.0194160938
C  C6  1  0.38940000  0.60423000  0.52890000  1.0 0.5272677895
C  C7  1  0.35870000  0.65720000  0.48140000  1.0 -0.058869608
C  C8  1  0.40240000  0.68200000  0.38980000  1.0 -0.045958301
C  C9  1  0.36570000  0.73290000  0.36980000  1.0 -0.072578596
C  C10  1  0.28540000  0.74650000  0.44420000  1.0 -0.037277067
C  C11  1  0.23650000  0.79750000  0.44690000  1.0 -0.1275022737
C  C12  1  0.20600000  0.81950000  0.54100000  1.0 -0.2153794784
C  C13  1  0.17460000  0.87260000  0.52050000  1.0 -0.1491089072
C  C14  1  0.17730000  0.88849000  0.40950000  1.0 -0.0972561985
C  C15  1  0.15970000  0.94090000  0.35650000  1.0 0.516850492
C  C16  1  0.14070000  0.54500000  0.54340000  1.0 0.1405625753
C  C17  1  0.00140000  0.58400000  0.37180000  1.0 -0.4646298755
C  C18  1  0.97250000  0.59540000  0.56290000  1.0 0.0526091773
C  C19  1  0.34100000  0.67430000  0.35940000  1.0 -0.058869608
C  C20  1  0.29800000  0.72390000  0.33360000  1.0 -0.0826009903
C  C21  1  0.13600000  0.58480000  0.64120000  1.0 0.2097469028
C  C22  1  0.96900000  0.64070000  0.63760000  1.0 -0.2741043362
C  C23  1  0.93360000  0.55060000  0.57800000  1.0 -0.2366728205
C  C24  1  0.88540000  0.02102000  0.22610000  1.0 0.5919458475
C  C25  1  0.77050000  0.01840000  0.12880000  1.0 -0.0972561985
C  C26  1  0.74920000  0.02220000  0.00700000  1.0 -0.110134365
C  C27  1  0.63140000  0.01350000  0.94160000  1.0 -0.1491089072
C  C28  1  0.56230000  0.00510000  0.01760000  1.0 -0.0194160938
C  C29  1  0.11060000  0.10423000  0.47110000  1.0 0.5272677895
C  C30  1  0.14130000  0.15720000  0.51860000  1.0 -0.058869608
C  C31  1  0.09760000  0.18200000  0.61020000  1.0 -0.045958301
C  C32  1  0.13430000  0.23290000  0.63020000  1.0 -0.072578596
C  C33  1  0.21460000  0.24650000  0.55580000  1.0 -0.037277067
C  C34  1  0.26350000  0.29750000  0.55310000  1.0 -0.1275022737
C  C35  1  0.29400000  0.31950000  0.45900000  1.0 -0.2153794784
C  C36  1  0.32540000  0.37260000  0.47950000  1.0 -0.1491089072
C  C37  1  0.32270000  0.38849000  0.59050000  1.0 -0.0972561985
C  C38  1  0.34030000  0.44090000  0.64350000  1.0 0.516850492
C  C39  1  0.35930000  0.04500000  0.45660000  1.0 0.1405625753
C  C40  1  0.49860000  0.08400000  0.62820000  1.0 -0.4646298755
C  C41  1  0.52750000  0.09540000  0.43710000  1.0 0.0526091773
C  C42  1  0.15900000  0.17430000  0.64060000  1.0 -0.058869608
C  C43  1  0.20200000  0.22390000  0.66640000  1.0 -0.0826009903
C  C44  1  0.36400000  0.08480000  0.35880000  1.0 0.2097469028
C  C45  1  0.53100000  0.14070000  0.36240000  1.0 -0.2741043362
C  C46  1  0.56640000  0.05060000  0.42200000  1.0 -0.2366728205
C  C47  1  0.38540000  0.47898000  0.22610000  1.0 0.5919458475
C  C48  1  0.27050000  0.48160000  0.12880000  1.0 -0.0972561985
C  C49  1  0.24920000  0.47780000  0.00700000  1.0 -0.110134365
C  C50  1  0.13140000  0.48650000  0.94160000  1.0 -0.1491089072
C  C51  1  0.06230000  0.49490000  0.01760000  1.0 -0.0194160938
C  C52  1  0.61060000  0.39577000  0.47110000  1.0 0.5272677895
C  C53  1  0.64130000  0.34280000  0.51860000  1.0 -0.058869608
C  C54  1  0.59760000  0.31800000  0.61020000  1.0 -0.045958301
C  C55  1  0.63430000  0.26710000  0.63020000  1.0 -0.072578596
C  C56  1  0.71460000  0.25350000  0.55580000  1.0 -0.037277067
C  C57  1  0.76350000  0.20250000  0.55310000  1.0 -0.1275022737
C  C58  1  0.79400000  0.18050000  0.45900000  1.0 -0.2153794784
C  C59  1  0.82540000  0.12740000  0.47950000  1.0 -0.1491089072
C  C60  1  0.82270000  0.11151000  0.59050000  1.0 -0.0972561985
C  C61  1  0.84030000  0.05910000  0.64350000  1.0 0.516850492
C  C62  1  0.85930000  0.45500000  0.45660000  1.0 0.1405625753
C  C63  1  0.99860000  0.41600000  0.62820000  1.0 -0.4646298755
C  C64  1  0.02750000  0.40460000  0.43710000  1.0 0.0526091773
C  C65  1  0.65900000  0.32570000  0.64060000  1.0 -0.058869608
C  C66  1  0.70200000  0.27610000  0.66640000  1.0 -0.0826009903
C  C67  1  0.86400000  0.41520000  0.35880000  1.0 0.2097469028
C  C68  1  0.03100000  0.35930000  0.36240000  1.0 -0.2741043362
C  C69  1  0.06640000  0.44940000  0.42200000  1.0 -0.2366728205
C  C70  1  0.11460000  0.97898000  0.77390000  1.0 0.5919458475
C  C71  1  0.22950000  0.98160000  0.87120000  1.0 -0.0972561985
C  C72  1  0.25080000  0.97780000  0.99300000  1.0 -0.110134365
C  C73  1  0.36860000  0.98650000  0.05840000  1.0 -0.1491089072
C  C74  1  0.43770000  0.99490000  0.98240000  1.0 -0.0194160938
C  C75  1  0.88940000  0.89577000  0.52890000  1.0 0.5272677895
C  C76  1  0.85870000  0.84280000  0.48140000  1.0 -0.058869608
C  C77  1  0.90240000  0.81800000  0.38980000  1.0 -0.045958301
C  C78  1  0.86570000  0.76710000  0.36980000  1.0 -0.072578596
C  C79  1  0.78540000  0.75350000  0.44420000  1.0 -0.037277067
C  C80  1  0.73650000  0.70250000  0.44690000  1.0 -0.1275022737
C  C81  1  0.70600000  0.68050000  0.54100000  1.0 -0.2153794784
C  C82  1  0.67460000  0.62740000  0.52050000  1.0 -0.1491089072
C  C83  1  0.67730000  0.61151000  0.40950000  1.0 -0.0972561985
C  C84  1  0.65970000  0.55910000  0.35650000  1.0 0.516850492
C  C85  1  0.64070000  0.95500000  0.54340000  1.0 0.1405625753
C  C86  1  0.50140000  0.91600000  0.37180000  1.0 -0.4646298755
C  C87  1  0.47250000  0.90460000  0.56290000  1.0 0.0526091773
C  C88  1  0.84100000  0.82570000  0.35940000  1.0 -0.058869608
C  C89  1  0.79800000  0.77610000  0.33360000  1.0 -0.0826009903
C  C90  1  0.63600000  0.91520000  0.64120000  1.0 0.2097469028
C  C91  1  0.46900000  0.85930000  0.63760000  1.0 -0.2741043362
C  C92  1  0.43360000  0.94940000  0.57800000  1.0 -0.2366728205
S  S1  1  0.85612000  0.50592000  0.83230000  1.0 0.0686887368
S  S2  1  0.28310000  0.69933000  0.54260000  1.0 0.0794675814
S  S3  1  0.22215000  0.84001000  0.32991000  1.0 0.0596270524
S  S4  1  0.31430000  0.70450000  0.55750000  1.0 0.0794675814
S  S5  1  0.64388000  0.00592000  0.16770000  1.0 0.0686887368
S  S6  1  0.21690000  0.19933000  0.45740000  1.0 0.0686887368
S  S7  1  0.27785000  0.34001000  0.67009000  1.0 0.0596270524
S  S8  1  0.18570000  0.20450000  0.44250000  1.0 0.0794675814
S  S9  1  0.14388000  0.49408000  0.16770000  1.0 0.0686887368
S  S10  1  0.71690000  0.30067000  0.45740000  1.0 0.0794675814
S  S11  1  0.77785000  0.15999000  0.67009000  1.0 0.0596270524
S  S12  1  0.68570000  0.29550000  0.44250000  1.0 0.0794675814
S  S13  1  0.35612000  0.99408000  0.83230000  1.0 0.0686887368
S  S14  1  0.78310000  0.80067000  0.54260000  1.0 0.0794675814
S  S15  1  0.72215000  0.65999000  0.32991000  1.0 0.0596270524
S  S16  1  0.81430000  0.79550000  0.55750000  1.0 0.0794675814
N  N1  1  0.04280000  0.57360000  0.49400000  1.0 -0.058869608
N  N2  1  0.01710000  0.59170000  0.62030000  1.0 0.0596270524
N  N3  1  0.45720000  0.07360000  0.50600000  1.0 -0.058869608
N  N4  1  0.48290000  0.09170000  0.37970000  1.0 0.0596270524
N  N5  1  0.95720000  0.42640000  0.50600000  1.0 -0.058869608
N  N6  1  0.98290000  0.40830000  0.37970000  1.0 0.0596270524
N  N7  1  0.54280000  0.92640000  0.49400000  1.0 -0.058869608
N  N8  1  0.51710000  0.90830000  0.62030000  1.0 0.0596270524
O  O1  1  0.52740000  0.52390000  0.81430000  1.0 -0.5239472333
O  O2  1  0.61810000  0.52022000  0.66700000  1.0 -0.6293701324
O  O3  1  0.37420000  0.59817000  0.63490000  1.0 -0.6194676552
O  O4  1  0.42650000  0.57330000  0.47000000  1.0 -0.4808399994
O  O5  1  0.12890000  0.97734000  0.41650000  1.0 -0.6194676552
O  O6  1  0.17640000  0.94922000  0.25660000  1.0 -0.526358882
O  O7  1  0.17330000  0.53640000  0.65670000  1.0 -0.2026737053
O  O8  1  0.17980000  0.53930000  0.62430000  1.0 -0.0908857677
O  O9  1  0.97260000  0.02390000  0.18570000  1.0 -0.5239472333
O  O10  1  0.88190000  0.02022000  0.33300000  1.0 -0.6293701324
O  O11  1  0.12580000  0.09817000  0.36510000  1.0 -0.6194676552
O  O12  1  0.07350000  0.07330000  0.53000000  1.0 -0.4808399994
O  O13  1  0.37110000  0.47734000  0.58350000  1.0 -0.6194676552
O  O14  1  0.32360000  0.44922000  0.74340000  1.0 -0.526358882
O  O15  1  0.32670000  0.03640000  0.34330000  1.0 -0.2026737053
O  O16  1  0.32020000  0.03930000  0.37570000  1.0 -0.0908857677
O  O17  1  0.47260000  0.47610000  0.18570000  1.0 -0.5239472333
O  O18  1  0.38190000  0.47978000  0.33300000  1.0 -0.6293701324
O  O19  1  0.62580000  0.40183000  0.36510000  1.0 -0.6194676552
O  O20  1  0.57350000  0.42670000  0.53000000  1.0 -0.4808399994
O  O21  1  0.87110000  0.02266000  0.58350000  1.0 -0.6194676552
O  O22  1  0.82360000  0.05078000  0.74340000  1.0 -0.526358882
O  O23  1  0.82670000  0.46360000  0.34330000  1.0 -0.2026737053
O  O24  1  0.82020000  0.46070000  0.37570000  1.0 -0.0908857677
O  O25  1  0.02740000  0.97610000  0.81430000  1.0 -0.5239472333
O  O26  1  0.11810000  0.97978000  0.66700000  1.0 -0.6293701324
O  O27  1  0.87420000  0.90183000  0.63490000  1.0 -0.6194676552
O  O28  1  0.92650000  0.92670000  0.47000000  1.0 -0.4808399994
O  O29  1  0.62890000  0.52266000  0.41650000  1.0 -0.6194676552
O  O30  1  0.67640000  0.55078000  0.25660000  1.0 -0.526358882
O  O31  1  0.67330000  0.96360000  0.65670000  1.0 -0.2026737053
O  O32  1  0.67980000  0.96070000  0.62430000  1.0 -0.0908857677
