# DDEC6 charges by PACMAN v1.1 (https://github.com/mtap-research/PACMAN-charge/)
data_UNOJUD_FSR_pacman
_symmetry_space_group_name_H-M   'P 1'
_cell_length_a   8.35850000
_cell_length_b   12.38650000
_cell_length_c   12.64740000
_cell_angle_alpha   109.88000000
_cell_angle_beta   97.14800000
_cell_angle_gamma   105.32100000
_symmetry_Int_Tables_number   1
_chemical_formula_structural   Sr2H19C12SN2O15
_chemical_formula_sum   'Sr4 H38 C24 S2 N4 O30'
_cell_volume   1154.00134710
_cell_formula_units_Z   2
loop_
 _symmetry_equiv_pos_site_id
 _symmetry_equiv_pos_as_xyz
  1  'x, y, z'
loop_
 _atom_site_type_symbol
 _atom_site_label
 _atom_site_symmetry_multiplicity
 _atom_site_fract_x
 _atom_site_fract_y
 _atom_site_fract_z
 _atom_site_occupancy
 _atom_site_charge
Sr  Sr1  1  0.52281000  0.38668000  0.83610000  1.0 1.4237805086
Sr  Sr2  1  0.47719000  0.61332000  0.16390000  1.0 1.4237805086
Sr  Sr3  1  0.73255000  0.97086000  0.44299000  1.0 1.4007794338
Sr  Sr4  1  0.26745000  0.02914000  0.55701000  1.0 1.4007794338
H  H1  1  0.45690000  0.29230000  0.49090000  1.0 0.153616816
H  H2  1  0.54310000  0.70770000  0.50910000  1.0 0.153616816
H  H3  1  0.42550000  0.23370000  0.35300000  1.0 0.1561731922
H  H4  1  0.57450000  0.76630000  0.64700000  1.0 0.1561731922
H  H5  1  0.08500000  0.69640000  0.39330000  1.0 0.1362111348
H  H6  1  0.91500000  0.30360000  0.60670000  1.0 0.1362111348
H  H7  1  0.04150000  0.70220000  0.26910000  1.0 0.1362111348
H  H8  1  0.95850000  0.29780000  0.73090000  1.0 0.1362111348
H  H9  1  0.02070000  0.51300000  0.16020000  1.0 0.1185560869
H  H10  1  0.97930000  0.48700000  0.83980000  1.0 0.1185560869
H  H11  1  0.90230000  0.39670000  0.17410000  1.0 0.1185560869
H  H12  1  0.09770000  0.60330000  0.82590000  1.0 0.1185560869
H  H13  1  0.80500000  0.90400000  0.20320000  1.0 0.310844295
H  H14  1  0.19500000  0.09600000  0.79680000  1.0 0.310844295
H  H15  1  0.88900000  0.02100000  0.24700000  1.0 0.310844295
H  H16  1  0.11100000  0.97900000  0.75300000  1.0 0.310844295
H  H17  1  0.60800000  0.16200000  0.68600000  1.0 0.3028891238
H  H18  1  0.39200000  0.83800000  0.31400000  1.0 0.3028891238
H  H19  1  0.57200000  0.12900000  0.76800000  1.0 0.2724884825
H  H20  1  0.42800000  0.87100000  0.23200000  1.0 0.2724884825
H  H21  1  0.89800000  0.03500000  0.68900000  1.0 0.2834058481
H  H22  1  0.10200000  0.96500000  0.31100000  1.0 0.2834058481
H  H23  1  0.75100000  0.00600000  0.70900000  1.0 0.2507844495
H  H24  1  0.24900000  0.99400000  0.29100000  1.0 0.2507844495
H  H25  1  0.43000000  0.20400000  0.96500000  1.0 0.3028891238
H  H26  1  0.57000000  0.79600000  0.03500000  1.0 0.3028891238
H  H27  1  0.31600000  0.25900000  0.95800000  1.0 0.2834058481
H  H28  1  0.68400000  0.74100000  0.04200000  1.0 0.2834058481
H  H29  1  0.74000000  0.62600000  0.85400000  1.0 0.2588575857
H  H30  1  0.26000000  0.37400000  0.14600000  1.0 0.2588575857
H  H31  1  0.81100000  0.64000000  0.95900000  1.0 0.2588575857
H  H32  1  0.18900000  0.36000000  0.04100000  1.0 0.2588575857
H  H33  1  0.07300000  0.70100000  0.05800000  1.0 0.1801229271
H  H34  1  0.92700000  0.29900000  0.94200000  1.0 0.1801229271
H  H35  1  0.04500000  0.80600000  0.07100000  1.0 0.1881375017
H  H36  1  0.95500000  0.19400000  0.92900000  1.0 0.1881375017
H  H37  1  0.97600000  0.73200000  0.01600000  1.0 0.2019015106
H  H38  1  0.02400000  0.26800000  0.98400000  1.0 0.2019015106
C  C1  1  0.81220000  0.50810000  0.35230000  1.0 0.0965548979
C  C2  1  0.18780000  0.49190000  0.64770000  1.0 0.0965548979
C  C3  1  0.69410000  0.39440000  0.32910000  1.0 -0.1163535712
C  C4  1  0.30590000  0.60560000  0.67090000  1.0 -0.1163535712
C  C5  1  0.64390000  0.38180000  0.43020000  1.0 0.153616816
C  C6  1  0.35610000  0.61820000  0.56980000  1.0 0.153616816
C  C7  1  0.72620000  0.48420000  0.52790000  1.0 -0.1907920314
C  C8  1  0.27380000  0.51580000  0.47210000  1.0 -0.1907920314
C  C9  1  0.62190000  0.29880000  0.21690000  1.0 0.290048294
C  C10  1  0.37810000  0.70120000  0.78310000  1.0 0.290048294
C  C11  1  0.51380000  0.26950000  0.42640000  1.0 -0.405360095
C  C12  1  0.48620000  0.73050000  0.57360000  1.0 -0.405360095
C  C13  1  0.59370000  0.17420000  0.43580000  1.0 0.6577454286
C  C14  1  0.40630000  0.82580000  0.56420000  1.0 0.6577454286
C  C15  1  0.71650000  0.51290000  0.65020000  1.0 0.5992228465
C  C16  1  0.28350000  0.48710000  0.34980000  1.0 0.5992228465
C  C17  1  0.99030000  0.68240000  0.32950000  1.0 -0.2712218833
C  C18  1  0.00970000  0.31760000  0.67050000  1.0 -0.2712218833
C  C19  1  0.89080000  0.76970000  0.37615000  1.0 0.6494041162
C  C20  1  0.10920000  0.23030000  0.62385000  1.0 0.6494041162
C  C21  1  0.90630000  0.47590000  0.17032000  1.0 -0.3044548554
C  C22  1  0.09370000  0.52410000  0.82968000  1.0 -0.3044548554
C  C23  1  0.77390000  0.45250000  0.06430000  1.0 0.6239458996
C  C24  1  0.22610000  0.54750000  0.93570000  1.0 0.6239458996
S  S1  1  0.86161000  0.59771000  0.49878000  1.0 0.1185560869
S  S2  1  0.13839000  0.40229000  0.50122000  1.0 0.113095619
N  N1  1  0.56180000  0.21930000  0.12880000  1.0 -0.3633098526
N  N2  1  0.43820000  0.78070000  0.87120000  1.0 -0.3633098526
N  N3  1  0.88730000  0.55429000  0.28088000  1.0 -0.0534460356
N  N4  1  0.11270000  0.44571000  0.71912000  1.0 -0.0534460356
O  O1  1  0.69740000  0.14922000  0.37546000  1.0 -0.6003377808
O  O2  1  0.30260000  0.85078000  0.62454000  1.0 -0.6003377808
O  O3  1  0.54970000  0.12130000  0.50208000  1.0 -0.6655468268
O  O4  1  0.45030000  0.87870000  0.49792000  1.0 -0.6655468268
O  O5  1  0.64080000  0.42856000  0.67841000  1.0 -0.6434476895
O  O6  1  0.35920000  0.57144000  0.32159000  1.0 -0.6434476895
O  O7  1  0.79050000  0.62341000  0.71948000  1.0 -0.5719627959
O  O8  1  0.20950000  0.37659000  0.28052000  1.0 -0.5719627959
O  O9  1  0.73560000  0.74141000  0.32936000  1.0 -0.6506591064
O  O10  1  0.26440000  0.25859000  0.67064000  1.0 -0.6506591064
O  O11  1  0.97410000  0.86959000  0.45813000  1.0 -0.6572053952
O  O12  1  0.02590000  0.13041000  0.54187000  1.0 -0.6572053952
O  O13  1  0.79310000  0.39005000  0.96751000  1.0 -0.6003377808
O  O14  1  0.20690000  0.60995000  0.03249000  1.0 -0.6003377808
O  O15  1  0.65330000  0.49464000  0.07465000  1.0 -0.6572053952
O  O16  1  0.34670000  0.50536000  0.92535000  1.0 -0.6572053952
O  O17  1  0.86640000  0.95812000  0.26212000  1.0 -0.6801210267
O  O18  1  0.13360000  0.04188000  0.73788000  1.0 -0.6801210267
O  O19  1  0.54860000  0.16837000  0.73157000  1.0 -0.7127026243
O  O20  1  0.45140000  0.83163000  0.26843000  1.0 -0.7127026243
O  O21  1  0.79890000  0.02488000  0.66408000  1.0 -0.6801210267
O  O22  1  0.20110000  0.97512000  0.33592000  1.0 -0.6801210267
O  O23  1  0.37870000  0.23012000  0.92443000  1.0 -0.6946514172
O  O24  1  0.62130000  0.76988000  0.07557000  1.0 -0.6946514172
O  O25  1  0.71860000  0.61800000  0.91336000  1.0 -0.4006383789
O  O26  1  0.28140000  0.38200000  0.08664000  1.0 -0.4006383789
O  O27  1  0.01200000  0.74290000  0.08290000  1.0 -0.2765332682
O  O28  1  0.98800000  0.25710000  0.91710000  1.0 -0.2765332682
O  O29  1  0.90490000  0.69630000  0.97390000  1.0 -0.0392682848
O  O30  1  0.09510000  0.30370000  0.02610000  1.0 -0.0392682848
