# DDEC6 charges by PACMAN v1.1 (https://github.com/mtap-research/PACMAN-charge/)
data_UPOSOI_ASR_pacman
_symmetry_space_group_name_H-M   'P 1'
_cell_length_a   7.63540000
_cell_length_b   21.16880000
_cell_length_c   26.06700000
_cell_angle_alpha   90.00000000
_cell_angle_beta   90.00000000
_cell_angle_gamma   90.00000000
_symmetry_Int_Tables_number   1
_chemical_formula_structural   Cd3H24C40(N4Cl)2
_chemical_formula_sum   'Cd12 H96 C160 N32 Cl8'
_cell_volume   4213.26800464
_cell_formula_units_Z   4
loop_
 _symmetry_equiv_pos_site_id
 _symmetry_equiv_pos_as_xyz
  1  'x, y, z'
loop_
 _atom_site_type_symbol
 _atom_site_label
 _atom_site_symmetry_multiplicity
 _atom_site_fract_x
 _atom_site_fract_y
 _atom_site_fract_z
 _atom_site_occupancy
 _atom_site_charge
Cd  Cd1  1  0.63947000  0.75000000  0.76912000  1.0 0.696930277
Cd  Cd2  1  0.13947000  0.25000000  0.73088000  1.0 0.696930277
Cd  Cd3  1  0.86053000  0.75000000  0.26912000  1.0 0.696930277
Cd  Cd4  1  0.36053000  0.25000000  0.23088000  1.0 0.696930277
Cd  Cd5  1  0.46004000  0.52715000  0.49826000  1.0 0.5287115749
Cd  Cd6  1  0.96004000  0.47285000  0.00174000  1.0 0.5232022183
Cd  Cd7  1  0.03996000  0.97285000  0.99826000  1.0 0.5232022183
Cd  Cd8  1  0.53996000  0.02715000  0.50174000  1.0 0.5232022183
Cd  Cd9  1  0.53996000  0.47285000  0.50174000  1.0 0.5232022183
Cd  Cd10  1  0.03996000  0.52715000  0.99826000  1.0 0.5287115749
Cd  Cd11  1  0.96004000  0.02715000  0.00174000  1.0 0.5232022183
Cd  Cd12  1  0.46004000  0.97285000  0.49826000  1.0 0.5232022183
H  H1  1  0.25190000  0.46840000  0.68380000  1.0 0.1224760486
H  H2  1  0.75190000  0.53160000  0.81620000  1.0 0.1224760486
H  H3  1  0.24810000  0.03160000  0.18380000  1.0 0.1224760486
H  H4  1  0.74810000  0.96840000  0.31620000  1.0 0.1224760486
H  H5  1  0.74810000  0.53160000  0.31620000  1.0 0.1224760486
H  H6  1  0.24810000  0.46840000  0.18380000  1.0 0.1224760486
H  H7  1  0.75190000  0.96840000  0.81620000  1.0 0.1224760486
H  H8  1  0.25190000  0.03160000  0.68380000  1.0 0.1224760486
H  H9  1  0.51690000  0.53370000  0.69750000  1.0 0.1280661783
H  H10  1  0.01690000  0.46630000  0.80250000  1.0 0.1280661783
H  H11  1  0.98310000  0.96630000  0.19750000  1.0 0.1280661783
H  H12  1  0.48310000  0.03370000  0.30250000  1.0 0.1280661783
H  H13  1  0.48310000  0.46630000  0.30250000  1.0 0.1280661783
H  H14  1  0.98310000  0.53370000  0.19750000  1.0 0.1280661783
H  H15  1  0.01690000  0.03370000  0.80250000  1.0 0.1280661783
H  H16  1  0.51690000  0.96630000  0.69750000  1.0 0.1280661783
H  H17  1  0.99370000  0.64160000  0.57350000  1.0 0.1280661783
H  H18  1  0.49370000  0.35840000  0.92650000  1.0 0.1280661783
H  H19  1  0.50630000  0.85840000  0.07350000  1.0 0.1280661783
H  H20  1  0.00630000  0.14160000  0.42650000  1.0 0.1280661783
H  H21  1  0.00630000  0.35840000  0.42650000  1.0 0.1280661783
H  H22  1  0.50630000  0.64160000  0.07350000  1.0 0.1280661783
H  H23  1  0.49370000  0.14160000  0.92650000  1.0 0.1280661783
H  H24  1  0.99370000  0.85840000  0.57350000  1.0 0.1280661783
H  H25  1  0.05640000  0.63770000  0.48040000  1.0 0.1224760486
H  H26  1  0.55640000  0.36230000  0.01960000  1.0 0.1224760486
H  H27  1  0.44360000  0.86230000  0.98040000  1.0 0.1224760486
H  H28  1  0.94360000  0.13770000  0.51960000  1.0 0.1224760486
H  H29  1  0.94360000  0.36230000  0.51960000  1.0 0.1224760486
H  H30  1  0.44360000  0.63770000  0.98040000  1.0 0.1224760486
H  H31  1  0.55640000  0.13770000  0.01960000  1.0 0.1224760486
H  H32  1  0.05640000  0.86230000  0.48040000  1.0 0.1224760486
H  H33  1  0.59190000  0.65240000  0.67330000  1.0 0.1077740268
H  H34  1  0.09190000  0.34760000  0.82670000  1.0 0.1077740268
H  H35  1  0.90810000  0.84760000  0.17330000  1.0 0.1077740268
H  H36  1  0.40810000  0.15240000  0.32670000  1.0 0.1077740268
H  H37  1  0.40810000  0.34760000  0.32670000  1.0 0.1077740268
H  H38  1  0.90810000  0.65240000  0.17330000  1.0 0.1077740268
H  H39  1  0.09190000  0.15240000  0.82670000  1.0 0.1077740268
H  H40  1  0.59190000  0.84760000  0.67330000  1.0 0.1077740268
H  H41  1  0.00950000  0.67450000  0.76020000  1.0 0.0990241234
H  H42  1  0.50950000  0.32550000  0.73980000  1.0 0.0990241234
H  H43  1  0.49050000  0.82550000  0.26020000  1.0 0.0990241234
H  H44  1  0.99050000  0.17450000  0.23980000  1.0 0.0990241234
H  H45  1  0.99050000  0.32550000  0.23980000  1.0 0.0990241234
H  H46  1  0.49050000  0.67450000  0.26020000  1.0 0.0990241234
H  H47  1  0.50950000  0.17450000  0.73980000  1.0 0.0990241234
H  H48  1  0.00950000  0.82550000  0.76020000  1.0 0.0990241234
H  H49  1  0.16390000  0.60060000  0.71270000  1.0 0.1280661783
H  H50  1  0.66390000  0.39940000  0.78730000  1.0 0.1280661783
H  H51  1  0.33610000  0.89940000  0.21270000  1.0 0.1280661783
H  H52  1  0.83610000  0.10060000  0.28730000  1.0 0.1280661783
H  H53  1  0.83610000  0.39940000  0.28730000  1.0 0.1280661783
H  H54  1  0.33610000  0.60060000  0.21270000  1.0 0.1280661783
H  H55  1  0.66390000  0.10060000  0.78730000  1.0 0.1280661783
H  H56  1  0.16390000  0.89940000  0.71270000  1.0 0.1280661783
H  H57  1  0.02480000  0.55000000  0.64360000  1.0 0.1077740268
H  H58  1  0.52480000  0.45000000  0.85640000  1.0 0.1077740268
H  H59  1  0.47520000  0.95000000  0.14360000  1.0 0.1077740268
H  H60  1  0.97520000  0.05000000  0.35640000  1.0 0.1077740268
H  H61  1  0.97520000  0.45000000  0.35640000  1.0 0.1077740268
H  H62  1  0.47520000  0.55000000  0.14360000  1.0 0.1077740268
H  H63  1  0.52480000  0.05000000  0.85640000  1.0 0.1077740268
H  H64  1  0.02480000  0.95000000  0.64360000  1.0 0.1077740268
H  H65  1  0.23290000  0.35470000  0.64870000  1.0 0.1077740268
H  H66  1  0.73290000  0.64530000  0.85130000  1.0 0.1077740268
H  H67  1  0.26710000  0.14530000  0.14870000  1.0 0.1077740268
H  H68  1  0.76710000  0.85470000  0.35130000  1.0 0.1077740268
H  H69  1  0.76710000  0.64530000  0.35130000  1.0 0.1077740268
H  H70  1  0.26710000  0.35470000  0.14870000  1.0 0.1077740268
H  H71  1  0.73290000  0.85470000  0.85130000  1.0 0.1077740268
H  H72  1  0.23290000  0.14530000  0.64870000  1.0 0.1077740268
H  H73  1  0.75850000  0.31460000  0.69770000  1.0 0.0990241234
H  H74  1  0.25850000  0.68540000  0.80230000  1.0 0.0990241234
H  H75  1  0.74150000  0.18540000  0.19770000  1.0 0.0990241234
H  H76  1  0.24150000  0.81460000  0.30230000  1.0 0.0990241234
H  H77  1  0.24150000  0.68540000  0.30230000  1.0 0.0990241234
H  H78  1  0.74150000  0.31460000  0.19770000  1.0 0.0990241234
H  H79  1  0.25850000  0.81460000  0.80230000  1.0 0.0990241234
H  H80  1  0.75850000  0.18540000  0.69770000  1.0 0.0990241234
H  H81  1  0.63650000  0.38520000  0.64000000  1.0 0.1280661783
H  H82  1  0.13650000  0.61480000  0.86000000  1.0 0.1280661783
H  H83  1  0.86350000  0.11480000  0.14000000  1.0 0.1280661783
H  H84  1  0.36350000  0.88520000  0.36000000  1.0 0.1280661783
H  H85  1  0.36350000  0.61480000  0.36000000  1.0 0.1280661783
H  H86  1  0.86350000  0.38520000  0.14000000  1.0 0.1280661783
H  H87  1  0.13650000  0.88520000  0.86000000  1.0 0.1280661783
H  H88  1  0.63650000  0.11480000  0.64000000  1.0 0.1280661783
H  H89  1  0.81880000  0.44400000  0.58570000  1.0 0.1077740268
H  H90  1  0.31880000  0.55600000  0.91430000  1.0 0.1077740268
H  H91  1  0.68120000  0.05600000  0.08570000  1.0 0.1077740268
H  H92  1  0.18120000  0.94400000  0.41430000  1.0 0.1077740268
H  H93  1  0.18120000  0.55600000  0.41430000  1.0 0.1077740268
H  H94  1  0.68120000  0.44400000  0.08570000  1.0 0.1077740268
H  H95  1  0.31880000  0.94400000  0.91430000  1.0 0.1077740268
H  H96  1  0.81880000  0.05600000  0.58570000  1.0 0.1077740268
C  C1  1  0.30940000  0.47407000  0.60321000  1.0 0.1492029194
C  C2  1  0.80940000  0.52593000  0.89679000  1.0 0.1492029194
C  C3  1  0.19060000  0.02593000  0.10321000  1.0 0.1492029194
C  C4  1  0.69060000  0.97407000  0.39679000  1.0 0.1492029194
C  C5  1  0.69060000  0.52593000  0.39679000  1.0 0.1492029194
C  C6  1  0.19060000  0.47407000  0.10321000  1.0 0.1492029194
C  C7  1  0.80940000  0.97407000  0.89679000  1.0 0.1492029194
C  C8  1  0.30940000  0.02593000  0.60321000  1.0 0.1492029194
C  C9  1  0.32790000  0.48403000  0.65789000  1.0 -0.1876132089
C  C10  1  0.82790000  0.51597000  0.84211000  1.0 -0.1876132089
C  C11  1  0.17210000  0.01597000  0.15789000  1.0 -0.1876132089
C  C12  1  0.67210000  0.98403000  0.34211000  1.0 -0.1876132089
C  C13  1  0.67210000  0.51597000  0.34211000  1.0 -0.1876132089
C  C14  1  0.17210000  0.48403000  0.15789000  1.0 -0.1876132089
C  C15  1  0.82790000  0.98403000  0.84211000  1.0 -0.1876132089
C  C16  1  0.32790000  0.01597000  0.65789000  1.0 -0.1876132089
C  C17  1  0.47270000  0.51959000  0.66543000  1.0 -0.1829783555
C  C18  1  0.97270000  0.48041000  0.83457000  1.0 -0.1829783555
C  C19  1  0.02730000  0.98041000  0.16543000  1.0 -0.1829783555
C  C20  1  0.52730000  0.01959000  0.33457000  1.0 -0.1829783555
C  C21  1  0.52730000  0.48041000  0.33457000  1.0 -0.1829783555
C  C22  1  0.02730000  0.51959000  0.16543000  1.0 -0.1829783555
C  C23  1  0.97270000  0.01959000  0.83457000  1.0 -0.1829783555
C  C24  1  0.47270000  0.98041000  0.66543000  1.0 -0.1829783555
C  C25  1  0.54720000  0.53215000  0.61600000  1.0 0.1492029194
C  C26  1  0.04720000  0.46785000  0.88400000  1.0 0.1492029194
C  C27  1  0.95280000  0.96785000  0.11600000  1.0 0.1492029194
C  C28  1  0.45280000  0.03215000  0.38400000  1.0 0.1492029194
C  C29  1  0.45280000  0.46785000  0.38400000  1.0 0.1492029194
C  C30  1  0.95280000  0.53215000  0.11600000  1.0 0.1492029194
C  C31  1  0.04720000  0.03215000  0.88400000  1.0 0.1492029194
C  C32  1  0.54720000  0.96785000  0.61600000  1.0 0.1492029194
C  C33  1  0.70320000  0.56670000  0.60621000  1.0 -0.081410559
C  C34  1  0.20320000  0.43330000  0.89379000  1.0 -0.081410559
C  C35  1  0.79680000  0.93330000  0.10621000  1.0 -0.081410559
C  C36  1  0.29680000  0.06670000  0.39379000  1.0 -0.081410559
C  C37  1  0.29680000  0.43330000  0.39379000  1.0 -0.081410559
C  C38  1  0.79680000  0.56670000  0.10621000  1.0 -0.081410559
C  C39  1  0.20320000  0.06670000  0.89379000  1.0 -0.081410559
C  C40  1  0.70320000  0.93330000  0.60621000  1.0 -0.081410559
C  C41  1  0.78600000  0.57540000  0.55813000  1.0 0.1554465395
C  C42  1  0.28600000  0.42460000  0.94187000  1.0 0.1554465395
C  C43  1  0.71400000  0.92460000  0.05813000  1.0 0.1554465395
C  C44  1  0.21400000  0.07540000  0.44187000  1.0 0.1554465395
C  C45  1  0.21400000  0.42460000  0.44187000  1.0 0.1554465395
C  C46  1  0.71400000  0.57540000  0.05813000  1.0 0.1554465395
C  C47  1  0.28600000  0.07540000  0.94187000  1.0 0.1554465395
C  C48  1  0.78600000  0.92460000  0.55813000  1.0 0.1554465395
C  C49  1  0.93280000  0.61725000  0.54860000  1.0 -0.1876132089
C  C50  1  0.43280000  0.38275000  0.95140000  1.0 -0.1876132089
C  C51  1  0.56720000  0.88275000  0.04860000  1.0 -0.1876132089
C  C52  1  0.06720000  0.11725000  0.45140000  1.0 -0.1876132089
C  C53  1  0.06720000  0.38275000  0.45140000  1.0 -0.1876132089
C  C54  1  0.56720000  0.61725000  0.04860000  1.0 -0.1876132089
C  C55  1  0.43280000  0.11725000  0.95140000  1.0 -0.1876132089
C  C56  1  0.93280000  0.88275000  0.54860000  1.0 -0.1876132089
C  C57  1  0.96680000  0.61516000  0.49780000  1.0 -0.1876132089
C  C58  1  0.46680000  0.38484000  0.00220000  1.0 -0.1876132089
C  C59  1  0.53320000  0.88484000  0.99780000  1.0 -0.1876132089
C  C60  1  0.03320000  0.11516000  0.50220000  1.0 -0.1876132089
C  C61  1  0.03320000  0.38484000  0.50220000  1.0 -0.1876132089
C  C62  1  0.53320000  0.61516000  0.99780000  1.0 -0.1876132089
C  C63  1  0.46680000  0.11516000  0.00220000  1.0 -0.1876132089
C  C64  1  0.96680000  0.88484000  0.49780000  1.0 -0.1876132089
C  C65  1  0.84270000  0.57263000  0.47490000  1.0 0.1658803847
C  C66  1  0.34270000  0.42737000  0.02510000  1.0 0.1658803847
C  C67  1  0.65730000  0.92737000  0.97490000  1.0 0.1658803847
C  C68  1  0.15730000  0.07263000  0.52510000  1.0 0.1658803847
C  C69  1  0.15730000  0.42737000  0.52510000  1.0 0.1658803847
C  C70  1  0.65730000  0.57263000  0.97490000  1.0 0.1658803847
C  C71  1  0.34270000  0.07263000  0.02510000  1.0 0.1658803847
C  C72  1  0.84270000  0.92737000  0.47490000  1.0 0.1658803847
C  C73  1  0.17660000  0.43924000  0.57842000  1.0 -0.081410559
C  C74  1  0.67660000  0.56076000  0.92158000  1.0 -0.081410559
C  C75  1  0.32340000  0.06076000  0.07842000  1.0 -0.081410559
C  C76  1  0.82340000  0.93924000  0.42158000  1.0 -0.081410559
C  C77  1  0.82340000  0.56076000  0.42158000  1.0 -0.081410559
C  C78  1  0.32340000  0.43924000  0.07842000  1.0 -0.081410559
C  C79  1  0.67660000  0.93924000  0.92158000  1.0 -0.081410559
C  C80  1  0.17660000  0.06076000  0.57842000  1.0 -0.081410559
C  C81  1  0.79120000  0.59628000  0.65116000  1.0 0.047171004
C  C82  1  0.29120000  0.40372000  0.84884000  1.0 0.047171004
C  C83  1  0.70880000  0.90372000  0.15116000  1.0 0.047171004
C  C84  1  0.20880000  0.09628000  0.34884000  1.0 0.047171004
C  C85  1  0.20880000  0.40372000  0.34884000  1.0 0.047171004
C  C86  1  0.70880000  0.59628000  0.15116000  1.0 0.047171004
C  C87  1  0.29120000  0.09628000  0.84884000  1.0 0.047171004
C  C88  1  0.79120000  0.90372000  0.65116000  1.0 0.047171004
C  C89  1  0.70940000  0.64140000  0.68128000  1.0 0.0180911565
C  C90  1  0.20940000  0.35860000  0.81872000  1.0 0.0180911565
C  C91  1  0.79060000  0.85860000  0.18128000  1.0 0.0180911565
C  C92  1  0.29060000  0.14140000  0.31872000  1.0 0.0180911565
C  C93  1  0.29060000  0.35860000  0.31872000  1.0 0.0180911565
C  C94  1  0.79060000  0.64140000  0.18128000  1.0 0.0180911565
C  C95  1  0.20940000  0.14140000  0.81872000  1.0 0.0180911565
C  C96  1  0.70940000  0.85860000  0.68128000  1.0 0.0180911565
C  C97  1  0.95330000  0.65450000  0.73200000  1.0 0.0626608309
C  C98  1  0.45330000  0.34550000  0.76800000  1.0 0.0626608309
C  C99  1  0.54670000  0.84550000  0.23200000  1.0 0.0626608309
C  C100  1  0.04670000  0.15450000  0.26800000  1.0 0.0626608309
C  C101  1  0.04670000  0.34550000  0.26800000  1.0 0.0626608309
C  C102  1  0.54670000  0.65450000  0.23200000  1.0 0.0626608309
C  C103  1  0.45330000  0.15450000  0.76800000  1.0 0.0626608309
C  C104  1  0.95330000  0.84550000  0.73200000  1.0 0.0626608309
C  C105  1  0.04610000  0.61050000  0.70415000  1.0 -0.1285384485
C  C106  1  0.54610000  0.38950000  0.79585000  1.0 -0.1285384485
C  C107  1  0.45390000  0.88950000  0.20415000  1.0 -0.1285384485
C  C108  1  0.95390000  0.11050000  0.29585000  1.0 -0.1285384485
C  C109  1  0.95390000  0.38950000  0.29585000  1.0 -0.1285384485
C  C110  1  0.45390000  0.61050000  0.20415000  1.0 -0.1285384485
C  C111  1  0.54610000  0.11050000  0.79585000  1.0 -0.1285384485
C  C112  1  0.04610000  0.88950000  0.70415000  1.0 -0.1285384485
C  C113  1  0.96380000  0.58080000  0.66325000  1.0 -0.1024051878
C  C114  1  0.46380000  0.41920000  0.83675000  1.0 -0.1024051878
C  C115  1  0.53620000  0.91920000  0.16325000  1.0 -0.1024051878
C  C116  1  0.03620000  0.08080000  0.33675000  1.0 -0.1024051878
C  C117  1  0.03620000  0.41920000  0.33675000  1.0 -0.1024051878
C  C118  1  0.53620000  0.58080000  0.16325000  1.0 -0.1024051878
C  C119  1  0.46380000  0.08080000  0.83675000  1.0 -0.1024051878
C  C120  1  0.96380000  0.91920000  0.66325000  1.0 -0.1024051878
C  C121  1  0.04820000  0.40620000  0.61237000  1.0 0.047171004
C  C122  1  0.54820000  0.59380000  0.88763000  1.0 0.047171004
C  C123  1  0.45180000  0.09380000  0.11237000  1.0 0.047171004
C  C124  1  0.95180000  0.90620000  0.38763000  1.0 0.047171004
C  C125  1  0.95180000  0.59380000  0.38763000  1.0 0.047171004
C  C126  1  0.45180000  0.40620000  0.11237000  1.0 0.047171004
C  C127  1  0.54820000  0.90620000  0.88763000  1.0 0.047171004
C  C128  1  0.04820000  0.09380000  0.61237000  1.0 0.047171004
C  C129  1  0.11010000  0.36178000  0.64711000  1.0 0.0180911565
C  C130  1  0.61010000  0.63822000  0.85289000  1.0 0.0180911565
C  C131  1  0.38990000  0.13822000  0.14711000  1.0 0.0180911565
C  C132  1  0.88990000  0.86178000  0.35289000  1.0 0.0180911565
C  C133  1  0.88990000  0.63822000  0.35289000  1.0 0.0180911565
C  C134  1  0.38990000  0.36178000  0.14711000  1.0 0.0180911565
C  C135  1  0.61010000  0.86178000  0.85289000  1.0 0.0180911565
C  C136  1  0.11010000  0.13822000  0.64711000  1.0 0.0180911565
C  C137  1  0.83350000  0.33784000  0.67552000  1.0 0.0681154009
C  C138  1  0.33350000  0.66216000  0.82448000  1.0 0.0681154009
C  C139  1  0.66650000  0.16216000  0.17552000  1.0 0.0681154009
C  C140  1  0.16650000  0.83784000  0.32448000  1.0 0.0681154009
C  C141  1  0.16650000  0.66216000  0.32448000  1.0 0.0681154009
C  C142  1  0.66650000  0.33784000  0.17552000  1.0 0.0681154009
C  C143  1  0.33350000  0.83784000  0.82448000  1.0 0.0681154009
C  C144  1  0.83350000  0.16216000  0.67552000  1.0 0.0681154009
C  C145  1  0.76000000  0.38000000  0.64145000  1.0 -0.1285384485
C  C146  1  0.26000000  0.62000000  0.85855000  1.0 -0.1285384485
C  C147  1  0.74000000  0.12000000  0.14145000  1.0 -0.1285384485
C  C148  1  0.24000000  0.88000000  0.35855000  1.0 -0.1285384485
C  C149  1  0.24000000  0.62000000  0.35855000  1.0 -0.1285384485
C  C150  1  0.74000000  0.38000000  0.14145000  1.0 -0.1285384485
C  C151  1  0.26000000  0.88000000  0.85855000  1.0 -0.1285384485
C  C152  1  0.76000000  0.12000000  0.64145000  1.0 -0.1285384485
C  C153  1  0.86740000  0.41471000  0.60942000  1.0 -0.1063549268
C  C154  1  0.36740000  0.58529000  0.89058000  1.0 -0.1063549268
C  C155  1  0.63260000  0.08529000  0.10942000  1.0 -0.1063549268
C  C156  1  0.13260000  0.91471000  0.39058000  1.0 -0.1063549268
C  C157  1  0.13260000  0.58529000  0.39058000  1.0 -0.1063549268
C  C158  1  0.63260000  0.41471000  0.10942000  1.0 -0.1063549268
C  C159  1  0.36740000  0.91471000  0.89058000  1.0 -0.1063549268
C  C160  1  0.86740000  0.08529000  0.60942000  1.0 -0.1063549268
N  N1  1  0.44640000  0.50422000  0.57915000  1.0 -0.3636102352
N  N2  1  0.94640000  0.49578000  0.92085000  1.0 -0.3636102352
N  N3  1  0.05360000  0.99578000  0.07915000  1.0 -0.3636102352
N  N4  1  0.55360000  0.00422000  0.42085000  1.0 -0.3636102352
N  N5  1  0.55360000  0.49578000  0.42085000  1.0 -0.3636102352
N  N6  1  0.05360000  0.50422000  0.07915000  1.0 -0.3636102352
N  N7  1  0.94640000  0.00422000  0.92085000  1.0 -0.3636102352
N  N8  1  0.44640000  0.99578000  0.57915000  1.0 -0.3636102352
N  N9  1  0.73740000  0.54848000  0.51265000  1.0 -0.3697813052
N  N10  1  0.23740000  0.45152000  0.98735000  1.0 -0.3697813052
N  N11  1  0.76260000  0.95152000  0.01265000  1.0 -0.3697813052
N  N12  1  0.26260000  0.04848000  0.48735000  1.0 -0.3697813052
N  N13  1  0.26260000  0.45152000  0.48735000  1.0 -0.3697813052
N  N14  1  0.76260000  0.54848000  0.01265000  1.0 -0.3697813052
N  N15  1  0.23740000  0.04848000  0.98735000  1.0 -0.3697813052
N  N16  1  0.73740000  0.95152000  0.51265000  1.0 -0.3697813052
N  N17  1  0.78610000  0.67039000  0.72105000  1.0 -0.2112684074
N  N18  1  0.28610000  0.32961000  0.77895000  1.0 -0.2112684074
N  N19  1  0.71390000  0.82961000  0.22105000  1.0 -0.2112684074
N  N20  1  0.21390000  0.17039000  0.27895000  1.0 -0.2112684074
N  N21  1  0.21390000  0.32961000  0.27895000  1.0 -0.2112684074
N  N22  1  0.71390000  0.67039000  0.22105000  1.0 -0.2112684074
N  N23  1  0.28610000  0.17039000  0.77895000  1.0 -0.2112684074
N  N24  1  0.78610000  0.82961000  0.72105000  1.0 -0.2112684074
N  N25  1  0.00690000  0.32836000  0.67857000  1.0 -0.2112684074
N  N26  1  0.50690000  0.67164000  0.82143000  1.0 -0.2112684074
N  N27  1  0.49310000  0.17164000  0.17857000  1.0 -0.2112684074
N  N28  1  0.99310000  0.82836000  0.32143000  1.0 -0.2112684074
N  N29  1  0.99310000  0.67164000  0.32143000  1.0 -0.2112684074
N  N30  1  0.49310000  0.32836000  0.17857000  1.0 -0.2112684074
N  N31  1  0.50690000  0.82836000  0.82143000  1.0 -0.2112684074
N  N32  1  0.00690000  0.17164000  0.67857000  1.0 -0.2112684074
Cl  Cl1  1  0.90877000  0.75000000  0.83424000  1.0 -0.610034709
Cl  Cl2  1  0.40877000  0.25000000  0.66576000  1.0 -0.610034709
Cl  Cl3  1  0.59123000  0.75000000  0.33424000  1.0 -0.610034709
Cl  Cl4  1  0.09123000  0.25000000  0.16576000  1.0 -0.610034709
Cl  Cl5  1  0.37341000  0.75000000  0.70903000  1.0 -0.610034709
Cl  Cl6  1  0.87341000  0.25000000  0.79097000  1.0 -0.610034709
Cl  Cl7  1  0.12659000  0.75000000  0.20903000  1.0 -0.610034709
Cl  Cl8  1  0.62659000  0.25000000  0.29097000  1.0 -0.610034709
