# DDEC6 charges by PACMAN v1.1 (https://github.com/mtap-research/PACMAN-charge/)
data_UPUFOD_FSR_pacman
_symmetry_space_group_name_H-M   'P 1'
_cell_length_a   12.56930000
_cell_length_b   12.56930000
_cell_length_c   16.26430000
_cell_angle_alpha   90.00000000
_cell_angle_beta   90.00000000
_cell_angle_gamma   94.61540000
_symmetry_Int_Tables_number   1
_chemical_formula_structural   Zn2H44PdC72(N3O4)2
_chemical_formula_sum   'Zn2 H44 Pd1 C72 N6 O8'
_cell_volume   2561.22056013
_cell_formula_units_Z   1
loop_
 _symmetry_equiv_pos_site_id
 _symmetry_equiv_pos_as_xyz
  1  'x, y, z'
loop_
 _atom_site_type_symbol
 _atom_site_label
 _atom_site_symmetry_multiplicity
 _atom_site_fract_x
 _atom_site_fract_y
 _atom_site_fract_z
 _atom_site_occupancy
 _atom_site_charge
Zn  Zn1  1  0.07999000  0.92001000  0.50000000  1.0 0.8227526495
Zn  Zn2  1  0.92001000  0.07999000  0.50000000  1.0 0.8227526495
H  H1  1  0.71332000  0.92840000  0.31321000  1.0 0.1209728927
H  H2  1  0.61130000  0.82706000  0.21986000  1.0 0.1209728927
H  H3  1  0.60243000  0.51721000  0.28606000  1.0 0.1209728927
H  H4  1  0.28668000  0.07160000  0.31321000  1.0 0.1209728927
H  H5  1  0.38870000  0.17294000  0.21986000  1.0 0.1209728927
H  H6  1  0.39757000  0.48279000  0.28606000  1.0 0.1209728927
H  H7  1  0.92840000  0.71332000  0.68679000  1.0 0.1209728927
H  H8  1  0.82706000  0.61130000  0.78014000  1.0 0.1209728927
H  H9  1  0.51721000  0.60243000  0.71394000  1.0 0.1209728927
H  H10  1  0.07160000  0.28668000  0.68679000  1.0 0.1209728927
H  H11  1  0.17294000  0.38870000  0.78014000  1.0 0.1209728927
H  H12  1  0.48279000  0.39757000  0.71394000  1.0 0.1209728927
H  H13  1  0.28668000  0.07160000  0.68679000  1.0 0.1209728927
H  H14  1  0.38870000  0.17294000  0.78014000  1.0 0.1209728927
H  H15  1  0.39757000  0.48279000  0.71394000  1.0 0.1209728927
H  H16  1  0.71332000  0.92840000  0.68679000  1.0 0.1209728927
H  H17  1  0.61130000  0.82706000  0.78014000  1.0 0.1209728927
H  H18  1  0.60243000  0.51721000  0.71394000  1.0 0.1209728927
H  H19  1  0.07160000  0.28668000  0.31321000  1.0 0.1209728927
H  H20  1  0.17294000  0.38870000  0.21986000  1.0 0.1209728927
H  H21  1  0.48279000  0.39757000  0.28606000  1.0 0.1209728927
H  H22  1  0.92840000  0.71332000  0.31321000  1.0 0.1209728927
H  H23  1  0.82706000  0.61130000  0.21986000  1.0 0.1209728927
H  H24  1  0.51721000  0.60243000  0.28606000  1.0 0.1209728927
H  H25  1  0.79072000  0.79072000  0.07382000  1.0 0.1331139156
H  H26  1  0.20928000  0.20928000  0.07382000  1.0 0.1331139156
H  H27  1  0.79072000  0.79072000  0.92618000  1.0 0.1331139156
H  H28  1  0.20928000  0.20928000  0.92618000  1.0 0.1331139156
H  H29  1  0.20428000  0.79572000  0.61969000  1.0 0.1209728927
H  H30  1  0.32805000  0.67195000  0.62147000  1.0 0.139321349
H  H31  1  0.79572000  0.20428000  0.61969000  1.0 0.1209728927
H  H32  1  0.67195000  0.32805000  0.62147000  1.0 0.139321349
H  H33  1  0.79572000  0.20428000  0.38031000  1.0 0.1209728927
H  H34  1  0.67195000  0.32805000  0.37853000  1.0 0.139321349
H  H35  1  0.20428000  0.79572000  0.38031000  1.0 0.1209728927
H  H36  1  0.32805000  0.67195000  0.37853000  1.0 0.139321349
H  H37  1  0.52110000  0.77232000  0.50000000  1.0 0.1102014295
H  H38  1  0.69753000  0.82567000  0.50000000  1.0 0.1209728927
H  H39  1  0.47890000  0.22768000  0.50000000  1.0 0.1102014295
H  H40  1  0.30247000  0.17433000  0.50000000  1.0 0.1209728927
H  H41  1  0.77232000  0.52110000  0.50000000  1.0 0.1102014295
H  H42  1  0.82567000  0.69753000  0.50000000  1.0 0.1209728927
H  H43  1  0.22768000  0.47890000  0.50000000  1.0 0.1102014295
H  H44  1  0.17433000  0.30247000  0.50000000  1.0 0.1209728927
Pd  Pd1  1  0.50000000  0.50000000  0.00000000  1.0 0.2430939027
C  C1  1  0.73560000  0.86340000  0.29570000  1.0 -0.0921458454
C  C2  1  0.67430000  0.80250000  0.23970000  1.0 -0.1551767937
C  C3  1  0.26440000  0.13660000  0.29570000  1.0 -0.0921458454
C  C4  1  0.32570000  0.19750000  0.23970000  1.0 -0.1551767937
C  C5  1  0.86340000  0.73560000  0.70430000  1.0 -0.0921458454
C  C6  1  0.80250000  0.67430000  0.76030000  1.0 -0.1551767937
C  C7  1  0.13660000  0.26440000  0.70430000  1.0 -0.0921458454
C  C8  1  0.19750000  0.32570000  0.76030000  1.0 -0.1551767937
C  C9  1  0.26440000  0.13660000  0.70430000  1.0 -0.0921458454
C  C10  1  0.32570000  0.19750000  0.76030000  1.0 -0.1551767937
C  C11  1  0.73560000  0.86340000  0.70430000  1.0 -0.0921458454
C  C12  1  0.67430000  0.80250000  0.76030000  1.0 -0.1551767937
C  C13  1  0.13660000  0.26440000  0.29570000  1.0 -0.0921458454
C  C14  1  0.19750000  0.32570000  0.23970000  1.0 -0.1551767937
C  C15  1  0.86340000  0.73560000  0.29570000  1.0 -0.0921458454
C  C16  1  0.80250000  0.67430000  0.23970000  1.0 -0.1551767937
C  C17  1  0.34280000  0.65720000  0.50000000  1.0 0.1102014295
C  C18  1  0.42300000  0.57700000  0.50000000  1.0 -0.0437374886
C  C19  1  0.65720000  0.34280000  0.50000000  1.0 0.1102014295
C  C20  1  0.57700000  0.42300000  0.50000000  1.0 -0.0437374886
C  C21  1  0.89340000  0.89340000  0.38830000  1.0 0.5718898126
C  C22  1  0.82900000  0.82900000  0.32580000  1.0 -0.0437374886
C  C23  1  0.70570000  0.70570000  0.21320000  1.0 0.0807039016
C  C24  1  0.54010000  0.54010000  0.25800000  1.0 -0.2485939762
C  C25  1  0.56470000  0.56470000  0.17470000  1.0 0.1331139156
C  C26  1  0.64170000  0.64170000  0.15010000  1.0 -0.0637484467
C  C27  1  0.66490000  0.66490000  0.06740000  1.0 0.139321349
C  C28  1  0.74670000  0.74670000  0.04010000  1.0 -0.1763165197
C  C29  1  0.10660000  0.10660000  0.38830000  1.0 0.5718898126
C  C30  1  0.17100000  0.17100000  0.32580000  1.0 -0.0437374886
C  C31  1  0.29430000  0.29430000  0.21320000  1.0 0.0807039016
C  C32  1  0.45990000  0.45990000  0.25800000  1.0 -0.2485939762
C  C33  1  0.43530000  0.43530000  0.17470000  1.0 0.1331139156
C  C34  1  0.35830000  0.35830000  0.15010000  1.0 -0.0637484467
C  C35  1  0.33510000  0.33510000  0.06740000  1.0 0.1452210197
C  C36  1  0.25330000  0.25330000  0.04010000  1.0 -0.1763165197
C  C37  1  0.89340000  0.89340000  0.61170000  1.0 0.5718898126
C  C38  1  0.82900000  0.82900000  0.67420000  1.0 -0.0437374886
C  C39  1  0.70570000  0.70570000  0.78680000  1.0 0.0807039016
C  C40  1  0.54010000  0.54010000  0.74200000  1.0 -0.2485939762
C  C41  1  0.56470000  0.56470000  0.82530000  1.0 0.1331139156
C  C42  1  0.64170000  0.64170000  0.84990000  1.0 -0.0637484467
C  C43  1  0.66490000  0.66490000  0.93260000  1.0 0.1452210197
C  C44  1  0.74670000  0.74670000  0.95990000  1.0 -0.1763165197
C  C45  1  0.10660000  0.10660000  0.61170000  1.0 0.5718898126
C  C46  1  0.17100000  0.17100000  0.67420000  1.0 -0.0437374886
C  C47  1  0.29430000  0.29430000  0.78680000  1.0 0.0807039016
C  C48  1  0.45990000  0.45990000  0.74200000  1.0 -0.2485939762
C  C49  1  0.43530000  0.43530000  0.82530000  1.0 0.1331139156
C  C50  1  0.35830000  0.35830000  0.84990000  1.0 -0.0637484467
C  C51  1  0.33510000  0.33510000  0.93260000  1.0 0.1452210197
C  C52  1  0.25330000  0.25330000  0.95990000  1.0 -0.1763165197
C  C53  1  0.22900000  0.77100000  0.56990000  1.0 0.0856942185
C  C54  1  0.30390000  0.69610000  0.57130000  1.0 -0.2118484503
C  C55  1  0.77100000  0.22900000  0.56990000  1.0 0.0856942185
C  C56  1  0.69610000  0.30390000  0.57130000  1.0 -0.2118484503
C  C57  1  0.77100000  0.22900000  0.43010000  1.0 0.0856942185
C  C58  1  0.69610000  0.30390000  0.42870000  1.0 -0.2118484503
C  C59  1  0.22900000  0.77100000  0.43010000  1.0 0.0856942185
C  C60  1  0.30390000  0.69610000  0.42870000  1.0 -0.2118484503
C  C61  1  0.53240000  0.61040000  0.50000000  1.0 0.0249647224
C  C62  1  0.57040000  0.72100000  0.50000000  1.0 -0.1518048695
C  C63  1  0.67550000  0.75330000  0.50000000  1.0 -0.0921458454
C  C64  1  0.46760000  0.38960000  0.50000000  1.0 0.0249647224
C  C65  1  0.42960000  0.27900000  0.50000000  1.0 -0.1518048695
C  C66  1  0.32450000  0.24670000  0.50000000  1.0 -0.0921458454
C  C67  1  0.61040000  0.53240000  0.50000000  1.0 0.0249647224
C  C68  1  0.72100000  0.57040000  0.50000000  1.0 -0.1518048695
C  C69  1  0.75330000  0.67550000  0.50000000  1.0 -0.0921458454
C  C70  1  0.38960000  0.46760000  0.50000000  1.0 0.0249647224
C  C71  1  0.27900000  0.42960000  0.50000000  1.0 -0.1518048695
C  C72  1  0.24670000  0.32450000  0.50000000  1.0 -0.0921458454
N  N1  1  0.19060000  0.80940000  0.50000000  1.0 -0.2207692465
N  N2  1  0.80940000  0.19060000  0.50000000  1.0 -0.2207692465
N  N3  1  0.50000000  0.50000000  0.12400000  1.0 -0.2444542101
N  N4  1  0.50000000  0.50000000  0.87600000  1.0 -0.2444542101
N  N5  1  0.61740000  0.61740000  0.00000000  1.0 -0.2257289118
N  N6  1  0.38260000  0.38260000  0.00000000  1.0 -0.2257289118
O  O1  1  0.97710000  0.85670000  0.41280000  1.0 -0.5337986103
O  O2  1  0.02290000  0.14330000  0.41280000  1.0 -0.5337986103
O  O3  1  0.85670000  0.97710000  0.58720000  1.0 -0.5337986103
O  O4  1  0.14330000  0.02290000  0.58720000  1.0 -0.5337986103
O  O5  1  0.02290000  0.14330000  0.58720000  1.0 -0.5337986103
O  O6  1  0.97710000  0.85670000  0.58720000  1.0 -0.5337986103
O  O7  1  0.14330000  0.02290000  0.41280000  1.0 -0.5337986103
O  O8  1  0.85670000  0.97710000  0.41280000  1.0 -0.5337986103
