# DDEC6 charges by PACMAN v1.1 (https://github.com/mtap-research/PACMAN-charge/)
data_UQEFED_ASR_pacman
_symmetry_space_group_name_H-M   'P 1'
_cell_length_a   11.61930000
_cell_length_b   5.56670000
_cell_length_c   23.66660000
_cell_angle_alpha   90.00000000
_cell_angle_beta   107.92600000
_cell_angle_gamma   90.00000000
_symmetry_Int_Tables_number   1
_chemical_formula_structural   CaH8C14SO6
_chemical_formula_sum   'Ca4 H32 C56 S4 O24'
_cell_volume   1456.47095576
_cell_formula_units_Z   4
loop_
 _symmetry_equiv_pos_site_id
 _symmetry_equiv_pos_as_xyz
  1  'x, y, z'
loop_
 _atom_site_type_symbol
 _atom_site_label
 _atom_site_symmetry_multiplicity
 _atom_site_fract_x
 _atom_site_fract_y
 _atom_site_fract_z
 _atom_site_occupancy
 _atom_site_charge
Ca  Ca1  1  0.41603000  0.74331000  0.77883000  1.0 1.4054087166
Ca  Ca2  1  0.58397000  0.24331000  0.72117000  1.0 1.4054087166
Ca  Ca3  1  0.58397000  0.25669000  0.22117000  1.0 1.4054087166
Ca  Ca4  1  0.41603000  0.75669000  0.27883000  1.0 1.4054087166
H  H1  1  0.03380000  0.52870000  0.71960000  1.0 0.1134097267
H  H2  1  0.96620000  0.02870000  0.78040000  1.0 0.1134097267
H  H3  1  0.96620000  0.47130000  0.28040000  1.0 0.1134097267
H  H4  1  0.03380000  0.97130000  0.21960000  1.0 0.1134097267
H  H5  1  0.82930000  0.44130000  0.66960000  1.0 0.1292942156
H  H6  1  0.17070000  0.94130000  0.83040000  1.0 0.1292942156
H  H7  1  0.17070000  0.55870000  0.33040000  1.0 0.1292942156
H  H8  1  0.82930000  0.05870000  0.16960000  1.0 0.1292942156
H  H9  1  0.92900000  0.79580000  0.61800000  1.0 0.1206003317
H  H10  1  0.07100000  0.29580000  0.88200000  1.0 0.1206003317
H  H11  1  0.07100000  0.20420000  0.38200000  1.0 0.1206003317
H  H12  1  0.92900000  0.70420000  0.11800000  1.0 0.1206003317
H  H13  1  0.13230000  0.87770000  0.67140000  1.0 0.1292942156
H  H14  1  0.86770000  0.37770000  0.82860000  1.0 0.1292942156
H  H15  1  0.86770000  0.12230000  0.32860000  1.0 0.1292942156
H  H16  1  0.13230000  0.62230000  0.17140000  1.0 0.1292942156
H  H17  1  0.61730000  0.45020000  0.53700000  1.0 0.1292942156
H  H18  1  0.38270000  0.95020000  0.96300000  1.0 0.1292942156
H  H19  1  0.38270000  0.54980000  0.46300000  1.0 0.1292942156
H  H20  1  0.61730000  0.04980000  0.03700000  1.0 0.1292942156
H  H21  1  0.56460000  0.53610000  0.43480000  1.0 0.1206003317
H  H22  1  0.43540000  0.03610000  0.06520000  1.0 0.1206003317
H  H23  1  0.43540000  0.46390000  0.56520000  1.0 0.1206003317
H  H24  1  0.56460000  0.96390000  0.93480000  1.0 0.1206003317
H  H25  1  0.68130000  0.87590000  0.40380000  1.0 0.1292942156
H  H26  1  0.31870000  0.37590000  0.09620000  1.0 0.1292942156
H  H27  1  0.31870000  0.12410000  0.59620000  1.0 0.1292942156
H  H28  1  0.68130000  0.62410000  0.90380000  1.0 0.1292942156
H  H29  1  0.73780000  0.79100000  0.50610000  1.0 0.1206003317
H  H30  1  0.26220000  0.29100000  0.99390000  1.0 0.1206003317
H  H31  1  0.26220000  0.20900000  0.49390000  1.0 0.1206003317
H  H32  1  0.73780000  0.70900000  0.00610000  1.0 0.1206003317
C  C1  1  0.23120000  0.25860000  0.73800000  1.0 0.6185398613
C  C2  1  0.76880000  0.75860000  0.76200000  1.0 0.6185398613
C  C3  1  0.76880000  0.74140000  0.26200000  1.0 0.6185398613
C  C4  1  0.23120000  0.24140000  0.23800000  1.0 0.6185398613
C  C5  1  0.10070000  0.21110000  0.70090000  1.0 -0.0156738578
C  C6  1  0.89930000  0.71110000  0.79910000  1.0 -0.0156738578
C  C7  1  0.89930000  0.78890000  0.29910000  1.0 -0.0156738578
C  C8  1  0.10070000  0.28890000  0.20090000  1.0 -0.0156738578
C  C9  1  0.01200000  0.37890000  0.69990000  1.0 -0.0984521407
C  C10  1  0.98800000  0.87890000  0.80010000  1.0 -0.0984521407
C  C11  1  0.98800000  0.62110000  0.30010000  1.0 -0.0984521407
C  C12  1  0.01200000  0.12110000  0.19990000  1.0 -0.0984521407
C  C13  1  0.89090000  0.32820000  0.67010000  1.0 -0.0920133409
C  C14  1  0.10910000  0.82820000  0.82990000  1.0 -0.0920133409
C  C15  1  0.10910000  0.67180000  0.32990000  1.0 -0.0920133409
C  C16  1  0.89090000  0.17180000  0.17010000  1.0 -0.0920133409
C  C17  1  0.86200000  0.10960000  0.64110000  1.0 -0.0815032852
C  C18  1  0.13800000  0.60960000  0.85890000  1.0 -0.0815032852
C  C19  1  0.13800000  0.89040000  0.35890000  1.0 -0.0815032852
C  C20  1  0.86200000  0.39040000  0.14110000  1.0 -0.0815032852
C  C21  1  0.95060000  0.94130000  0.63970000  1.0 -0.1063484038
C  C22  1  0.04940000  0.44130000  0.86030000  1.0 -0.1063484038
C  C23  1  0.04940000  0.05870000  0.36030000  1.0 -0.1063484038
C  C24  1  0.95060000  0.55870000  0.13970000  1.0 -0.1063484038
C  C25  1  0.07090000  0.99120000  0.67070000  1.0 -0.0984521407
C  C26  1  0.92910000  0.49120000  0.82930000  1.0 -0.0984521407
C  C27  1  0.92910000  0.00880000  0.32930000  1.0 -0.0984521407
C  C28  1  0.07090000  0.50880000  0.17070000  1.0 -0.0984521407
C  C29  1  0.67880000  0.11190000  0.52980000  1.0 -0.0815032852
C  C30  1  0.32120000  0.61190000  0.97020000  1.0 -0.0815032852
C  C31  1  0.32120000  0.88810000  0.47020000  1.0 -0.0815032852
C  C32  1  0.67880000  0.38810000  0.02980000  1.0 -0.0815032852
C  C33  1  0.62930000  0.33400000  0.50990000  1.0 -0.0984521407
C  C34  1  0.37070000  0.83400000  0.99010000  1.0 -0.0984521407
C  C35  1  0.37070000  0.66600000  0.49010000  1.0 -0.0984521407
C  C36  1  0.62930000  0.16600000  0.00990000  1.0 -0.0984521407
C  C37  1  0.59740000  0.38370000  0.44920000  1.0 -0.0920133409
C  C38  1  0.40260000  0.88370000  0.05080000  1.0 -0.0920133409
C  C39  1  0.40260000  0.61630000  0.55080000  1.0 -0.0920133409
C  C40  1  0.59740000  0.11630000  0.94920000  1.0 -0.0920133409
C  C41  1  0.61360000  0.21140000  0.41000000  1.0 -0.0116545664
C  C42  1  0.38640000  0.71140000  0.09000000  1.0 -0.0116545664
C  C43  1  0.38640000  0.78860000  0.59000000  1.0 -0.0116545664
C  C44  1  0.61360000  0.28860000  0.91000000  1.0 -0.0116545664
C  C45  1  0.66740000  0.99050000  0.43070000  1.0 -0.0920133409
C  C46  1  0.33260000  0.49050000  0.06930000  1.0 -0.0920133409
C  C47  1  0.33260000  0.00950000  0.56930000  1.0 -0.0920133409
C  C48  1  0.66740000  0.50950000  0.93070000  1.0 -0.0920133409
C  C49  1  0.70070000  0.93980000  0.49120000  1.0 -0.1063484038
C  C50  1  0.29930000  0.43980000  0.00880000  1.0 -0.1063484038
C  C51  1  0.29930000  0.06020000  0.50880000  1.0 -0.1063484038
C  C52  1  0.70070000  0.56020000  0.99120000  1.0 -0.1063484038
C  C53  1  0.57180000  0.26240000  0.34430000  1.0 0.6185398613
C  C54  1  0.42820000  0.76240000  0.15570000  1.0 0.6185398613
C  C55  1  0.42820000  0.73760000  0.65570000  1.0 0.6185398613
C  C56  1  0.57180000  0.23760000  0.84430000  1.0 0.6185398613
S  S1  1  0.70909000  0.03640000  0.60586000  1.0 0.9921577637
S  S2  1  0.29091000  0.53640000  0.89414000  1.0 0.9921577637
S  S3  1  0.29091000  0.96360000  0.39414000  1.0 0.9921577637
S  S4  1  0.70909000  0.46360000  0.10586000  1.0 0.9921577637
O  O1  1  0.26019000  0.47550000  0.74779000  1.0 -0.641735741
O  O2  1  0.73981000  0.97550000  0.75221000  1.0 -0.641735741
O  O3  1  0.73981000  0.52450000  0.25221000  1.0 -0.641735741
O  O4  1  0.26019000  0.02450000  0.24779000  1.0 -0.641735741
O  O5  1  0.29718000  0.08080000  0.75628000  1.0 -0.6228086288
O  O6  1  0.70282000  0.58080000  0.74372000  1.0 -0.6228086288
O  O7  1  0.70282000  0.91920000  0.24372000  1.0 -0.6228086288
O  O8  1  0.29718000  0.41920000  0.25628000  1.0 -0.6228086288
O  O9  1  0.63416000  0.19580000  0.62876000  1.0 -0.5735239919
O  O10  1  0.36584000  0.69580000  0.87124000  1.0 -0.5735239919
O  O11  1  0.36584000  0.80420000  0.37124000  1.0 -0.5735239919
O  O12  1  0.63416000  0.30420000  0.12876000  1.0 -0.5735239919
O  O13  1  0.69606000  0.77960000  0.60946000  1.0 -0.5096366044
O  O14  1  0.30394000  0.27960000  0.89054000  1.0 -0.5096366044
O  O15  1  0.30394000  0.22040000  0.39054000  1.0 -0.5096366044
O  O16  1  0.69606000  0.72040000  0.10946000  1.0 -0.5096366044
O  O17  1  0.56445000  0.47680000  0.32735000  1.0 -0.6302198108
O  O18  1  0.43555000  0.97680000  0.17265000  1.0 -0.6302198108
O  O19  1  0.43555000  0.52320000  0.67265000  1.0 -0.6302198108
O  O20  1  0.56445000  0.02320000  0.82735000  1.0 -0.6302198108
O  O21  1  0.54994000  0.08500000  0.30934000  1.0 -0.6746807631
O  O22  1  0.45006000  0.58500000  0.19066000  1.0 -0.6746807631
O  O23  1  0.45006000  0.91500000  0.69066000  1.0 -0.6746807631
O  O24  1  0.54994000  0.41500000  0.80934000  1.0 -0.6746807631
