# DDEC6 charges by PACMAN v1.1 (https://github.com/mtap-research/PACMAN-charge/)
data_UQEFAZ_ASR_pacman
_symmetry_space_group_name_H-M   'P 1'
_cell_length_a   11.88190000
_cell_length_b   5.55550000
_cell_length_c   23.41700000
_cell_angle_alpha   90.00000000
_cell_angle_beta   108.53700000
_cell_angle_gamma   90.00000000
_symmetry_Int_Tables_number   1
_chemical_formula_structural   CaH8C14SO6
_chemical_formula_sum   'Ca4 H32 C56 S4 O24'
_cell_volume   1465.55777899
_cell_formula_units_Z   4
loop_
 _symmetry_equiv_pos_site_id
 _symmetry_equiv_pos_as_xyz
  1  'x, y, z'
loop_
 _atom_site_type_symbol
 _atom_site_label
 _atom_site_symmetry_multiplicity
 _atom_site_fract_x
 _atom_site_fract_y
 _atom_site_fract_z
 _atom_site_occupancy
 _atom_site_charge
Ca  Ca1  1  0.06007000  0.73476000  0.95791000  1.0 1.4104569228
Ca  Ca2  1  0.93993000  0.23476000  0.54209000  1.0 1.4104569228
Ca  Ca3  1  0.93993000  0.26524000  0.04209000  1.0 1.4104569228
Ca  Ca4  1  0.06007000  0.76524000  0.45791000  1.0 1.4104569228
H  H1  1  0.15840000  0.36480000  0.68510000  1.0 0.1296877935
H  H2  1  0.84160000  0.86480000  0.81490000  1.0 0.1296877935
H  H3  1  0.84160000  0.63520000  0.31490000  1.0 0.1296877935
H  H4  1  0.15840000  0.13520000  0.18510000  1.0 0.1296877935
H  H5  1  0.69120000  0.37310000  0.91060000  1.0 0.1296877935
H  H6  1  0.30880000  0.87310000  0.58940000  1.0 0.1296877935
H  H7  1  0.30880000  0.62690000  0.08940000  1.0 0.1296877935
H  H8  1  0.69120000  0.12690000  0.41060000  1.0 0.1296877935
H  H9  1  0.05930000  0.01440000  0.73240000  1.0 0.1121343644
H  H10  1  0.94070000  0.51440000  0.76760000  1.0 0.1121343644
H  H11  1  0.94070000  0.98560000  0.26760000  1.0 0.1121343644
H  H12  1  0.05930000  0.48560000  0.23240000  1.0 0.1121343644
H  H13  1  0.48710000  0.28400000  0.88140000  1.0 0.1200163386
H  H14  1  0.51290000  0.78400000  0.61860000  1.0 0.1200163386
H  H15  1  0.51290000  0.71600000  0.11860000  1.0 0.1200163386
H  H16  1  0.48710000  0.21600000  0.38140000  1.0 0.1200163386
H  H17  1  0.26330000  0.28440000  0.78670000  1.0 0.1200163386
H  H18  1  0.73670000  0.78440000  0.71330000  1.0 0.1200163386
H  H19  1  0.73670000  0.71560000  0.21330000  1.0 0.1200163386
H  H20  1  0.26330000  0.21560000  0.28670000  1.0 0.1200163386
H  H21  1  0.42340000  0.94140000  0.94140000  1.0 0.1296877935
H  H22  1  0.57660000  0.44140000  0.55860000  1.0 0.1296877935
H  H23  1  0.57660000  0.05860000  0.05860000  1.0 0.1296877935
H  H24  1  0.42340000  0.55860000  0.44140000  1.0 0.1296877935
H  H25  1  0.15730000  0.93000000  0.83460000  1.0 0.1296877935
H  H26  1  0.84270000  0.43000000  0.66540000  1.0 0.1296877935
H  H27  1  0.84270000  0.07000000  0.16540000  1.0 0.1296877935
H  H28  1  0.15730000  0.57000000  0.33460000  1.0 0.1296877935
H  H29  1  0.62660000  0.03060000  0.96840000  1.0 0.1200163386
H  H30  1  0.37340000  0.53060000  0.53160000  1.0 0.1200163386
H  H31  1  0.37340000  0.96940000  0.03160000  1.0 0.1200163386
H  H32  1  0.62660000  0.46940000  0.46840000  1.0 0.1200163386
C  C1  1  0.09821000  0.69640000  0.69946000  1.0 -0.0192689775
C  C2  1  0.90179000  0.19640000  0.80054000  1.0 -0.0192689775
C  C3  1  0.90179000  0.30360000  0.30054000  1.0 -0.0192689775
C  C4  1  0.09821000  0.80360000  0.19946000  1.0 -0.0192689775
C  C5  1  0.21698000  0.59780000  0.81917000  1.0 -0.0808953671
C  C6  1  0.78302000  0.09780000  0.68083000  1.0 -0.0808953671
C  C7  1  0.78302000  0.40220000  0.18083000  1.0 -0.0808953671
C  C8  1  0.21698000  0.90220000  0.31917000  1.0 -0.0808953671
C  C9  1  0.43873000  0.60150000  0.91087000  1.0 -0.0808953671
C  C10  1  0.56127000  0.10150000  0.58913000  1.0 -0.0808953671
C  C11  1  0.56127000  0.39850000  0.08913000  1.0 -0.0808953671
C  C12  1  0.43873000  0.89850000  0.41087000  1.0 -0.0808953671
C  C13  1  0.67765000  0.70870000  0.94335000  1.0 -0.0141808642
C  C14  1  0.32235000  0.20870000  0.55665000  1.0 -0.0141808642
C  C15  1  0.32235000  0.29130000  0.05665000  1.0 -0.0141808642
C  C16  1  0.67765000  0.79130000  0.44335000  1.0 -0.0141808642
C  C17  1  0.15884000  0.47920000  0.71535000  1.0 -0.0993384188
C  C18  1  0.84116000  0.97920000  0.78465000  1.0 -0.0993384188
C  C19  1  0.84116000  0.52080000  0.28465000  1.0 -0.0993384188
C  C20  1  0.15884000  0.02080000  0.21535000  1.0 -0.0993384188
C  C21  1  0.80825000  0.76680000  0.96427000  1.0 0.6198641928
C  C22  1  0.19175000  0.26680000  0.53573000  1.0 0.6198641928
C  C23  1  0.19175000  0.23320000  0.03573000  1.0 0.6198641928
C  C24  1  0.80825000  0.73320000  0.46427000  1.0 0.6198641928
C  C25  1  0.63686000  0.48720000  0.91699000  1.0 -0.0922328622
C  C26  1  0.36314000  0.98720000  0.58301000  1.0 -0.0922328622
C  C27  1  0.36314000  0.51280000  0.08301000  1.0 -0.0922328622
C  C28  1  0.63686000  0.01280000  0.41699000  1.0 -0.0922328622
C  C29  1  0.09910000  0.86500000  0.74372000  1.0 -0.0993384188
C  C30  1  0.90090000  0.36500000  0.75628000  1.0 -0.0993384188
C  C31  1  0.90090000  0.13500000  0.25628000  1.0 -0.0993384188
C  C32  1  0.09910000  0.63500000  0.24372000  1.0 -0.0993384188
C  C33  1  0.02598000  0.74570000  0.63443000  1.0 0.6251086565
C  C34  1  0.97402000  0.24570000  0.86557000  1.0 0.6251086565
C  C35  1  0.97402000  0.25430000  0.36557000  1.0 0.6251086565
C  C36  1  0.02598000  0.75430000  0.13443000  1.0 0.6251086565
C  C37  1  0.51605000  0.43340000  0.90005000  1.0 -0.0993384188
C  C38  1  0.48395000  0.93340000  0.59995000  1.0 -0.0993384188
C  C39  1  0.48395000  0.56660000  0.09995000  1.0 -0.0993384188
C  C40  1  0.51605000  0.06660000  0.40005000  1.0 -0.0993384188
C  C41  1  0.22006000  0.43020000  0.77554000  1.0 -0.1081397915
C  C42  1  0.77994000  0.93020000  0.72446000  1.0 -0.1081397915
C  C43  1  0.77994000  0.56980000  0.22446000  1.0 -0.1081397915
C  C44  1  0.22006000  0.06980000  0.27554000  1.0 -0.1081397915
C  C45  1  0.47783000  0.82610000  0.93560000  1.0 -0.0993384188
C  C46  1  0.52217000  0.32610000  0.56440000  1.0 -0.0993384188
C  C47  1  0.52217000  0.17390000  0.06440000  1.0 -0.0993384188
C  C48  1  0.47783000  0.67390000  0.43560000  1.0 -0.0993384188
C  C49  1  0.15771000  0.81670000  0.80429000  1.0 -0.0922328622
C  C50  1  0.84229000  0.31670000  0.69571000  1.0 -0.0922328622
C  C51  1  0.84229000  0.18330000  0.19571000  1.0 -0.0922328622
C  C52  1  0.15771000  0.68330000  0.30429000  1.0 -0.0922328622
C  C53  1  0.59827000  0.87790000  0.95160000  1.0 -0.0922328622
C  C54  1  0.40173000  0.37790000  0.54840000  1.0 -0.0922328622
C  C55  1  0.40173000  0.12210000  0.04840000  1.0 -0.0922328622
C  C56  1  0.59827000  0.62210000  0.45160000  1.0 -0.0922328622
S  S1  1  0.28776000  0.52469000  0.89542000  1.0 0.995977682
S  S2  1  0.71224000  0.02469000  0.60458000  1.0 0.995977682
S  S3  1  0.71224000  0.47531000  0.10458000  1.0 0.995977682
S  S4  1  0.28776000  0.97531000  0.39542000  1.0 0.995977682
O  O1  1  0.88058000  0.59270000  0.97320000  1.0 -0.6809227048
O  O2  1  0.11942000  0.09270000  0.52680000  1.0 -0.6809227048
O  O3  1  0.11942000  0.40730000  0.02680000  1.0 -0.6809227048
O  O4  1  0.88058000  0.90730000  0.47320000  1.0 -0.6809227048
O  O5  1  0.00229000  0.96160000  0.61994000  1.0 -0.6390533475
O  O6  1  0.99771000  0.46160000  0.88006000  1.0 -0.6390533475
O  O7  1  0.99771000  0.03840000  0.38006000  1.0 -0.6390533475
O  O8  1  0.00229000  0.53840000  0.11994000  1.0 -0.6390533475
O  O9  1  0.28095000  0.26740000  0.90195000  1.0 -0.5067546693
O  O10  1  0.71905000  0.76740000  0.59805000  1.0 -0.5067546693
O  O11  1  0.71905000  0.73260000  0.09805000  1.0 -0.5045613376
O  O12  1  0.28095000  0.23260000  0.40195000  1.0 -0.5067546693
O  O13  1  0.83826000  0.98380000  0.97037000  1.0 -0.6269673137
O  O14  1  0.16174000  0.48380000  0.52963000  1.0 -0.6269673137
O  O15  1  0.16174000  0.01620000  0.02963000  1.0 -0.6269673137
O  O16  1  0.83826000  0.51620000  0.47037000  1.0 -0.6269673137
O  O17  1  0.24170000  0.68290000  0.93226000  1.0 -0.5727063297
O  O18  1  0.75830000  0.18290000  0.56774000  1.0 -0.5727063297
O  O19  1  0.75830000  0.31710000  0.06774000  1.0 -0.5727063297
O  O20  1  0.24170000  0.81710000  0.43226000  1.0 -0.5727063297
O  O21  1  0.99452000  0.56610000  0.60080000  1.0 -0.6390533475
O  O22  1  0.00548000  0.06610000  0.89920000  1.0 -0.6390533475
O  O23  1  0.00548000  0.43390000  0.39920000  1.0 -0.6390533475
O  O24  1  0.99452000  0.93390000  0.10080000  1.0 -0.6390533475
