# DDEC6 charges by PACMAN v1.1 (https://github.com/mtap-research/PACMAN-charge/)
data_UQISAR_FSR_pacman
_symmetry_space_group_name_H-M   'P 1'
_cell_length_a   15.42030000
_cell_length_b   15.42030000
_cell_length_c   15.25630000
_cell_angle_alpha   90.00000000
_cell_angle_beta   90.00000000
_cell_angle_gamma   120.00000000
_symmetry_Int_Tables_number   1
_chemical_formula_structural   Sm2Mg3H42C42(NO5)6
_chemical_formula_sum   'Sm4 Mg6 H84 C84 N12 O60'
_cell_volume   3141.70568334
_cell_formula_units_Z   2
loop_
 _symmetry_equiv_pos_site_id
 _symmetry_equiv_pos_as_xyz
  1  'x, y, z'
loop_
 _atom_site_type_symbol
 _atom_site_label
 _atom_site_symmetry_multiplicity
 _atom_site_fract_x
 _atom_site_fract_y
 _atom_site_fract_z
 _atom_site_occupancy
 _atom_site_charge
Sm  Sm1  1  0.66666667  0.33333333  0.25000000  1.0 1.8584352056
Sm  Sm2  1  0.33333333  0.66666667  0.25000000  1.0 1.8584352056
Sm  Sm3  1  0.33333333  0.66666667  0.75000000  1.0 1.8584352056
Sm  Sm4  1  0.66666667  0.33333333  0.75000000  1.0 1.8584352056
Mg  Mg1  1  0.00000000  0.50000000  0.00000000  1.0 1.2726287165
Mg  Mg2  1  0.50000000  0.50000000  0.00000000  1.0 1.2726287165
Mg  Mg3  1  0.50000000  0.00000000  0.00000000  1.0 1.2726287165
Mg  Mg4  1  0.50000000  0.00000000  0.50000000  1.0 1.2726287165
Mg  Mg5  1  0.50000000  0.50000000  0.50000000  1.0 1.2726287165
Mg  Mg6  1  0.00000000  0.50000000  0.50000000  1.0 1.2726287165
H  H1  1  0.94788000  0.71106000  0.15539000  1.0 0.1312362919
H  H2  1  0.11832000  0.68722000  0.98278000  1.0 0.1540866985
H  H3  1  0.17283000  0.64477000  0.96226000  1.0 0.1856316844
H  H4  1  0.28894000  0.23682000  0.15539000  1.0 0.1312362919
H  H5  1  0.31278000  0.43110000  0.98278000  1.0 0.1540866985
H  H6  1  0.35523000  0.52806000  0.96226000  1.0 0.1856316844
H  H7  1  0.76318000  0.05212000  0.15539000  1.0 0.1312362919
H  H8  1  0.56890000  0.88168000  0.98278000  1.0 0.1540866985
H  H9  1  0.47194000  0.82717000  0.96226000  1.0 0.1856316844
H  H10  1  0.05212000  0.28894000  0.15539000  1.0 0.1312362919
H  H11  1  0.88168000  0.31278000  0.98278000  1.0 0.1540866985
H  H12  1  0.82717000  0.35523000  0.96226000  1.0 0.1856316844
H  H13  1  0.71106000  0.76318000  0.15539000  1.0 0.1312362919
H  H14  1  0.68722000  0.56890000  0.98278000  1.0 0.1540866985
H  H15  1  0.64477000  0.47194000  0.96226000  1.0 0.1856316844
H  H16  1  0.23682000  0.94788000  0.15539000  1.0 0.1312362919
H  H17  1  0.43110000  0.11832000  0.98278000  1.0 0.1540866985
H  H18  1  0.52806000  0.17283000  0.96226000  1.0 0.1846078653
H  H19  1  0.71106000  0.94788000  0.34461000  1.0 0.1312362919
H  H20  1  0.68722000  0.11832000  0.51722000  1.0 0.1540866985
H  H21  1  0.64477000  0.17283000  0.53774000  1.0 0.1846078653
H  H22  1  0.23682000  0.28894000  0.34461000  1.0 0.1312362919
H  H23  1  0.43110000  0.31278000  0.51722000  1.0 0.1540866985
H  H24  1  0.52806000  0.35523000  0.53774000  1.0 0.1856316844
H  H25  1  0.05212000  0.76318000  0.34461000  1.0 0.1312362919
H  H26  1  0.88168000  0.56890000  0.51722000  1.0 0.1540866985
H  H27  1  0.82717000  0.47194000  0.53774000  1.0 0.1856316844
H  H28  1  0.28894000  0.05212000  0.34461000  1.0 0.1312362919
H  H29  1  0.31278000  0.88168000  0.51722000  1.0 0.1540866985
H  H30  1  0.35523000  0.82717000  0.53774000  1.0 0.1856316844
H  H31  1  0.76318000  0.71106000  0.34461000  1.0 0.1312362919
H  H32  1  0.56890000  0.68722000  0.51722000  1.0 0.1540866985
H  H33  1  0.47194000  0.64477000  0.53774000  1.0 0.1856316844
H  H34  1  0.94788000  0.23682000  0.34461000  1.0 0.1312362919
H  H35  1  0.11832000  0.43110000  0.51722000  1.0 0.1540866985
H  H36  1  0.17283000  0.52806000  0.53774000  1.0 0.1856316844
H  H37  1  0.05212000  0.28894000  0.84461000  1.0 0.1312362919
H  H38  1  0.88168000  0.31278000  0.01722000  1.0 0.1540866985
H  H39  1  0.82717000  0.35523000  0.03774000  1.0 0.1856316844
H  H40  1  0.71106000  0.76318000  0.84461000  1.0 0.1312362919
H  H41  1  0.68722000  0.56890000  0.01722000  1.0 0.1540866985
H  H42  1  0.64477000  0.47194000  0.03774000  1.0 0.1846078653
H  H43  1  0.23682000  0.94788000  0.84461000  1.0 0.1312362919
H  H44  1  0.43110000  0.11832000  0.01722000  1.0 0.1540866985
H  H45  1  0.52806000  0.17283000  0.03774000  1.0 0.1846078653
H  H46  1  0.94788000  0.71106000  0.84461000  1.0 0.1312362919
H  H47  1  0.11832000  0.68722000  0.01722000  1.0 0.1540866985
H  H48  1  0.17283000  0.64477000  0.03774000  1.0 0.1856316844
H  H49  1  0.28894000  0.23682000  0.84461000  1.0 0.1312362919
H  H50  1  0.31278000  0.43110000  0.01722000  1.0 0.1540866985
H  H51  1  0.35523000  0.52806000  0.03774000  1.0 0.1846078653
H  H52  1  0.76318000  0.05212000  0.84461000  1.0 0.1312362919
H  H53  1  0.56890000  0.88168000  0.01722000  1.0 0.1540866985
H  H54  1  0.47194000  0.82717000  0.03774000  1.0 0.1856316844
H  H55  1  0.28894000  0.05212000  0.65539000  1.0 0.1312362919
H  H56  1  0.31278000  0.88168000  0.48278000  1.0 0.1540866985
H  H57  1  0.35523000  0.82717000  0.46226000  1.0 0.1856316844
H  H58  1  0.76318000  0.71106000  0.65539000  1.0 0.1312362919
H  H59  1  0.56890000  0.68722000  0.48278000  1.0 0.1540866985
H  H60  1  0.47194000  0.64477000  0.46226000  1.0 0.1856316844
H  H61  1  0.94788000  0.23682000  0.65539000  1.0 0.1312362919
H  H62  1  0.11832000  0.43110000  0.48278000  1.0 0.1540866985
H  H63  1  0.17283000  0.52806000  0.46226000  1.0 0.1856316844
H  H64  1  0.71106000  0.94788000  0.65539000  1.0 0.1312362919
H  H65  1  0.68722000  0.11832000  0.48278000  1.0 0.1540866985
H  H66  1  0.64477000  0.17283000  0.46226000  1.0 0.1846078653
H  H67  1  0.23682000  0.28894000  0.65539000  1.0 0.1312362919
H  H68  1  0.43110000  0.31278000  0.48278000  1.0 0.1540866985
H  H69  1  0.52806000  0.35523000  0.46226000  1.0 0.1856316844
H  H70  1  0.05212000  0.76318000  0.65539000  1.0 0.1312362919
H  H71  1  0.88168000  0.56890000  0.48278000  1.0 0.1540866985
H  H72  1  0.82717000  0.47194000  0.46226000  1.0 0.1856316844
H  H73  1  0.90026000  0.80051000  0.25000000  1.0 0.1058065439
H  H74  1  0.19949000  0.09975000  0.25000000  1.0 0.1058065439
H  H75  1  0.90026000  0.09975000  0.25000000  1.0 0.1058065439
H  H76  1  0.09975000  0.19949000  0.25000000  1.0 0.1058065439
H  H77  1  0.80051000  0.90025000  0.25000000  1.0 0.1058065439
H  H78  1  0.09974000  0.90025000  0.25000000  1.0 0.1058065439
H  H79  1  0.09975000  0.19949000  0.75000000  1.0 0.1058065439
H  H80  1  0.80051000  0.90025000  0.75000000  1.0 0.1058065439
H  H81  1  0.09974000  0.90025000  0.75000000  1.0 0.1058065439
H  H82  1  0.90026000  0.80051000  0.75000000  1.0 0.1058065439
H  H83  1  0.19949000  0.09975000  0.75000000  1.0 0.1058065439
H  H84  1  0.90026000  0.09975000  0.75000000  1.0 0.1058065439
C  C1  1  0.83920000  0.57340000  0.19650000  1.0 0.1161685074
C  C2  1  0.89290000  0.67680000  0.19430000  1.0 -0.1436056432
C  C3  1  0.86320000  0.50880000  0.13940000  1.0 0.560021154
C  C4  1  0.42660000  0.26580000  0.19650000  1.0 0.1161685074
C  C5  1  0.32320000  0.21610000  0.19430000  1.0 -0.1436056432
C  C6  1  0.49120000  0.35440000  0.13940000  1.0 0.560021154
C  C7  1  0.73420000  0.16080000  0.19650000  1.0 0.1161685074
C  C8  1  0.78390000  0.10710000  0.19430000  1.0 -0.1436056432
C  C9  1  0.64560000  0.13680000  0.13940000  1.0 0.560021154
C  C10  1  0.16080000  0.42660000  0.19650000  1.0 0.1161685074
C  C11  1  0.10710000  0.32320000  0.19430000  1.0 -0.1436056432
C  C12  1  0.13680000  0.49120000  0.13940000  1.0 0.560021154
C  C13  1  0.57340000  0.73420000  0.19650000  1.0 0.1161685074
C  C14  1  0.67680000  0.78390000  0.19430000  1.0 -0.1436056432
C  C15  1  0.50880000  0.64560000  0.13940000  1.0 0.560021154
C  C16  1  0.26580000  0.83920000  0.19650000  1.0 0.1161685074
C  C17  1  0.21610000  0.89290000  0.19430000  1.0 -0.1436056432
C  C18  1  0.35440000  0.86320000  0.13940000  1.0 0.560021154
C  C19  1  0.57340000  0.83920000  0.30350000  1.0 0.1161685074
C  C20  1  0.67680000  0.89290000  0.30570000  1.0 -0.1436056432
C  C21  1  0.50880000  0.86320000  0.36060000  1.0 0.560021154
C  C22  1  0.26580000  0.42660000  0.30350000  1.0 0.1161685074
C  C23  1  0.21610000  0.32320000  0.30570000  1.0 -0.1436056432
C  C24  1  0.35440000  0.49120000  0.36060000  1.0 0.560021154
C  C25  1  0.16080000  0.73420000  0.30350000  1.0 0.1161685074
C  C26  1  0.10710000  0.78390000  0.30570000  1.0 -0.1436056432
C  C27  1  0.13680000  0.64560000  0.36060000  1.0 0.560021154
C  C28  1  0.42660000  0.16080000  0.30350000  1.0 0.1161685074
C  C29  1  0.32320000  0.10710000  0.30570000  1.0 -0.1436056432
C  C30  1  0.49120000  0.13680000  0.36060000  1.0 0.560021154
C  C31  1  0.73420000  0.57340000  0.30350000  1.0 0.1161685074
C  C32  1  0.78390000  0.67680000  0.30570000  1.0 -0.1436056432
C  C33  1  0.64560000  0.50880000  0.36060000  1.0 0.560021154
C  C34  1  0.83920000  0.26580000  0.30350000  1.0 0.1161685074
C  C35  1  0.89290000  0.21610000  0.30570000  1.0 -0.1436056432
C  C36  1  0.86320000  0.35440000  0.36060000  1.0 0.560021154
C  C37  1  0.16080000  0.42660000  0.80350000  1.0 0.1161685074
C  C38  1  0.10710000  0.32320000  0.80570000  1.0 -0.1436056432
C  C39  1  0.13680000  0.49120000  0.86060000  1.0 0.560021154
C  C40  1  0.57340000  0.73420000  0.80350000  1.0 0.1161685074
C  C41  1  0.67680000  0.78390000  0.80570000  1.0 -0.1436056432
C  C42  1  0.50880000  0.64560000  0.86060000  1.0 0.560021154
C  C43  1  0.26580000  0.83920000  0.80350000  1.0 0.1161685074
C  C44  1  0.21610000  0.89290000  0.80570000  1.0 -0.1436056432
C  C45  1  0.35440000  0.86320000  0.86060000  1.0 0.560021154
C  C46  1  0.83920000  0.57340000  0.80350000  1.0 0.1161685074
C  C47  1  0.89290000  0.67680000  0.80570000  1.0 -0.1436056432
C  C48  1  0.86320000  0.50880000  0.86060000  1.0 0.560021154
C  C49  1  0.42660000  0.26580000  0.80350000  1.0 0.1161685074
C  C50  1  0.32320000  0.21610000  0.80570000  1.0 -0.1436056432
C  C51  1  0.49120000  0.35440000  0.86060000  1.0 0.560021154
C  C52  1  0.73420000  0.16080000  0.80350000  1.0 0.1161685074
C  C53  1  0.78390000  0.10710000  0.80570000  1.0 -0.1436056432
C  C54  1  0.64560000  0.13680000  0.86060000  1.0 0.560021154
C  C55  1  0.42660000  0.16080000  0.69650000  1.0 0.1161685074
C  C56  1  0.32320000  0.10710000  0.69430000  1.0 -0.1436056432
C  C57  1  0.49120000  0.13680000  0.63940000  1.0 0.560021154
C  C58  1  0.73420000  0.57340000  0.69650000  1.0 0.1161685074
C  C59  1  0.78390000  0.67680000  0.69430000  1.0 -0.1436056432
C  C60  1  0.64560000  0.50880000  0.63940000  1.0 0.560021154
C  C61  1  0.83920000  0.26580000  0.69650000  1.0 0.1161685074
C  C62  1  0.89290000  0.21610000  0.69430000  1.0 -0.1436056432
C  C63  1  0.86320000  0.35440000  0.63940000  1.0 0.560021154
C  C64  1  0.57340000  0.83920000  0.69650000  1.0 0.1161685074
C  C65  1  0.67680000  0.89290000  0.69430000  1.0 -0.1436056432
C  C66  1  0.50880000  0.86320000  0.63940000  1.0 0.560021154
C  C67  1  0.26580000  0.42660000  0.69650000  1.0 0.1161685074
C  C68  1  0.21610000  0.32320000  0.69430000  1.0 -0.1436056432
C  C69  1  0.35440000  0.49120000  0.63940000  1.0 0.560021154
C  C70  1  0.16080000  0.73420000  0.69650000  1.0 0.1161685074
C  C71  1  0.10710000  0.78390000  0.69430000  1.0 -0.1436056432
C  C72  1  0.13680000  0.64560000  0.63940000  1.0 0.560021154
C  C73  1  0.86470000  0.72940000  0.25000000  1.0 -0.0666597529
C  C74  1  0.27060000  0.13530000  0.25000000  1.0 -0.0666597529
C  C75  1  0.86470000  0.13530000  0.25000000  1.0 -0.0666597529
C  C76  1  0.13530000  0.27060000  0.25000000  1.0 -0.0666597529
C  C77  1  0.72940000  0.86470000  0.25000000  1.0 -0.0666597529
C  C78  1  0.13530000  0.86470000  0.25000000  1.0 -0.0666597529
C  C79  1  0.13530000  0.27060000  0.75000000  1.0 -0.0666597529
C  C80  1  0.72940000  0.86470000  0.75000000  1.0 -0.0666597529
C  C81  1  0.13530000  0.86470000  0.75000000  1.0 -0.0666597529
C  C82  1  0.86470000  0.72940000  0.75000000  1.0 -0.0666597529
C  C83  1  0.27060000  0.13530000  0.75000000  1.0 -0.0666597529
C  C84  1  0.86470000  0.13530000  0.75000000  1.0 -0.0666597529
N  N1  1  0.76150000  0.52300000  0.25000000  1.0 -0.3624858589
N  N2  1  0.47700000  0.23850000  0.25000000  1.0 -0.3624858589
N  N3  1  0.76150000  0.23850000  0.25000000  1.0 -0.3624858589
N  N4  1  0.23850000  0.47700000  0.25000000  1.0 -0.3624858589
N  N5  1  0.52300000  0.76150000  0.25000000  1.0 -0.3624858589
N  N6  1  0.23850000  0.76150000  0.25000000  1.0 -0.3624858589
N  N7  1  0.23850000  0.47700000  0.75000000  1.0 -0.3624858589
N  N8  1  0.52300000  0.76150000  0.75000000  1.0 -0.3624858589
N  N9  1  0.23850000  0.76150000  0.75000000  1.0 -0.3624858589
N  N10  1  0.76150000  0.52300000  0.75000000  1.0 -0.3624858589
N  N11  1  0.47700000  0.23850000  0.75000000  1.0 -0.3624858589
N  N12  1  0.76150000  0.23850000  0.75000000  1.0 -0.3624858589
O  O1  1  0.94000000  0.55090000  0.09290000  1.0 -0.6070652486
O  O2  1  0.80260000  0.41590000  0.14240000  1.0 -0.5954898775
O  O3  1  0.44910000  0.38910000  0.09290000  1.0 -0.6070652486
O  O4  1  0.58410000  0.38670000  0.14240000  1.0 -0.5954898775
O  O5  1  0.61090000  0.06000000  0.09290000  1.0 -0.6070652486
O  O6  1  0.61330000  0.19740000  0.14240000  1.0 -0.5954898775
O  O7  1  0.06000000  0.44910000  0.09290000  1.0 -0.6070652486
O  O8  1  0.19740000  0.58410000  0.14240000  1.0 -0.5954898775
O  O9  1  0.55090000  0.61090000  0.09290000  1.0 -0.6070652486
O  O10  1  0.41590000  0.61330000  0.14240000  1.0 -0.5954898775
O  O11  1  0.38910000  0.94000000  0.09290000  1.0 -0.6070652486
O  O12  1  0.38670000  0.80260000  0.14240000  1.0 -0.5954898775
O  O13  1  0.55090000  0.94000000  0.40710000  1.0 -0.6070652486
O  O14  1  0.41590000  0.80260000  0.35760000  1.0 -0.5954898775
O  O15  1  0.38910000  0.44910000  0.40710000  1.0 -0.6070652486
O  O16  1  0.38670000  0.58410000  0.35760000  1.0 -0.5954898775
O  O17  1  0.06000000  0.61090000  0.40710000  1.0 -0.6070652486
O  O18  1  0.19740000  0.61330000  0.35760000  1.0 -0.5954898775
O  O19  1  0.44910000  0.06000000  0.40710000  1.0 -0.6070652486
O  O20  1  0.58410000  0.19740000  0.35760000  1.0 -0.5954898775
O  O21  1  0.61090000  0.55090000  0.40710000  1.0 -0.6070652486
O  O22  1  0.61330000  0.41590000  0.35760000  1.0 -0.5954898775
O  O23  1  0.94000000  0.38910000  0.40710000  1.0 -0.6070652486
O  O24  1  0.80260000  0.38670000  0.35760000  1.0 -0.5954898775
O  O25  1  0.06000000  0.44910000  0.90710000  1.0 -0.6070652486
O  O26  1  0.19740000  0.58410000  0.85760000  1.0 -0.5954898775
O  O27  1  0.55090000  0.61090000  0.90710000  1.0 -0.6070652486
O  O28  1  0.41590000  0.61330000  0.85760000  1.0 -0.5954898775
O  O29  1  0.38910000  0.94000000  0.90710000  1.0 -0.6070652486
O  O30  1  0.38670000  0.80260000  0.85760000  1.0 -0.5954898775
O  O31  1  0.94000000  0.55090000  0.90710000  1.0 -0.6070652486
O  O32  1  0.80260000  0.41590000  0.85760000  1.0 -0.5954898775
O  O33  1  0.44910000  0.38910000  0.90710000  1.0 -0.6070652486
O  O34  1  0.58410000  0.38670000  0.85760000  1.0 -0.5954898775
O  O35  1  0.61090000  0.06000000  0.90710000  1.0 -0.6070652486
O  O36  1  0.61330000  0.19740000  0.85760000  1.0 -0.5954898775
O  O37  1  0.44910000  0.06000000  0.59290000  1.0 -0.6070652486
O  O38  1  0.58410000  0.19740000  0.64240000  1.0 -0.5954898775
O  O39  1  0.61090000  0.55090000  0.59290000  1.0 -0.6070652486
O  O40  1  0.61330000  0.41590000  0.64240000  1.0 -0.5954898775
O  O41  1  0.94000000  0.38910000  0.59290000  1.0 -0.6070652486
O  O42  1  0.80260000  0.38670000  0.64240000  1.0 -0.5954898775
O  O43  1  0.55090000  0.94000000  0.59290000  1.0 -0.6070652486
O  O44  1  0.41590000  0.80260000  0.64240000  1.0 -0.5954898775
O  O45  1  0.38910000  0.44910000  0.59290000  1.0 -0.6070652486
O  O46  1  0.38670000  0.58410000  0.64240000  1.0 -0.5954898775
O  O47  1  0.06000000  0.61090000  0.59290000  1.0 -0.6070652486
O  O48  1  0.19740000  0.61330000  0.64240000  1.0 -0.5954898775
O  O49  1  0.13110000  0.64230000  0.00000000  1.0 -0.5339089166
O  O50  1  0.35770000  0.48880000  0.00000000  1.0 -0.5339089166
O  O51  1  0.51120000  0.86890000  0.00000000  1.0 -0.5339089166
O  O52  1  0.86890000  0.35770000  0.00000000  1.0 -0.5339089166
O  O53  1  0.64230000  0.51120000  0.00000000  1.0 -0.5339089166
O  O54  1  0.48880000  0.13110000  0.00000000  1.0 -0.5339089166
O  O55  1  0.64230000  0.13110000  0.50000000  1.0 -0.5339089166
O  O56  1  0.48880000  0.35770000  0.50000000  1.0 -0.5339089166
O  O57  1  0.86890000  0.51120000  0.50000000  1.0 -0.5339089166
O  O58  1  0.35770000  0.86890000  0.50000000  1.0 -0.5339089166
O  O59  1  0.51120000  0.64230000  0.50000000  1.0 -0.5339089166
O  O60  1  0.13110000  0.48880000  0.50000000  1.0 -0.5339089166
