# DDEC6 charges by PACMAN v1.1 (https://github.com/mtap-research/PACMAN-charge/)
data_URIJUD_ASR_pacman
_symmetry_space_group_name_H-M   'P 1'
_cell_length_a   22.11420000
_cell_length_b   22.11420000
_cell_length_c   22.11420000
_cell_angle_alpha   129.77200000
_cell_angle_beta   129.77200000
_cell_angle_gamma   73.77190000
_symmetry_Int_Tables_number   1
_chemical_formula_structural   CuH11C17NO4
_chemical_formula_sum   'Cu8 H88 C136 N8 O32'
_cell_volume   6232.54571979
_cell_formula_units_Z   8
loop_
 _symmetry_equiv_pos_site_id
 _symmetry_equiv_pos_as_xyz
  1  'x, y, z'
loop_
 _atom_site_type_symbol
 _atom_site_label
 _atom_site_symmetry_multiplicity
 _atom_site_fract_x
 _atom_site_fract_y
 _atom_site_fract_z
 _atom_site_occupancy
 _atom_site_charge
Cu  Cu1  1  0.56111000  0.56087000  0.56466000  1.0 0.8624807945
Cu  Cu2  1  0.99621000  0.99645000  0.43534000  1.0 0.8624807945
Cu  Cu3  1  0.56087000  0.99621000  0.99976000  1.0 0.8624807945
Cu  Cu4  1  0.99645000  0.56111000  0.00024000  1.0 0.8624807945
Cu  Cu5  1  0.43889000  0.43913000  0.43534000  1.0 0.8624807945
Cu  Cu6  1  0.00379000  0.00355000  0.56466000  1.0 0.8624807945
Cu  Cu7  1  0.43913000  0.00379000  0.00024000  1.0 0.8624807945
Cu  Cu8  1  0.00355000  0.43889000  0.99976000  1.0 0.8624807945
H  H1  1  0.35860000  0.74910000  0.82010000  1.0 0.1317213889
H  H2  1  0.35720000  0.53740000  0.60780000  1.0 0.1317213889
H  H3  1  0.48620000  0.74040000  0.74520000  1.0 0.1510966787
H  H4  1  0.38450000  0.65080000  0.85370000  1.0 0.1054781651
H  H5  1  0.30830000  0.59150000  0.84880000  1.0 0.0937427841
H  H6  1  0.13740000  0.47690000  0.55570000  1.0 0.1011826051
H  H7  1  0.20880000  0.53980000  0.55960000  1.0 0.1011826051
H  H8  1  0.21020000  0.65010000  0.67170000  1.0 0.1011826051
H  H9  1  0.14330000  0.58960000  0.67590000  1.0 0.0937427841
H  H10  1  0.30740000  0.45620000  0.71180000  1.0 0.0937427841
H  H11  1  0.37840000  0.52110000  0.71710000  1.0 0.1011826051
H  H12  1  0.92900000  0.53850000  0.17990000  1.0 0.1317213889
H  H13  1  0.92960000  0.74940000  0.39220000  1.0 0.1317213889
H  H14  1  0.99520000  0.74100000  0.25480000  1.0 0.1510966787
H  H15  1  0.79710000  0.53080000  0.14630000  1.0 0.1054781651
H  H16  1  0.74270000  0.45950000  0.15120000  1.0 0.0937427841
H  H17  1  0.92120000  0.58170000  0.44430000  1.0 0.1011826051
H  H18  1  0.98020000  0.64920000  0.44040000  1.0 0.1011826051
H  H19  1  0.97840000  0.53850000  0.32830000  1.0 0.1011826051
H  H20  1  0.91370000  0.46740000  0.32410000  1.0 0.0937427841
H  H21  1  0.74440000  0.59560000  0.28820000  1.0 0.0937427841
H  H22  1  0.80400000  0.66130000  0.28290000  1.0 0.1011826051
H  H23  1  0.74910000  0.92900000  0.39050000  1.0 0.1317213889
H  H24  1  0.53740000  0.92960000  0.18020000  1.0 0.1317213889
H  H25  1  0.74040000  0.99520000  0.25420000  1.0 0.1510966787
H  H26  1  0.65080000  0.79710000  0.26630000  1.0 0.1011826051
H  H27  1  0.59150000  0.74270000  0.28320000  1.0 0.0937427841
H  H28  1  0.47690000  0.92120000  0.33950000  1.0 0.1011826051
H  H29  1  0.53980000  0.98020000  0.33100000  1.0 0.1011826051
H  H30  1  0.65010000  0.97840000  0.43990000  1.0 0.1011826051
H  H31  1  0.58960000  0.91370000  0.44630000  1.0 0.0937427841
H  H32  1  0.45620000  0.74440000  0.14880000  1.0 0.0937427841
H  H33  1  0.52110000  0.80400000  0.14270000  1.0 0.1011826051
H  H34  1  0.53850000  0.35860000  0.60950000  1.0 0.1317213889
H  H35  1  0.74940000  0.35720000  0.81980000  1.0 0.1317213889
H  H36  1  0.74100000  0.48620000  0.74580000  1.0 0.1510966787
H  H37  1  0.53080000  0.38450000  0.73370000  1.0 0.1054781651
H  H38  1  0.45950000  0.30830000  0.71680000  1.0 0.0937427841
H  H39  1  0.58170000  0.13740000  0.66050000  1.0 0.1011826051
H  H40  1  0.64920000  0.20880000  0.66900000  1.0 0.1011826051
H  H41  1  0.53850000  0.21020000  0.56010000  1.0 0.1011826051
H  H42  1  0.46740000  0.14330000  0.55370000  1.0 0.0937427841
H  H43  1  0.59560000  0.30740000  0.85120000  1.0 0.0937427841
H  H44  1  0.66130000  0.37840000  0.85730000  1.0 0.1011826051
H  H45  1  0.64140000  0.25090000  0.17990000  1.0 0.1317213889
H  H46  1  0.64280000  0.46260000  0.39220000  1.0 0.1317213889
H  H47  1  0.51380000  0.25960000  0.25480000  1.0 0.1510966787
H  H48  1  0.61550000  0.34920000  0.14630000  1.0 0.1054781651
H  H49  1  0.69170000  0.40850000  0.15120000  1.0 0.0937427841
H  H50  1  0.86260000  0.52310000  0.44430000  1.0 0.1011826051
H  H51  1  0.79120000  0.46020000  0.44040000  1.0 0.1011826051
H  H52  1  0.78980000  0.34990000  0.32830000  1.0 0.1011826051
H  H53  1  0.85670000  0.41040000  0.32410000  1.0 0.1011826051
H  H54  1  0.69260000  0.54380000  0.28820000  1.0 0.0937427841
H  H55  1  0.62160000  0.47890000  0.28290000  1.0 0.1011826051
H  H56  1  0.07100000  0.46150000  0.82010000  1.0 0.1317213889
H  H57  1  0.07040000  0.25060000  0.60780000  1.0 0.1317213889
H  H58  1  0.00480000  0.25900000  0.74520000  1.0 0.1510966787
H  H59  1  0.20290000  0.46920000  0.85370000  1.0 0.1054781651
H  H60  1  0.25730000  0.54050000  0.84880000  1.0 0.0937427841
H  H61  1  0.07880000  0.41830000  0.55570000  1.0 0.0937427841
H  H62  1  0.01980000  0.35080000  0.55960000  1.0 0.1011826051
H  H63  1  0.02160000  0.46150000  0.67170000  1.0 0.1011826051
H  H64  1  0.08630000  0.53260000  0.67590000  1.0 0.0937427841
H  H65  1  0.25560000  0.40440000  0.71180000  1.0 0.0937427841
H  H66  1  0.19600000  0.33870000  0.71710000  1.0 0.1011826051
H  H67  1  0.25090000  0.07100000  0.60950000  1.0 0.1317213889
H  H68  1  0.46260000  0.07040000  0.81980000  1.0 0.1317213889
H  H69  1  0.25960000  0.00480000  0.74580000  1.0 0.1510966787
H  H70  1  0.34920000  0.20290000  0.73370000  1.0 0.1054781651
H  H71  1  0.40850000  0.25730000  0.71680000  1.0 0.0937427841
H  H72  1  0.52310000  0.07880000  0.66050000  1.0 0.1011826051
H  H73  1  0.46020000  0.01980000  0.66900000  1.0 0.1011826051
H  H74  1  0.34990000  0.02160000  0.56010000  1.0 0.1011826051
H  H75  1  0.41040000  0.08630000  0.55370000  1.0 0.1011826051
H  H76  1  0.54380000  0.25560000  0.85120000  1.0 0.0937427841
H  H77  1  0.47890000  0.19600000  0.85730000  1.0 0.1011826051
H  H78  1  0.46150000  0.64140000  0.39050000  1.0 0.1317213889
H  H79  1  0.25060000  0.64280000  0.18020000  1.0 0.1317213889
H  H80  1  0.25900000  0.51380000  0.25420000  1.0 0.1510966787
H  H81  1  0.46920000  0.61550000  0.26630000  1.0 0.1054781651
H  H82  1  0.54050000  0.69170000  0.28320000  1.0 0.0937427841
H  H83  1  0.41830000  0.86260000  0.33950000  1.0 0.0937427841
H  H84  1  0.35080000  0.79120000  0.33100000  1.0 0.1011826051
H  H85  1  0.46150000  0.78980000  0.43990000  1.0 0.1011826051
H  H86  1  0.53260000  0.85670000  0.44630000  1.0 0.1011826051
H  H87  1  0.40440000  0.69260000  0.14880000  1.0 0.0937427841
H  H88  1  0.33870000  0.62160000  0.14270000  1.0 0.1011826051
C  C1  1  0.35138000  0.63958000  0.71160000  1.0 0.1011826051
C  C2  1  0.37492000  0.72002000  0.78050000  1.0 -0.1835274273
C  C3  1  0.37437000  0.59327000  0.65370000  1.0 -0.193344968
C  C4  1  0.42591000  0.63281000  0.66510000  1.0 -0.0219750004
C  C5  1  0.45070000  0.71440000  0.73530000  1.0 -0.1123405309
C  C6  1  0.45124000  0.84944000  0.86660000  1.0 0.5732772512
C  C7  1  0.45098000  0.58358000  0.60080000  1.0 0.5732772512
C  C8  1  0.42525000  0.75945000  0.79160000  1.0 -0.0219750004
C  C9  1  0.33530000  0.61490000  0.79340000  1.0 -0.0709069989
C  C10  1  0.29080000  0.57730000  0.78950000  1.0 -0.1363579144
C  C11  1  0.22121000  0.51931000  0.69910000  1.0 0.044518501
C  C12  1  0.18850000  0.50960000  0.61490000  1.0 -0.1195250411
C  C13  1  0.23040000  0.54760000  0.61720000  1.0 -0.0764421156
C  C14  1  0.23180000  0.61410000  0.68530000  1.0 -0.0619178299
C  C15  1  0.19100000  0.57630000  0.68530000  1.0 -0.1195250411
C  C16  1  0.28950000  0.49790000  0.70800000  1.0 -0.1363579144
C  C17  1  0.33230000  0.53620000  0.71130000  1.0 -0.0709069989
C  C18  1  0.92798000  0.63978000  0.28840000  1.0 0.1011826051
C  C19  1  0.93952000  0.59442000  0.21950000  1.0 -0.1835274273
C  C20  1  0.93957000  0.72067000  0.34630000  1.0 -0.193344968
C  C21  1  0.96771000  0.76081000  0.33490000  1.0 -0.0219750004
C  C22  1  0.97910000  0.71540000  0.26470000  1.0 -0.1123405309
C  C23  1  0.98284000  0.58464000  0.13340000  1.0 0.5732772512
C  C24  1  0.98278000  0.85018000  0.39920000  1.0 0.5732772512
C  C25  1  0.96785000  0.63365000  0.20840000  1.0 -0.0219750004
C  C26  1  0.82150000  0.54190000  0.20660000  1.0 -0.0709069989
C  C27  1  0.78780000  0.50130000  0.21050000  1.0 -0.1338249618
C  C28  1  0.82021000  0.52211000  0.30090000  1.0 0.044518501
C  C29  1  0.89470000  0.57360000  0.38510000  1.0 -0.1195250411
C  C30  1  0.93040000  0.61320000  0.38280000  1.0 -0.0709069989
C  C31  1  0.92880000  0.54650000  0.31470000  1.0 -0.0619178299
C  C32  1  0.89100000  0.50570000  0.31470000  1.0 -0.1195250411
C  C33  1  0.78990000  0.58150000  0.29200000  1.0 -0.1363579144
C  C34  1  0.82490000  0.62100000  0.28870000  1.0 -0.0709069989
C  C35  1  0.63958000  0.92798000  0.28820000  1.0 0.1011826051
C  C36  1  0.72002000  0.93952000  0.34510000  1.0 -0.1835274273
C  C37  1  0.59327000  0.93957000  0.21890000  1.0 -0.193344968
C  C38  1  0.63281000  0.96771000  0.20690000  1.0 -0.0219750004
C  C39  1  0.71440000  0.97910000  0.26370000  1.0 -0.1123405309
C  C40  1  0.84944000  0.98284000  0.39820000  1.0 0.5732772512
C  C41  1  0.58358000  0.98278000  0.13260000  1.0 0.5732772512
C  C42  1  0.75945000  0.96785000  0.33420000  1.0 -0.0219750004
C  C43  1  0.61490000  0.82150000  0.27960000  1.0 -0.0709069989
C  C44  1  0.57730000  0.78780000  0.28650000  1.0 -0.1363579144
C  C45  1  0.51931000  0.82021000  0.29810000  1.0 0.044518501
C  C46  1  0.50960000  0.89470000  0.32110000  1.0 -0.1195250411
C  C47  1  0.54760000  0.93040000  0.31720000  1.0 -0.0709069989
C  C48  1  0.61410000  0.92880000  0.38230000  1.0 -0.0619178299
C  C49  1  0.57630000  0.89100000  0.38530000  1.0 -0.1195250411
C  C50  1  0.49790000  0.78990000  0.20840000  1.0 -0.1363579144
C  C51  1  0.53620000  0.82490000  0.20390000  1.0 -0.0764421156
C  C52  1  0.63978000  0.35138000  0.71180000  1.0 0.1011826051
C  C53  1  0.59442000  0.37492000  0.65490000  1.0 -0.1835274273
C  C54  1  0.72067000  0.37437000  0.78110000  1.0 -0.193344968
C  C55  1  0.76081000  0.42591000  0.79310000  1.0 -0.0219750004
C  C56  1  0.71540000  0.45070000  0.73630000  1.0 -0.1123405309
C  C57  1  0.58464000  0.45124000  0.60180000  1.0 0.5732772512
C  C58  1  0.85018000  0.45098000  0.86740000  1.0 0.5732772512
C  C59  1  0.63365000  0.42525000  0.66580000  1.0 -0.0219750004
C  C60  1  0.54190000  0.33530000  0.72040000  1.0 -0.0709069989
C  C61  1  0.50130000  0.29080000  0.71350000  1.0 -0.1363579144
C  C62  1  0.52211000  0.22121000  0.70190000  1.0 0.044518501
C  C63  1  0.57360000  0.18850000  0.67890000  1.0 -0.1195250411
C  C64  1  0.61320000  0.23040000  0.68280000  1.0 -0.0764421156
C  C65  1  0.54650000  0.23180000  0.61770000  1.0 -0.0619178299
C  C66  1  0.50570000  0.19100000  0.61470000  1.0 -0.1195250411
C  C67  1  0.58150000  0.28950000  0.79160000  1.0 -0.1363579144
C  C68  1  0.62100000  0.33230000  0.79610000  1.0 -0.0709069989
C  C69  1  0.64862000  0.36042000  0.28840000  1.0 0.1011826051
C  C70  1  0.62508000  0.27998000  0.21950000  1.0 -0.1835274273
C  C71  1  0.62563000  0.40673000  0.34630000  1.0 -0.193344968
C  C72  1  0.57409000  0.36719000  0.33490000  1.0 -0.0219750004
C  C73  1  0.54930000  0.28560000  0.26470000  1.0 -0.1123405309
C  C74  1  0.54876000  0.15056000  0.13340000  1.0 0.5732772512
C  C75  1  0.54902000  0.41642000  0.39920000  1.0 0.5732772512
C  C76  1  0.57475000  0.24055000  0.20840000  1.0 -0.0219750004
C  C77  1  0.66470000  0.38510000  0.20660000  1.0 -0.0709069989
C  C78  1  0.70920000  0.42270000  0.21050000  1.0 -0.1363579144
C  C79  1  0.77879000  0.48069000  0.30090000  1.0 0.044518501
C  C80  1  0.81150000  0.49040000  0.38510000  1.0 -0.1195250411
C  C81  1  0.76960000  0.45240000  0.38280000  1.0 -0.0764421156
C  C82  1  0.76820000  0.38590000  0.31470000  1.0 -0.0619178299
C  C83  1  0.80900000  0.42370000  0.31470000  1.0 -0.1195250411
C  C84  1  0.71050000  0.50210000  0.29200000  1.0 -0.1363579144
C  C85  1  0.66770000  0.46380000  0.28870000  1.0 -0.0709069989
C  C86  1  0.07202000  0.36022000  0.71160000  1.0 0.1011826051
C  C87  1  0.06048000  0.40558000  0.78050000  1.0 -0.1835274273
C  C88  1  0.06043000  0.27933000  0.65370000  1.0 -0.193344968
C  C89  1  0.03229000  0.23919000  0.66510000  1.0 -0.0219750004
C  C90  1  0.02090000  0.28460000  0.73530000  1.0 -0.1123405309
C  C91  1  0.01716000  0.41536000  0.86660000  1.0 0.5732772512
C  C92  1  0.01722000  0.14982000  0.60080000  1.0 0.5732772512
C  C93  1  0.03215000  0.36635000  0.79160000  1.0 -0.0219750004
C  C94  1  0.17850000  0.45810000  0.79340000  1.0 -0.0709069989
C  C95  1  0.21220000  0.49870000  0.78950000  1.0 -0.1363579144
C  C96  1  0.17979000  0.47789000  0.69910000  1.0 0.044518501
C  C97  1  0.10530000  0.42640000  0.61490000  1.0 -0.1195250411
C  C98  1  0.06960000  0.38680000  0.61720000  1.0 -0.0764421156
C  C99  1  0.07120000  0.45350000  0.68530000  1.0 -0.0619178299
C  C100  1  0.10900000  0.49430000  0.68530000  1.0 -0.1195250411
C  C101  1  0.21010000  0.41850000  0.70800000  1.0 -0.1363579144
C  C102  1  0.17510000  0.37900000  0.71130000  1.0 -0.0709069989
C  C103  1  0.36042000  0.07202000  0.71180000  1.0 0.1011826051
C  C104  1  0.27998000  0.06048000  0.65490000  1.0 -0.1835274273
C  C105  1  0.40673000  0.06043000  0.78110000  1.0 -0.193344968
C  C106  1  0.36719000  0.03229000  0.79310000  1.0 -0.0219750004
C  C107  1  0.28560000  0.02090000  0.73630000  1.0 -0.1123405309
C  C108  1  0.15056000  0.01716000  0.60180000  1.0 0.5732772512
C  C109  1  0.41642000  0.01722000  0.86740000  1.0 0.5732772512
C  C110  1  0.24055000  0.03215000  0.66580000  1.0 -0.0219750004
C  C111  1  0.38510000  0.17850000  0.72040000  1.0 -0.0709069989
C  C112  1  0.42270000  0.21220000  0.71350000  1.0 -0.1363579144
C  C113  1  0.48069000  0.17979000  0.70190000  1.0 0.044518501
C  C114  1  0.49040000  0.10530000  0.67890000  1.0 -0.1195250411
C  C115  1  0.45240000  0.06960000  0.68280000  1.0 -0.0764421156
C  C116  1  0.38590000  0.07120000  0.61770000  1.0 -0.0619178299
C  C117  1  0.42370000  0.10900000  0.61470000  1.0 -0.1195250411
C  C118  1  0.50210000  0.21010000  0.79160000  1.0 -0.1363579144
C  C119  1  0.46380000  0.17510000  0.79610000  1.0 -0.0709069989
C  C120  1  0.36022000  0.64862000  0.28820000  1.0 0.1011826051
C  C121  1  0.40558000  0.62508000  0.34510000  1.0 -0.1835274273
C  C122  1  0.27933000  0.62563000  0.21890000  1.0 -0.193344968
C  C123  1  0.23919000  0.57409000  0.20690000  1.0 -0.0219750004
C  C124  1  0.28460000  0.54930000  0.26370000  1.0 -0.1123405309
C  C125  1  0.41536000  0.54876000  0.39820000  1.0 0.5732772512
C  C126  1  0.14982000  0.54902000  0.13260000  1.0 0.5732772512
C  C127  1  0.36635000  0.57475000  0.33420000  1.0 -0.0219750004
C  C128  1  0.45810000  0.66470000  0.27960000  1.0 -0.0709069989
C  C129  1  0.49870000  0.70920000  0.28650000  1.0 -0.1363579144
C  C130  1  0.47789000  0.77879000  0.29810000  1.0 0.044518501
C  C131  1  0.42640000  0.81150000  0.32110000  1.0 -0.1195250411
C  C132  1  0.38680000  0.76960000  0.31720000  1.0 -0.0764421156
C  C133  1  0.45350000  0.76820000  0.38230000  1.0 -0.0619178299
C  C134  1  0.49430000  0.80900000  0.38530000  1.0 -0.1195250411
C  C135  1  0.41850000  0.71050000  0.20840000  1.0 -0.1338249618
C  C136  1  0.37900000  0.66770000  0.20390000  1.0 -0.0764421156
N  N1  1  0.30453000  0.59723000  0.70590000  1.0 0.0591410626
N  N2  1  0.89133000  0.59863000  0.29410000  1.0 0.0591410626
N  N3  1  0.59723000  0.89133000  0.29270000  1.0 0.0591410626
N  N4  1  0.59863000  0.30453000  0.70730000  1.0 0.0591410626
N  N5  1  0.69547000  0.40277000  0.29410000  1.0 0.0591410626
N  N6  1  0.10867000  0.40137000  0.70590000  1.0 0.0591410626
N  N7  1  0.40277000  0.10867000  0.70730000  1.0 0.0591410626
N  N8  1  0.40137000  0.69547000  0.29270000  1.0 0.0591410626
O  O1  1  0.41142000  0.51212000  0.52310000  1.0 -0.5293599987
O  O2  1  0.51332000  0.87967000  0.89535000  1.0 -0.5185286762
O  O3  1  0.51276000  0.61707000  0.63251000  1.0 -0.5185286762
O  O4  1  0.41088000  0.88668000  0.89740000  1.0 -0.5293599987
O  O5  1  0.98902000  0.88832000  0.47690000  1.0 -0.5293599987
O  O6  1  0.98432000  0.61797000  0.10465000  1.0 -0.5185286762
O  O7  1  0.98456000  0.88025000  0.36749000  1.0 -0.5185286762
O  O8  1  0.98928000  0.51348000  0.10260000  1.0 -0.5293599987
O  O9  1  0.51212000  0.98902000  0.10070000  1.0 -0.5293599987
O  O10  1  0.87967000  0.98432000  0.36635000  1.0 -0.5185286762
O  O11  1  0.61707000  0.98456000  0.10431000  1.0 -0.5185286762
O  O12  1  0.88668000  0.98928000  0.47580000  1.0 -0.5293599987
O  O13  1  0.88832000  0.41142000  0.89930000  1.0 -0.5293599987
O  O14  1  0.61797000  0.51332000  0.63365000  1.0 -0.5185286762
O  O15  1  0.88025000  0.51276000  0.89569000  1.0 -0.5185286762
O  O16  1  0.51348000  0.41088000  0.52420000  1.0 -0.5293599987
O  O17  1  0.58858000  0.48788000  0.47690000  1.0 -0.5293599987
O  O18  1  0.48668000  0.12033000  0.10465000  1.0 -0.5185286762
O  O19  1  0.48724000  0.38293000  0.36749000  1.0 -0.5185286762
O  O20  1  0.58912000  0.11332000  0.10260000  1.0 -0.5293599987
O  O21  1  0.01098000  0.11168000  0.52310000  1.0 -0.5293599987
O  O22  1  0.01568000  0.38203000  0.89535000  1.0 -0.5185286762
O  O23  1  0.01544000  0.11975000  0.63251000  1.0 -0.5185286762
O  O24  1  0.01072000  0.48652000  0.89740000  1.0 -0.5293599987
O  O25  1  0.48788000  0.01098000  0.89930000  1.0 -0.5293599987
O  O26  1  0.12033000  0.01568000  0.63365000  1.0 -0.5185286762
O  O27  1  0.38293000  0.01544000  0.89569000  1.0 -0.5185286762
O  O28  1  0.11332000  0.01072000  0.52420000  1.0 -0.5293599987
O  O29  1  0.11168000  0.58858000  0.10070000  1.0 -0.5293599987
O  O30  1  0.38203000  0.48668000  0.36635000  1.0 -0.5185286762
O  O31  1  0.11975000  0.48724000  0.10431000  1.0 -0.5185286762
O  O32  1  0.48652000  0.58912000  0.47580000  1.0 -0.5293599987
