# DDEC6 charges by PACMAN v1.1 (https://github.com/mtap-research/PACMAN-charge/)
data_URUWEL_ASR_pacman
_symmetry_space_group_name_H-M   'P 1'
_cell_length_a   18.08680000
_cell_length_b   18.08680000
_cell_length_c   10.85220000
_cell_angle_alpha   87.22730000
_cell_angle_beta   92.77270000
_cell_angle_gamma   117.07700000
_symmetry_Int_Tables_number   1
_chemical_formula_structural   Cu2H16(C2N)11
_chemical_formula_sum   'Cu8 H64 C88 N44'
_cell_volume   3155.91116221
_cell_formula_units_Z   4
loop_
 _symmetry_equiv_pos_site_id
 _symmetry_equiv_pos_as_xyz
  1  'x, y, z'
loop_
 _atom_site_type_symbol
 _atom_site_label
 _atom_site_symmetry_multiplicity
 _atom_site_fract_x
 _atom_site_fract_y
 _atom_site_fract_z
 _atom_site_occupancy
 _atom_site_charge
Cu  Cu1  1  0.48458000  0.36072000  0.47509000  1.0 0.2574783166
Cu  Cu2  1  0.36072000  0.48458000  0.02491000  1.0 0.2574783166
Cu  Cu3  1  0.51542000  0.63928000  0.52491000  1.0 0.2574783166
Cu  Cu4  1  0.63928000  0.51542000  0.97509000  1.0 0.2574783166
Cu  Cu5  1  0.45680000  0.45680000  0.75000000  1.0 0.304718939
Cu  Cu6  1  0.54320000  0.54320000  0.25000000  1.0 0.304718939
Cu  Cu7  1  0.35856000  0.35856000  0.25000000  1.0 0.2444553873
Cu  Cu8  1  0.64144000  0.64144000  0.75000000  1.0 0.2444553873
H  H1  1  0.76728000  0.45644000  0.89160000  1.0 0.1593111046
H  H2  1  0.45644000  0.76728000  0.60840000  1.0 0.1593111046
H  H3  1  0.23272000  0.54356000  0.10840000  1.0 0.1593111046
H  H4  1  0.54356000  0.23272000  0.39160000  1.0 0.1593111046
H  H5  1  0.67227000  0.37921000  0.47216000  1.0 0.1491777945
H  H6  1  0.37921000  0.67227000  0.02784000  1.0 0.1491777945
H  H7  1  0.32773000  0.62079000  0.52784000  1.0 0.1491777945
H  H8  1  0.62079000  0.32773000  0.97216000  1.0 0.1491777945
H  H9  1  0.86830000  0.22000000  0.52638000  1.0 0.1401353167
H  H10  1  0.22000000  0.86830000  0.97362000  1.0 0.1401353167
H  H11  1  0.13170000  0.78000000  0.47362000  1.0 0.1401353167
H  H12  1  0.78000000  0.13170000  0.02638000  1.0 0.1401353167
H  H13  1  0.82018000  0.24684000  0.41979000  1.0 0.1401353167
H  H14  1  0.24684000  0.82018000  0.08021000  1.0 0.1401353167
H  H15  1  0.17982000  0.75316000  0.58021000  1.0 0.1401353167
H  H16  1  0.75316000  0.17982000  0.91979000  1.0 0.1401353167
H  H17  1  0.90418000  0.24272000  0.39041000  1.0 0.1491777945
H  H18  1  0.24272000  0.90418000  0.10959000  1.0 0.1491777945
H  H19  1  0.09582000  0.75728000  0.60959000  1.0 0.1491777945
H  H20  1  0.75728000  0.09582000  0.89041000  1.0 0.1491777945
H  H21  1  0.95766000  0.36848000  0.30127000  1.0 0.1491777945
H  H22  1  0.36848000  0.95766000  0.19873000  1.0 0.1491777945
H  H23  1  0.04234000  0.63152000  0.69873000  1.0 0.1491777945
H  H24  1  0.63152000  0.04234000  0.80127000  1.0 0.1491777945
H  H25  1  0.97661000  0.45193000  0.36958000  1.0 0.1491777945
H  H26  1  0.45193000  0.97661000  0.13042000  1.0 0.1491777945
H  H27  1  0.02339000  0.54807000  0.63042000  1.0 0.1491777945
H  H28  1  0.54807000  0.02339000  0.86958000  1.0 0.1491777945
H  H29  1  0.88323000  0.38933000  0.32921000  1.0 0.1491777945
H  H30  1  0.38933000  0.88323000  0.17079000  1.0 0.1491777945
H  H31  1  0.11677000  0.61067000  0.67079000  1.0 0.1491777945
H  H32  1  0.61067000  0.11677000  0.82921000  1.0 0.1491777945
H  H33  1  0.25977000  0.41809000  0.75898000  1.0 0.1593111046
H  H34  1  0.41809000  0.25977000  0.74102000  1.0 0.1491777945
H  H35  1  0.74023000  0.58191000  0.24102000  1.0 0.1593111046
H  H36  1  0.58191000  0.74023000  0.25898000  1.0 0.1593111046
H  H37  1  0.18025000  0.35977000  0.33456000  1.0 0.1593111046
H  H38  1  0.35977000  0.18025000  0.16544000  1.0 0.1593111046
H  H39  1  0.81975000  0.64023000  0.66544000  1.0 0.1593111046
H  H40  1  0.64023000  0.81975000  0.83456000  1.0 0.1593111046
H  H41  1  0.97358000  0.39632000  0.93183000  1.0 0.1401353167
H  H42  1  0.39632000  0.97358000  0.56817000  1.0 0.1401353167
H  H43  1  0.02642000  0.60368000  0.06817000  1.0 0.1401353167
H  H44  1  0.60368000  0.02642000  0.43183000  1.0 0.1401353167
H  H45  1  0.02517000  0.47953000  0.85178000  1.0 0.1491777945
H  H46  1  0.47953000  0.02517000  0.64822000  1.0 0.1491777945
H  H47  1  0.97483000  0.52047000  0.14822000  1.0 0.1491777945
H  H48  1  0.52047000  0.97483000  0.35178000  1.0 0.1491777945
H  H49  1  0.06332000  0.41628000  0.88417000  1.0 0.1401353167
H  H50  1  0.41628000  0.06332000  0.61583000  1.0 0.1401353167
H  H51  1  0.93668000  0.58372000  0.11583000  1.0 0.1401353167
H  H52  1  0.58372000  0.93668000  0.38417000  1.0 0.1401353167
H  H53  1  0.96373000  0.25889000  0.83940000  1.0 0.1491777945
H  H54  1  0.25889000  0.96373000  0.66060000  1.0 0.1491777945
H  H55  1  0.03627000  0.74111000  0.16060000  1.0 0.1491777945
H  H56  1  0.74111000  0.03627000  0.33940000  1.0 0.1491777945
H  H57  1  0.89944000  0.24512000  0.72564000  1.0 0.1311589921
H  H58  1  0.24512000  0.89944000  0.77436000  1.0 0.1311589921
H  H59  1  0.10056000  0.75488000  0.27436000  1.0 0.1311589921
H  H60  1  0.75488000  0.10056000  0.22564000  1.0 0.1311589921
H  H61  1  0.88116000  0.26850000  0.85727000  1.0 0.1401353167
H  H62  1  0.26850000  0.88116000  0.64273000  1.0 0.1401353167
H  H63  1  0.11884000  0.73150000  0.14273000  1.0 0.1401353167
H  H64  1  0.73150000  0.11884000  0.35727000  1.0 0.1401353167
C  C1  1  0.64662000  0.41602000  0.63707000  1.0 0.1491777945
C  C2  1  0.41602000  0.64662000  0.86293000  1.0 0.1491777945
C  C3  1  0.35338000  0.58398000  0.36293000  1.0 0.1491777945
C  C4  1  0.58398000  0.35338000  0.13707000  1.0 0.1491777945
C  C5  1  0.67490000  0.43786000  0.76264000  1.0 0.1401353167
C  C6  1  0.43786000  0.67490000  0.73736000  1.0 0.1401353167
C  C7  1  0.32510000  0.56214000  0.23736000  1.0 0.1401353167
C  C8  1  0.56214000  0.32510000  0.26264000  1.0 0.1401353167
C  C9  1  0.74831000  0.44047000  0.80942000  1.0 -0.2297720486
C  C10  1  0.44047000  0.74831000  0.69058000  1.0 -0.2297720486
C  C11  1  0.25169000  0.55953000  0.19058000  1.0 -0.2297720486
C  C12  1  0.55953000  0.25169000  0.30942000  1.0 -0.2297720486
C  C13  1  0.79355000  0.41833000  0.72967000  1.0 0.1671375198
C  C14  1  0.41833000  0.79355000  0.77033000  1.0 0.1671375198
C  C15  1  0.20645000  0.58167000  0.27033000  1.0 0.1671375198
C  C16  1  0.58167000  0.20645000  0.22967000  1.0 0.1671375198
C  C17  1  0.76541000  0.39845000  0.60321000  1.0 0.1491777945
C  C18  1  0.39845000  0.76541000  0.89679000  1.0 0.1491777945
C  C19  1  0.23459000  0.60155000  0.39679000  1.0 0.1491777945
C  C20  1  0.60155000  0.23459000  0.10321000  1.0 0.1491777945
C  C21  1  0.69129000  0.39479000  0.55439000  1.0 -0.2187837923
C  C22  1  0.39479000  0.69129000  0.94561000  1.0 -0.2187837923
C  C23  1  0.30871000  0.60521000  0.44561000  1.0 -0.2187837923
C  C24  1  0.60521000  0.30871000  0.05439000  1.0 -0.2187837923
C  C25  1  0.87790000  0.37494000  0.57100000  1.0 0.1229614144
C  C26  1  0.37494000  0.87790000  0.92900000  1.0 0.1229614144
C  C27  1  0.12210000  0.62506000  0.42900000  1.0 0.1229614144
C  C28  1  0.62506000  0.12210000  0.07100000  1.0 0.1229614144
C  C29  1  0.90209000  0.38747000  0.69958000  1.0 0.1311589921
C  C30  1  0.38747000  0.90209000  0.80042000  1.0 0.1311589921
C  C31  1  0.09791000  0.61253000  0.30042000  1.0 0.1311589921
C  C32  1  0.61253000  0.09791000  0.19958000  1.0 0.1311589921
C  C33  1  0.97653000  0.37993000  0.75955000  1.0 0.1109472372
C  C34  1  0.37993000  0.97653000  0.74045000  1.0 0.0997995248
C  C35  1  0.02347000  0.62007000  0.24045000  1.0 0.1109472372
C  C36  1  0.62007000  0.02347000  0.25955000  1.0 0.1109472372
C  C37  1  0.03495000  0.37875000  0.66333000  1.0 0.1109472372
C  C38  1  0.37875000  0.03495000  0.83667000  1.0 0.1109472372
C  C39  1  0.96505000  0.62125000  0.33667000  1.0 0.1109472372
C  C40  1  0.62125000  0.96505000  0.16333000  1.0 0.1109472372
C  C41  1  0.01119000  0.36215000  0.53975000  1.0 0.0997995248
C  C42  1  0.36215000  0.01119000  0.96025000  1.0 0.0997995248
C  C43  1  0.98881000  0.63785000  0.46025000  1.0 0.0997995248
C  C44  1  0.63785000  0.98881000  0.03975000  1.0 0.0997995248
C  C45  1  0.92515000  0.34635000  0.48739000  1.0 0.1593111046
C  C46  1  0.34635000  0.92515000  0.01261000  1.0 0.1593111046
C  C47  1  0.07485000  0.65365000  0.51261000  1.0 0.1593111046
C  C48  1  0.65365000  0.07485000  0.98739000  1.0 0.1593111046
C  C49  1  0.87509000  0.25591000  0.45296000  1.0 -0.4496128286
C  C50  1  0.25591000  0.87509000  0.04704000  1.0 -0.4496128286
C  C51  1  0.12491000  0.74409000  0.54704000  1.0 -0.4496128286
C  C52  1  0.74409000  0.12491000  0.95296000  1.0 -0.4496128286
C  C53  1  0.94163000  0.40393000  0.35732000  1.0 -0.4496128286
C  C54  1  0.40393000  0.94163000  0.14268000  1.0 -0.4496128286
C  C55  1  0.05837000  0.59607000  0.64268000  1.0 -0.4496128286
C  C56  1  0.59607000  0.05837000  0.85732000  1.0 -0.4496128286
C  C57  1  0.14149000  0.37679000  0.50155000  1.0 0.1401353167
C  C58  1  0.37679000  0.14149000  0.99845000  1.0 0.1401353167
C  C59  1  0.85851000  0.62321000  0.49845000  1.0 0.1401353167
C  C60  1  0.62321000  0.85851000  0.00155000  1.0 0.1401353167
C  C61  1  0.16439000  0.39205000  0.63043000  1.0 0.1593111046
C  C62  1  0.39205000  0.16439000  0.86957000  1.0 0.1593111046
C  C63  1  0.83561000  0.60795000  0.36957000  1.0 0.1593111046
C  C64  1  0.60795000  0.83561000  0.13043000  1.0 0.1593111046
C  C65  1  0.24376000  0.40660000  0.67478000  1.0 -0.2187837923
C  C66  1  0.40660000  0.24376000  0.82522000  1.0 -0.2187837923
C  C67  1  0.75624000  0.59340000  0.32522000  1.0 -0.2187837923
C  C68  1  0.59340000  0.75624000  0.17478000  1.0 -0.2187837923
C  C69  1  0.29724000  0.40396000  0.59295000  1.0 0.1311589921
C  C70  1  0.40396000  0.29724000  0.90705000  1.0 0.1311589921
C  C71  1  0.70276000  0.59604000  0.40705000  1.0 0.1311589921
C  C72  1  0.59604000  0.70276000  0.09295000  1.0 0.1311589921
C  C73  1  0.27501000  0.38799000  0.46874000  1.0 0.1311589921
C  C74  1  0.38799000  0.27501000  0.03126000  1.0 0.1311589921
C  C75  1  0.72499000  0.61201000  0.53126000  1.0 0.1311589921
C  C76  1  0.61201000  0.72499000  0.96874000  1.0 0.1311589921
C  C77  1  0.19551000  0.37239000  0.41879000  1.0 -0.2187837923
C  C78  1  0.37239000  0.19551000  0.08121000  1.0 -0.2187837923
C  C79  1  0.80449000  0.62761000  0.58121000  1.0 -0.2187837923
C  C80  1  0.62761000  0.80449000  0.91879000  1.0 -0.2187837923
C  C81  1  0.01213000  0.42079000  0.86403000  1.0 -0.4015279735
C  C82  1  0.42079000  0.01213000  0.63597000  1.0 -0.4015279735
C  C83  1  0.98787000  0.57921000  0.13597000  1.0 -0.4015279735
C  C84  1  0.57921000  0.98787000  0.36403000  1.0 -0.4015279735
C  C85  1  0.92474000  0.27718000  0.79970000  1.0 -0.4496128286
C  C86  1  0.27718000  0.92474000  0.70030000  1.0 -0.4496128286
C  C87  1  0.07526000  0.72282000  0.20030000  1.0 -0.4496128286
C  C88  1  0.72282000  0.07526000  0.29970000  1.0 -0.4496128286
N  N1  1  0.57092000  0.41716000  0.62356000  1.0 -0.2143586303
N  N2  1  0.41716000  0.57092000  0.87644000  1.0 -0.2143586303
N  N3  1  0.42908000  0.58284000  0.37644000  1.0 -0.2143586303
N  N4  1  0.58284000  0.42908000  0.12356000  1.0 -0.2143586303
N  N5  1  0.55488000  0.43896000  0.73033000  1.0 0.0287986415
N  N6  1  0.43896000  0.55488000  0.76967000  1.0 0.0287986415
N  N7  1  0.44512000  0.56104000  0.26967000  1.0 0.0287986415
N  N8  1  0.56104000  0.44512000  0.23033000  1.0 0.0287986415
N  N9  1  0.61445000  0.45185000  0.81566000  1.0 -0.2187837923
N  N10  1  0.45185000  0.61445000  0.68434000  1.0 -0.2187837923
N  N11  1  0.38555000  0.54815000  0.18434000  1.0 -0.2187837923
N  N12  1  0.54815000  0.38555000  0.31566000  1.0 -0.2187837923
N  N13  1  0.81066000  0.37660000  0.52570000  1.0 -0.2673967505
N  N14  1  0.37660000  0.81066000  0.97430000  1.0 -0.2673967505
N  N15  1  0.18934000  0.62340000  0.47430000  1.0 -0.2673967505
N  N16  1  0.62340000  0.18934000  0.02570000  1.0 -0.2673967505
N  N17  1  0.86436000  0.41494000  0.77440000  1.0 -0.2933421755
N  N18  1  0.41494000  0.86436000  0.72560000  1.0 -0.2933421755
N  N19  1  0.13564000  0.58506000  0.22560000  1.0 -0.2933421755
N  N20  1  0.58506000  0.13564000  0.27440000  1.0 -0.2933421755
N  N21  1  0.10733000  0.39137000  0.70997000  1.0 -0.2673967505
N  N22  1  0.39137000  0.10733000  0.79003000  1.0 -0.2673967505
N  N23  1  0.89267000  0.60863000  0.29003000  1.0 -0.2615498527
N  N24  1  0.60863000  0.89267000  0.20997000  1.0 -0.2615498527
N  N25  1  0.06240000  0.36170000  0.45961000  1.0 -0.2615498527
N  N26  1  0.36170000  0.06240000  0.04039000  1.0 -0.2615498527
N  N27  1  0.93760000  0.63830000  0.54039000  1.0 -0.2615498527
N  N28  1  0.63830000  0.93760000  0.95961000  1.0 -0.2615498527
N  N29  1  0.37888000  0.41752000  0.60822000  1.0 -0.2187837923
N  N30  1  0.41752000  0.37888000  0.89178000  1.0 -0.2187837923
N  N31  1  0.62112000  0.58248000  0.39178000  1.0 -0.2187837923
N  N32  1  0.58248000  0.62112000  0.10822000  1.0 -0.2187837923
N  N33  1  0.40052000  0.40538000  0.49558000  1.0 0.0197352575
N  N34  1  0.40538000  0.40052000  0.00442000  1.0 0.0197352575
N  N35  1  0.59948000  0.59462000  0.50442000  1.0 0.0197352575
N  N36  1  0.59462000  0.59948000  0.99558000  1.0 0.0197352575
N  N37  1  0.34071000  0.38807000  0.41005000  1.0 -0.1568120556
N  N38  1  0.38807000  0.34071000  0.08995000  1.0 -0.1568120556
N  N39  1  0.65929000  0.61193000  0.58995000  1.0 -0.1568120556
N  N40  1  0.61193000  0.65929000  0.91005000  1.0 -0.1568120556
N  N41  1  0.38060000  0.21380000  0.49160000  1.0 -0.2998206789
N  N42  1  0.21380000  0.38060000  0.00840000  1.0 -0.2998206789
N  N43  1  0.61940000  0.78620000  0.50840000  1.0 -0.2998206789
N  N44  1  0.78620000  0.61940000  0.99160000  1.0 -0.2998206789
