# DDEC6 charges by PACMAN v1.1 (https://github.com/mtap-research/PACMAN-charge/)
data_USAWOD_FSR_pacman
_symmetry_space_group_name_H-M   'P 1'
_cell_length_a   12.64640000
_cell_length_b   12.67370000
_cell_length_c   23.68030000
_cell_angle_alpha   83.41000000
_cell_angle_beta   84.63500000
_cell_angle_gamma   61.33300000
_symmetry_Int_Tables_number   1
_chemical_formula_structural   Cu3Mo12PH17C24N20O53
_chemical_formula_sum   'Cu6 Mo24 P2 H34 C48 N40 O106'
_cell_volume   3304.94692873
_cell_formula_units_Z   2
loop_
 _symmetry_equiv_pos_site_id
 _symmetry_equiv_pos_as_xyz
  1  'x, y, z'
loop_
 _atom_site_type_symbol
 _atom_site_label
 _atom_site_symmetry_multiplicity
 _atom_site_fract_x
 _atom_site_fract_y
 _atom_site_fract_z
 _atom_site_occupancy
 _atom_site_charge
Cu  Cu1  1  0.29846000  0.81523000  0.72272000  1.0 0.732714957
Cu  Cu2  1  0.44578000  0.50636000  0.76381000  1.0 0.6057009756
Cu  Cu3  1  0.59738000  0.65233000  0.76568000  1.0 0.6555898844
Cu  Cu4  1  0.70154000  0.18477000  0.27728000  1.0 0.732714957
Cu  Cu5  1  0.55422000  0.49364000  0.23619000  1.0 0.6057009756
Cu  Cu6  1  0.40262000  0.34767000  0.23432000  1.0 0.6555898844
Mo  Mo1  1  0.30123000  0.37816000  0.54374000  1.0 1.7932094394
Mo  Mo2  1  0.16733000  0.65641000  0.45650000  1.0 1.8132227122
Mo  Mo3  1  0.24496000  0.37996000  0.39856000  1.0 1.5070552885
Mo  Mo4  1  0.95391000  0.74804000  0.57401000  1.0 1.8212554812
Mo  Mo5  1  0.94366000  0.54433000  0.35286000  1.0 1.8212554812
Mo  Mo6  1  0.85289000  0.79683000  0.43303000  1.0 2.0611966907
Mo  Mo7  1  0.69877000  0.62184000  0.45626000  1.0 1.7932094394
Mo  Mo8  1  0.83267000  0.34359000  0.54350000  1.0 1.8132227122
Mo  Mo9  1  0.75504000  0.62004000  0.60144000  1.0 1.5070552885
Mo  Mo10  1  0.04609000  0.25196000  0.42599000  1.0 1.8212554812
Mo  Mo11  1  0.05634000  0.45567000  0.64714000  1.0 1.8212554812
Mo  Mo12  1  0.14711000  0.20317000  0.56697000  1.0 2.0611966907
Mo  Mo13  1  0.86984000  0.83751000  0.08511000  1.0 1.9679759204
Mo  Mo14  1  0.94216000  0.28884000  0.03784000  1.0 2.1253143608
Mo  Mo15  1  0.78922000  0.13859000  0.11125000  1.0 2.0026043712
Mo  Mo16  1  0.31009000  0.91557000  0.01288000  1.0 2.1087451636
Mo  Mo17  1  0.18419000  0.73809000  0.08479000  1.0 2.1087451636
Mo  Mo18  1  0.10152000  0.02506000  0.13105000  1.0 2.1023775398
Mo  Mo19  1  0.13016000  0.16249000  0.91489000  1.0 1.9679759204
Mo  Mo20  1  0.05784000  0.71116000  0.96216000  1.0 2.1245988666
Mo  Mo21  1  0.21078000  0.86141000  0.88875000  1.0 2.0026043712
Mo  Mo22  1  0.68991000  0.08443000  0.98712000  1.0 2.1087451636
Mo  Mo23  1  0.81581000  0.26191000  0.91521000  1.0 2.1087451636
Mo  Mo24  1  0.89848000  0.97494000  0.86895000  1.0 2.1023775398
P  P1  1  0.00000000  0.50000000  0.50000000  1.0 0.8540285885
P  P2  1  0.00000000  0.00000000  0.00000000  1.0 0.9399159013
H  H1  1  0.42531000  0.44684000  0.91295000  1.0 0.2520109474
H  H2  1  0.00406000  0.52284000  0.83944000  1.0 0.1488651618
H  H3  1  0.82141000  0.52366000  0.83670000  1.0 0.1086789008
H  H4  1  0.88813000  0.80477000  0.71939000  1.0 0.1374102368
H  H5  1  0.71129000  0.79270000  0.71773000  1.0 0.0911593079
H  H6  1  0.33735000  0.22396000  0.69535000  1.0 0.1488651618
H  H7  1  0.33881000  0.40355000  0.70238000  1.0 0.1086789008
H  H8  1  0.54517000  0.08405000  0.83123000  1.0 0.1488651618
H  H9  1  0.53730000  0.27032000  0.83576000  1.0 0.1086789008
H  H10  1  0.01484000  0.23071000  0.77737000  1.0 0.1300815403
H  H11  1  0.19194000  0.04984000  0.77337000  1.0 0.0797235556
H  H12  1  0.87580000  0.10876000  0.66956000  1.0 0.1374102368
H  H13  1  0.05913000  0.93488000  0.66551000  1.0 0.0993986107
H  H14  1  0.56556000  0.78968000  0.86803000  1.0 0.1193689763
H  H15  1  0.66894000  0.87923000  0.89919000  1.0 0.0993986107
H  H16  1  0.66282000  0.55358000  0.00787000  1.0 0.1193689763
H  H17  1  0.76499000  0.64828000  0.03602000  1.0 0.1086789008
H  H18  1  0.57469000  0.55316000  0.08705000  1.0 0.2520109474
H  H19  1  0.99594000  0.47716000  0.16056000  1.0 0.1488651618
H  H20  1  0.17859000  0.47634000  0.16330000  1.0 0.1086789008
H  H21  1  0.11187000  0.19523000  0.28061000  1.0 0.1374102368
H  H22  1  0.28871000  0.20730000  0.28227000  1.0 0.0911593079
H  H23  1  0.66265000  0.77604000  0.30465000  1.0 0.1488651618
H  H24  1  0.66119000  0.59645000  0.29762000  1.0 0.1086789008
H  H25  1  0.45483000  0.91595000  0.16877000  1.0 0.1488651618
H  H26  1  0.46270000  0.72968000  0.16424000  1.0 0.1086789008
H  H27  1  0.98516000  0.76929000  0.22263000  1.0 0.1300815403
H  H28  1  0.80806000  0.95016000  0.22663000  1.0 0.0797235556
H  H29  1  0.12420000  0.89124000  0.33044000  1.0 0.1374102368
H  H30  1  0.94087000  0.06512000  0.33449000  1.0 0.0993986107
H  H31  1  0.43444000  0.21032000  0.13197000  1.0 0.1193689763
H  H32  1  0.33106000  0.12077000  0.10081000  1.0 0.1086789008
H  H33  1  0.33718000  0.44642000  0.99213000  1.0 0.1193689763
H  H34  1  0.23501000  0.35172000  0.96398000  1.0 0.1086789008
C  C1  1  0.08240000  0.66320000  0.77310000  1.0 0.2388330534
C  C2  1  0.96620000  0.66280000  0.77880000  1.0 0.0993986107
C  C3  1  0.94480000  0.57940000  0.81420000  1.0 -0.1334172875
C  C4  1  0.83630000  0.58020000  0.81200000  1.0 0.0993986107
C  C5  1  0.87700000  0.74490000  0.74320000  1.0 -0.1618033831
C  C6  1  0.77140000  0.73780000  0.74300000  1.0 0.0911593079
C  C7  1  0.44800000  0.01790000  0.75600000  1.0 0.2520109474
C  C8  1  0.44330000  0.13510000  0.76240000  1.0 0.0797235556
C  C9  1  0.38040000  0.23100000  0.72430000  1.0 -0.1505080229
C  C10  1  0.38140000  0.33740000  0.72910000  1.0 0.0993986107
C  C11  1  0.50190000  0.14920000  0.80420000  1.0 -0.1618033831
C  C12  1  0.49720000  0.26010000  0.80650000  1.0 0.0911593079
C  C13  1  0.80770000  0.29880000  0.73270000  1.0 0.2294477581
C  C14  1  0.92290000  0.18850000  0.72490000  1.0 0.0911593079
C  C15  1  0.02070000  0.17030000  0.75510000  1.0 -0.1618033831
C  C16  1  0.12670000  0.06220000  0.75180000  1.0 0.0993986107
C  C17  1  0.93980000  0.09870000  0.69140000  1.0 -0.1334172875
C  C18  1  0.04920000  0.99460000  0.68940000  1.0 0.1086789008
C  C19  1  0.54460000  0.60180000  0.91150000  1.0 0.2552695631
C  C20  1  0.60670000  0.65980000  0.93360000  1.0 0.0672571904
C  C21  1  0.60750000  0.75870000  0.90230000  1.0 -0.1693887763
C  C22  1  0.66830000  0.81140000  0.92060000  1.0 0.0797235556
C  C23  1  0.66480000  0.61910000  0.98480000  1.0 -0.1618033831
C  C24  1  0.72460000  0.67520000  0.00120000  1.0 0.0797235556
C  C25  1  0.91760000  0.33680000  0.22690000  1.0 0.2388330534
C  C26  1  0.03380000  0.33720000  0.22120000  1.0 0.0993986107
C  C27  1  0.05520000  0.42060000  0.18580000  1.0 -0.1334172875
C  C28  1  0.16370000  0.41980000  0.18800000  1.0 0.0911593079
C  C29  1  0.12300000  0.25510000  0.25680000  1.0 -0.1618033831
C  C30  1  0.22860000  0.26220000  0.25700000  1.0 0.0911593079
C  C31  1  0.55200000  0.98210000  0.24400000  1.0 0.2520109474
C  C32  1  0.55670000  0.86490000  0.23760000  1.0 0.0911593079
C  C33  1  0.61960000  0.76900000  0.27570000  1.0 -0.1505080229
C  C34  1  0.61860000  0.66260000  0.27090000  1.0 0.0993986107
C  C35  1  0.49810000  0.85080000  0.19580000  1.0 -0.1618033831
C  C36  1  0.50280000  0.73990000  0.19350000  1.0 0.0911593079
C  C37  1  0.19230000  0.70120000  0.26730000  1.0 0.2294477581
C  C38  1  0.07710000  0.81150000  0.27510000  1.0 0.0911593079
C  C39  1  0.97930000  0.82970000  0.24490000  1.0 -0.1618033831
C  C40  1  0.87330000  0.93780000  0.24820000  1.0 0.0993986107
C  C41  1  0.06020000  0.90130000  0.30860000  1.0 -0.1334172875
C  C42  1  0.95080000  0.00540000  0.31060000  1.0 0.1086789008
C  C43  1  0.45540000  0.39820000  0.08850000  1.0 0.2552695631
C  C44  1  0.39330000  0.34020000  0.06640000  1.0 0.0672571904
C  C45  1  0.39250000  0.24130000  0.09770000  1.0 -0.1693887763
C  C46  1  0.33170000  0.18860000  0.07940000  1.0 0.0797235556
C  C47  1  0.33520000  0.38090000  0.01520000  1.0 -0.1618033831
C  C48  1  0.27540000  0.32480000  0.99880000  1.0 0.0797235556
N  N1  1  0.09500000  0.75630000  0.74670000  1.0 -0.238891497
N  N2  1  0.21330000  0.71780000  0.74480000  1.0 -0.0388745104
N  N3  1  0.26890000  0.60530000  0.76900000  1.0 -0.0388745104
N  N4  1  0.18840000  0.56930000  0.78790000  1.0 -0.2497250305
N  N5  1  0.74980000  0.65760000  0.77650000  1.0 -0.238891497
N  N6  1  0.37290000  0.00810000  0.72410000  1.0 -0.2497250305
N  N7  1  0.40520000  0.89110000  0.72910000  1.0 -2.4805e-05
N  N8  1  0.49850000  0.83300000  0.76230000  1.0 -0.025711795
N  N9  1  0.52800000  0.91220000  0.78010000  1.0 -0.2600009531
N  N10  1  0.43800000  0.35310000  0.76880000  1.0 -0.2315752522
N  N11  1  0.80260000  0.40210000  0.74490000  1.0 -0.2315752522
N  N12  1  0.68620000  0.47590000  0.75160000  1.0 -0.0202176135
N  N13  1  0.62390000  0.41910000  0.74450000  1.0 -0.0202176135
N  N14  1  0.69810000  0.30750000  0.73160000  1.0 -0.238891497
N  N15  1  0.14260000  0.97480000  0.72030000  1.0 -0.238891497
N  N16  1  0.53010000  0.60420000  0.85650000  1.0 -0.2497250305
N  N17  1  0.47660000  0.53520000  0.85390000  1.0 -0.0459251736
N  N18  1  0.45950000  0.49330000  0.90460000  1.0 0.0628139473
N  N19  1  0.50290000  0.53280000  0.94240000  1.0 -0.2233484031
N  N20  1  0.72690000  0.76770000  0.96870000  1.0 -0.1505080229
N  N21  1  0.90500000  0.24370000  0.25330000  1.0 -0.238891497
N  N22  1  0.78670000  0.28220000  0.25520000  1.0 -0.0388745104
N  N23  1  0.73110000  0.39470000  0.23100000  1.0 -0.0388745104
N  N24  1  0.81160000  0.43070000  0.21210000  1.0 -0.2497250305
N  N25  1  0.25020000  0.34240000  0.22350000  1.0 -0.238891497
N  N26  1  0.62710000  0.99190000  0.27590000  1.0 -0.2497250305
N  N27  1  0.59480000  0.10890000  0.27090000  1.0 -2.4805e-05
N  N28  1  0.50150000  0.16700000  0.23770000  1.0 -0.025711795
N  N29  1  0.47200000  0.08780000  0.21990000  1.0 -0.2600009531
N  N30  1  0.56200000  0.64690000  0.23120000  1.0 -0.2315752522
N  N31  1  0.19740000  0.59790000  0.25510000  1.0 -0.2315752522
N  N32  1  0.31380000  0.52410000  0.24840000  1.0 -0.0202176135
N  N33  1  0.37610000  0.58090000  0.25550000  1.0 -0.0202176135
N  N34  1  0.30190000  0.69250000  0.26840000  1.0 -0.238891497
N  N35  1  0.85740000  0.02520000  0.27970000  1.0 -0.238891497
N  N36  1  0.46990000  0.39580000  0.14350000  1.0 -0.2497250305
N  N37  1  0.52340000  0.46480000  0.14610000  1.0 -0.0459251736
N  N38  1  0.54050000  0.50670000  0.09540000  1.0 0.0628139473
N  N39  1  0.49710000  0.46720000  0.05760000  1.0 -0.2233484031
N  N40  1  0.27310000  0.23230000  0.03130000  1.0 -0.1505080229
O  O1  1  0.96640000  0.55870000  0.55930000  1.0 -0.3103416503
O  O2  1  0.13350000  0.48650000  0.48540000  1.0 -0.3013223127
O  O3  1  0.91870000  0.58410000  0.45660000  1.0 -0.3312287719
O  O4  1  0.98790000  0.62100000  0.49100000  1.0 -0.3405413271
O  O5  1  0.08660000  0.72630000  0.53000000  1.0 -0.7282211722
O  O6  1  0.24890000  0.72670000  0.44060000  1.0 -0.4872306824
O  O7  1  0.91040000  0.56440000  0.28540000  1.0 -0.5035564294
O  O8  1  0.10420000  0.49570000  0.36620000  1.0 -0.2003100455
O  O9  1  0.10580000  0.46920000  0.33620000  1.0 -0.28869266
O  O10  1  0.02810000  0.61110000  0.61290000  1.0 -0.1505080229
O  O11  1  0.03150000  0.63600000  0.64030000  1.0 -0.3103416503
O  O12  1  0.44250000  0.31540000  0.56310000  1.0 -0.5035564294
O  O13  1  0.19440000  0.28220000  0.41740000  1.0 -0.1401536517
O  O14  1  0.19640000  0.25280000  0.38990000  1.0 -0.28869266
O  O15  1  0.79020000  0.93240000  0.39950000  1.0 -0.5062880904
O  O16  1  0.29100000  0.33400000  0.46410000  1.0 -0.0901298762
O  O17  1  0.35670000  0.33030000  0.46370000  1.0 -0.268995376
O  O18  1  0.23930000  0.52620000  0.51310000  1.0 -0.1401536517
O  O19  1  0.30480000  0.52640000  0.51350000  1.0 -0.28869266
O  O20  1  0.19520000  0.54190000  0.40720000  1.0 -0.1917162181
O  O21  1  0.26160000  0.54160000  0.40490000  1.0 -0.2827929199
O  O22  1  0.35640000  0.33140000  0.34890000  1.0 -0.4872306824
O  O23  1  0.21610000  0.42410000  0.61060000  1.0 -0.7383660615
O  O24  1  0.90480000  0.69570000  0.36870000  1.0 -0.7383660615
O  O25  1  0.85980000  0.82700000  0.50520000  1.0 -0.761185819
O  O26  1  0.02670000  0.75630000  0.42400000  1.0 -0.75240528
O  O27  1  0.92220000  0.86720000  0.60780000  1.0 -0.5035564294
O  O28  1  0.72830000  0.76300000  0.44580000  1.0 -0.761185819
O  O29  1  0.03360000  0.44130000  0.44070000  1.0 -0.3103416503
O  O30  1  0.86650000  0.51350000  0.51460000  1.0 -0.3013223127
O  O31  1  0.08130000  0.41590000  0.54340000  1.0 -0.3312287719
O  O32  1  0.01210000  0.37900000  0.50900000  1.0 -0.3405413271
O  O33  1  0.91340000  0.27370000  0.47000000  1.0 -0.7282211722
O  O34  1  0.75110000  0.27330000  0.55940000  1.0 -0.4872306824
O  O35  1  0.08960000  0.43560000  0.71460000  1.0 -0.5035564294
O  O36  1  0.89580000  0.50430000  0.63380000  1.0 -0.2003100455
O  O37  1  0.89420000  0.53080000  0.66380000  1.0 -0.28869266
O  O38  1  0.97190000  0.38890000  0.38710000  1.0 -0.1505080229
O  O39  1  0.96850000  0.36400000  0.35970000  1.0 -0.3103416503
O  O40  1  0.55750000  0.68460000  0.43690000  1.0 -0.5035564294
O  O41  1  0.80560000  0.71780000  0.58260000  1.0 -0.1401536517
O  O42  1  0.80360000  0.74720000  0.61010000  1.0 -0.28869266
O  O43  1  0.20980000  0.06760000  0.60050000  1.0 -0.5062880904
O  O44  1  0.70900000  0.66600000  0.53590000  1.0 -0.0901298762
O  O45  1  0.64330000  0.66970000  0.53630000  1.0 -0.268995376
O  O46  1  0.76070000  0.47380000  0.48690000  1.0 -0.1401536517
O  O47  1  0.69520000  0.47360000  0.48650000  1.0 -0.2827929199
O  O48  1  0.80480000  0.45810000  0.59280000  1.0 -0.1917162181
O  O49  1  0.73840000  0.45840000  0.59510000  1.0 -0.2827929199
O  O50  1  0.64360000  0.66860000  0.65110000  1.0 -0.4872306824
O  O51  1  0.78390000  0.57590000  0.38940000  1.0 -0.7383660615
O  O52  1  0.09520000  0.30430000  0.63130000  1.0 -0.7383660615
O  O53  1  0.14020000  0.17300000  0.49480000  1.0 -0.761185819
O  O54  1  0.97330000  0.24370000  0.57600000  1.0 -0.75240528
O  O55  1  0.07780000  0.13280000  0.39220000  1.0 -0.5035564294
O  O56  1  0.27170000  0.23700000  0.55420000  1.0 -0.761185819
O  O57  1  0.45390000  0.65660000  0.73210000  1.0 -0.7149716557
O  O58  1  0.32280000  0.80270000  0.62800000  1.0 -0.4035656691
O  O59  1  0.54610000  0.34340000  0.26790000  1.0 -0.7149716557
O  O60  1  0.67720000  0.19730000  0.37200000  1.0 -0.4079861284
O  O61  1  0.11780000  0.98880000  0.96850000  1.0 -0.28869266
O  O62  1  0.97150000  0.08050000  0.05000000  1.0 -0.3312287719
O  O63  1  0.10210000  0.94330000  0.03910000  1.0 -0.268995376
O  O64  1  0.02320000  0.87400000  0.02420000  1.0 -0.3013223127
O  O65  1  0.24300000  0.98960000  0.07910000  1.0 -0.8263924063
O  O66  1  0.29890000  0.77550000  0.04930000  1.0 -0.8072570504
O  O67  1  0.16950000  0.67050000  0.02330000  1.0 -0.8029218853
O  O68  1  0.69730000  0.19190000  0.16670000  1.0 -0.5793984871
O  O69  1  0.90920000  0.42450000  0.05490000  1.0 -0.5727723977
O  O70  1  0.06250000  0.25800000  0.98220000  1.0 -0.7880986359
O  O71  1  0.14570000  0.86440000  0.13530000  1.0 -0.8072570504
O  O72  1  0.02300000  0.76280000  0.11060000  1.0 -0.7837799729
O  O73  1  0.81490000  0.26400000  0.08180000  1.0 -0.7837799729
O  O74  1  0.79010000  0.97250000  0.12980000  1.0 -0.2065366894
O  O75  1  0.94140000  0.07120000  0.14830000  1.0 -0.7690090776
O  O76  1  0.45370000  0.87480000  0.01860000  1.0 -0.5619143189
O  O77  1  0.80690000  0.76130000  0.12070000  1.0 -0.5362815798
O  O78  1  0.26320000  0.61890000  0.12790000  1.0 -0.5793984871
O  O79  1  0.04580000  0.18930000  0.09230000  1.0 -0.7880986359
O  O80  1  0.74350000  0.93870000  0.03050000  1.0 -0.7690090776
O  O81  1  0.68450000  0.15740000  0.05660000  1.0 -0.7880986359
O  O82  1  0.15190000  0.03930000  0.18990000  1.0 -0.5534342468
O  O83  1  0.84480000  0.96900000  0.11760000  1.0 -0.1693887763
O  O84  1  0.88220000  0.01120000  0.03150000  1.0 -0.28869266
O  O85  1  0.02850000  0.91950000  0.95000000  1.0 -0.3312287719
O  O86  1  0.89790000  0.05670000  0.96090000  1.0 -0.268995376
O  O87  1  0.97680000  0.12600000  0.97580000  1.0 -0.3013223127
O  O88  1  0.75700000  0.01040000  0.92090000  1.0 -0.8263924063
O  O89  1  0.70110000  0.22450000  0.95070000  1.0 -0.8072570504
O  O90  1  0.83050000  0.32950000  0.97670000  1.0 -0.8029218853
O  O91  1  0.30270000  0.80810000  0.83330000  1.0 -0.5793984871
O  O92  1  0.09080000  0.57550000  0.94510000  1.0 -0.5727723977
O  O93  1  0.93750000  0.74200000  0.01780000  1.0 -0.7880986359
O  O94  1  0.85430000  0.13560000  0.86470000  1.0 -0.8072570504
O  O95  1  0.97700000  0.23720000  0.88940000  1.0 -0.7837799729
O  O96  1  0.18510000  0.73600000  0.91820000  1.0 -0.7880986359
O  O97  1  0.20990000  0.02750000  0.87020000  1.0 -0.2065366894
O  O98  1  0.05860000  0.92880000  0.85170000  1.0 -0.7690090776
O  O99  1  0.54630000  0.12520000  0.98140000  1.0 -0.5619143189
O  O100  1  0.19310000  0.23870000  0.87930000  1.0 -0.5362815798
O  O101  1  0.73680000  0.38110000  0.87210000  1.0 -0.5727723977
O  O102  1  0.95420000  0.81070000  0.90770000  1.0 -0.7880986359
O  O103  1  0.25650000  0.06130000  0.96950000  1.0 -0.7690090776
O  O104  1  0.31550000  0.84260000  0.94340000  1.0 -0.7880986359
O  O105  1  0.84810000  0.96070000  0.81010000  1.0 -0.5534342468
O  O106  1  0.15520000  0.03100000  0.88240000  1.0 -0.1693887763
