# DDEC6 charges by PACMAN v1.1 (https://github.com/mtap-research/PACMAN-charge/)
data_USORUR_FSR_pacman
_symmetry_space_group_name_H-M   'P 1'
_cell_length_a   12.28130000
_cell_length_b   27.32050000
_cell_length_c   16.46500000
_cell_angle_alpha   90.00000000
_cell_angle_beta   102.86300000
_cell_angle_gamma   90.00000000
_symmetry_Int_Tables_number   1
_chemical_formula_structural   Zn2H26C32NO12
_chemical_formula_sum   'Zn8 H104 C128 N4 O48'
_cell_volume   5385.88513916
_cell_formula_units_Z   4
loop_
 _symmetry_equiv_pos_site_id
 _symmetry_equiv_pos_as_xyz
  1  'x, y, z'
loop_
 _atom_site_type_symbol
 _atom_site_label
 _atom_site_symmetry_multiplicity
 _atom_site_fract_x
 _atom_site_fract_y
 _atom_site_fract_z
 _atom_site_occupancy
 _atom_site_charge
Zn  Zn1  1  0.94288000  0.44857000  0.99728000  1.0 1.1046074005
Zn  Zn2  1  0.05712000  0.94857000  0.50272000  1.0 1.1058173748
Zn  Zn3  1  0.05712000  0.55143000  0.00272000  1.0 1.1058173748
Zn  Zn4  1  0.94288000  0.05143000  0.49728000  1.0 1.1046074005
Zn  Zn5  1  0.76868000  0.53503000  0.98713000  1.0 0.9633455547
Zn  Zn6  1  0.23132000  0.03503000  0.51287000  1.0 0.9633455547
Zn  Zn7  1  0.23132000  0.46497000  0.01287000  1.0 0.9633455547
Zn  Zn8  1  0.76868000  0.96497000  0.48713000  1.0 0.9633455547
H  H1  1  0.52480000  0.45750000  0.09560000  1.0 0.1392545114
H  H2  1  0.47520000  0.95750000  0.40440000  1.0 0.1392545114
H  H3  1  0.47520000  0.54250000  0.90440000  1.0 0.1392545114
H  H4  1  0.52480000  0.04250000  0.59560000  1.0 0.1392545114
H  H5  1  0.43280000  0.41430000  0.18330000  1.0 0.1392545114
H  H6  1  0.56720000  0.91430000  0.31670000  1.0 0.1392545114
H  H7  1  0.56720000  0.58570000  0.81670000  1.0 0.1392545114
H  H8  1  0.43280000  0.08570000  0.68330000  1.0 0.1392545114
H  H9  1  0.69590000  0.32190000  0.24440000  1.0 0.1392545114
H  H10  1  0.30410000  0.82190000  0.25560000  1.0 0.1392545114
H  H11  1  0.30410000  0.67810000  0.75560000  1.0 0.1392545114
H  H12  1  0.69590000  0.17810000  0.74440000  1.0 0.1392545114
H  H13  1  0.78720000  0.36450000  0.15560000  1.0 0.1099175094
H  H14  1  0.21280000  0.86450000  0.34440000  1.0 0.1099175094
H  H15  1  0.21280000  0.63550000  0.84440000  1.0 0.1099175094
H  H16  1  0.78720000  0.13550000  0.65560000  1.0 0.1099175094
H  H17  1  0.60170000  0.52650000  0.71940000  1.0 0.1162078278
H  H18  1  0.39830000  0.02650000  0.78060000  1.0 0.1162078278
H  H19  1  0.39830000  0.47350000  0.28060000  1.0 0.1162078278
H  H20  1  0.60170000  0.97350000  0.21940000  1.0 0.1162078278
H  H21  1  0.55340000  0.51040000  0.57620000  1.0 0.1297202399
H  H22  1  0.44660000  0.01040000  0.92380000  1.0 0.1297202399
H  H23  1  0.44660000  0.48960000  0.42380000  1.0 0.1297202399
H  H24  1  0.55340000  0.98960000  0.07620000  1.0 0.1297202399
H  H25  1  0.81650000  0.41990000  0.59750000  1.0 0.1297202399
H  H26  1  0.18350000  0.91990000  0.90250000  1.0 0.1297202399
H  H27  1  0.18350000  0.58010000  0.40250000  1.0 0.1297202399
H  H28  1  0.81650000  0.08010000  0.09750000  1.0 0.1297202399
H  H29  1  0.86490000  0.43420000  0.74120000  1.0 0.1297202399
H  H30  1  0.13510000  0.93420000  0.75880000  1.0 0.1297202399
H  H31  1  0.13510000  0.56580000  0.25880000  1.0 0.1297202399
H  H32  1  0.86490000  0.06580000  0.24120000  1.0 0.1297202399
H  H33  1  0.44510000  0.16220000  0.54710000  1.0 0.1162078278
H  H34  1  0.55490000  0.66220000  0.95290000  1.0 0.1162078278
H  H35  1  0.55490000  0.83780000  0.45290000  1.0 0.1162078278
H  H36  1  0.44510000  0.33780000  0.04710000  1.0 0.1162078278
H  H37  1  0.51850000  0.24080000  0.57690000  1.0 0.1392545114
H  H38  1  0.48150000  0.74080000  0.92310000  1.0 0.1392545114
H  H39  1  0.48150000  0.75920000  0.42310000  1.0 0.1392545114
H  H40  1  0.51850000  0.25920000  0.07690000  1.0 0.1392545114
H  H41  1  0.22240000  0.29930000  0.46230000  1.0 0.1297202399
H  H42  1  0.77760000  0.79930000  0.03770000  1.0 0.1297202399
H  H43  1  0.77760000  0.70070000  0.53770000  1.0 0.1297202399
H  H44  1  0.22240000  0.20070000  0.96230000  1.0 0.1297202399
H  H45  1  0.15210000  0.22070000  0.42500000  1.0 0.1099175094
H  H46  1  0.84790000  0.72070000  0.07500000  1.0 0.1099175094
H  H47  1  0.84790000  0.77930000  0.57500000  1.0 0.1099175094
H  H48  1  0.15210000  0.27930000  0.92500000  1.0 0.1099175094
H  H49  1  0.61560000  0.41620000  0.34790000  1.0 0.1586305744
H  H50  1  0.38440000  0.91620000  0.15210000  1.0 0.1586305744
H  H51  1  0.38440000  0.58380000  0.65210000  1.0 0.1586305744
H  H52  1  0.61560000  0.08380000  0.84790000  1.0 0.1586305744
H  H53  1  0.54110000  0.39720000  0.57490000  1.0 0.1586305744
H  H54  1  0.45890000  0.89720000  0.92510000  1.0 0.1586305744
H  H55  1  0.45890000  0.60280000  0.42510000  1.0 0.1586305744
H  H56  1  0.54110000  0.10280000  0.07490000  1.0 0.1586305744
H  H57  1  0.42120000  0.30170000  0.38650000  1.0 0.1586305744
H  H58  1  0.57880000  0.80170000  0.11350000  1.0 0.1586305744
H  H59  1  0.57880000  0.69830000  0.61350000  1.0 0.1586305744
H  H60  1  0.42120000  0.19830000  0.88650000  1.0 0.1586305744
H  H61  1  0.97850000  0.42930000  0.18450000  1.0 0.1099175094
H  H62  1  0.02150000  0.92930000  0.31550000  1.0 0.1099175094
H  H63  1  0.02150000  0.57070000  0.81550000  1.0 0.1099175094
H  H64  1  0.97850000  0.07070000  0.68450000  1.0 0.1099175094
H  H65  1  0.00600000  0.39150000  0.30920000  1.0 0.0915378491
H  H66  1  0.99400000  0.89150000  0.19080000  1.0 0.0915378491
H  H67  1  0.99400000  0.60850000  0.69080000  1.0 0.0915378491
H  H68  1  0.00600000  0.10850000  0.80920000  1.0 0.0915378491
H  H69  1  0.08930000  0.34580000  0.32490000  1.0 0.0976599576
H  H70  1  0.91070000  0.84580000  0.17510000  1.0 0.0976599576
H  H71  1  0.91070000  0.65420000  0.67510000  1.0 0.0976599576
H  H72  1  0.08930000  0.15420000  0.82490000  1.0 0.0976599576
H  H73  1  0.13650000  0.40130000  0.43410000  1.0 0.1297202399
H  H74  1  0.86350000  0.90130000  0.06590000  1.0 0.1297202399
H  H75  1  0.86350000  0.59870000  0.56590000  1.0 0.1297202399
H  H76  1  0.13650000  0.09870000  0.93410000  1.0 0.1297202399
H  H77  1  0.15300000  0.44350000  0.37050000  1.0 0.1297202399
H  H78  1  0.84700000  0.94350000  0.12950000  1.0 0.1297202399
H  H79  1  0.84700000  0.55650000  0.62950000  1.0 0.1297202399
H  H80  1  0.15300000  0.05650000  0.87050000  1.0 0.1297202399
H  H81  1  0.23630000  0.39770000  0.38630000  1.0 0.1297202399
H  H82  1  0.76370000  0.89770000  0.11370000  1.0 0.1297202399
H  H83  1  0.76370000  0.60230000  0.61370000  1.0 0.1297202399
H  H84  1  0.23630000  0.10230000  0.88630000  1.0 0.1297202399
H  H85  1  0.23500000  0.38360000  0.16790000  1.0 0.1099175094
H  H86  1  0.76500000  0.88360000  0.33210000  1.0 0.1099175094
H  H87  1  0.76500000  0.61640000  0.83210000  1.0 0.1099175094
H  H88  1  0.23500000  0.11640000  0.66790000  1.0 0.1099175094
H  H89  1  0.27330000  0.36890000  0.26400000  1.0 0.0915378491
H  H90  1  0.72670000  0.86890000  0.23600000  1.0 0.0915378491
H  H91  1  0.72670000  0.63110000  0.73600000  1.0 0.0915378491
H  H92  1  0.27330000  0.13110000  0.76400000  1.0 0.0915378491
H  H93  1  0.26620000  0.30060000  0.18110000  1.0 0.1392545114
H  H94  1  0.73380000  0.80060000  0.31890000  1.0 0.1392545114
H  H95  1  0.73380000  0.69940000  0.81890000  1.0 0.1392545114
H  H96  1  0.26620000  0.19940000  0.68110000  1.0 0.1392545114
H  H97  1  0.13710000  0.31060000  0.14070000  1.0 0.1392545114
H  H98  1  0.86290000  0.81060000  0.35930000  1.0 0.1392545114
H  H99  1  0.86290000  0.68940000  0.85930000  1.0 0.1392545114
H  H100  1  0.13710000  0.18940000  0.64070000  1.0 0.1392545114
H  H101  1  0.17540000  0.29590000  0.23700000  1.0 0.1297202399
H  H102  1  0.82460000  0.79590000  0.26300000  1.0 0.1297202399
H  H103  1  0.82460000  0.70410000  0.76300000  1.0 0.1297202399
H  H104  1  0.17540000  0.20410000  0.73700000  1.0 0.1297202399
C  C1  1  0.72720000  0.44463000  0.06520000  1.0 0.5885893079
C  C2  1  0.27280000  0.94463000  0.43480000  1.0 0.5885893079
C  C3  1  0.27280000  0.55537000  0.93480000  1.0 0.5885893079
C  C4  1  0.72720000  0.05537000  0.56520000  1.0 0.5885893079
C  C5  1  0.66590000  0.41606000  0.11900000  1.0 -0.0402559405
C  C6  1  0.33410000  0.91606000  0.38100000  1.0 -0.0402559405
C  C7  1  0.33410000  0.58394000  0.88100000  1.0 -0.0402559405
C  C8  1  0.66590000  0.08394000  0.61900000  1.0 -0.0402559405
C  C9  1  0.56000000  0.43016000  0.12630000  1.0 -0.0612183241
C  C10  1  0.44000000  0.93016000  0.37370000  1.0 -0.0612183241
C  C11  1  0.44000000  0.56984000  0.87370000  1.0 -0.0612183241
C  C12  1  0.56000000  0.06984000  0.62630000  1.0 -0.0612183241
C  C13  1  0.50530000  0.40471000  0.17830000  1.0 -0.2004344156
C  C14  1  0.49470000  0.90471000  0.32170000  1.0 -0.2004344156
C  C15  1  0.49470000  0.59529000  0.82170000  1.0 -0.2004344156
C  C16  1  0.50530000  0.09529000  0.67830000  1.0 -0.2004344156
C  C17  1  0.55810000  0.36516000  0.22240000  1.0 0.2310045781
C  C18  1  0.44190000  0.86516000  0.27760000  1.0 0.2310045781
C  C19  1  0.44190000  0.63484000  0.77760000  1.0 0.2310045781
C  C20  1  0.55810000  0.13484000  0.72240000  1.0 0.2310045781
C  C21  1  0.66180000  0.34960000  0.21440000  1.0 -0.2178948291
C  C22  1  0.33820000  0.84960000  0.28560000  1.0 -0.2178948291
C  C23  1  0.33820000  0.65040000  0.78560000  1.0 -0.2178948291
C  C24  1  0.66180000  0.15040000  0.71440000  1.0 -0.2178948291
C  C25  1  0.71590000  0.37510000  0.16210000  1.0 -0.0867602316
C  C26  1  0.28410000  0.87510000  0.33790000  1.0 -0.0867602316
C  C27  1  0.28410000  0.62490000  0.83790000  1.0 -0.0867602316
C  C28  1  0.71590000  0.12490000  0.66210000  1.0 -0.0867602316
C  C29  1  0.76950000  0.48954000  0.83730000  1.0 0.5676169516
C  C30  1  0.23050000  0.98954000  0.66270000  1.0 0.5676169516
C  C31  1  0.23050000  0.51046000  0.16270000  1.0 0.5676169516
C  C32  1  0.76950000  0.01046000  0.33730000  1.0 0.5676169516
C  C33  1  0.73840000  0.48147000  0.74480000  1.0 -0.0402559405
C  C34  1  0.26160000  0.98147000  0.75520000  1.0 -0.0402559405
C  C35  1  0.26160000  0.51853000  0.25520000  1.0 -0.0402559405
C  C36  1  0.73840000  0.01853000  0.24480000  1.0 -0.0402559405
C  C37  1  0.64530000  0.50450000  0.69510000  1.0 -0.0867602316
C  C38  1  0.35470000  0.00450000  0.80490000  1.0 -0.0867602316
C  C39  1  0.35470000  0.49550000  0.30490000  1.0 -0.0867602316
C  C40  1  0.64530000  0.99550000  0.19510000  1.0 -0.0867602316
C  C41  1  0.61670000  0.49500000  0.61030000  1.0 -0.2073473649
C  C42  1  0.38330000  0.99500000  0.88970000  1.0 -0.2073473649
C  C43  1  0.38330000  0.50500000  0.38970000  1.0 -0.2073473649
C  C44  1  0.61670000  0.00500000  0.11030000  1.0 -0.2073473649
C  C45  1  0.68070000  0.46340000  0.57610000  1.0 0.2228459837
C  C46  1  0.31930000  0.96340000  0.92390000  1.0 0.2228459837
C  C47  1  0.31930000  0.53660000  0.42390000  1.0 0.2228459837
C  C48  1  0.68070000  0.03660000  0.07610000  1.0 0.2228459837
C  C49  1  0.77260000  0.44120000  0.62280000  1.0 -0.2073473649
C  C50  1  0.22740000  0.94120000  0.87720000  1.0 -0.2073473649
C  C51  1  0.22740000  0.55880000  0.37720000  1.0 -0.2073473649
C  C52  1  0.77260000  0.05880000  0.12280000  1.0 -0.2073473649
C  C53  1  0.80140000  0.44990000  0.70800000  1.0 -0.0799677981
C  C54  1  0.19860000  0.94990000  0.79200000  1.0 -0.0799677981
C  C55  1  0.19860000  0.55010000  0.29200000  1.0 -0.0799677981
C  C56  1  0.80140000  0.05010000  0.20800000  1.0 -0.0799677981
C  C57  1  0.24270000  0.13380000  0.46350000  1.0 0.549352494
C  C58  1  0.75730000  0.63380000  0.03650000  1.0 0.549352494
C  C59  1  0.75730000  0.86620000  0.53650000  1.0 0.549352494
C  C60  1  0.24270000  0.36620000  0.96350000  1.0 0.549352494
C  C61  1  0.29130000  0.18428000  0.48350000  1.0 -0.0325957416
C  C62  1  0.70870000  0.68428000  0.01650000  1.0 -0.0325957416
C  C63  1  0.70870000  0.81572000  0.51650000  1.0 -0.0325957416
C  C64  1  0.29130000  0.31572000  0.98350000  1.0 -0.0325957416
C  C65  1  0.40020000  0.19010000  0.52870000  1.0 -0.0710978936
C  C66  1  0.59980000  0.69010000  0.97130000  1.0 -0.0710978936
C  C67  1  0.59980000  0.80990000  0.47130000  1.0 -0.0710978936
C  C68  1  0.40020000  0.30990000  0.02870000  1.0 -0.0710978936
C  C69  1  0.44340000  0.23670000  0.54710000  1.0 -0.2004344156
C  C70  1  0.55660000  0.73670000  0.95290000  1.0 -0.2004344156
C  C71  1  0.55660000  0.76330000  0.45290000  1.0 -0.2004344156
C  C72  1  0.44340000  0.26330000  0.04710000  1.0 -0.2004344156
C  C73  1  0.37770000  0.27640000  0.52210000  1.0 0.2310045781
C  C74  1  0.62230000  0.77640000  0.97790000  1.0 0.2310045781
C  C75  1  0.62230000  0.72360000  0.47790000  1.0 0.2310045781
C  C76  1  0.37770000  0.22360000  0.02210000  1.0 0.2310045781
C  C77  1  0.26800000  0.27130000  0.47800000  1.0 -0.2073473649
C  C78  1  0.73200000  0.77130000  0.02200000  1.0 -0.2073473649
C  C79  1  0.73200000  0.72870000  0.52200000  1.0 -0.2073473649
C  C80  1  0.26800000  0.22870000  0.97800000  1.0 -0.2073473649
C  C81  1  0.22590000  0.22470000  0.45730000  1.0 -0.0867602316
C  C82  1  0.77410000  0.72470000  0.04270000  1.0 -0.0867602316
C  C83  1  0.77410000  0.77530000  0.54270000  1.0 -0.0867602316
C  C84  1  0.22590000  0.27530000  0.95730000  1.0 -0.0867602316
C  C85  1  0.51670000  0.35715000  0.35530000  1.0 0.2996423812
C  C86  1  0.48330000  0.85715000  0.14470000  1.0 0.2996423812
C  C87  1  0.48330000  0.64285000  0.64470000  1.0 0.2996423812
C  C88  1  0.51670000  0.14285000  0.85530000  1.0 0.2996423812
C  C89  1  0.57930000  0.39817000  0.38360000  1.0 -0.3498666314
C  C90  1  0.42070000  0.89817000  0.11640000  1.0 -0.3498666314
C  C91  1  0.42070000  0.60183000  0.61640000  1.0 -0.3498666314
C  C92  1  0.57930000  0.10183000  0.88360000  1.0 -0.3498666314
C  C93  1  0.58780000  0.41238000  0.46600000  1.0 0.2996423812
C  C94  1  0.41220000  0.91238000  0.03400000  1.0 0.2996423812
C  C95  1  0.41220000  0.58762000  0.53400000  1.0 0.2996423812
C  C96  1  0.58780000  0.08762000  0.96600000  1.0 0.2996423812
C  C97  1  0.53500000  0.38703000  0.51890000  1.0 -0.3498666314
C  C98  1  0.46500000  0.88703000  0.98110000  1.0 -0.3498666314
C  C99  1  0.46500000  0.61297000  0.48110000  1.0 -0.3498666314
C  C100  1  0.53500000  0.11297000  0.01890000  1.0 -0.3498666314
C  C101  1  0.47240000  0.34604000  0.48710000  1.0 0.2996423812
C  C102  1  0.52760000  0.84604000  0.01290000  1.0 0.2996423812
C  C103  1  0.52760000  0.65396000  0.51290000  1.0 0.2996423812
C  C104  1  0.47240000  0.15396000  0.98710000  1.0 0.2996423812
C  C105  1  0.46300000  0.33015000  0.40650000  1.0 -0.3498666314
C  C106  1  0.53700000  0.83015000  0.09350000  1.0 -0.3498666314
C  C107  1  0.53700000  0.66985000  0.59350000  1.0 -0.3498666314
C  C108  1  0.46300000  0.16985000  0.90650000  1.0 -0.3498666314
C  C109  1  0.04350000  0.41530000  0.17160000  1.0 0.3148286911
C  C110  1  0.95650000  0.91530000  0.32840000  1.0 0.3154473873
C  C111  1  0.95650000  0.58470000  0.82840000  1.0 0.3154473873
C  C112  1  0.04350000  0.08470000  0.67160000  1.0 0.3148286911
C  C113  1  0.08420000  0.38120000  0.31220000  1.0 -0.0612183241
C  C114  1  0.91580000  0.88120000  0.18780000  1.0 -0.0612183241
C  C115  1  0.91580000  0.61880000  0.68780000  1.0 -0.0612183241
C  C116  1  0.08420000  0.11880000  0.81220000  1.0 -0.0612183241
C  C117  1  0.15890000  0.40830000  0.38180000  1.0 -0.4008943466
C  C118  1  0.84110000  0.90830000  0.11820000  1.0 -0.4008943466
C  C119  1  0.84110000  0.59170000  0.61820000  1.0 -0.4008943466
C  C120  1  0.15890000  0.09170000  0.88180000  1.0 -0.4008943466
C  C121  1  0.21200000  0.36590000  0.21380000  1.0 -0.0546492422
C  C122  1  0.78800000  0.86590000  0.28620000  1.0 -0.0546492422
C  C123  1  0.78800000  0.63410000  0.78620000  1.0 -0.0546492422
C  C124  1  0.21200000  0.13410000  0.71380000  1.0 -0.0546492422
C  C125  1  0.19640000  0.31390000  0.19130000  1.0 -0.3913763417
C  C126  1  0.80360000  0.81390000  0.30870000  1.0 -0.3913763417
C  C127  1  0.80360000  0.68610000  0.80870000  1.0 -0.3913763417
C  C128  1  0.19640000  0.18610000  0.69130000  1.0 -0.3913763417
N  N1  1  0.11080000  0.38920000  0.23030000  1.0 -0.0710978936
N  N2  1  0.88920000  0.88920000  0.26970000  1.0 -0.0710978936
N  N3  1  0.88920000  0.61080000  0.76970000  1.0 -0.0710978936
N  N4  1  0.11080000  0.11080000  0.73030000  1.0 -0.0710978936
O  O1  1  0.81300000  0.42515000  0.04980000  1.0 -0.5592994122
O  O2  1  0.18700000  0.92515000  0.45020000  1.0 -0.5592994122
O  O3  1  0.18700000  0.57485000  0.95020000  1.0 -0.5592994122
O  O4  1  0.81300000  0.07485000  0.54980000  1.0 -0.5592994122
O  O5  1  0.95160000  0.37748000  0.94870000  1.0 -0.0867602316
O  O6  1  0.04840000  0.87748000  0.55130000  1.0 -0.0799677981
O  O7  1  0.04840000  0.62252000  0.05130000  1.0 -0.0867602316
O  O8  1  0.95160000  0.12252000  0.44870000  1.0 -0.0867602316
O  O9  1  0.68730000  0.48582000  0.04040000  1.0 -0.5180378584
O  O10  1  0.31270000  0.98582000  0.45960000  1.0 -0.5180378584
O  O11  1  0.31270000  0.51418000  0.95960000  1.0 -0.5180378584
O  O12  1  0.68730000  0.01418000  0.54040000  1.0 -0.5180378584
O  O13  1  0.50390000  0.33930000  0.27540000  1.0 -0.2073473649
O  O14  1  0.49610000  0.83930000  0.22460000  1.0 -0.2178948291
O  O15  1  0.49610000  0.66070000  0.72460000  1.0 -0.2178948291
O  O16  1  0.50390000  0.16070000  0.77540000  1.0 -0.2178948291
O  O17  1  0.84510000  0.46347000  0.87810000  1.0 -0.5107989339
O  O18  1  0.15490000  0.96347000  0.62190000  1.0 -0.5107989339
O  O19  1  0.15490000  0.53653000  0.12190000  1.0 -0.5107989339
O  O20  1  0.84510000  0.03653000  0.37810000  1.0 -0.5107989339
O  O21  1  0.71580000  0.52206000  0.86660000  1.0 -0.5282638697
O  O22  1  0.28420000  0.02206000  0.63340000  1.0 -0.5282638697
O  O23  1  0.28420000  0.47794000  0.13340000  1.0 -0.5282638697
O  O24  1  0.71580000  0.97794000  0.36660000  1.0 -0.5282638697
O  O25  1  0.65090000  0.45385000  0.48990000  1.0 -0.2178948291
O  O26  1  0.34910000  0.95385000  0.01010000  1.0 -0.2178948291
O  O27  1  0.34910000  0.54615000  0.51010000  1.0 -0.2178948291
O  O28  1  0.65090000  0.04615000  0.98990000  1.0 -0.2178948291
O  O29  1  0.15460000  0.12956000  0.41030000  1.0 -0.4570981739
O  O30  1  0.84540000  0.62956000  0.08970000  1.0 -0.4570981739
O  O31  1  0.84540000  0.87044000  0.58970000  1.0 -0.4570981739
O  O32  1  0.15460000  0.37044000  0.91030000  1.0 -0.4570981739
O  O33  1  0.29710000  0.09893000  0.50490000  1.0 -0.5397872953
O  O34  1  0.70290000  0.59893000  0.99510000  1.0 -0.5397872953
O  O35  1  0.70290000  0.90107000  0.49510000  1.0 -0.5397872953
O  O36  1  0.29710000  0.40107000  0.00490000  1.0 -0.5397872953
O  O37  1  0.42040000  0.32334000  0.54300000  1.0 -0.2178948291
O  O38  1  0.57960000  0.82334000  0.95700000  1.0 -0.2178948291
O  O39  1  0.57960000  0.67666000  0.45700000  1.0 -0.2178948291
O  O40  1  0.42040000  0.17666000  0.04300000  1.0 -0.2178948291
O  O41  1  0.92270000  0.52060000  0.03935000  1.0 -0.8391948966
O  O42  1  0.07730000  0.02060000  0.46065000  1.0 -0.8391948966
O  O43  1  0.07730000  0.47940000  0.96065000  1.0 -0.8391948966
O  O44  1  0.92270000  0.97940000  0.53935000  1.0 -0.8391948966
O  O45  1  0.06040000  0.42239000  0.10160000  1.0 -0.4311347632
O  O46  1  0.93960000  0.92239000  0.39840000  1.0 -0.4311347632
O  O47  1  0.93960000  0.57761000  0.89840000  1.0 -0.4311347632
O  O48  1  0.06040000  0.07761000  0.60160000  1.0 -0.4311347632
