# DDEC6 charges by PACMAN v1.1 (https://github.com/mtap-research/PACMAN-charge/)
data_USOXEH_FSR_pacman
_symmetry_space_group_name_H-M   'P 1'
_cell_length_a   11.94600000
_cell_length_b   13.30200000
_cell_length_c   19.92610000
_cell_angle_alpha   90.00000000
_cell_angle_beta   118.03200000
_cell_angle_gamma   90.00000000
_symmetry_Int_Tables_number   1
_chemical_formula_structural   Zn2Cu3H30(C3N2)10
_chemical_formula_sum   'Zn4 Cu6 H60 C60 N40'
_cell_volume   2794.90872999
_cell_formula_units_Z   2
loop_
 _symmetry_equiv_pos_site_id
 _symmetry_equiv_pos_as_xyz
  1  'x, y, z'
loop_
 _atom_site_type_symbol
 _atom_site_label
 _atom_site_symmetry_multiplicity
 _atom_site_fract_x
 _atom_site_fract_y
 _atom_site_fract_z
 _atom_site_occupancy
 _atom_site_charge
Zn  Zn1  1  0.53058000  0.54085000  0.20304000  1.0 0.602337326
Zn  Zn2  1  0.46942000  0.04085000  0.29696000  1.0 0.602337326
Zn  Zn3  1  0.46942000  0.45915000  0.79696000  1.0 0.602337326
Zn  Zn4  1  0.53058000  0.95915000  0.70304000  1.0 0.602337326
Cu  Cu1  1  0.40148000  0.67703000  0.44284000  1.0 0.3231696738
Cu  Cu2  1  0.59852000  0.17703000  0.05716000  1.0 0.3231696738
Cu  Cu3  1  0.59852000  0.32297000  0.55716000  1.0 0.3231696738
Cu  Cu4  1  0.40148000  0.82297000  0.94284000  1.0 0.3325203313
Cu  Cu5  1  0.00000000  0.50000000  0.50000000  1.0 0.361366178
Cu  Cu6  1  0.00000000  0.00000000  0.00000000  1.0 0.361366178
H  H1  1  0.64020000  0.34960000  0.17210000  1.0 0.0998730707
H  H2  1  0.35980000  0.84960000  0.32790000  1.0 0.0998730707
H  H3  1  0.35980000  0.65040000  0.82790000  1.0 0.0998730707
H  H4  1  0.64020000  0.15040000  0.67210000  1.0 0.0998730707
H  H5  1  0.29630000  0.44270000  0.05020000  1.0 0.1126249957
H  H6  1  0.70370000  0.94270000  0.44980000  1.0 0.1126249957
H  H7  1  0.70370000  0.55730000  0.94980000  1.0 0.1126249957
H  H8  1  0.29630000  0.05730000  0.55020000  1.0 0.1126249957
H  H9  1  0.32980000  0.29620000  0.98870000  1.0 0.1126249957
H  H10  1  0.67020000  0.79620000  0.51130000  1.0 0.1126249957
H  H11  1  0.67020000  0.70380000  0.01130000  1.0 0.1126249957
H  H12  1  0.32980000  0.20380000  0.48870000  1.0 0.1126249957
H  H13  1  0.71510000  0.51020000  0.37510000  1.0 0.0925897407
H  H14  1  0.28490000  0.01020000  0.12490000  1.0 0.0925897407
H  H15  1  0.28490000  0.48980000  0.62490000  1.0 0.0925897407
H  H16  1  0.71510000  0.98980000  0.87510000  1.0 0.0925897407
H  H17  1  0.81140000  0.53180000  0.21660000  1.0 0.1188561187
H  H18  1  0.18860000  0.03180000  0.28340000  1.0 0.1188561187
H  H19  1  0.18860000  0.46820000  0.78340000  1.0 0.1188561187
H  H20  1  0.81140000  0.96820000  0.71660000  1.0 0.1188561187
H  H21  1  0.00360000  0.51250000  0.33590000  1.0 0.1126249957
H  H22  1  0.99640000  0.01250000  0.16410000  1.0 0.1126249957
H  H23  1  0.99640000  0.48750000  0.66410000  1.0 0.1126249957
H  H24  1  0.00360000  0.98750000  0.83590000  1.0 0.1126249957
H  H25  1  0.54520000  0.64480000  0.34910000  1.0 0.0925897407
H  H26  1  0.45480000  0.14480000  0.15090000  1.0 0.0925897407
H  H27  1  0.45480000  0.35520000  0.65090000  1.0 0.0925897407
H  H28  1  0.54520000  0.85520000  0.84910000  1.0 0.0925897407
H  H29  1  0.27410000  0.47410000  0.20580000  1.0 0.1188561187
H  H30  1  0.72590000  0.97410000  0.29420000  1.0 0.1188561187
H  H31  1  0.72590000  0.52590000  0.79420000  1.0 0.1188561187
H  H32  1  0.27410000  0.02590000  0.70580000  1.0 0.1188561187
H  H33  1  0.21520000  0.53000000  0.30130000  1.0 0.1126249957
H  H34  1  0.78480000  0.03000000  0.19870000  1.0 0.1126249957
H  H35  1  0.78480000  0.47000000  0.69870000  1.0 0.1126249957
H  H36  1  0.21520000  0.97000000  0.80130000  1.0 0.1126249957
H  H37  1  0.17890000  0.65400000  0.47800000  1.0 0.0998730707
H  H38  1  0.82110000  0.15400000  0.02200000  1.0 0.0998730707
H  H39  1  0.82110000  0.34600000  0.52200000  1.0 0.0998730707
H  H40  1  0.17890000  0.84600000  0.97800000  1.0 0.0998730707
H  H41  1  0.36460000  0.43270000  0.44930000  1.0 0.0998730707
H  H42  1  0.63540000  0.93270000  0.05070000  1.0 0.0998730707
H  H43  1  0.63540000  0.56730000  0.55070000  1.0 0.0998730707
H  H44  1  0.36460000  0.06730000  0.94930000  1.0 0.0998730707
H  H45  1  0.20260000  0.36260000  0.47780000  1.0 0.1126249957
H  H46  1  0.79740000  0.86260000  0.02220000  1.0 0.1126249957
H  H47  1  0.79740000  0.63740000  0.52220000  1.0 0.1126249957
H  H48  1  0.20260000  0.13740000  0.97780000  1.0 0.1126249957
H  H49  1  0.45550000  0.87670000  0.53800000  1.0 0.0998730707
H  H50  1  0.54450000  0.37670000  0.96200000  1.0 0.0998730707
H  H51  1  0.54450000  0.12330000  0.46200000  1.0 0.0998730707
H  H52  1  0.45550000  0.62330000  0.03800000  1.0 0.0998730707
H  H53  1  0.48030000  0.60370000  0.61430000  1.0 0.1126249957
H  H54  1  0.51970000  0.10370000  0.88570000  1.0 0.1126249957
H  H55  1  0.51970000  0.39630000  0.38570000  1.0 0.1126249957
H  H56  1  0.48030000  0.89630000  0.11430000  1.0 0.1126249957
H  H57  1  0.53320000  0.71920000  0.71870000  1.0 0.1188561187
H  H58  1  0.46680000  0.21920000  0.78130000  1.0 0.1188561187
H  H59  1  0.46680000  0.28080000  0.28130000  1.0 0.1188561187
H  H60  1  0.53320000  0.78080000  0.21870000  1.0 0.1188561187
C  C1  1  0.55710000  0.35420000  0.13350000  1.0 0.1188561187
C  C2  1  0.44290000  0.85420000  0.36650000  1.0 0.1188561187
C  C3  1  0.44290000  0.64580000  0.86650000  1.0 0.1188561187
C  C4  1  0.55710000  0.14580000  0.63350000  1.0 0.1188561187
C  C5  1  0.37120000  0.40610000  0.06830000  1.0 -0.0582718565
C  C6  1  0.62880000  0.90610000  0.43170000  1.0 -0.0582718565
C  C7  1  0.62880000  0.59390000  0.93170000  1.0 -0.0582718565
C  C8  1  0.37120000  0.09390000  0.56830000  1.0 -0.0582718565
C  C9  1  0.39030000  0.32420000  0.03410000  1.0 -0.0582718565
C  C10  1  0.60970000  0.82420000  0.46590000  1.0 -0.0582718565
C  C11  1  0.60970000  0.67580000  0.96590000  1.0 -0.0582718565
C  C12  1  0.39030000  0.17580000  0.53410000  1.0 -0.0582718565
C  C13  1  0.76430000  0.51530000  0.35040000  1.0 0.1404306954
C  C14  1  0.23570000  0.01530000  0.14960000  1.0 0.1404306954
C  C15  1  0.23570000  0.48470000  0.64960000  1.0 0.1404306954
C  C16  1  0.76430000  0.98470000  0.85040000  1.0 0.1404306954
C  C17  1  0.81490000  0.52590000  0.26410000  1.0 -0.0527170086
C  C18  1  0.18510000  0.02590000  0.23590000  1.0 -0.0527170086
C  C19  1  0.18510000  0.47410000  0.73590000  1.0 -0.0527170086
C  C20  1  0.81490000  0.97410000  0.76410000  1.0 -0.0527170086
C  C21  1  0.92180000  0.51600000  0.33020000  1.0 -0.0582718565
C  C22  1  0.07820000  0.01600000  0.16980000  1.0 -0.0582718565
C  C23  1  0.07820000  0.48400000  0.66980000  1.0 -0.0582718565
C  C24  1  0.92180000  0.98400000  0.83020000  1.0 -0.0582718565
C  C25  1  0.46960000  0.60910000  0.32510000  1.0 0.1188561187
C  C26  1  0.53040000  0.10910000  0.17490000  1.0 0.1188561187
C  C27  1  0.53040000  0.39090000  0.67490000  1.0 0.1188561187
C  C28  1  0.46960000  0.89090000  0.82510000  1.0 0.1188561187
C  C29  1  0.32270000  0.51560000  0.24690000  1.0 -0.0527170086
C  C30  1  0.67730000  0.01560000  0.25310000  1.0 -0.0527170086
C  C31  1  0.67730000  0.48440000  0.75310000  1.0 -0.0527170086
C  C32  1  0.32270000  0.98440000  0.74690000  1.0 -0.0527170086
C  C33  1  0.28930000  0.54720000  0.29960000  1.0 -0.0582718565
C  C34  1  0.71070000  0.04720000  0.20040000  1.0 -0.0582718565
C  C35  1  0.71070000  0.45280000  0.70040000  1.0 -0.0582718565
C  C36  1  0.28930000  0.95280000  0.79960000  1.0 -0.0582718565
C  C37  1  0.20490000  0.58930000  0.47420000  1.0 0.1188561187
C  C38  1  0.79510000  0.08930000  0.02580000  1.0 0.1188561187
C  C39  1  0.79510000  0.41070000  0.52580000  1.0 0.1188561187
C  C40  1  0.20490000  0.91070000  0.97420000  1.0 0.1188561187
C  C41  1  0.30700000  0.46960000  0.45840000  1.0 -0.0527170086
C  C42  1  0.69300000  0.96960000  0.04160000  1.0 -0.0527170086
C  C43  1  0.69300000  0.53040000  0.54160000  1.0 -0.0527170086
C  C44  1  0.30700000  0.03040000  0.95840000  1.0 -0.0527170086
C  C45  1  0.21700000  0.43070000  0.47430000  1.0 -0.0730027137
C  C46  1  0.78300000  0.93070000  0.02570000  1.0 -0.0730027137
C  C47  1  0.78300000  0.56930000  0.52570000  1.0 -0.0730027137
C  C48  1  0.21700000  0.06930000  0.97430000  1.0 -0.0730027137
C  C49  1  0.46780000  0.82260000  0.57040000  1.0 0.1315812124
C  C50  1  0.53220000  0.32260000  0.92960000  1.0 0.1315812124
C  C51  1  0.53220000  0.17740000  0.42960000  1.0 0.1315812124
C  C52  1  0.46780000  0.67740000  0.07040000  1.0 0.1315812124
C  C53  1  0.48150000  0.67350000  0.61130000  1.0 -0.0582718565
C  C54  1  0.51850000  0.17350000  0.88870000  1.0 -0.0582718565
C  C55  1  0.51850000  0.32650000  0.38870000  1.0 -0.0582718565
C  C56  1  0.48150000  0.82650000  0.11130000  1.0 -0.0582718565
C  C57  1  0.50990000  0.73750000  0.66880000  1.0 -0.0582718565
C  C58  1  0.49010000  0.23750000  0.83120000  1.0 -0.0582718565
C  C59  1  0.49010000  0.26250000  0.33120000  1.0 -0.0582718565
C  C60  1  0.50990000  0.76250000  0.16880000  1.0 -0.0582718565
N  N1  1  0.47870000  0.42540000  0.13260000  1.0 -0.2812712015
N  N2  1  0.52130000  0.92540000  0.36740000  1.0 -0.2812712015
N  N3  1  0.52130000  0.57460000  0.86740000  1.0 -0.2812712015
N  N4  1  0.47870000  0.07460000  0.63260000  1.0 -0.2812712015
N  N5  1  0.50900000  0.28950000  0.07540000  1.0 -0.2702360181
N  N6  1  0.49100000  0.78950000  0.42460000  1.0 -0.2702360181
N  N7  1  0.49100000  0.71050000  0.92460000  1.0 -0.2702360181
N  N8  1  0.50900000  0.21050000  0.57540000  1.0 -0.2702360181
N  N9  1  0.71370000  0.52620000  0.27670000  1.0 -0.2860131533
N  N10  1  0.28630000  0.02620000  0.22330000  1.0 -0.2860131533
N  N11  1  0.28630000  0.47380000  0.72330000  1.0 -0.2860131533
N  N12  1  0.71370000  0.97380000  0.77670000  1.0 -0.2860131533
N  N13  1  0.89060000  0.51180000  0.38800000  1.0 -0.2812712015
N  N14  1  0.10940000  0.01180000  0.11200000  1.0 -0.2812712015
N  N15  1  0.10940000  0.48820000  0.61200000  1.0 -0.2812712015
N  N16  1  0.89060000  0.98820000  0.88800000  1.0 -0.2812712015
N  N17  1  0.43710000  0.55360000  0.26320000  1.0 -0.2812712015
N  N18  1  0.56290000  0.05360000  0.23680000  1.0 -0.2812712015
N  N19  1  0.56290000  0.44640000  0.73680000  1.0 -0.2812712015
N  N20  1  0.43710000  0.94640000  0.76320000  1.0 -0.2812712015
N  N21  1  0.38240000  0.60820000  0.34940000  1.0 -0.2702360181
N  N22  1  0.61760000  0.10820000  0.15060000  1.0 -0.2702360181
N  N23  1  0.61760000  0.39180000  0.65060000  1.0 -0.2702360181
N  N24  1  0.38240000  0.89180000  0.84940000  1.0 -0.2702360181
N  N25  1  0.29870000  0.57120000  0.45800000  1.0 -0.2702360181
N  N26  1  0.70130000  0.07120000  0.04200000  1.0 -0.2702360181
N  N27  1  0.70130000  0.42880000  0.54200000  1.0 -0.2702360181
N  N28  1  0.29870000  0.92880000  0.95800000  1.0 -0.2702360181
N  N29  1  0.15140000  0.50800000  0.48440000  1.0 -0.2812712015
N  N30  1  0.84860000  0.00800000  0.01560000  1.0 -0.2812712015
N  N31  1  0.84860000  0.49200000  0.51560000  1.0 -0.2812712015
N  N32  1  0.15140000  0.99200000  0.98440000  1.0 -0.2812712015
N  N33  1  0.45450000  0.72770000  0.54740000  1.0 -0.2702360181
N  N34  1  0.54550000  0.22770000  0.95260000  1.0 -0.2702360181
N  N35  1  0.54550000  0.27230000  0.45260000  1.0 -0.2702360181
N  N36  1  0.45450000  0.77230000  0.04740000  1.0 -0.2702360181
N  N37  1  0.49980000  0.83390000  0.64310000  1.0 -0.2812712015
N  N38  1  0.50020000  0.33390000  0.85690000  1.0 -0.2812712015
N  N39  1  0.50020000  0.16610000  0.35690000  1.0 -0.2812712015
N  N40  1  0.49980000  0.66610000  0.14310000  1.0 -0.2812712015
