# DDEC6 charges by PACMAN v1.1 (https://github.com/mtap-research/PACMAN-charge/)
data_USUPUV_ASR_pacman
_symmetry_space_group_name_H-M   'P 1'
_cell_length_a   9.81200000
_cell_length_b   25.79300000
_cell_length_c   13.28170000
_cell_angle_alpha   90.00000000
_cell_angle_beta   120.93400000
_cell_angle_gamma   90.00000000
_symmetry_Int_Tables_number   1
_chemical_formula_structural   RbYFe2C10(N6O)2
_chemical_formula_sum   'Rb4 Y4 Fe8 C40 N48 O8'
_cell_volume   2883.22716160
_cell_formula_units_Z   4
loop_
 _symmetry_equiv_pos_site_id
 _symmetry_equiv_pos_as_xyz
  1  'x, y, z'
loop_
 _atom_site_type_symbol
 _atom_site_label
 _atom_site_symmetry_multiplicity
 _atom_site_fract_x
 _atom_site_fract_y
 _atom_site_fract_z
 _atom_site_occupancy
 _atom_site_charge
Rb  Rb1  1  0.02969000  0.72278000  0.48519000  1.0 0.7585213646
Rb  Rb2  1  0.97031000  0.22278000  0.01481000  1.0 0.7585213646
Rb  Rb3  1  0.97031000  0.27722000  0.51481000  1.0 0.7585213646
Rb  Rb4  1  0.02969000  0.77722000  0.98519000  1.0 0.7585213646
Y  Y1  1  0.90774000  0.10155000  0.70207000  1.0 1.1606392577
Y  Y2  1  0.09226000  0.60155000  0.79793000  1.0 1.1969860509
Y  Y3  1  0.09226000  0.89845000  0.29793000  1.0 1.1915498689
Y  Y4  1  0.90774000  0.39845000  0.20207000  1.0 1.1915498689
Fe  Fe1  1  0.98217000  0.89422000  0.66195000  1.0 0.1715692706
Fe  Fe2  1  0.01783000  0.39422000  0.83805000  1.0 0.1715692706
Fe  Fe3  1  0.01783000  0.10578000  0.33805000  1.0 0.1715692706
Fe  Fe4  1  0.98217000  0.60578000  0.16195000  1.0 0.1715692706
Fe  Fe5  1  0.50120000  0.74474000  0.38891000  1.0 0.2106712823
Fe  Fe6  1  0.49880000  0.24474000  0.11109000  1.0 0.2106712823
Fe  Fe7  1  0.49880000  0.25526000  0.61109000  1.0 0.2106712823
Fe  Fe8  1  0.50120000  0.75526000  0.88891000  1.0 0.2106712823
C  C1  1  0.95060000  0.96770000  0.65960000  1.0 0.2429681659
C  C2  1  0.04940000  0.46770000  0.84040000  1.0 0.2429681659
C  C3  1  0.04940000  0.03230000  0.34040000  1.0 0.2429681659
C  C4  1  0.95060000  0.53230000  0.15960000  1.0 0.2429681659
C  C5  1  0.98590000  0.89580000  0.51750000  1.0 0.1715692706
C  C6  1  0.01410000  0.39580000  0.98250000  1.0 0.1715692706
C  C7  1  0.01410000  0.10420000  0.48250000  1.0 0.1715692706
C  C8  1  0.98590000  0.60420000  0.01750000  1.0 0.1715692706
C  C9  1  0.97530000  0.81860000  0.65790000  1.0 0.0694416394
C  C10  1  0.02470000  0.31860000  0.84210000  1.0 0.0606125161
C  C11  1  0.02470000  0.18140000  0.34210000  1.0 0.0606125161
C  C12  1  0.97530000  0.68140000  0.15790000  1.0 0.0606125161
C  C13  1  0.94510000  0.89010000  0.78960000  1.0 0.1112170259
C  C14  1  0.05490000  0.39010000  0.71040000  1.0 0.1112170259
C  C15  1  0.05490000  0.10990000  0.21040000  1.0 0.1195581421
C  C16  1  0.94510000  0.60990000  0.28960000  1.0 0.1112170259
C  C17  1  0.65520000  0.20200000  0.68710000  1.0 0.1913244441
C  C18  1  0.34480000  0.70200000  0.81290000  1.0 0.1975315601
C  C19  1  0.34480000  0.79800000  0.31290000  1.0 0.1975315601
C  C20  1  0.65520000  0.29800000  0.18710000  1.0 0.1913244441
C  C21  1  0.64110000  0.68480000  0.44480000  1.0 0.0694416394
C  C22  1  0.35890000  0.18480000  0.05520000  1.0 0.0694416394
C  C23  1  0.35890000  0.31520000  0.55520000  1.0 0.0694416394
C  C24  1  0.64110000  0.81520000  0.94480000  1.0 0.0694416394
C  C25  1  0.35810000  0.70650000  0.42170000  1.0 0.0694416394
C  C26  1  0.64190000  0.20650000  0.07830000  1.0 0.0803947017
C  C27  1  0.64190000  0.29350000  0.57830000  1.0 0.0694416394
C  C28  1  0.35810000  0.79350000  0.92170000  1.0 0.0694416394
C  C29  1  0.75320000  0.89290000  0.56420000  1.0 0.0694416394
C  C30  1  0.24680000  0.39290000  0.93580000  1.0 0.0694416394
C  C31  1  0.24680000  0.10710000  0.43580000  1.0 0.0694416394
C  C32  1  0.75320000  0.60710000  0.06420000  1.0 0.0694416394
C  C33  1  0.63980000  0.77690000  0.34070000  1.0 0.0354291637
C  C34  1  0.36020000  0.27690000  0.15930000  1.0 0.0354291637
C  C35  1  0.36020000  0.22310000  0.65930000  1.0 0.0342255324
C  C36  1  0.63980000  0.72310000  0.84070000  1.0 0.0354291637
C  C37  1  0.39460000  0.78890000  0.73560000  1.0 0.0694416394
C  C38  1  0.60540000  0.28890000  0.76440000  1.0 0.0694416394
C  C39  1  0.60540000  0.21110000  0.26440000  1.0 0.0694416394
C  C40  1  0.39460000  0.71110000  0.23560000  1.0 0.0694416394
N  N1  1  0.17910000  0.89950000  0.74530000  1.0 0.085496355
N  N2  1  0.82090000  0.39950000  0.75470000  1.0 0.085496355
N  N3  1  0.82090000  0.10050000  0.25470000  1.0 0.085496355
N  N4  1  0.17910000  0.60050000  0.24530000  1.0 0.0803947017
N  N5  1  0.93010000  0.01150000  0.66240000  1.0 -0.5089146406
N  N6  1  0.06990000  0.51150000  0.83760000  1.0 -0.5089146406
N  N7  1  0.06990000  0.98850000  0.33760000  1.0 -0.5089146406
N  N8  1  0.93010000  0.48850000  0.16240000  1.0 -0.5089146406
N  N9  1  0.99730000  0.89600000  0.43590000  1.0 -0.4808757663
N  N10  1  0.00270000  0.39600000  0.06410000  1.0 -0.4808757663
N  N11  1  0.00270000  0.10400000  0.56410000  1.0 -0.4808757663
N  N12  1  0.99730000  0.60400000  0.93590000  1.0 -0.4808757663
N  N13  1  0.96850000  0.77440000  0.66000000  1.0 -0.435894309
N  N14  1  0.03150000  0.27440000  0.84000000  1.0 -0.435894309
N  N15  1  0.03150000  0.22560000  0.34000000  1.0 -0.435894309
N  N16  1  0.96850000  0.72560000  0.16000000  1.0 -0.435894309
N  N17  1  0.92330000  0.88680000  0.86640000  1.0 -0.321273781
N  N18  1  0.07670000  0.38680000  0.63360000  1.0 -0.321273781
N  N19  1  0.07670000  0.11320000  0.13360000  1.0 -0.321273781
N  N20  1  0.92330000  0.61320000  0.36640000  1.0 -0.3125534341
N  N21  1  0.74980000  0.16920000  0.72820000  1.0 -0.5515080974
N  N22  1  0.25020000  0.66920000  0.77180000  1.0 -0.5621174261
N  N23  1  0.25020000  0.83080000  0.27180000  1.0 -0.5621174261
N  N24  1  0.74980000  0.33080000  0.22820000  1.0 -0.5621174261
N  N25  1  0.58300000  0.77140000  0.52130000  1.0 0.2155513257
N  N26  1  0.41700000  0.27140000  0.97870000  1.0 0.2106712823
N  N27  1  0.41700000  0.22860000  0.47870000  1.0 0.2106712823
N  N28  1  0.58300000  0.72860000  0.02130000  1.0 0.2155513257
N  N29  1  0.72730000  0.65090000  0.48220000  1.0 -0.2701499149
N  N30  1  0.27270000  0.15090000  0.01780000  1.0 -0.2701499149
N  N31  1  0.27270000  0.34910000  0.51780000  1.0 -0.2632636115
N  N32  1  0.72730000  0.84910000  0.98220000  1.0 -0.2701499149
N  N33  1  0.28250000  0.68410000  0.44830000  1.0 -0.4002495244
N  N34  1  0.71750000  0.18410000  0.05170000  1.0 -0.4002495244
N  N35  1  0.71750000  0.31590000  0.55170000  1.0 -0.4002495244
N  N36  1  0.28250000  0.81590000  0.94830000  1.0 -0.4002495244
N  N37  1  0.61630000  0.89360000  0.50890000  1.0 -0.321273781
N  N38  1  0.38370000  0.39360000  0.99110000  1.0 -0.321273781
N  N39  1  0.38370000  0.10640000  0.49110000  1.0 -0.321273781
N  N40  1  0.61630000  0.60640000  0.00890000  1.0 -0.321273781
N  N41  1  0.72260000  0.79440000  0.31450000  1.0 -0.3467615158
N  N42  1  0.27740000  0.29440000  0.18550000  1.0 -0.3467615158
N  N43  1  0.27740000  0.20560000  0.68550000  1.0 -0.3467615158
N  N44  1  0.72260000  0.70560000  0.81450000  1.0 -0.3467615158
N  N45  1  0.33110000  0.80880000  0.64680000  1.0 -0.3757434323
N  N46  1  0.66890000  0.30880000  0.85320000  1.0 -0.3757434323
N  N47  1  0.66890000  0.19120000  0.35320000  1.0 -0.3757434323
N  N48  1  0.33110000  0.69120000  0.14680000  1.0 -0.3757434323
O  O1  1  0.31090000  0.90520000  0.80120000  1.0 0.1466872068
O  O2  1  0.68910000  0.40520000  0.69880000  1.0 0.1466872068
O  O3  1  0.68910000  0.09480000  0.19880000  1.0 0.1466872068
O  O4  1  0.31090000  0.59480000  0.30120000  1.0 0.1466872068
O  O5  1  0.63010000  0.78690000  0.61230000  1.0 0.1466872068
O  O6  1  0.36990000  0.28690000  0.88770000  1.0 0.144005762
O  O7  1  0.36990000  0.21310000  0.38770000  1.0 0.1466872068
O  O8  1  0.63010000  0.71310000  0.11230000  1.0 0.1466872068
