# DDEC6 charges by PACMAN v1.1 (https://github.com/mtap-research/PACMAN-charge/)
data_UTEMAJ_ASR_pacman
_symmetry_space_group_name_H-M   'P 1'
_cell_length_a   12.97850000
_cell_length_b   11.71970000
_cell_length_c   27.08700000
_cell_angle_alpha   90.00000000
_cell_angle_beta   105.69900000
_cell_angle_gamma   90.00000000
_symmetry_Int_Tables_number   1
_chemical_formula_structural   MgH8C14(NO2)2
_chemical_formula_sum   'Mg6 H48 C84 N12 O24'
_cell_volume   3966.35226704
_cell_formula_units_Z   6
loop_
 _symmetry_equiv_pos_site_id
 _symmetry_equiv_pos_as_xyz
  1  'x, y, z'
loop_
 _atom_site_type_symbol
 _atom_site_label
 _atom_site_symmetry_multiplicity
 _atom_site_fract_x
 _atom_site_fract_y
 _atom_site_fract_z
 _atom_site_occupancy
 _atom_site_charge
Mg  Mg1  1  0.00000000  0.50000000  0.00000000  1.0 1.3973721031
Mg  Mg2  1  0.00000000  0.50000000  0.50000000  1.0 1.3973721031
Mg  Mg3  1  0.07022000  0.75169000  0.94369000  1.0 1.3315038446
Mg  Mg4  1  0.92978000  0.75169000  0.55631000  1.0 1.3315038446
Mg  Mg5  1  0.92978000  0.24831000  0.05631000  1.0 1.3315038446
Mg  Mg6  1  0.07022000  0.24831000  0.44369000  1.0 1.3315038446
H  H1  1  0.83810000  0.95880000  0.98660000  1.0 0.1292666444
H  H2  1  0.16190000  0.95880000  0.51340000  1.0 0.1292666444
H  H3  1  0.16190000  0.04120000  0.01340000  1.0 0.1292666444
H  H4  1  0.83810000  0.04120000  0.48660000  1.0 0.1292666444
H  H5  1  0.68090000  0.04750000  0.99000000  1.0 0.1292666444
H  H6  1  0.31910000  0.04750000  0.51000000  1.0 0.1292666444
H  H7  1  0.31910000  0.95250000  0.01000000  1.0 0.1292666444
H  H8  1  0.68090000  0.95250000  0.49000000  1.0 0.1292666444
H  H9  1  0.25140000  0.46560000  0.05520000  1.0 0.1225644106
H  H10  1  0.74860000  0.46560000  0.44480000  1.0 0.1225644106
H  H11  1  0.74860000  0.53440000  0.94480000  1.0 0.1225644106
H  H12  1  0.25140000  0.53440000  0.55520000  1.0 0.1225644106
H  H13  1  0.50140000  0.71940000  0.14950000  1.0 0.1225644106
H  H14  1  0.49860000  0.71940000  0.35050000  1.0 0.1225644106
H  H15  1  0.49860000  0.28060000  0.85050000  1.0 0.1225644106
H  H16  1  0.50140000  0.28060000  0.64950000  1.0 0.1225644106
H  H17  1  0.39340000  0.39910000  0.12020000  1.0 0.1292666444
H  H18  1  0.60660000  0.39910000  0.37980000  1.0 0.1292666444
H  H19  1  0.60660000  0.60090000  0.87980000  1.0 0.1292666444
H  H20  1  0.39340000  0.60090000  0.62020000  1.0 0.1292666444
H  H21  1  0.72450000  0.65840000  0.01770000  1.0 0.1225644106
H  H22  1  0.27550000  0.65840000  0.48230000  1.0 0.1225644106
H  H23  1  0.27550000  0.34160000  0.98230000  1.0 0.1225644106
H  H24  1  0.72450000  0.34160000  0.51770000  1.0 0.1225644106
H  H25  1  0.84500000  0.63030000  0.35500000  1.0 0.1225644106
H  H26  1  0.15500000  0.63030000  0.14500000  1.0 0.1225644106
H  H27  1  0.15500000  0.36970000  0.64500000  1.0 0.1225644106
H  H28  1  0.84500000  0.36970000  0.85500000  1.0 0.1292666444
H  H29  1  0.71140000  0.68790000  0.28460000  1.0 0.1292666444
H  H30  1  0.28860000  0.68790000  0.21540000  1.0 0.1292666444
H  H31  1  0.28860000  0.31210000  0.71540000  1.0 0.1292666444
H  H32  1  0.71140000  0.31210000  0.78460000  1.0 0.1292666444
H  H33  1  0.35990000  0.78490000  0.08350000  1.0 0.1225644106
H  H34  1  0.64010000  0.78490000  0.41650000  1.0 0.1225644106
H  H35  1  0.64010000  0.21510000  0.91650000  1.0 0.1225644106
H  H36  1  0.35990000  0.21510000  0.58350000  1.0 0.1225644106
H  H37  1  0.56890000  0.74550000  0.02410000  1.0 0.1225644106
H  H38  1  0.43110000  0.74550000  0.47590000  1.0 0.1225644106
H  H39  1  0.43110000  0.25450000  0.97590000  1.0 0.1225644106
H  H40  1  0.56890000  0.25450000  0.52410000  1.0 0.1225644106
H  H41  1  0.81130000  0.30900000  0.30620000  1.0 0.1225644106
H  H42  1  0.18870000  0.30900000  0.19380000  1.0 0.1225644106
H  H43  1  0.18870000  0.69100000  0.69380000  1.0 0.1225644106
H  H44  1  0.81130000  0.69100000  0.80620000  1.0 0.1225644106
H  H45  1  0.67160000  0.36330000  0.23630000  1.0 0.1225644106
H  H46  1  0.32840000  0.36330000  0.26370000  1.0 0.1225644106
H  H47  1  0.32840000  0.63670000  0.76370000  1.0 0.1225644106
H  H48  1  0.67160000  0.63670000  0.73630000  1.0 0.1225644106
C  C1  1  0.89520000  0.74040000  0.99471000  1.0 0.6218407813
C  C2  1  0.10480000  0.74040000  0.50529000  1.0 0.6218407813
C  C3  1  0.10480000  0.25960000  0.00529000  1.0 0.6218407813
C  C4  1  0.89520000  0.25960000  0.49471000  1.0 0.6218407813
C  C5  1  0.20170000  0.67610000  0.02087000  1.0 0.5900103215
C  C6  1  0.79830000  0.67610000  0.47913000  1.0 0.5900103215
C  C7  1  0.79830000  0.32390000  0.97913000  1.0 0.5900103215
C  C8  1  0.20170000  0.32390000  0.52087000  1.0 0.5900103215
C  C9  1  0.79550000  0.79810000  0.00097000  1.0 -0.0236401644
C  C10  1  0.20450000  0.79810000  0.49903000  1.0 -0.0236401644
C  C11  1  0.20450000  0.20190000  0.99903000  1.0 -0.0236401644
C  C12  1  0.79550000  0.20190000  0.50097000  1.0 -0.0236401644
C  C13  1  0.29130000  0.63220000  0.06331000  1.0 -0.0319308165
C  C14  1  0.70870000  0.63220000  0.43669000  1.0 -0.0319308165
C  C15  1  0.70870000  0.36780000  0.93669000  1.0 -0.0319308165
C  C16  1  0.29130000  0.36780000  0.56331000  1.0 -0.0319308165
C  C17  1  0.78300000  0.91610000  0.99326000  1.0 -0.0817824433
C  C18  1  0.21700000  0.91610000  0.50674000  1.0 -0.0817824433
C  C19  1  0.21700000  0.08390000  0.00674000  1.0 -0.0817824433
C  C20  1  0.78300000  0.08390000  0.49326000  1.0 -0.0817824433
C  C21  1  0.84070000  0.46420000  0.33846000  1.0 -0.043989287
C  C22  1  0.15930000  0.46420000  0.16154000  1.0 -0.043989287
C  C23  1  0.15930000  0.53580000  0.66154000  1.0 -0.043989287
C  C24  1  0.84070000  0.53580000  0.83846000  1.0 -0.043989287
C  C25  1  0.68950000  0.96930000  0.99558000  1.0 -0.153299981
C  C26  1  0.31050000  0.96930000  0.50442000  1.0 -0.153299981
C  C27  1  0.31050000  0.03070000  0.00442000  1.0 -0.153299981
C  C28  1  0.68950000  0.03070000  0.49558000  1.0 -0.153299981
C  C29  1  0.30150000  0.51660000  0.07429000  1.0 -0.088139804
C  C30  1  0.69850000  0.51660000  0.42571000  1.0 -0.088139804
C  C31  1  0.69850000  0.48340000  0.92571000  1.0 -0.088139804
C  C32  1  0.30150000  0.48340000  0.57429000  1.0 -0.088139804
C  C33  1  0.60910000  0.90530000  0.00619000  1.0 0.1518458936
C  C34  1  0.39090000  0.90530000  0.49381000  1.0 0.1518458936
C  C35  1  0.39090000  0.09470000  0.99381000  1.0 0.1518458936
C  C36  1  0.60910000  0.09470000  0.50619000  1.0 0.1518458936
C  C37  1  0.45070000  0.66830000  0.13096000  1.0 -0.1591694856
C  C38  1  0.54930000  0.66830000  0.36904000  1.0 -0.1591694856
C  C39  1  0.54930000  0.33170000  0.86904000  1.0 -0.1591694856
C  C40  1  0.45070000  0.33170000  0.63096000  1.0 -0.1591694856
C  C41  1  0.38590000  0.47690000  0.11347000  1.0 -0.153299981
C  C42  1  0.61410000  0.47690000  0.38653000  1.0 -0.153299981
C  C43  1  0.61410000  0.52310000  0.88653000  1.0 -0.153299981
C  C44  1  0.38590000  0.52310000  0.61347000  1.0 -0.153299981
C  C45  1  0.71570000  0.73660000  0.01221000  1.0 -0.088139804
C  C46  1  0.28430000  0.73660000  0.48779000  1.0 -0.088139804
C  C47  1  0.28430000  0.26340000  0.98779000  1.0 -0.088139804
C  C48  1  0.71570000  0.26340000  0.51221000  1.0 -0.088139804
C  C49  1  0.81050000  0.57630000  0.33109000  1.0 -0.0817824433
C  C50  1  0.18950000  0.57630000  0.16891000  1.0 -0.0817824433
C  C51  1  0.18950000  0.42370000  0.66891000  1.0 -0.0817824433
C  C52  1  0.81050000  0.42370000  0.83109000  1.0 -0.0817824433
C  C53  1  0.92260000  0.42750000  0.38677000  1.0 0.6324065689
C  C54  1  0.07740000  0.42750000  0.11323000  1.0 0.6324065689
C  C55  1  0.07740000  0.57250000  0.61323000  1.0 0.6324065689
C  C56  1  0.92260000  0.57250000  0.88677000  1.0 0.6324065689
C  C57  1  0.45940000  0.55350000  0.14280000  1.0 0.1578763638
C  C58  1  0.54060000  0.55350000  0.35720000  1.0 0.1578763638
C  C59  1  0.54060000  0.44650000  0.85720000  1.0 0.1578763638
C  C60  1  0.45940000  0.44650000  0.64280000  1.0 0.1578763638
C  C61  1  0.73020000  0.61130000  0.28903000  1.0 -0.1591694856
C  C62  1  0.26980000  0.61130000  0.21097000  1.0 -0.1591694856
C  C63  1  0.26980000  0.38870000  0.71097000  1.0 -0.1591694856
C  C64  1  0.73020000  0.38870000  0.78903000  1.0 -0.1591694856
C  C65  1  0.36600000  0.70750000  0.09120000  1.0 -0.0817824433
C  C66  1  0.63400000  0.70750000  0.40880000  1.0 -0.0817824433
C  C67  1  0.63400000  0.29250000  0.90880000  1.0 -0.0817824433
C  C68  1  0.36600000  0.29250000  0.59120000  1.0 -0.0817824433
C  C69  1  0.62220000  0.78800000  0.01563000  1.0 -0.1652291503
C  C70  1  0.37780000  0.78800000  0.48437000  1.0 -0.1652291503
C  C71  1  0.37780000  0.21200000  0.98437000  1.0 -0.1591694856
C  C72  1  0.62220000  0.21200000  0.51563000  1.0 -0.1591694856
C  C73  1  0.67820000  0.53130000  0.25363000  1.0 0.1408228714
C  C74  1  0.32180000  0.53130000  0.24637000  1.0 0.1408228714
C  C75  1  0.32180000  0.46870000  0.74637000  1.0 0.1408228714
C  C76  1  0.67820000  0.46870000  0.75363000  1.0 0.1408228714
C  C77  1  0.79000000  0.38500000  0.30229000  1.0 -0.088139804
C  C78  1  0.21000000  0.38500000  0.19771000  1.0 -0.088139804
C  C79  1  0.21000000  0.61500000  0.69771000  1.0 -0.088139804
C  C80  1  0.79000000  0.61500000  0.80229000  1.0 -0.088139804
C  C81  1  0.70700000  0.41750000  0.25995000  1.0 -0.1591694856
C  C82  1  0.29300000  0.41750000  0.24005000  1.0 -0.1591694856
C  C83  1  0.29300000  0.58250000  0.74005000  1.0 -0.1591694856
C  C84  1  0.70700000  0.58250000  0.75995000  1.0 -0.1591694856
N  N1  1  0.54130000  0.50330000  0.18378000  1.0 -0.129522095
N  N2  1  0.45870000  0.50330000  0.31622000  1.0 -0.129522095
N  N3  1  0.45870000  0.49670000  0.81622000  1.0 -0.129522095
N  N4  1  0.54130000  0.49670000  0.68378000  1.0 -0.129522095
N  N5  1  0.59550000  0.57790000  0.21184000  1.0 -0.129522095
N  N6  1  0.40450000  0.57790000  0.28816000  1.0 -0.129522095
N  N7  1  0.40450000  0.42210000  0.78816000  1.0 -0.129522095
N  N8  1  0.59550000  0.42210000  0.71184000  1.0 -0.129522095
N  N9  1  0.50860000  0.95060000  0.00893000  1.0 -0.129522095
N  N10  1  0.49140000  0.95060000  0.49107000  1.0 -0.129522095
N  N11  1  0.49140000  0.04940000  0.99107000  1.0 -0.129522095
N  N12  1  0.50860000  0.04940000  0.50893000  1.0 -0.129522095
O  O1  1  0.20192000  0.77943000  0.00807000  1.0 -0.618506008
O  O2  1  0.79808000  0.77943000  0.49193000  1.0 -0.618506008
O  O3  1  0.79808000  0.22057000  0.99193000  1.0 -0.618506008
O  O4  1  0.20192000  0.22057000  0.50807000  1.0 -0.618506008
O  O5  1  0.12721000  0.61068000  0.99669000  1.0 -0.680930769
O  O6  1  0.87279000  0.61068000  0.50331000  1.0 -0.680930769
O  O7  1  0.87279000  0.38932000  0.00331000  1.0 -0.680930769
O  O8  1  0.12721000  0.38932000  0.49669000  1.0 -0.680930769
O  O9  1  0.95043000  0.50186000  0.42166000  1.0 -0.6433148172
O  O10  1  0.04957000  0.50186000  0.07834000  1.0 -0.6433148172
O  O11  1  0.04957000  0.49814000  0.57834000  1.0 -0.6433148172
O  O12  1  0.95043000  0.49814000  0.92166000  1.0 -0.6433148172
O  O13  1  0.95660000  0.32750000  0.38916000  1.0 -0.6736586329
O  O14  1  0.04340000  0.32750000  0.11084000  1.0 -0.680930769
O  O15  1  0.04340000  0.67250000  0.61084000  1.0 -0.6736586329
O  O16  1  0.95660000  0.67250000  0.88916000  1.0 -0.6736586329
O  O17  1  0.90254000  0.63623000  0.00238000  1.0 -0.618506008
O  O18  1  0.09746000  0.63623000  0.49762000  1.0 -0.618506008
O  O19  1  0.09746000  0.36377000  0.99762000  1.0 -0.618506008
O  O20  1  0.90254000  0.36377000  0.50238000  1.0 -0.618506008
O  O21  1  0.96283000  0.80197000  0.98170000  1.0 -0.6433148172
O  O22  1  0.03717000  0.80197000  0.51830000  1.0 -0.6433148172
O  O23  1  0.03717000  0.19803000  0.01830000  1.0 -0.6433148172
O  O24  1  0.96283000  0.19803000  0.48170000  1.0 -0.6433148172
