# DDEC6 charges by PACMAN v1.1 (https://github.com/mtap-research/PACMAN-charge/)
data_UTEWOG_ASR_pacman
_symmetry_space_group_name_H-M   'P 1'
_cell_length_a   18.54900000
_cell_length_b   18.54900000
_cell_length_c   18.54900000
_cell_angle_alpha   90.00000000
_cell_angle_beta   90.00000000
_cell_angle_gamma   90.00000000
_symmetry_Int_Tables_number   1
_chemical_formula_structural   NiH8(C5N2)2
_chemical_formula_sum   'Ni12 H96 C120 N48'
_cell_volume   6382.06912315
_cell_formula_units_Z   12
loop_
 _symmetry_equiv_pos_site_id
 _symmetry_equiv_pos_as_xyz
  1  'x, y, z'
loop_
 _atom_site_type_symbol
 _atom_site_label
 _atom_site_symmetry_multiplicity
 _atom_site_fract_x
 _atom_site_fract_y
 _atom_site_fract_z
 _atom_site_occupancy
 _atom_site_charge
Ni  Ni1  1  0.00000000  0.38115000  0.50000000  1.0 0.263675062
Ni  Ni2  1  0.61885000  0.00000000  0.50000000  1.0 0.263675062
Ni  Ni3  1  0.00000000  0.61885000  0.50000000  1.0 0.263675062
Ni  Ni4  1  0.50000000  0.00000000  0.38115000  1.0 0.263675062
Ni  Ni5  1  0.38115000  0.00000000  0.50000000  1.0 0.263675062
Ni  Ni6  1  0.00000000  0.50000000  0.38115000  1.0 0.263675062
Ni  Ni7  1  0.50000000  0.00000000  0.61885000  1.0 0.263675062
Ni  Ni8  1  0.00000000  0.50000000  0.61885000  1.0 0.263675062
Ni  Ni9  1  0.38115000  0.50000000  0.00000000  1.0 0.263675062
Ni  Ni10  1  0.50000000  0.61885000  0.00000000  1.0 0.263675062
Ni  Ni11  1  0.50000000  0.38115000  0.00000000  1.0 0.263675062
Ni  Ni12  1  0.61885000  0.50000000  0.00000000  1.0 0.263675062
H  H1  1  0.22844000  0.22733000  0.38183000  1.0 0.1597136085
H  H2  1  0.77267000  0.22844000  0.38183000  1.0 0.1597136085
H  H3  1  0.22844000  0.77267000  0.61817000  1.0 0.1597136085
H  H4  1  0.38183000  0.22844000  0.22733000  1.0 0.1597136085
H  H5  1  0.77156000  0.77267000  0.38183000  1.0 0.1597136085
H  H6  1  0.22733000  0.22844000  0.61817000  1.0 0.1597136085
H  H7  1  0.77156000  0.38183000  0.22733000  1.0 0.1597136085
H  H8  1  0.22733000  0.77156000  0.38183000  1.0 0.1597136085
H  H9  1  0.77156000  0.22733000  0.61817000  1.0 0.1597136085
H  H10  1  0.61817000  0.77156000  0.22733000  1.0 0.1597136085
H  H11  1  0.77267000  0.77156000  0.61817000  1.0 0.1597136085
H  H12  1  0.22844000  0.61817000  0.22733000  1.0 0.1597136085
H  H13  1  0.38183000  0.77156000  0.77267000  1.0 0.1597136085
H  H14  1  0.77156000  0.61817000  0.77267000  1.0 0.1597136085
H  H15  1  0.61817000  0.22844000  0.77267000  1.0 0.1597136085
H  H16  1  0.22844000  0.38183000  0.77267000  1.0 0.1597136085
H  H17  1  0.22733000  0.38183000  0.22844000  1.0 0.1597136085
H  H18  1  0.38183000  0.77267000  0.22844000  1.0 0.1597136085
H  H19  1  0.61817000  0.22733000  0.22844000  1.0 0.1597136085
H  H20  1  0.38183000  0.22733000  0.77156000  1.0 0.1597136085
H  H21  1  0.22733000  0.61817000  0.77156000  1.0 0.1597136085
H  H22  1  0.61817000  0.77267000  0.77156000  1.0 0.1597136085
H  H23  1  0.77267000  0.38183000  0.77156000  1.0 0.1597136085
H  H24  1  0.77267000  0.61817000  0.22844000  1.0 0.1597136085
H  H25  1  0.77156000  0.77267000  0.61817000  1.0 0.1597136085
H  H26  1  0.22733000  0.77156000  0.61817000  1.0 0.1597136085
H  H27  1  0.77156000  0.22733000  0.38183000  1.0 0.1597136085
H  H28  1  0.61817000  0.77156000  0.77267000  1.0 0.1597136085
H  H29  1  0.22844000  0.22733000  0.61817000  1.0 0.1597136085
H  H30  1  0.77267000  0.77156000  0.38183000  1.0 0.1597136085
H  H31  1  0.22844000  0.61817000  0.77267000  1.0 0.1597136085
H  H32  1  0.77267000  0.22844000  0.61817000  1.0 0.1597136085
H  H33  1  0.22844000  0.77267000  0.38183000  1.0 0.1597136085
H  H34  1  0.38183000  0.22844000  0.77267000  1.0 0.1597136085
H  H35  1  0.22733000  0.22844000  0.38183000  1.0 0.1597136085
H  H36  1  0.77156000  0.38183000  0.77267000  1.0 0.1597136085
H  H37  1  0.61817000  0.22844000  0.22733000  1.0 0.1597136085
H  H38  1  0.22844000  0.38183000  0.22733000  1.0 0.1597136085
H  H39  1  0.38183000  0.77156000  0.22733000  1.0 0.1597136085
H  H40  1  0.77156000  0.61817000  0.22733000  1.0 0.1597136085
H  H41  1  0.77267000  0.61817000  0.77156000  1.0 0.1597136085
H  H42  1  0.61817000  0.22733000  0.77156000  1.0 0.1597136085
H  H43  1  0.38183000  0.77267000  0.77156000  1.0 0.1597136085
H  H44  1  0.61817000  0.77267000  0.22844000  1.0 0.1597136085
H  H45  1  0.77267000  0.38183000  0.22844000  1.0 0.1597136085
H  H46  1  0.38183000  0.22733000  0.22844000  1.0 0.1597136085
H  H47  1  0.22733000  0.61817000  0.22844000  1.0 0.1597136085
H  H48  1  0.22733000  0.38183000  0.77156000  1.0 0.1597136085
H  H49  1  0.14550000  0.28685000  0.43962000  1.0 0.1071544246
H  H50  1  0.71315000  0.14550000  0.43962000  1.0 0.1071544246
H  H51  1  0.14550000  0.71315000  0.56038000  1.0 0.1071544246
H  H52  1  0.43962000  0.14550000  0.28685000  1.0 0.1071544246
H  H53  1  0.85450000  0.71315000  0.43962000  1.0 0.1071544246
H  H54  1  0.28685000  0.14550000  0.56038000  1.0 0.1071544246
H  H55  1  0.85450000  0.43962000  0.28685000  1.0 0.1071544246
H  H56  1  0.28685000  0.85450000  0.43962000  1.0 0.1071544246
H  H57  1  0.85450000  0.28685000  0.56038000  1.0 0.1071544246
H  H58  1  0.56038000  0.85450000  0.28685000  1.0 0.1071544246
H  H59  1  0.71315000  0.85450000  0.56038000  1.0 0.1071544246
H  H60  1  0.14550000  0.56038000  0.28685000  1.0 0.1071544246
H  H61  1  0.43962000  0.85450000  0.71315000  1.0 0.1071544246
H  H62  1  0.85450000  0.56038000  0.71315000  1.0 0.1071544246
H  H63  1  0.56038000  0.14550000  0.71315000  1.0 0.1071544246
H  H64  1  0.14550000  0.43962000  0.71315000  1.0 0.1071544246
H  H65  1  0.28685000  0.43962000  0.14550000  1.0 0.1071544246
H  H66  1  0.43962000  0.71315000  0.14550000  1.0 0.1071544246
H  H67  1  0.56038000  0.28685000  0.14550000  1.0 0.1071544246
H  H68  1  0.43962000  0.28685000  0.85450000  1.0 0.1071544246
H  H69  1  0.28685000  0.56038000  0.85450000  1.0 0.1071544246
H  H70  1  0.56038000  0.71315000  0.85450000  1.0 0.1071544246
H  H71  1  0.71315000  0.43962000  0.85450000  1.0 0.1071544246
H  H72  1  0.71315000  0.56038000  0.14550000  1.0 0.1071544246
H  H73  1  0.85450000  0.71315000  0.56038000  1.0 0.1071544246
H  H74  1  0.28685000  0.85450000  0.56038000  1.0 0.1071544246
H  H75  1  0.85450000  0.28685000  0.43962000  1.0 0.1071544246
H  H76  1  0.56038000  0.85450000  0.71315000  1.0 0.1071544246
H  H77  1  0.14550000  0.28685000  0.56038000  1.0 0.1071544246
H  H78  1  0.71315000  0.85450000  0.43962000  1.0 0.1071544246
H  H79  1  0.14550000  0.56038000  0.71315000  1.0 0.1071544246
H  H80  1  0.71315000  0.14550000  0.56038000  1.0 0.1071544246
H  H81  1  0.14550000  0.71315000  0.43962000  1.0 0.1071544246
H  H82  1  0.43962000  0.14550000  0.71315000  1.0 0.1071544246
H  H83  1  0.28685000  0.14550000  0.43962000  1.0 0.1071544246
H  H84  1  0.85450000  0.43962000  0.71315000  1.0 0.1071544246
H  H85  1  0.56038000  0.14550000  0.28685000  1.0 0.1071544246
H  H86  1  0.14550000  0.43962000  0.28685000  1.0 0.1071544246
H  H87  1  0.43962000  0.85450000  0.28685000  1.0 0.1071544246
H  H88  1  0.85450000  0.56038000  0.28685000  1.0 0.1071544246
H  H89  1  0.71315000  0.56038000  0.85450000  1.0 0.1071544246
H  H90  1  0.56038000  0.28685000  0.85450000  1.0 0.1071544246
H  H91  1  0.43962000  0.71315000  0.85450000  1.0 0.1071544246
H  H92  1  0.56038000  0.71315000  0.14550000  1.0 0.1071544246
H  H93  1  0.71315000  0.43962000  0.14550000  1.0 0.1071544246
H  H94  1  0.43962000  0.28685000  0.14550000  1.0 0.1071544246
H  H95  1  0.28685000  0.56038000  0.14550000  1.0 0.1071544246
H  H96  1  0.28685000  0.43962000  0.85450000  1.0 0.1071544246
C  C1  1  0.22006000  0.31051000  0.31051000  1.0 0.0185780301
C  C2  1  0.68949000  0.22006000  0.31051000  1.0 0.0185780301
C  C3  1  0.22006000  0.68949000  0.68949000  1.0 0.0185780301
C  C4  1  0.31051000  0.22006000  0.31051000  1.0 0.0185780301
C  C5  1  0.77994000  0.68949000  0.31051000  1.0 0.0185780301
C  C6  1  0.31051000  0.22006000  0.68949000  1.0 0.0185780301
C  C7  1  0.77994000  0.31051000  0.31051000  1.0 0.0185780301
C  C8  1  0.31051000  0.77994000  0.31051000  1.0 0.0185780301
C  C9  1  0.77994000  0.31051000  0.68949000  1.0 0.0185780301
C  C10  1  0.68949000  0.77994000  0.31051000  1.0 0.0185780301
C  C11  1  0.68949000  0.77994000  0.68949000  1.0 0.0185780301
C  C12  1  0.22006000  0.68949000  0.31051000  1.0 0.0185780301
C  C13  1  0.31051000  0.77994000  0.68949000  1.0 0.0185780301
C  C14  1  0.77994000  0.68949000  0.68949000  1.0 0.0185780301
C  C15  1  0.68949000  0.22006000  0.68949000  1.0 0.0185780301
C  C16  1  0.22006000  0.31051000  0.68949000  1.0 0.0185780301
C  C17  1  0.31051000  0.31051000  0.22006000  1.0 0.0185780301
C  C18  1  0.31051000  0.68949000  0.22006000  1.0 0.0185780301
C  C19  1  0.68949000  0.31051000  0.22006000  1.0 0.0185780301
C  C20  1  0.31051000  0.31051000  0.77994000  1.0 0.0185780301
C  C21  1  0.31051000  0.68949000  0.77994000  1.0 0.0185780301
C  C22  1  0.68949000  0.68949000  0.77994000  1.0 0.0185780301
C  C23  1  0.68949000  0.31051000  0.77994000  1.0 0.0185780301
C  C24  1  0.68949000  0.68949000  0.22006000  1.0 0.0185780301
C  C25  1  0.24655000  0.24589000  0.33767000  1.0 -0.261038494
C  C26  1  0.75411000  0.24655000  0.33767000  1.0 -0.261038494
C  C27  1  0.24655000  0.75411000  0.66233000  1.0 -0.261038494
C  C28  1  0.33767000  0.24655000  0.24589000  1.0 -0.261038494
C  C29  1  0.75345000  0.75411000  0.33767000  1.0 -0.261038494
C  C30  1  0.24589000  0.24655000  0.66233000  1.0 -0.261038494
C  C31  1  0.75345000  0.33767000  0.24589000  1.0 -0.261038494
C  C32  1  0.24589000  0.75345000  0.33767000  1.0 -0.261038494
C  C33  1  0.75345000  0.24589000  0.66233000  1.0 -0.261038494
C  C34  1  0.66233000  0.75345000  0.24589000  1.0 -0.261038494
C  C35  1  0.75411000  0.75345000  0.66233000  1.0 -0.261038494
C  C36  1  0.24655000  0.66233000  0.24589000  1.0 -0.261038494
C  C37  1  0.33767000  0.75345000  0.75411000  1.0 -0.261038494
C  C38  1  0.75345000  0.66233000  0.75411000  1.0 -0.261038494
C  C39  1  0.66233000  0.24655000  0.75411000  1.0 -0.261038494
C  C40  1  0.24655000  0.33767000  0.75411000  1.0 -0.261038494
C  C41  1  0.24589000  0.33767000  0.24655000  1.0 -0.261038494
C  C42  1  0.33767000  0.75411000  0.24655000  1.0 -0.261038494
C  C43  1  0.66233000  0.24589000  0.24655000  1.0 -0.261038494
C  C44  1  0.33767000  0.24589000  0.75345000  1.0 -0.261038494
C  C45  1  0.24589000  0.66233000  0.75345000  1.0 -0.261038494
C  C46  1  0.66233000  0.75411000  0.75345000  1.0 -0.261038494
C  C47  1  0.75411000  0.33767000  0.75345000  1.0 -0.261038494
C  C48  1  0.75411000  0.66233000  0.24655000  1.0 -0.261038494
C  C49  1  0.16478000  0.34960000  0.34960000  1.0 -0.0397431576
C  C50  1  0.65040000  0.16478000  0.34960000  1.0 -0.0397431576
C  C51  1  0.16478000  0.65040000  0.65040000  1.0 -0.0397431576
C  C52  1  0.34960000  0.16478000  0.34960000  1.0 -0.0397431576
C  C53  1  0.83522000  0.65040000  0.34960000  1.0 -0.0397431576
C  C54  1  0.34960000  0.16478000  0.65040000  1.0 -0.0397431576
C  C55  1  0.83522000  0.34960000  0.34960000  1.0 -0.0397431576
C  C56  1  0.34960000  0.83522000  0.34960000  1.0 -0.0397431576
C  C57  1  0.83522000  0.34960000  0.65040000  1.0 -0.0397431576
C  C58  1  0.65040000  0.83522000  0.34960000  1.0 -0.0397431576
C  C59  1  0.65040000  0.83522000  0.65040000  1.0 -0.0397431576
C  C60  1  0.16478000  0.65040000  0.34960000  1.0 -0.0397431576
C  C61  1  0.34960000  0.83522000  0.65040000  1.0 -0.0397431576
C  C62  1  0.83522000  0.65040000  0.65040000  1.0 -0.0397431576
C  C63  1  0.65040000  0.16478000  0.65040000  1.0 -0.0397431576
C  C64  1  0.16478000  0.34960000  0.65040000  1.0 -0.0397431576
C  C65  1  0.34960000  0.34960000  0.16478000  1.0 -0.0397431576
C  C66  1  0.34960000  0.65040000  0.16478000  1.0 -0.0397431576
C  C67  1  0.65040000  0.34960000  0.16478000  1.0 -0.0397431576
C  C68  1  0.34960000  0.34960000  0.83522000  1.0 -0.0397431576
C  C69  1  0.34960000  0.65040000  0.83522000  1.0 -0.0397431576
C  C70  1  0.65040000  0.65040000  0.83522000  1.0 -0.0397431576
C  C71  1  0.65040000  0.34960000  0.83522000  1.0 -0.0397431576
C  C72  1  0.65040000  0.65040000  0.16478000  1.0 -0.0397431576
C  C73  1  0.13431000  0.32920000  0.41309000  1.0 -0.0840177014
C  C74  1  0.67080000  0.13431000  0.41309000  1.0 -0.0840177014
C  C75  1  0.13431000  0.67080000  0.58691000  1.0 -0.0840177014
C  C76  1  0.41309000  0.13431000  0.32920000  1.0 -0.0840177014
C  C77  1  0.86569000  0.67080000  0.41309000  1.0 -0.0840177014
C  C78  1  0.32920000  0.13431000  0.58691000  1.0 -0.0840177014
C  C79  1  0.86569000  0.41309000  0.32920000  1.0 -0.0840177014
C  C80  1  0.32920000  0.86569000  0.41309000  1.0 -0.0840177014
C  C81  1  0.86569000  0.32920000  0.58691000  1.0 -0.0840177014
C  C82  1  0.58691000  0.86569000  0.32920000  1.0 -0.0840177014
C  C83  1  0.67080000  0.86569000  0.58691000  1.0 -0.0840177014
C  C84  1  0.13431000  0.58691000  0.32920000  1.0 -0.0840177014
C  C85  1  0.41309000  0.86569000  0.67080000  1.0 -0.0840177014
C  C86  1  0.86569000  0.58691000  0.67080000  1.0 -0.0840177014
C  C87  1  0.58691000  0.13431000  0.67080000  1.0 -0.0840177014
C  C88  1  0.13431000  0.41309000  0.67080000  1.0 -0.0840177014
C  C89  1  0.32920000  0.41309000  0.13431000  1.0 -0.0840177014
C  C90  1  0.41309000  0.67080000  0.13431000  1.0 -0.0840177014
C  C91  1  0.58691000  0.32920000  0.13431000  1.0 -0.0840177014
C  C92  1  0.41309000  0.32920000  0.86569000  1.0 -0.0840177014
C  C93  1  0.32920000  0.58691000  0.86569000  1.0 -0.0840177014
C  C94  1  0.58691000  0.67080000  0.86569000  1.0 -0.0840177014
C  C95  1  0.67080000  0.41309000  0.86569000  1.0 -0.0840177014
C  C96  1  0.67080000  0.58691000  0.13431000  1.0 -0.0840177014
C  C97  1  0.86569000  0.67080000  0.58691000  1.0 -0.0840177014
C  C98  1  0.32920000  0.86569000  0.58691000  1.0 -0.0840177014
C  C99  1  0.86569000  0.32920000  0.41309000  1.0 -0.0840177014
C  C100  1  0.58691000  0.86569000  0.67080000  1.0 -0.0840177014
C  C101  1  0.13431000  0.32920000  0.58691000  1.0 -0.0840177014
C  C102  1  0.67080000  0.86569000  0.41309000  1.0 -0.0840177014
C  C103  1  0.13431000  0.58691000  0.67080000  1.0 -0.0840177014
C  C104  1  0.67080000  0.13431000  0.58691000  1.0 -0.0840177014
C  C105  1  0.13431000  0.67080000  0.41309000  1.0 -0.0840177014
C  C106  1  0.41309000  0.13431000  0.67080000  1.0 -0.0840177014
C  C107  1  0.32920000  0.13431000  0.41309000  1.0 -0.0840177014
C  C108  1  0.86569000  0.41309000  0.67080000  1.0 -0.0840177014
C  C109  1  0.58691000  0.13431000  0.32920000  1.0 -0.0840177014
C  C110  1  0.13431000  0.41309000  0.32920000  1.0 -0.0840177014
C  C111  1  0.41309000  0.86569000  0.32920000  1.0 -0.0840177014
C  C112  1  0.86569000  0.58691000  0.32920000  1.0 -0.0840177014
C  C113  1  0.67080000  0.58691000  0.86569000  1.0 -0.0840177014
C  C114  1  0.58691000  0.32920000  0.86569000  1.0 -0.0840177014
C  C115  1  0.41309000  0.67080000  0.86569000  1.0 -0.0840177014
C  C116  1  0.58691000  0.67080000  0.13431000  1.0 -0.0840177014
C  C117  1  0.67080000  0.41309000  0.13431000  1.0 -0.0840177014
C  C118  1  0.41309000  0.32920000  0.13431000  1.0 -0.0840177014
C  C119  1  0.32920000  0.58691000  0.13431000  1.0 -0.0840177014
C  C120  1  0.32920000  0.41309000  0.86569000  1.0 -0.0840177014
N  N1  1  0.08500000  0.38009000  0.43193000  1.0 -0.1076672865
N  N2  1  0.61991000  0.08500000  0.43193000  1.0 -0.1076672865
N  N3  1  0.08500000  0.61991000  0.56807000  1.0 -0.1076672865
N  N4  1  0.43193000  0.08500000  0.38009000  1.0 -0.1076672865
N  N5  1  0.91500000  0.61991000  0.43193000  1.0 -0.1076672865
N  N6  1  0.38009000  0.08500000  0.56807000  1.0 -0.1076672865
N  N7  1  0.91500000  0.43193000  0.38009000  1.0 -0.1076672865
N  N8  1  0.38009000  0.91500000  0.43193000  1.0 -0.1076672865
N  N9  1  0.91500000  0.38009000  0.56807000  1.0 -0.1076672865
N  N10  1  0.56807000  0.91500000  0.38009000  1.0 -0.1076672865
N  N11  1  0.61991000  0.91500000  0.56807000  1.0 -0.1076672865
N  N12  1  0.08500000  0.56807000  0.38009000  1.0 -0.1076672865
N  N13  1  0.43193000  0.91500000  0.61991000  1.0 -0.1076672865
N  N14  1  0.91500000  0.56807000  0.61991000  1.0 -0.1076672865
N  N15  1  0.56807000  0.08500000  0.61991000  1.0 -0.1076672865
N  N16  1  0.08500000  0.43193000  0.61991000  1.0 -0.1076672865
N  N17  1  0.38009000  0.43193000  0.08500000  1.0 -0.1076672865
N  N18  1  0.43193000  0.61991000  0.08500000  1.0 -0.1076672865
N  N19  1  0.56807000  0.38009000  0.08500000  1.0 -0.1076672865
N  N20  1  0.43193000  0.38009000  0.91500000  1.0 -0.1076672865
N  N21  1  0.38009000  0.56807000  0.91500000  1.0 -0.1076672865
N  N22  1  0.56807000  0.61991000  0.91500000  1.0 -0.1076672865
N  N23  1  0.61991000  0.43193000  0.91500000  1.0 -0.1076672865
N  N24  1  0.61991000  0.56807000  0.08500000  1.0 -0.1076672865
N  N25  1  0.91500000  0.61991000  0.56807000  1.0 -0.1076672865
N  N26  1  0.38009000  0.91500000  0.56807000  1.0 -0.1076672865
N  N27  1  0.91500000  0.38009000  0.43193000  1.0 -0.1076672865
N  N28  1  0.56807000  0.91500000  0.61991000  1.0 -0.1076672865
N  N29  1  0.08500000  0.38009000  0.56807000  1.0 -0.1076672865
N  N30  1  0.61991000  0.91500000  0.43193000  1.0 -0.1076672865
N  N31  1  0.08500000  0.56807000  0.61991000  1.0 -0.1076672865
N  N32  1  0.61991000  0.08500000  0.56807000  1.0 -0.1076672865
N  N33  1  0.08500000  0.61991000  0.43193000  1.0 -0.1076672865
N  N34  1  0.43193000  0.08500000  0.61991000  1.0 -0.1076672865
N  N35  1  0.38009000  0.08500000  0.43193000  1.0 -0.1076672865
N  N36  1  0.91500000  0.43193000  0.61991000  1.0 -0.1076672865
N  N37  1  0.56807000  0.08500000  0.38009000  1.0 -0.1076672865
N  N38  1  0.08500000  0.43193000  0.38009000  1.0 -0.1076672865
N  N39  1  0.43193000  0.91500000  0.38009000  1.0 -0.1076672865
N  N40  1  0.91500000  0.56807000  0.38009000  1.0 -0.1076672865
N  N41  1  0.61991000  0.56807000  0.91500000  1.0 -0.1076672865
N  N42  1  0.56807000  0.38009000  0.91500000  1.0 -0.1076672865
N  N43  1  0.43193000  0.61991000  0.91500000  1.0 -0.1076672865
N  N44  1  0.56807000  0.61991000  0.08500000  1.0 -0.1076672865
N  N45  1  0.61991000  0.43193000  0.08500000  1.0 -0.1076672865
N  N46  1  0.43193000  0.38009000  0.08500000  1.0 -0.1076672865
N  N47  1  0.38009000  0.56807000  0.08500000  1.0 -0.1076672865
N  N48  1  0.38009000  0.43193000  0.91500000  1.0 -0.1076672865
