# DDEC6 charges by PACMAN v1.1 (https://github.com/mtap-research/PACMAN-charge/)
data_UTOCAJ_ASR_pacman
_symmetry_space_group_name_H-M   'P 1'
_cell_length_a   16.06490000
_cell_length_b   16.06490000
_cell_length_c   16.06490000
_cell_angle_alpha   137.35000000
_cell_angle_beta   137.35000000
_cell_angle_gamma   61.90070000
_symmetry_Int_Tables_number   1
_chemical_formula_structural   Li5H20C20(N4O)4
_chemical_formula_sum   'Li10 H40 C40 N32 O8'
_cell_volume   1880.92380181
_cell_formula_units_Z   2
loop_
 _symmetry_equiv_pos_site_id
 _symmetry_equiv_pos_as_xyz
  1  'x, y, z'
loop_
 _atom_site_type_symbol
 _atom_site_label
 _atom_site_symmetry_multiplicity
 _atom_site_fract_x
 _atom_site_fract_y
 _atom_site_fract_z
 _atom_site_occupancy
 _atom_site_charge
Li  Li1  1  0.25000000  0.75000000  0.50000000  1.0 0.7781171229
Li  Li2  1  0.50000000  0.50000000  0.00000000  1.0 0.7781171229
Li  Li3  1  0.23970000  0.93640000  0.76270000  1.0 0.55061392
Li  Li4  1  0.17370000  0.47700000  0.23730000  1.0 0.55061392
Li  Li5  1  0.68640000  0.42370000  0.19670000  1.0 0.55061392
Li  Li6  1  0.22700000  0.48970000  0.80330000  1.0 0.55061392
Li  Li7  1  0.51030000  0.31360000  0.73730000  1.0 0.55061392
Li  Li8  1  0.57630000  0.77300000  0.26270000  1.0 0.55061392
Li  Li9  1  0.06360000  0.82630000  0.30330000  1.0 0.55061392
Li  Li10  1  0.52300000  0.76030000  0.69670000  1.0 0.55061392
H  H1  1  0.79380000  0.83380000  0.16260000  1.0 0.0695019052
H  H2  1  0.67120000  0.63120000  0.83740000  1.0 0.0695019052
H  H3  1  0.58380000  0.92120000  0.54000000  1.0 0.0695019052
H  H4  1  0.38120000  0.04380000  0.46000000  1.0 0.0695019052
H  H5  1  0.95620000  0.41620000  0.33740000  1.0 0.0695019052
H  H6  1  0.07880000  0.61880000  0.66260000  1.0 0.0695019052
H  H7  1  0.16620000  0.32880000  0.96000000  1.0 0.0695019052
H  H8  1  0.36880000  0.20620000  0.04000000  1.0 0.0695019052
H  H9  1  0.83380000  0.72780000  0.48320000  1.0 0.0999750745
H  H10  1  0.24460000  0.35060000  0.51680000  1.0 0.0999750745
H  H11  1  0.47780000  0.49460000  0.39400000  1.0 0.0999750745
H  H12  1  0.10060000  0.08380000  0.60600000  1.0 0.0999750745
H  H13  1  0.91620000  0.52220000  0.01680000  1.0 0.0999750745
H  H14  1  0.50540000  0.89940000  0.98320000  1.0 0.0999750745
H  H15  1  0.27220000  0.75540000  0.10600000  1.0 0.0999750745
H  H16  1  0.64940000  0.16620000  0.89400000  1.0 0.0999750745
H  H17  1  0.94100000  0.90500000  0.36200000  1.0 0.1582118709
H  H18  1  0.54300000  0.57900000  0.63800000  1.0 0.1582118709
H  H19  1  0.65500000  0.79300000  0.46400000  1.0 0.1582118709
H  H20  1  0.32900000  0.19100000  0.53600000  1.0 0.1582118709
H  H21  1  0.80900000  0.34500000  0.13800000  1.0 0.1582118709
H  H22  1  0.20700000  0.67100000  0.86200000  1.0 0.1582118709
H  H23  1  0.09500000  0.45700000  0.03600000  1.0 0.1582118709
H  H24  1  0.42100000  0.05900000  0.96400000  1.0 0.1582118709
H  H25  1  0.69800000  0.81900000  0.36300000  1.0 0.1977492038
H  H26  1  0.45600000  0.33500000  0.63700000  1.0 0.1977492038
H  H27  1  0.56900000  0.70600000  0.62100000  1.0 0.1977492038
H  H28  1  0.08500000  0.94800000  0.37900000  1.0 0.1977492038
H  H29  1  0.05200000  0.43100000  0.13700000  1.0 0.1977492038
H  H30  1  0.29400000  0.91500000  0.86300000  1.0 0.1977492038
H  H31  1  0.18100000  0.54400000  0.87900000  1.0 0.1977492038
H  H32  1  0.66500000  0.30200000  0.12100000  1.0 0.1977492038
H  H33  1  0.02400000  0.74400000  0.57200000  1.0 0.258706319
H  H34  1  0.17200000  0.45200000  0.42800000  1.0 0.258706319
H  H35  1  0.49400000  0.42200000  0.22000000  1.0 0.258706319
H  H36  1  0.20200000  0.27400000  0.78000000  1.0 0.258706319
H  H37  1  0.72600000  0.50600000  0.92800000  1.0 0.258706319
H  H38  1  0.57800000  0.79800000  0.07200000  1.0 0.258706319
H  H39  1  0.25600000  0.82800000  0.28000000  1.0 0.258706319
H  H40  1  0.54800000  0.97600000  0.72000000  1.0 0.258706319
C  C1  1  0.82936000  0.82426000  0.23350000  1.0 0.1229675774
C  C2  1  0.59076000  0.59586000  0.76650000  1.0 0.1229675774
C  C3  1  0.57426000  0.84076000  0.49490000  1.0 0.1229675774
C  C4  1  0.34586000  0.07936000  0.50510000  1.0 0.1229675774
C  C5  1  0.92064000  0.42574000  0.26650000  1.0 0.1229675774
C  C6  1  0.15924000  0.65414000  0.73350000  1.0 0.1229675774
C  C7  1  0.17574000  0.40924000  0.00510000  1.0 0.1229675774
C  C8  1  0.40414000  0.17064000  0.99490000  1.0 0.1229675774
C  C9  1  0.80804000  0.78704000  0.32620000  1.0 0.2353351441
C  C10  1  0.46084000  0.48184000  0.67380000  1.0 0.2353351441
C  C11  1  0.53704000  0.71084000  0.47900000  1.0 0.2353351441
C  C12  1  0.23184000  0.05804000  0.52100000  1.0 0.2353351441
C  C13  1  0.94196000  0.46296000  0.17380000  1.0 0.2353351441
C  C14  1  0.28916000  0.76816000  0.82620000  1.0 0.2353351441
C  C15  1  0.21296000  0.53916000  0.02100000  1.0 0.2353351441
C  C16  1  0.51816000  0.19196000  0.97900000  1.0 0.2353351441
C  C17  1  0.93427000  0.78607000  0.42480000  1.0 -0.0959187384
C  C18  1  0.36127000  0.50947000  0.57520000  1.0 -0.0959187384
C  C19  1  0.53607000  0.61127000  0.35180000  1.0 -0.0959187384
C  C20  1  0.25947000  0.18427000  0.64820000  1.0 -0.0959187384
C  C21  1  0.81573000  0.46393000  0.07520000  1.0 -0.0959187384
C  C22  1  0.38873000  0.74053000  0.92480000  1.0 -0.0959187384
C  C23  1  0.21393000  0.63873000  0.14820000  1.0 -0.0959187384
C  C24  1  0.49053000  0.06573000  0.85180000  1.0 -0.0959187384
C  C25  1  0.01338000  0.81358000  0.43400000  1.0 0.3924271938
C  C26  1  0.37958000  0.57938000  0.56600000  1.0 0.3924271938
C  C27  1  0.56358000  0.62958000  0.30020000  1.0 0.3924271938
C  C28  1  0.32938000  0.26338000  0.69980000  1.0 0.3924271938
C  C29  1  0.73662000  0.43642000  0.06600000  1.0 0.3924271938
C  C30  1  0.37042000  0.67062000  0.93400000  1.0 0.3924271938
C  C31  1  0.18642000  0.62042000  0.19980000  1.0 0.3924271938
C  C32  1  0.42062000  0.98662000  0.80020000  1.0 0.3924271938
C  C33  1  0.84483000  0.74663000  0.44900000  1.0 0.0758935209
C  C34  1  0.29763000  0.39583000  0.55100000  1.0 0.0758935209
C  C35  1  0.49663000  0.54763000  0.40180000  1.0 0.0695019052
C  C36  1  0.14583000  0.09483000  0.59820000  1.0 0.0758935209
C  C37  1  0.90517000  0.50337000  0.05100000  1.0 0.0695019052
C  C38  1  0.45237000  0.85417000  0.94900000  1.0 0.0758935209
C  C39  1  0.25337000  0.70237000  0.09820000  1.0 0.0695019052
C  C40  1  0.60417000  0.15517000  0.90180000  1.0 0.0758935209
N  N1  1  0.95311000  0.82891000  0.32800000  1.0 -0.4915894169
N  N2  1  0.50091000  0.62511000  0.67200000  1.0 -0.4915894169
N  N3  1  0.57891000  0.75091000  0.37580000  1.0 -0.4915894169
N  N4  1  0.37511000  0.20311000  0.62420000  1.0 -0.4915894169
N  N5  1  0.79689000  0.42109000  0.17200000  1.0 -0.4915894169
N  N6  1  0.24909000  0.62489000  0.82800000  1.0 -0.4915894169
N  N7  1  0.17109000  0.49909000  0.12420000  1.0 -0.4915894169
N  N8  1  0.37489000  0.04689000  0.87580000  1.0 -0.4915894169
N  N9  1  0.75081000  0.80791000  0.22670000  1.0 -0.4372407172
N  N10  1  0.58121000  0.52411000  0.77330000  1.0 -0.4372407172
N  N11  1  0.55791000  0.83121000  0.55710000  1.0 -0.4372407172
N  N12  1  0.27411000  0.00081000  0.44290000  1.0 -0.4372407172
N  N13  1  0.99919000  0.44209000  0.27330000  1.0 -0.4372407172
N  N14  1  0.16879000  0.72589000  0.72670000  1.0 -0.4372407172
N  N15  1  0.19209000  0.41879000  0.94290000  1.0 -0.4372407172
N  N16  1  0.47589000  0.24919000  0.05710000  1.0 -0.4372407172
N  N17  1  0.75154000  0.76274000  0.34220000  1.0 -0.4239482369
N  N18  1  0.42054000  0.40934000  0.65780000  1.0 -0.4239482369
N  N19  1  0.51274000  0.67054000  0.51120000  1.0 -0.4239482369
N  N20  1  0.15934000  0.00154000  0.48880000  1.0 -0.4239482369
N  N21  1  0.99846000  0.48726000  0.15780000  1.0 -0.4239482369
N  N22  1  0.32946000  0.84066000  0.84220000  1.0 -0.4239482369
N  N23  1  0.23726000  0.57946000  0.98880000  1.0 -0.4239482369
N  N24  1  0.59066000  0.24846000  0.01120000  1.0 -0.4239482369
N  N25  1  0.95570000  0.75950000  0.50300000  1.0 -0.2212214574
N  N26  1  0.25650000  0.45270000  0.49700000  1.0 -0.2212214574
N  N27  1  0.50950000  0.50650000  0.30380000  1.0 -0.2212214574
N  N28  1  0.20270000  0.20570000  0.69620000  1.0 -0.2212214574
N  N29  1  0.79430000  0.49050000  0.99700000  1.0 -0.2212214574
N  N30  1  0.49350000  0.79730000  0.00300000  1.0 -0.2212214574
N  N31  1  0.24050000  0.74350000  0.19620000  1.0 -0.2212214574
N  N32  1  0.54730000  0.04430000  0.80380000  1.0 -0.2212214574
O  O1  1  0.13025000  0.82435000  0.52990000  1.0 -0.6835955877
O  O2  1  0.29445000  0.60035000  0.47010000  1.0 -0.6835955877
O  O3  1  0.57435000  0.54445000  0.19410000  1.0 -0.6835955877
O  O4  1  0.35035000  0.38025000  0.80590000  1.0 -0.6835955877
O  O5  1  0.61975000  0.42565000  0.97010000  1.0 -0.6835955877
O  O6  1  0.45555000  0.64965000  0.02990000  1.0 -0.6835955877
O  O7  1  0.17565000  0.70555000  0.30590000  1.0 -0.6835955877
O  O8  1  0.39965000  0.86975000  0.69410000  1.0 -0.6835955877
