# DDEC6 charges by PACMAN v1.1 (https://github.com/mtap-research/PACMAN-charge/)
data_UVANUC_ion_pacman
_symmetry_space_group_name_H-M   'P 1'
_cell_length_a   9.37650000
_cell_length_b   10.08070000
_cell_length_c   18.62900000
_cell_angle_alpha   93.52900000
_cell_angle_beta   89.11200000
_cell_angle_gamma   105.24800000
_symmetry_Int_Tables_number   1
_chemical_formula_structural   Cd2H30C26(NO5)3
_chemical_formula_sum   'Cd4 H60 C52 N6 O30'
_cell_volume   1695.63470701
_cell_formula_units_Z   2
loop_
 _symmetry_equiv_pos_site_id
 _symmetry_equiv_pos_as_xyz
  1  'x, y, z'
loop_
 _atom_site_type_symbol
 _atom_site_label
 _atom_site_symmetry_multiplicity
 _atom_site_fract_x
 _atom_site_fract_y
 _atom_site_fract_z
 _atom_site_occupancy
 _atom_site_charge
Cd  Cd1  1  0.47728000  0.82389000  0.22359000  1.0 0.9212167473
Cd  Cd2  1  0.52272000  0.17611000  0.77641000  1.0 0.9212167473
Cd  Cd3  1  0.51337000  0.41541000  0.25555000  1.0 0.8732714565
Cd  Cd4  1  0.48663000  0.58459000  0.74445000  1.0 0.8732714565
H  H1  1  0.98940000  0.09640000  0.21260000  1.0 0.1208758986
H  H2  1  0.01060000  0.90360000  0.78740000  1.0 0.1208758986
H  H3  1  0.92590000  0.69530000  0.14980000  1.0 0.1208758986
H  H4  1  0.07410000  0.30470000  0.85020000  1.0 0.1208758986
H  H5  1  0.35980000  0.85600000  0.04540000  1.0 0.0729515017
H  H6  1  0.64020000  0.14400000  0.95460000  1.0 0.0729515017
H  H7  1  0.60380000  0.86740000  0.07540000  1.0 0.1106433333
H  H8  1  0.39620000  0.13260000  0.92460000  1.0 0.1106433333
H  H9  1  0.64800000  0.03230000  0.07610000  1.0 0.1208758986
H  H10  1  0.35200000  0.96770000  0.92390000  1.0 0.1208758986
H  H11  1  0.27780000  0.05440000  0.03380000  1.0 0.1106433333
H  H12  1  0.72220000  0.94560000  0.96620000  1.0 0.1106433333
H  H13  1  0.44120000  0.15070000  0.04840000  1.0 0.1208758986
H  H14  1  0.55880000  0.84930000  0.95160000  1.0 0.1208758986
H  H15  1  0.02850000  0.57190000  0.28970000  1.0 0.1379291327
H  H16  1  0.97150000  0.42810000  0.71030000  1.0 0.1379291327
H  H17  1  0.88510000  0.17760000  0.34230000  1.0 0.1379291327
H  H18  1  0.11490000  0.82240000  0.65770000  1.0 0.1379291327
H  H19  1  0.43350000  0.56930000  0.41600000  1.0 0.0881465287
H  H20  1  0.56650000  0.43070000  0.58400000  1.0 0.0881465287
H  H21  1  0.65250000  0.50320000  0.39720000  1.0 0.1208758986
H  H22  1  0.34750000  0.49680000  0.60280000  1.0 0.1208758986
H  H23  1  0.59580000  0.37630000  0.44740000  1.0 0.1286664964
H  H24  1  0.40420000  0.62370000  0.55260000  1.0 0.1286664964
H  H25  1  0.33750000  0.33840000  0.50360000  1.0 0.1286664964
H  H26  1  0.66250000  0.66160000  0.49640000  1.0 0.1286664964
H  H27  1  0.24120000  0.44200000  0.48580000  1.0 0.1208758986
H  H28  1  0.75880000  0.55800000  0.51420000  1.0 0.1208758986
H  H29  1  0.43830000  0.05590000  0.16030000  1.0 0.2688310654
H  H30  1  0.56170000  0.94410000  0.83970000  1.0 0.2688310654
H  H31  1  0.37060000  0.28220000  0.37820000  1.0 0.2688310654
H  H32  1  0.62940000  0.71780000  0.62180000  1.0 0.2688310654
H  H33  1  0.55200000  0.07500000  0.30900000  1.0 0.346472329
H  H34  1  0.44800000  0.92500000  0.69100000  1.0 0.346472329
H  H35  1  0.41400000  0.02700000  0.32700000  1.0 0.346472329
H  H36  1  0.58600000  0.97300000  0.67300000  1.0 0.346472329
H  H37  1  0.53900000  0.46000000  0.10900000  1.0 0.1824511499
H  H38  1  0.46100000  0.54000000  0.89100000  1.0 0.1824511499
H  H39  1  0.63300000  0.55800000  0.15000000  1.0 0.2119582356
H  H40  1  0.36700000  0.44200000  0.85000000  1.0 0.2119582356
H  H41  1  0.45500000  0.53300000  0.12700000  1.0 0.1697981381
H  H42  1  0.54500000  0.46700000  0.87300000  1.0 0.1697981381
H  H43  1  0.60400000  0.56100000  0.12500000  1.0 0.1697981381
H  H44  1  0.39600000  0.43900000  0.87500000  1.0 0.1697981381
H  H45  1  0.92880000  0.58500000  0.92120000  1.0 0.2586618574
H  H46  1  0.91860000  0.68580000  0.86900000  1.0 0.2586618574
H  H47  1  0.18560000  0.67350000  0.92600000  1.0 0.1208758986
H  H48  1  0.12820000  0.60670000  0.84810000  1.0 0.1286664964
H  H49  1  0.16880000  0.77030000  0.86340000  1.0 0.1286664964
H  H50  1  0.99730000  0.86360000  0.94890000  1.0 0.1208758986
H  H51  1  0.85970000  0.75440000  0.98170000  1.0 0.1208758986
H  H52  1  0.02450000  0.75960000  0.00540000  1.0 0.1208758986
H  H53  1  0.07120000  0.41500000  0.07880000  1.0 0.2586618574
H  H54  1  0.08140000  0.31420000  0.13100000  1.0 0.2586618574
H  H55  1  0.81440000  0.32650000  0.07400000  1.0 0.1208758986
H  H56  1  0.87180000  0.39330000  0.15190000  1.0 0.1208758986
H  H57  1  0.83120000  0.22970000  0.13660000  1.0 0.1286664964
H  H58  1  0.00270000  0.13640000  0.05110000  1.0 0.1208758986
H  H59  1  0.14030000  0.24560000  0.01830000  1.0 0.1208758986
H  H60  1  0.97550000  0.24040000  0.99460000  1.0 0.1208758986
C  C1  1  0.23710000  0.93580000  0.15890000  1.0 0.1697981381
C  C2  1  0.76290000  0.06420000  0.84110000  1.0 0.1697981381
C  C3  1  0.17960000  0.04600000  0.18300000  1.0 -0.0988541036
C  C4  1  0.82040000  0.95400000  0.81700000  1.0 -0.0988541036
C  C5  1  0.02830000  0.02210000  0.19570000  1.0 -0.0895323171
C  C6  1  0.97170000  0.97790000  0.80430000  1.0 -0.0895323171
C  C7  1  0.93400000  0.89170000  0.18410000  1.0 -0.0243958044
C  C8  1  0.06600000  0.10830000  0.81590000  1.0 -0.0243958044
C  C9  1  0.99100000  0.78420000  0.15910000  1.0 -0.0895323171
C  C10  1  0.00900000  0.21580000  0.84090000  1.0 -0.0895323171
C  C11  1  0.14200000  0.80370000  0.14700000  1.0 -0.0988541036
C  C12  1  0.85800000  0.19630000  0.85300000  1.0 -0.0988541036
C  C13  1  0.27480000  0.19070000  0.19520000  1.0 0.5527286143
C  C14  1  0.72520000  0.80930000  0.80480000  1.0 0.5527286143
C  C15  1  0.77080000  0.87090000  0.19660000  1.0 0.5395696671
C  C16  1  0.22920000  0.12910000  0.80340000  1.0 0.5395696671
C  C17  1  0.19470000  0.68160000  0.11880000  1.0 0.5635757954
C  C18  1  0.80530000  0.31840000  0.88120000  1.0 0.5635757954
C  C19  1  0.42290000  0.94610000  0.06560000  1.0 0.147188148
C  C20  1  0.57710000  0.05390000  0.93440000  1.0 0.147188148
C  C21  1  0.58300000  0.94700000  0.05310000  1.0 -0.2057666047
C  C22  1  0.41700000  0.05300000  0.94690000  1.0 -0.2057666047
C  C23  1  0.38420000  0.06050000  0.02680000  1.0 -0.2057666047
C  C24  1  0.61580000  0.93950000  0.97320000  1.0 -0.2057666047
C  C25  1  0.22450000  0.37450000  0.34700000  1.0 0.1697981381
C  C26  1  0.77550000  0.62550000  0.65300000  1.0 0.1697981381
C  C27  1  0.19340000  0.49190000  0.32141000  1.0 -0.0988541036
C  C28  1  0.80660000  0.50810000  0.67859000  1.0 -0.0988541036
C  C29  1  0.04890000  0.49140000  0.30610000  1.0 -0.0895323171
C  C30  1  0.95110000  0.50860000  0.69390000  1.0 -0.0895323171
C  C31  1  0.93400000  0.37480000  0.31450000  1.0 -0.0243958044
C  C32  1  0.06600000  0.62520000  0.68550000  1.0 -0.0243958044
C  C33  1  0.96390000  0.25810000  0.33780000  1.0 -0.0895323171
C  C34  1  0.03610000  0.74190000  0.66220000  1.0 -0.0895323171
C  C35  1  0.10710000  0.25500000  0.35495000  1.0 -0.0895323171
C  C36  1  0.89290000  0.74500000  0.64505000  1.0 -0.0895323171
C  C37  1  0.30860000  0.61760000  0.30040000  1.0 0.5698790462
C  C38  1  0.69140000  0.38240000  0.69960000  1.0 0.5698790462
C  C39  1  0.77850000  0.37770000  0.29700000  1.0 0.5395696671
C  C40  1  0.22150000  0.62230000  0.70300000  1.0 0.5395696671
C  C41  1  0.13000000  0.12270000  0.38070000  1.0 0.5527286143
C  C42  1  0.87000000  0.87730000  0.61930000  1.0 0.5527286143
C  C43  1  0.43490000  0.47400000  0.42730000  1.0 0.1286664964
C  C44  1  0.56510000  0.52600000  0.57270000  1.0 0.1286664964
C  C45  1  0.59220000  0.47180000  0.44010000  1.0 -0.2005112508
C  C46  1  0.40780000  0.52820000  0.55990000  1.0 -0.2005112508
C  C47  1  0.34300000  0.43520000  0.49410000  1.0 -0.2005112508
C  C48  1  0.65700000  0.56480000  0.50590000  1.0 -0.2005112508
C  C49  1  0.12680000  0.68130000  0.88420000  1.0 -0.2919046371
C  C50  1  0.96240000  0.77020000  0.96550000  1.0 -0.2919046371
C  C51  1  0.87320000  0.31870000  0.11580000  1.0 -0.2919046371
C  C52  1  0.03760000  0.22980000  0.03450000  1.0 -0.2919046371
N  N1  1  0.39130000  0.95780000  0.14417000  1.0 -0.4433893054
N  N2  1  0.60870000  0.04220000  0.85583000  1.0 -0.4433893054
N  N3  1  0.37210000  0.37690000  0.36438000  1.0 -0.4262394993
N  N4  1  0.62790000  0.62310000  0.63562000  1.0 -0.4262394993
N  N5  1  0.97090000  0.67140000  0.90710000  1.0 -0.1130474373
N  N6  1  0.02910000  0.32860000  0.09290000  1.0 -0.1130474373
O  O1  1  0.40940000  0.20350000  0.21149000  1.0 -0.5305212824
O  O2  1  0.59060000  0.79650000  0.78851000  1.0 -0.5305212824
O  O3  1  0.22090000  0.29000000  0.19134000  1.0 -0.5305212824
O  O4  1  0.77910000  0.71000000  0.80866000  1.0 -0.5305212824
O  O5  1  0.72530000  0.96920000  0.22210000  1.0 -0.495691338
O  O6  1  0.27470000  0.03080000  0.77790000  1.0 -0.495691338
O  O7  1  0.68410000  0.75460000  0.17975000  1.0 -0.5611027269
O  O8  1  0.31590000  0.24540000  0.82025000  1.0 -0.5611027269
O  O9  1  0.10960000  0.59860000  0.07557000  1.0 -0.5411308397
O  O10  1  0.89040000  0.40140000  0.92443000  1.0 -0.5411308397
O  O11  1  0.31690000  0.66730000  0.13946000  1.0 -0.5611027269
O  O12  1  0.68310000  0.33270000  0.86054000  1.0 -0.5611027269
O  O13  1  0.43660000  0.60820000  0.27882000  1.0 -0.571963021
O  O14  1  0.56340000  0.39180000  0.72118000  1.0 -0.571963021
O  O15  1  0.27500000  0.72830000  0.29937000  1.0 -0.4601970403
O  O16  1  0.72500000  0.27170000  0.70063000  1.0 -0.4601970403
O  O17  1  0.75890000  0.48790000  0.27480000  1.0 -0.5411308397
O  O18  1  0.24110000  0.51210000  0.72520000  1.0 -0.5411308397
O  O19  1  0.67440000  0.27470000  0.30603000  1.0 -0.5155133991
O  O20  1  0.32560000  0.72530000  0.69397000  1.0 -0.5155133991
O  O21  1  0.01780000  0.03630000  0.40230000  1.0 -0.4919571965
O  O22  1  0.98220000  0.96370000  0.59770000  1.0 -0.4919571965
O  O23  1  0.25740000  0.10370000  0.37930000  1.0 -0.5411308397
O  O24  1  0.74260000  0.89630000  0.62070000  1.0 -0.5411308397
O  O25  1  0.48720000  0.00190000  0.31369000  1.0 -0.6338785975
O  O26  1  0.51280000  0.99810000  0.68631000  1.0 -0.6338785975
O  O27  1  0.60090000  0.47200000  0.14390000  1.0 -0.2392902164
O  O28  1  0.39910000  0.52800000  0.85610000  1.0 -0.2392902164
O  O29  1  0.52820000  0.50200000  0.13690000  1.0 -0.2005112508
O  O30  1  0.47180000  0.49800000  0.86310000  1.0 -0.2005112508
