# DDEC6 charges by PACMAN v1.1 (https://github.com/mtap-research/PACMAN-charge/)
data_UVONEB_FSR_pacman
_symmetry_space_group_name_H-M   'P 1'
_cell_length_a   7.43500000
_cell_length_b   25.58000000
_cell_length_c   19.76040000
_cell_angle_alpha   90.00000000
_cell_angle_beta   106.60900000
_cell_angle_gamma   90.00000000
_symmetry_Int_Tables_number   1
_chemical_formula_structural   KLaH21C28(SO5)4
_chemical_formula_sum   'K4 La4 H84 C112 S16 O80'
_cell_volume   3601.37728001
_cell_formula_units_Z   4
loop_
 _symmetry_equiv_pos_site_id
 _symmetry_equiv_pos_as_xyz
  1  'x, y, z'
loop_
 _atom_site_type_symbol
 _atom_site_label
 _atom_site_symmetry_multiplicity
 _atom_site_fract_x
 _atom_site_fract_y
 _atom_site_fract_z
 _atom_site_occupancy
 _atom_site_charge
K  K1  1  0.73739000  0.53540000  0.48929000  1.0 0.8928370138
K  K2  1  0.26261000  0.03540000  0.01071000  1.0 0.8928370138
K  K3  1  0.26261000  0.46460000  0.51071000  1.0 0.8928370138
K  K4  1  0.73739000  0.96460000  0.98929000  1.0 0.8928370138
La  La1  1  0.05908000  0.64196000  0.29332000  1.0 1.9394611974
La  La2  1  0.94092000  0.14196000  0.20668000  1.0 1.9394611974
La  La3  1  0.94092000  0.35804000  0.70668000  1.0 1.9394611974
La  La4  1  0.05908000  0.85804000  0.79332000  1.0 1.9394611974
H  H1  1  0.23398000  0.64689000  0.17467000  1.0 0.3260189329
H  H2  1  0.05392000  0.63175000  0.14214000  1.0 0.339229761
H  H3  1  0.02856000  0.53207000  0.34578000  1.0 0.3715255667
H  H4  1  0.84129000  0.54890000  0.32468000  1.0 0.3715255667
H  H5  1  0.41473000  0.68526000  0.27497000  1.0 0.339229761
H  H6  1  0.34272000  0.72601000  0.30376000  1.0 0.3601148684
H  H7  1  0.75944000  0.68066000  0.34803000  1.0 0.3513655597
H  H8  1  0.71299000  0.62988000  0.33300000  1.0 0.3513655597
H  H9  1  0.14605000  0.69954000  0.48215000  1.0 0.1397362712
H  H10  1  0.15586000  0.76385000  0.56579000  1.0 0.1309499522
H  H11  1  0.26120000  0.74417000  0.68551000  1.0 0.1218740105
H  H12  1  0.56663000  0.62057000  0.87688000  1.0 0.1309499522
H  H13  1  0.48093000  0.65580000  0.00713000  1.0 0.1309499522
H  H14  1  0.70466000  0.47572000  0.83078000  1.0 0.1397362712
H  H15  1  0.04041000  0.87932000  0.36014000  1.0 0.1309499522
H  H16  1  0.88861000  0.92605000  0.15914000  1.0 0.1218740105
H  H17  1  0.01560000  0.94396000  0.27627000  1.0 0.1218740105
H  H18  1  0.48026000  0.72104000  0.92619000  1.0 0.1397362712
H  H19  1  0.60285000  0.80195000  0.96431000  1.0 0.1397362712
H  H20  1  0.70113000  0.54032000  0.91317000  1.0 0.1309499522
H  H21  1  0.67083000  0.40206000  0.73267000  1.0 0.271967869
H  H22  1  0.76602000  0.14689000  0.32533000  1.0 0.3260189329
H  H23  1  0.94608000  0.13175000  0.35786000  1.0 0.339229761
H  H24  1  0.97144000  0.03207000  0.15422000  1.0 0.3715255667
H  H25  1  0.15871000  0.04890000  0.17532000  1.0 0.3715255667
H  H26  1  0.58527000  0.18526000  0.22503000  1.0 0.339229761
H  H27  1  0.65728000  0.22601000  0.19624000  1.0 0.3601148684
H  H28  1  0.24056000  0.18066000  0.15197000  1.0 0.3513655597
H  H29  1  0.28701000  0.12988000  0.16700000  1.0 0.3513655597
H  H30  1  0.85395000  0.19954000  0.01785000  1.0 0.1397362712
H  H31  1  0.84414000  0.26385000  0.93421000  1.0 0.1309499522
H  H32  1  0.73880000  0.24417000  0.81449000  1.0 0.1218740105
H  H33  1  0.43337000  0.12057000  0.62312000  1.0 0.1309499522
H  H34  1  0.51907000  0.15580000  0.49287000  1.0 0.1309499522
H  H35  1  0.29534000  0.97572000  0.66922000  1.0 0.1397362712
H  H36  1  0.95959000  0.37932000  0.13986000  1.0 0.1309499522
H  H37  1  0.11139000  0.42605000  0.34086000  1.0 0.1218740105
H  H38  1  0.98440000  0.44396000  0.22373000  1.0 0.1218740105
H  H39  1  0.51974000  0.22104000  0.57381000  1.0 0.1397362712
H  H40  1  0.39715000  0.30195000  0.53569000  1.0 0.1397362712
H  H41  1  0.29887000  0.04032000  0.58683000  1.0 0.1309499522
H  H42  1  0.32917000  0.90206000  0.76733000  1.0 0.271967869
H  H43  1  0.76602000  0.35311000  0.82533000  1.0 0.3260189329
H  H44  1  0.94608000  0.36825000  0.85786000  1.0 0.339229761
H  H45  1  0.97144000  0.46793000  0.65422000  1.0 0.3715255667
H  H46  1  0.15871000  0.45110000  0.67532000  1.0 0.3715255667
H  H47  1  0.58527000  0.31474000  0.72503000  1.0 0.339229761
H  H48  1  0.65728000  0.27399000  0.69624000  1.0 0.3601148684
H  H49  1  0.24056000  0.31934000  0.65197000  1.0 0.3513655597
H  H50  1  0.28701000  0.37012000  0.66700000  1.0 0.3513655597
H  H51  1  0.85395000  0.30046000  0.51785000  1.0 0.1397362712
H  H52  1  0.84414000  0.23615000  0.43421000  1.0 0.1309499522
H  H53  1  0.73880000  0.25583000  0.31449000  1.0 0.1218740105
H  H54  1  0.43337000  0.37943000  0.12312000  1.0 0.1309499522
H  H55  1  0.51907000  0.34420000  0.99287000  1.0 0.1309499522
H  H56  1  0.29534000  0.52428000  0.16922000  1.0 0.1397362712
H  H57  1  0.95959000  0.12068000  0.63986000  1.0 0.1309499522
H  H58  1  0.11139000  0.07395000  0.84086000  1.0 0.1218740105
H  H59  1  0.98440000  0.05604000  0.72373000  1.0 0.1218740105
H  H60  1  0.51974000  0.27896000  0.07381000  1.0 0.1397362712
H  H61  1  0.39715000  0.19805000  0.03569000  1.0 0.1397362712
H  H62  1  0.29887000  0.45968000  0.08683000  1.0 0.1309499522
H  H63  1  0.32917000  0.59794000  0.26733000  1.0 0.271967869
H  H64  1  0.23398000  0.85311000  0.67467000  1.0 0.3260189329
H  H65  1  0.05392000  0.86825000  0.64214000  1.0 0.339229761
H  H66  1  0.02856000  0.96793000  0.84578000  1.0 0.3715255667
H  H67  1  0.84129000  0.95110000  0.82468000  1.0 0.3715255667
H  H68  1  0.41473000  0.81474000  0.77497000  1.0 0.339229761
H  H69  1  0.34272000  0.77399000  0.80376000  1.0 0.3601148684
H  H70  1  0.75944000  0.81934000  0.84803000  1.0 0.3513655597
H  H71  1  0.71299000  0.87012000  0.83300000  1.0 0.3513655597
H  H72  1  0.14605000  0.80046000  0.98215000  1.0 0.1397362712
H  H73  1  0.15586000  0.73615000  0.06579000  1.0 0.1309499522
H  H74  1  0.26120000  0.75583000  0.18551000  1.0 0.1218740105
H  H75  1  0.56663000  0.87943000  0.37688000  1.0 0.1309499522
H  H76  1  0.48093000  0.84420000  0.50713000  1.0 0.1309499522
H  H77  1  0.70466000  0.02428000  0.33078000  1.0 0.1397362712
H  H78  1  0.04041000  0.62068000  0.86014000  1.0 0.1309499522
H  H79  1  0.88861000  0.57395000  0.65914000  1.0 0.1218740105
H  H80  1  0.01560000  0.55604000  0.77627000  1.0 0.1218740105
H  H81  1  0.48026000  0.77896000  0.42619000  1.0 0.1397362712
H  H82  1  0.60285000  0.69805000  0.46431000  1.0 0.1397362712
H  H83  1  0.70113000  0.95968000  0.41317000  1.0 0.1309499522
H  H84  1  0.67083000  0.09794000  0.23267000  1.0 0.271967869
C  C1  1  0.80710000  0.75450000  0.19300000  1.0 0.3771879633
C  C2  1  0.31390000  0.66710000  0.67340000  1.0 -0.03928436
C  C3  1  0.85640000  0.80850000  0.21970000  1.0 -0.0612486952
C  C4  1  0.45880000  0.56270000  0.72260000  1.0 -0.0612486952
C  C5  1  0.38300000  0.65530000  0.75030000  1.0 0.3513655597
C  C6  1  0.93100000  0.82040000  0.29330000  1.0 -0.0802291215
C  C7  1  0.70200000  0.74450000  0.11850000  1.0 -0.0612486952
C  C8  1  0.62380000  0.69510000  0.09510000  1.0 -0.0802291215
C  C9  1  0.29960000  0.62720000  0.62260000  1.0 -0.0496671761
C  C10  1  0.32800000  0.57150000  0.64980000  1.0 0.3715255667
C  C11  1  0.23720000  0.64010000  0.55060000  1.0 -0.0690066394
C  C12  1  0.46900000  0.60280000  0.77270000  1.0 -0.031908783
C  C13  1  0.55090000  0.51500000  0.74590000  1.0 -0.089418019
C  C14  1  0.18580000  0.69120000  0.52990000  1.0 -0.0690066394
C  C15  1  0.19330000  0.73000000  0.58020000  1.0 -0.0496671761
C  C16  1  0.25670000  0.71830000  0.65200000  1.0 -0.1009313811
C  C17  1  0.69350000  0.78470000  0.06900000  1.0 -0.03928436
C  C18  1  0.77360000  0.83680000  0.09240000  1.0 0.339229761
C  C19  1  0.56120000  0.59420000  0.84400000  1.0 -0.0802291215
C  C20  1  0.53710000  0.68780000  0.02280000  1.0 -0.089418019
C  C21  1  0.84230000  0.84830000  0.16980000  1.0 -0.031908783
C  C22  1  0.64300000  0.50720000  0.81610000  1.0 -0.089418019
C  C23  1  0.98990000  0.87120000  0.31260000  1.0 -0.089418019
C  C24  1  0.90080000  0.89950000  0.19230000  1.0 -0.1009313811
C  C25  1  0.97470000  0.91030000  0.26210000  1.0 -0.0802291215
C  C26  1  0.53340000  0.72720000  0.97410000  1.0 -0.03928436
C  C27  1  0.60840000  0.77530000  0.99690000  1.0 -0.0612486952
C  C28  1  0.64410000  0.54650000  0.86550000  1.0 -0.0612486952
C  C29  1  0.19290000  0.25450000  0.30700000  1.0 0.3771879633
C  C30  1  0.68610000  0.16710000  0.82660000  1.0 -0.03928436
C  C31  1  0.14360000  0.30850000  0.28030000  1.0 -0.0612486952
C  C32  1  0.54120000  0.06270000  0.77740000  1.0 -0.0612486952
C  C33  1  0.61700000  0.15530000  0.74970000  1.0 0.3513655597
C  C34  1  0.06900000  0.32040000  0.20670000  1.0 -0.0802291215
C  C35  1  0.29800000  0.24450000  0.38150000  1.0 -0.0612486952
C  C36  1  0.37620000  0.19510000  0.40490000  1.0 -0.0802291215
C  C37  1  0.70040000  0.12720000  0.87740000  1.0 -0.0496671761
C  C38  1  0.67200000  0.07150000  0.85020000  1.0 0.3715255667
C  C39  1  0.76280000  0.14010000  0.94940000  1.0 -0.0690066394
C  C40  1  0.53100000  0.10280000  0.72730000  1.0 -0.031908783
C  C41  1  0.44910000  0.01500000  0.75410000  1.0 -0.089418019
C  C42  1  0.81420000  0.19120000  0.97010000  1.0 -0.0690066394
C  C43  1  0.80670000  0.23000000  0.91980000  1.0 -0.0496671761
C  C44  1  0.74330000  0.21830000  0.84800000  1.0 -0.1009313811
C  C45  1  0.30650000  0.28470000  0.43100000  1.0 -0.03928436
C  C46  1  0.22640000  0.33680000  0.40760000  1.0 0.339229761
C  C47  1  0.43880000  0.09420000  0.65600000  1.0 -0.0802291215
C  C48  1  0.46290000  0.18780000  0.47720000  1.0 -0.089418019
C  C49  1  0.15770000  0.34830000  0.33020000  1.0 -0.031908783
C  C50  1  0.35700000  0.00720000  0.68390000  1.0 -0.089418019
C  C51  1  0.01010000  0.37120000  0.18740000  1.0 -0.089418019
C  C52  1  0.09920000  0.39950000  0.30770000  1.0 -0.1009313811
C  C53  1  0.02530000  0.41030000  0.23790000  1.0 -0.0802291215
C  C54  1  0.46660000  0.22720000  0.52590000  1.0 -0.03928436
C  C55  1  0.39160000  0.27530000  0.50310000  1.0 -0.0612486952
C  C56  1  0.35590000  0.04650000  0.63450000  1.0 -0.0612486952
C  C57  1  0.19290000  0.24550000  0.80700000  1.0 0.3771879633
C  C58  1  0.68610000  0.33290000  0.32660000  1.0 -0.03928436
C  C59  1  0.14360000  0.19150000  0.78030000  1.0 -0.0612486952
C  C60  1  0.54120000  0.43730000  0.27740000  1.0 -0.0612486952
C  C61  1  0.61700000  0.34470000  0.24970000  1.0 0.3513655597
C  C62  1  0.06900000  0.17960000  0.70670000  1.0 -0.0802291215
C  C63  1  0.29800000  0.25550000  0.88150000  1.0 -0.0612486952
C  C64  1  0.37620000  0.30490000  0.90490000  1.0 -0.0802291215
C  C65  1  0.70040000  0.37280000  0.37740000  1.0 -0.0496671761
C  C66  1  0.67200000  0.42850000  0.35020000  1.0 0.3715255667
C  C67  1  0.76280000  0.35990000  0.44940000  1.0 -0.0690066394
C  C68  1  0.53100000  0.39720000  0.22730000  1.0 -0.031908783
C  C69  1  0.44910000  0.48500000  0.25410000  1.0 -0.089418019
C  C70  1  0.81420000  0.30880000  0.47010000  1.0 -0.0690066394
C  C71  1  0.80670000  0.27000000  0.41980000  1.0 -0.0496671761
C  C72  1  0.74330000  0.28170000  0.34800000  1.0 -0.1009313811
C  C73  1  0.30650000  0.21530000  0.93100000  1.0 -0.03928436
C  C74  1  0.22640000  0.16320000  0.90760000  1.0 0.339229761
C  C75  1  0.43880000  0.40580000  0.15600000  1.0 -0.0802291215
C  C76  1  0.46290000  0.31220000  0.97720000  1.0 -0.089418019
C  C77  1  0.15770000  0.15170000  0.83020000  1.0 -0.031908783
C  C78  1  0.35700000  0.49280000  0.18390000  1.0 -0.089418019
C  C79  1  0.01010000  0.12880000  0.68740000  1.0 -0.089418019
C  C80  1  0.09920000  0.10050000  0.80770000  1.0 -0.1009313811
C  C81  1  0.02530000  0.08970000  0.73790000  1.0 -0.0802291215
C  C82  1  0.46660000  0.27280000  0.02590000  1.0 -0.03928436
C  C83  1  0.39160000  0.22470000  0.00310000  1.0 -0.0612486952
C  C84  1  0.35590000  0.45350000  0.13450000  1.0 -0.0612486952
C  C85  1  0.80710000  0.74550000  0.69300000  1.0 0.3771879633
C  C86  1  0.31390000  0.83290000  0.17340000  1.0 -0.03928436
C  C87  1  0.85640000  0.69150000  0.71970000  1.0 -0.0612486952
C  C88  1  0.45880000  0.93730000  0.22260000  1.0 -0.0612486952
C  C89  1  0.38300000  0.84470000  0.25030000  1.0 0.3513655597
C  C90  1  0.93100000  0.67960000  0.79330000  1.0 -0.0802291215
C  C91  1  0.70200000  0.75550000  0.61850000  1.0 -0.0612486952
C  C92  1  0.62380000  0.80490000  0.59510000  1.0 -0.0802291215
C  C93  1  0.29960000  0.87280000  0.12260000  1.0 -0.0496671761
C  C94  1  0.32800000  0.92850000  0.14980000  1.0 0.3715255667
C  C95  1  0.23720000  0.85990000  0.05060000  1.0 -0.0690066394
C  C96  1  0.46900000  0.89720000  0.27270000  1.0 -0.031908783
C  C97  1  0.55090000  0.98500000  0.24590000  1.0 -0.089418019
C  C98  1  0.18580000  0.80880000  0.02990000  1.0 -0.0690066394
C  C99  1  0.19330000  0.77000000  0.08020000  1.0 -0.0496671761
C  C100  1  0.25670000  0.78170000  0.15200000  1.0 -0.1009313811
C  C101  1  0.69350000  0.71530000  0.56900000  1.0 -0.03928436
C  C102  1  0.77360000  0.66320000  0.59240000  1.0 0.339229761
C  C103  1  0.56120000  0.90580000  0.34400000  1.0 -0.0802291215
C  C104  1  0.53710000  0.81220000  0.52280000  1.0 -0.089418019
C  C105  1  0.84230000  0.65170000  0.66980000  1.0 -0.031908783
C  C106  1  0.64300000  0.99280000  0.31610000  1.0 -0.089418019
C  C107  1  0.98990000  0.62880000  0.81260000  1.0 -0.089418019
C  C108  1  0.90080000  0.60050000  0.69230000  1.0 -0.1009313811
C  C109  1  0.97470000  0.58970000  0.76210000  1.0 -0.0802291215
C  C110  1  0.53340000  0.77280000  0.47410000  1.0 -0.03928436
C  C111  1  0.60840000  0.72470000  0.49690000  1.0 -0.0612486952
C  C112  1  0.64410000  0.95350000  0.36550000  1.0 -0.0612486952
S  S1  1  0.24096000  0.59394000  0.48176000  1.0 1.2178285379
S  S2  1  0.58065000  0.46525000  0.68395000  1.0 1.1620183249
S  S3  1  0.59299000  0.64187000  0.15139000  1.0 1.2057063838
S  S4  1  0.94899000  0.77490000  0.36479000  1.0 1.1959486862
S  S5  1  0.75904000  0.09394000  0.01824000  1.0 1.2178285379
S  S6  1  0.41935000  0.96525000  0.81605000  1.0 1.1620183249
S  S7  1  0.40701000  0.14187000  0.34861000  1.0 1.2057063838
S  S8  1  0.05101000  0.27490000  0.13521000  1.0 1.1959486862
S  S9  1  0.75904000  0.40606000  0.51824000  1.0 1.2178285379
S  S10  1  0.41935000  0.53475000  0.31605000  1.0 1.1620183249
S  S11  1  0.40701000  0.35813000  0.84861000  1.0 1.2057063838
S  S12  1  0.05101000  0.22510000  0.63521000  1.0 1.1959486862
S  S13  1  0.24096000  0.90606000  0.98176000  1.0 1.2178285379
S  S14  1  0.58065000  0.03475000  0.18395000  1.0 1.1620183249
S  S15  1  0.59299000  0.85813000  0.65139000  1.0 1.2057063838
S  S16  1  0.94899000  0.72510000  0.86479000  1.0 1.1959486862
O  O1  1  0.24050000  0.62639000  0.41990000  1.0 -0.6809484403
O  O2  1  0.77560000  0.61855000  0.18680000  1.0 -0.6711090694
O  O3  1  0.08530000  0.73386000  0.36090000  1.0 -0.6641912203
O  O4  1  0.41430000  0.56548000  0.50950000  1.0 -0.6536001901
O  O5  1  0.07400000  0.56109000  0.46780000  1.0 -0.6711090694
O  O6  1  0.37460000  0.68838000  0.79450000  1.0 -0.3903247158
O  O7  1  0.11830000  0.65448000  0.17190000  1.0 -0.7296645681
O  O8  1  0.94550000  0.54848000  0.30980000  1.0 -0.7683997194
O  O9  1  0.85990000  0.71706000  0.23300000  1.0 -0.4935397844
O  O10  1  0.40220000  0.43915000  0.65470000  1.0 -0.5917782973
O  O11  1  0.36600000  0.69271000  0.30900000  1.0 -0.7394016425
O  O12  1  0.80560000  0.64965000  0.35370000  1.0 -0.7394016425
O  O13  1  0.64620000  0.49311000  0.63200000  1.0 -0.5638357739
O  O14  1  0.72190000  0.42927000  0.72620000  1.0 -0.5304146151
O  O15  1  0.23290000  0.53629000  0.61730000  1.0 -0.4067302088
O  O16  1  0.76020000  0.75449000  0.35380000  1.0 -0.5825071077
O  O17  1  0.50540000  0.66666667  0.20010000  1.0 -0.6014215614
O  O18  1  0.01640000  0.80597000  0.42890000  1.0 -0.5917782973
O  O19  1  0.47280000  0.60360000  0.10310000  1.0 -0.6014215614
O  O20  1  0.78520000  0.87018000  0.04970000  1.0 -0.437478755
O  O21  1  0.75950000  0.12639000  0.08010000  1.0 -0.6809484403
O  O22  1  0.22440000  0.11855000  0.31320000  1.0 -0.6711090694
O  O23  1  0.91470000  0.23386000  0.13910000  1.0 -0.6641912203
O  O24  1  0.58570000  0.06548000  0.99050000  1.0 -0.6536001901
O  O25  1  0.92600000  0.06109000  0.03220000  1.0 -0.6711090694
O  O26  1  0.62540000  0.18838000  0.70550000  1.0 -0.3903247158
O  O27  1  0.88170000  0.15448000  0.32810000  1.0 -0.7296645681
O  O28  1  0.05450000  0.04848000  0.19020000  1.0 -0.7683997194
O  O29  1  0.14010000  0.21706000  0.26700000  1.0 -0.4935397844
O  O30  1  0.59780000  0.93915000  0.84530000  1.0 -0.5917782973
O  O31  1  0.63400000  0.19271000  0.19100000  1.0 -0.7394016425
O  O32  1  0.19440000  0.14965000  0.14630000  1.0 -0.7394016425
O  O33  1  0.35380000  0.99311000  0.86800000  1.0 -0.5638357739
O  O34  1  0.27810000  0.92927000  0.77380000  1.0 -0.5304146151
O  O35  1  0.76710000  0.03629000  0.88270000  1.0 -0.4067302088
O  O36  1  0.23980000  0.25449000  0.14620000  1.0 -0.5825071077
O  O37  1  0.49460000  0.16667000  0.29990000  1.0 -0.6014215614
O  O38  1  0.98360000  0.30597000  0.07110000  1.0 -0.5917782973
O  O39  1  0.52720000  0.10360000  0.39690000  1.0 -0.6014215614
O  O40  1  0.21480000  0.37018000  0.45030000  1.0 -0.437478755
O  O41  1  0.75950000  0.37361000  0.58010000  1.0 -0.6809484403
O  O42  1  0.22440000  0.38145000  0.81320000  1.0 -0.6711090694
O  O43  1  0.91470000  0.26614000  0.63910000  1.0 -0.6641912203
O  O44  1  0.58570000  0.43452000  0.49050000  1.0 -0.6536001901
O  O45  1  0.92600000  0.43891000  0.53220000  1.0 -0.6711090694
O  O46  1  0.62540000  0.31162000  0.20550000  1.0 -0.3903247158
O  O47  1  0.88170000  0.34552000  0.82810000  1.0 -0.7296645681
O  O48  1  0.05450000  0.45152000  0.69020000  1.0 -0.7683997194
O  O49  1  0.14010000  0.28294000  0.76700000  1.0 -0.4935397844
O  O50  1  0.59780000  0.56085000  0.34530000  1.0 -0.5917782973
O  O51  1  0.63400000  0.30729000  0.69100000  1.0 -0.7394016425
O  O52  1  0.19440000  0.35035000  0.64630000  1.0 -0.7394016425
O  O53  1  0.35380000  0.50689000  0.36800000  1.0 -0.5638357739
O  O54  1  0.27810000  0.57073000  0.27380000  1.0 -0.5304146151
O  O55  1  0.76710000  0.46371000  0.38270000  1.0 -0.4067302088
O  O56  1  0.23980000  0.24551000  0.64620000  1.0 -0.5825071077
O  O57  1  0.49460000  0.33333333  0.79990000  1.0 -0.6014215614
O  O58  1  0.98360000  0.19403000  0.57110000  1.0 -0.5917782973
O  O59  1  0.52720000  0.39640000  0.89690000  1.0 -0.6014215614
O  O60  1  0.21480000  0.12982000  0.95030000  1.0 -0.437478755
O  O61  1  0.24050000  0.87361000  0.91990000  1.0 -0.6809484403
O  O62  1  0.77560000  0.88145000  0.68680000  1.0 -0.6711090694
O  O63  1  0.08530000  0.76614000  0.86090000  1.0 -0.6641912203
O  O64  1  0.41430000  0.93452000  0.00950000  1.0 -0.6536001901
O  O65  1  0.07400000  0.93891000  0.96780000  1.0 -0.6711090694
O  O66  1  0.37460000  0.81162000  0.29450000  1.0 -0.3903247158
O  O67  1  0.11830000  0.84552000  0.67190000  1.0 -0.7296645681
O  O68  1  0.94550000  0.95152000  0.80980000  1.0 -0.7683997194
O  O69  1  0.85990000  0.78294000  0.73300000  1.0 -0.4935397844
O  O70  1  0.40220000  0.06085000  0.15470000  1.0 -0.5917782973
O  O71  1  0.36600000  0.80729000  0.80900000  1.0 -0.7394016425
O  O72  1  0.80560000  0.85035000  0.85370000  1.0 -0.7394016425
O  O73  1  0.64620000  0.00689000  0.13200000  1.0 -0.5638357739
O  O74  1  0.72190000  0.07073000  0.22620000  1.0 -0.5304146151
O  O75  1  0.23290000  0.96371000  0.11730000  1.0 -0.4067302088
O  O76  1  0.76020000  0.74551000  0.85380000  1.0 -0.5825071077
O  O77  1  0.50540000  0.83333000  0.70010000  1.0 -0.6014215614
O  O78  1  0.01640000  0.69403000  0.92890000  1.0 -0.5917782973
O  O79  1  0.47280000  0.89640000  0.60310000  1.0 -0.6014215614
O  O80  1  0.78520000  0.62982000  0.54970000  1.0 -0.437478755
