# DDEC6 charges by PACMAN v1.1 (https://github.com/mtap-research/PACMAN-charge/)
data_UVOQII_FSR_pacman
_symmetry_space_group_name_H-M   'P 1'
_cell_length_a   7.39800000
_cell_length_b   25.30800000
_cell_length_c   19.59600000
_cell_angle_alpha   90.00000000
_cell_angle_beta   106.62600000
_cell_angle_gamma   90.00000000
_symmetry_Int_Tables_number   1
_chemical_formula_structural   KNdH20C28(SO5)4
_chemical_formula_sum   'K4 Nd4 H80 C112 S16 O80'
_cell_volume   3515.54371277
_cell_formula_units_Z   4
loop_
 _symmetry_equiv_pos_site_id
 _symmetry_equiv_pos_as_xyz
  1  'x, y, z'
loop_
 _atom_site_type_symbol
 _atom_site_label
 _atom_site_symmetry_multiplicity
 _atom_site_fract_x
 _atom_site_fract_y
 _atom_site_fract_z
 _atom_site_occupancy
 _atom_site_charge
K  K1  1  0.26249000  0.53538000  0.51049000  1.0 0.8978934083
K  K2  1  0.73751000  0.03538000  0.98951000  1.0 0.8978934083
K  K3  1  0.73751000  0.46462000  0.48951000  1.0 0.8978934083
K  K4  1  0.26249000  0.96462000  0.01049000  1.0 0.8978934083
Nd  Nd1  1  0.93869000  0.64243000  0.70461000  1.0 2.2119528446
Nd  Nd2  1  0.06131000  0.14243000  0.79539000  1.0 2.2119528446
Nd  Nd3  1  0.06131000  0.35757000  0.29539000  1.0 2.2119528446
Nd  Nd4  1  0.93869000  0.85757000  0.20461000  1.0 2.2119528446
H  H1  1  0.95725000  0.52997000  0.65325000  1.0 0.4091190789
H  H2  1  0.15456000  0.54906000  0.66734000  1.0 0.4091190789
H  H3  1  0.58500000  0.68317000  0.72014000  1.0 0.3526379857
H  H4  1  0.66212000  0.72557000  0.69627000  1.0 0.3593067322
H  H5  1  0.84856000  0.70181000  0.51591000  1.0 0.1466779578
H  H6  1  0.84153000  0.76434000  0.43109000  1.0 0.1405159154
H  H7  1  0.42797000  0.61835000  0.12011000  1.0 0.1309134159
H  H8  1  0.73262000  0.74475000  0.31277000  1.0 0.1230546925
H  H9  1  0.51508000  0.65494000  0.98835000  1.0 0.1309134159
H  H10  1  0.95711000  0.88125000  0.63645000  1.0 0.1309134159
H  H11  1  0.11013000  0.92657000  0.84054000  1.0 0.1230546925
H  H12  1  0.29203000  0.47310000  0.16939000  1.0 0.1466779578
H  H13  1  0.28697000  0.53752000  0.08651000  1.0 0.1309134159
H  H14  1  0.98141000  0.94572000  0.72216000  1.0 0.1309134159
H  H15  1  0.39326000  0.80134000  0.03368000  1.0 0.1405159154
H  H16  1  0.51214000  0.71893000  0.07206000  1.0 0.1405159154
H  H17  1  0.76377000  0.64740000  0.82253000  1.0 0.3719685976
H  H18  1  0.94806000  0.63243000  0.85573000  1.0 0.3759958638
H  H19  1  0.22231000  0.68358000  0.64540000  1.0 0.3719685976
H  H20  1  0.28917000  0.63388000  0.66959000  1.0 0.3880620394
H  H21  1  0.04275000  0.02997000  0.84675000  1.0 0.4091190789
H  H22  1  0.84544000  0.04906000  0.83266000  1.0 0.4091190789
H  H23  1  0.41500000  0.18317000  0.77986000  1.0 0.3526379857
H  H24  1  0.33788000  0.22557000  0.80373000  1.0 0.3593067322
H  H25  1  0.15144000  0.20181000  0.98409000  1.0 0.1466779578
H  H26  1  0.15847000  0.26434000  0.06891000  1.0 0.1405159154
H  H27  1  0.57203000  0.11835000  0.37989000  1.0 0.1309134159
H  H28  1  0.26738000  0.24475000  0.18723000  1.0 0.1230546925
H  H29  1  0.48492000  0.15494000  0.51165000  1.0 0.1309134159
H  H30  1  0.04289000  0.38125000  0.86355000  1.0 0.1309134159
H  H31  1  0.88987000  0.42657000  0.65946000  1.0 0.1230546925
H  H32  1  0.70797000  0.97310000  0.33061000  1.0 0.1466779578
H  H33  1  0.71303000  0.03752000  0.41349000  1.0 0.1309134159
H  H34  1  0.01859000  0.44572000  0.77784000  1.0 0.1309134159
H  H35  1  0.60674000  0.30134000  0.46632000  1.0 0.1405159154
H  H36  1  0.48786000  0.21893000  0.42794000  1.0 0.1405159154
H  H37  1  0.23623000  0.14740000  0.67747000  1.0 0.3719685976
H  H38  1  0.05194000  0.13243000  0.64427000  1.0 0.3719685976
H  H39  1  0.77769000  0.18358000  0.85460000  1.0 0.3719685976
H  H40  1  0.71083000  0.13388000  0.83041000  1.0 0.3880620394
H  H41  1  0.04275000  0.47003000  0.34675000  1.0 0.4091190789
H  H42  1  0.84544000  0.45094000  0.33266000  1.0 0.4091190789
H  H43  1  0.41500000  0.31683000  0.27986000  1.0 0.3526379857
H  H44  1  0.33788000  0.27443000  0.30373000  1.0 0.3593067322
H  H45  1  0.15144000  0.29819000  0.48409000  1.0 0.1466779578
H  H46  1  0.15847000  0.23566000  0.56891000  1.0 0.1405159154
H  H47  1  0.57203000  0.38165000  0.87989000  1.0 0.1309134159
H  H48  1  0.26738000  0.25525000  0.68723000  1.0 0.1230546925
H  H49  1  0.48492000  0.34506000  0.01165000  1.0 0.1309134159
H  H50  1  0.04289000  0.11875000  0.36355000  1.0 0.1309134159
H  H51  1  0.88987000  0.07343000  0.15946000  1.0 0.1230546925
H  H52  1  0.70797000  0.52690000  0.83061000  1.0 0.1466779578
H  H53  1  0.71303000  0.46248000  0.91349000  1.0 0.1309134159
H  H54  1  0.01859000  0.05428000  0.27784000  1.0 0.1309134159
H  H55  1  0.60674000  0.19866000  0.96632000  1.0 0.1405159154
H  H56  1  0.48786000  0.28107000  0.92794000  1.0 0.1405159154
H  H57  1  0.23623000  0.35260000  0.17747000  1.0 0.3719685976
H  H58  1  0.05194000  0.36757000  0.14427000  1.0 0.3719685976
H  H59  1  0.77769000  0.31642000  0.35460000  1.0 0.3719685976
H  H60  1  0.71083000  0.36612000  0.33041000  1.0 0.3880620394
H  H61  1  0.95725000  0.97003000  0.15325000  1.0 0.4091190789
H  H62  1  0.15456000  0.95094000  0.16734000  1.0 0.4091190789
H  H63  1  0.58500000  0.81683000  0.22014000  1.0 0.3526379857
H  H64  1  0.66212000  0.77443000  0.19627000  1.0 0.3593067322
H  H65  1  0.84856000  0.79819000  0.01591000  1.0 0.1466779578
H  H66  1  0.84153000  0.73566000  0.93109000  1.0 0.1405159154
H  H67  1  0.42797000  0.88165000  0.62011000  1.0 0.1309134159
H  H68  1  0.73262000  0.75525000  0.81277000  1.0 0.1230546925
H  H69  1  0.51508000  0.84506000  0.48835000  1.0 0.1309134159
H  H70  1  0.95711000  0.61875000  0.13645000  1.0 0.1309134159
H  H71  1  0.11013000  0.57343000  0.34054000  1.0 0.1230546925
H  H72  1  0.29203000  0.02690000  0.66939000  1.0 0.1466779578
H  H73  1  0.28697000  0.96248000  0.58651000  1.0 0.1309134159
H  H74  1  0.98141000  0.55428000  0.22216000  1.0 0.1309134159
H  H75  1  0.39326000  0.69866000  0.53368000  1.0 0.1405159154
H  H76  1  0.51214000  0.78107000  0.57206000  1.0 0.1405159154
H  H77  1  0.76377000  0.85260000  0.32253000  1.0 0.3719685976
H  H78  1  0.94806000  0.86757000  0.35573000  1.0 0.3759958638
H  H79  1  0.22231000  0.81642000  0.14540000  1.0 0.3719685976
H  H80  1  0.28917000  0.86612000  0.16959000  1.0 0.3880620394
C  C1  1  0.18500000  0.75410000  0.80310000  1.0 0.3880620394
C  C2  1  0.53920000  0.56210000  0.27590000  1.0 -0.0517728001
C  C3  1  0.13750000  0.80870000  0.77790000  1.0 -0.0517728001
C  C4  1  0.37020000  0.69420000  0.90110000  1.0 -0.0883172192
C  C5  1  0.69960000  0.62720000  0.37600000  1.0 -0.0391903413
C  C6  1  0.61350000  0.65450000  0.24700000  1.0 0.3593067322
C  C7  1  0.29220000  0.74460000  0.87830000  1.0 -0.0517728001
C  C8  1  0.52800000  0.60120000  0.22590000  1.0 -0.0312846576
C  C9  1  0.68350000  0.66666667  0.32500000  1.0 -0.0312846576
C  C10  1  0.76120000  0.64020000  0.44900000  1.0 -0.0811023726
C  C11  1  0.44750000  0.51360000  0.25510000  1.0 -0.0883172192
C  C12  1  0.67170000  0.57080000  0.35020000  1.0 0.3759958638
C  C13  1  0.81010000  0.69240000  0.46800000  1.0 -0.0700735683
C  C14  1  0.80250000  0.73010000  0.41710000  1.0 -0.0517728001
C  C15  1  0.06200000  0.82110000  0.70460000  1.0 -0.0700735683
C  C16  1  0.43340000  0.59220000  0.15400000  1.0 -0.0811023726
C  C17  1  0.73920000  0.71850000  0.34660000  1.0 -0.0991180894
C  C18  1  0.45680000  0.68710000  0.97320000  1.0 -0.0883172192
C  C19  1  0.30180000  0.78380000  0.92790000  1.0 -0.0312846576
C  C20  1  0.00560000  0.87280000  0.68440000  1.0 -0.0811023726
C  C21  1  0.22070000  0.83670000  0.90490000  1.0 0.3432764131
C  C22  1  0.15200000  0.84900000  0.82760000  1.0 -0.0312846576
C  C23  1  0.09660000  0.90000000  0.80660000  1.0 -0.0883172192
C  C24  1  0.35270000  0.50510000  0.18370000  1.0 -0.0700735683
C  C25  1  0.34840000  0.54400000  0.13420000  1.0 -0.0700735683
C  C26  1  0.02180000  0.91150000  0.73590000  1.0 -0.0811023726
C  C27  1  0.38710000  0.77440000  0.00090000  1.0 -0.0647014324
C  C28  1  0.46070000  0.72590000  0.02380000  1.0 -0.0391903413
C  C29  1  0.81500000  0.25410000  0.69690000  1.0 0.3880620394
C  C30  1  0.46080000  0.06210000  0.22410000  1.0 -0.0517728001
C  C31  1  0.86250000  0.30870000  0.72210000  1.0 -0.0517728001
C  C32  1  0.62980000  0.19420000  0.59890000  1.0 -0.0883172192
C  C33  1  0.30040000  0.12720000  0.12400000  1.0 -0.0391903413
C  C34  1  0.38650000  0.15450000  0.25300000  1.0 0.3593067322
C  C35  1  0.70780000  0.24460000  0.62170000  1.0 -0.0517728001
C  C36  1  0.47200000  0.10120000  0.27410000  1.0 -0.0312846576
C  C37  1  0.31650000  0.16667000  0.17500000  1.0 -0.0312846576
C  C38  1  0.23880000  0.14020000  0.05100000  1.0 -0.0811023726
C  C39  1  0.55250000  0.01360000  0.24490000  1.0 -0.0883172192
C  C40  1  0.32830000  0.07080000  0.14980000  1.0 0.3759958638
C  C41  1  0.18990000  0.19240000  0.03200000  1.0 -0.0700735683
C  C42  1  0.19750000  0.23010000  0.08290000  1.0 -0.0517728001
C  C43  1  0.93800000  0.32110000  0.79540000  1.0 -0.0700735683
C  C44  1  0.56660000  0.09220000  0.34600000  1.0 -0.0811023726
C  C45  1  0.26080000  0.21850000  0.15340000  1.0 -0.0991180894
C  C46  1  0.54320000  0.18710000  0.52680000  1.0 -0.0883172192
C  C47  1  0.69820000  0.28380000  0.57210000  1.0 -0.0312846576
C  C48  1  0.99440000  0.37280000  0.81560000  1.0 -0.0811023726
C  C49  1  0.77930000  0.33670000  0.59510000  1.0 0.3432764131
C  C50  1  0.84800000  0.34900000  0.67240000  1.0 -0.0312846576
C  C51  1  0.90340000  0.40000000  0.69340000  1.0 -0.0883172192
C  C52  1  0.64730000  0.00510000  0.31630000  1.0 -0.0700735683
C  C53  1  0.65160000  0.04400000  0.36580000  1.0 -0.0700735683
C  C54  1  0.97820000  0.41150000  0.76410000  1.0 -0.0811023726
C  C55  1  0.61290000  0.27440000  0.49910000  1.0 -0.0647014324
C  C56  1  0.53930000  0.22590000  0.47620000  1.0 -0.0391903413
C  C57  1  0.81500000  0.24590000  0.19690000  1.0 0.3880620394
C  C58  1  0.46080000  0.43790000  0.72410000  1.0 -0.0517728001
C  C59  1  0.86250000  0.19130000  0.22210000  1.0 -0.0517728001
C  C60  1  0.62980000  0.30580000  0.09890000  1.0 -0.0883172192
C  C61  1  0.30040000  0.37280000  0.62400000  1.0 -0.0391903413
C  C62  1  0.38650000  0.34550000  0.75300000  1.0 0.3593067322
C  C63  1  0.70780000  0.25540000  0.12170000  1.0 -0.0517728001
C  C64  1  0.47200000  0.39880000  0.77410000  1.0 -0.0312846576
C  C65  1  0.31650000  0.33333333  0.67500000  1.0 -0.0312846576
C  C66  1  0.23880000  0.35980000  0.55100000  1.0 -0.0811023726
C  C67  1  0.55250000  0.48640000  0.74490000  1.0 -0.0883172192
C  C68  1  0.32830000  0.42920000  0.64980000  1.0 0.3759958638
C  C69  1  0.18990000  0.30760000  0.53200000  1.0 -0.0700735683
C  C70  1  0.19750000  0.26990000  0.58290000  1.0 -0.0517728001
C  C71  1  0.93800000  0.17890000  0.29540000  1.0 -0.0700735683
C  C72  1  0.56660000  0.40780000  0.84600000  1.0 -0.0811023726
C  C73  1  0.26080000  0.28150000  0.65340000  1.0 -0.0991180894
C  C74  1  0.54320000  0.31290000  0.02680000  1.0 -0.0883172192
C  C75  1  0.69820000  0.21620000  0.07210000  1.0 -0.0312846576
C  C76  1  0.99440000  0.12720000  0.31560000  1.0 -0.0811023726
C  C77  1  0.77930000  0.16330000  0.09510000  1.0 0.3432764131
C  C78  1  0.84800000  0.15100000  0.17240000  1.0 -0.0312846576
C  C79  1  0.90340000  0.10000000  0.19340000  1.0 -0.0883172192
C  C80  1  0.64730000  0.49490000  0.81630000  1.0 -0.0700735683
C  C81  1  0.65160000  0.45600000  0.86580000  1.0 -0.0700735683
C  C82  1  0.97820000  0.08850000  0.26410000  1.0 -0.0811023726
C  C83  1  0.61290000  0.22560000  0.99910000  1.0 -0.0647014324
C  C84  1  0.53930000  0.27410000  0.97620000  1.0 -0.0391903413
C  C85  1  0.18500000  0.74590000  0.30310000  1.0 0.3880620394
C  C86  1  0.53920000  0.93790000  0.77590000  1.0 -0.0517728001
C  C87  1  0.13750000  0.69130000  0.27790000  1.0 -0.0517728001
C  C88  1  0.37020000  0.80580000  0.40110000  1.0 -0.0883172192
C  C89  1  0.69960000  0.87280000  0.87600000  1.0 -0.0391903413
C  C90  1  0.61350000  0.84550000  0.74700000  1.0 0.3593067322
C  C91  1  0.29220000  0.75540000  0.37830000  1.0 -0.0517728001
C  C92  1  0.52800000  0.89880000  0.72590000  1.0 -0.0312846576
C  C93  1  0.68350000  0.83333000  0.82500000  1.0 -0.0312846576
C  C94  1  0.76120000  0.85980000  0.94900000  1.0 -0.0811023726
C  C95  1  0.44750000  0.98640000  0.75510000  1.0 -0.0883172192
C  C96  1  0.67170000  0.92920000  0.85020000  1.0 0.3759958638
C  C97  1  0.81010000  0.80760000  0.96800000  1.0 -0.0700735683
C  C98  1  0.80250000  0.76990000  0.91710000  1.0 -0.0517728001
C  C99  1  0.06200000  0.67890000  0.20460000  1.0 -0.0700735683
C  C100  1  0.43340000  0.90780000  0.65400000  1.0 -0.0811023726
C  C101  1  0.73920000  0.78150000  0.84660000  1.0 -0.0991180894
C  C102  1  0.45680000  0.81290000  0.47320000  1.0 -0.0883172192
C  C103  1  0.30180000  0.71620000  0.42790000  1.0 -0.0312846576
C  C104  1  0.00560000  0.62720000  0.18440000  1.0 -0.0811023726
C  C105  1  0.22070000  0.66330000  0.40490000  1.0 0.3432764131
C  C106  1  0.15200000  0.65100000  0.32760000  1.0 -0.0312846576
C  C107  1  0.09660000  0.60000000  0.30660000  1.0 -0.0883172192
C  C108  1  0.35270000  0.99490000  0.68370000  1.0 -0.0700735683
C  C109  1  0.34840000  0.95600000  0.63420000  1.0 -0.0700735683
C  C110  1  0.02180000  0.58850000  0.23590000  1.0 -0.0811023726
C  C111  1  0.38710000  0.72560000  0.50090000  1.0 -0.0647014324
C  C112  1  0.46070000  0.77410000  0.52380000  1.0 -0.0391903413
S  S1  1  0.75931000  0.59458000  0.51821000  1.0 1.2362770829
S  S2  1  0.41931000  0.46379000  0.31691000  1.0 1.2075963411
S  S3  1  0.40228000  0.64177000  0.84398000  1.0 1.2157380972
S  S4  1  0.04634000  0.77574000  0.63244000  1.0 1.1974371765
S  S5  1  0.24069000  0.09458000  0.98179000  1.0 1.2362770829
S  S6  1  0.58069000  0.96379000  0.18309000  1.0 1.2075963411
S  S7  1  0.59772000  0.14177000  0.65602000  1.0 1.2157380972
S  S8  1  0.95366000  0.27574000  0.86756000  1.0 1.1974371765
S  S9  1  0.24069000  0.40542000  0.48179000  1.0 1.2362770829
S  S10  1  0.58069000  0.53621000  0.68309000  1.0 1.2075963411
S  S11  1  0.59772000  0.35823000  0.15602000  1.0 1.2157380972
S  S12  1  0.95366000  0.22426000  0.36756000  1.0 1.1974371765
S  S13  1  0.75931000  0.90542000  0.01821000  1.0 1.2362770829
S  S14  1  0.41931000  0.03621000  0.81691000  1.0 1.2075963411
S  S15  1  0.40228000  0.85823000  0.34398000  1.0 1.2157380972
S  S16  1  0.04634000  0.72426000  0.13244000  1.0 1.1974371765
O  O1  1  0.76150000  0.62731000  0.58030000  1.0 -0.7109750516
O  O2  1  0.62130000  0.68760000  0.20320000  1.0 -0.3691609856
O  O3  1  0.21800000  0.61791000  0.80750000  1.0 -0.7109750516
O  O4  1  0.58470000  0.56611000  0.49100000  1.0 -0.6479863133
O  O5  1  0.90960000  0.73483000  0.63550000  1.0 -0.6831885185
O  O6  1  0.04930000  0.55103000  0.68850000  1.0 -0.8396315184
O  O7  1  0.92590000  0.56091000  0.53230000  1.0 -0.6712662187
O  O8  1  0.27800000  0.42666000  0.27510000  1.0 -0.7109750516
O  O9  1  0.76740000  0.53560000  0.38280000  1.0 -0.3910845276
O  O10  1  0.35480000  0.49257000  0.36920000  1.0 -0.6088699233
O  O11  1  0.63770000  0.69240000  0.68800000  1.0 -0.7720971611
O  O12  1  0.59940000  0.43761000  0.34530000  1.0 -0.6088699233
O  O13  1  0.23480000  0.75580000  0.64450000  1.0 -0.5715147462
O  O14  1  0.12940000  0.71700000  0.76440000  1.0 -0.5103333201
O  O15  1  0.49010000  0.66730000  0.79540000  1.0 -0.5893521216
O  O16  1  0.21060000  0.87030000  0.94900000  1.0 -0.437936863
O  O17  1  0.52310000  0.60400000  0.89050000  1.0 -0.5715147462
O  O18  1  0.98050000  0.80690000  0.56880000  1.0 -0.5715147462
O  O19  1  0.88160000  0.65520000  0.82430000  1.0 -0.7720971611
O  O20  1  0.18530000  0.65030000  0.64530000  1.0 -0.7988702413
O  O21  1  0.23850000  0.12731000  0.91970000  1.0 -0.7109750516
O  O22  1  0.37870000  0.18760000  0.29680000  1.0 -0.3691609856
O  O23  1  0.78200000  0.11791000  0.69250000  1.0 -0.7109750516
O  O24  1  0.41530000  0.06611000  0.00900000  1.0 -0.6479863133
O  O25  1  0.09040000  0.23483000  0.86450000  1.0 -0.6831885185
O  O26  1  0.95070000  0.05103000  0.81150000  1.0 -0.8396315184
O  O27  1  0.07410000  0.06091000  0.96770000  1.0 -0.6712662187
O  O28  1  0.72200000  0.92666000  0.22490000  1.0 -0.7159357673
O  O29  1  0.23260000  0.03560000  0.11720000  1.0 -0.3910845276
O  O30  1  0.64520000  0.99257000  0.13080000  1.0 -0.6088699233
O  O31  1  0.36230000  0.19240000  0.81200000  1.0 -0.7720971611
O  O32  1  0.40060000  0.93761000  0.15470000  1.0 -0.6088699233
O  O33  1  0.76520000  0.25580000  0.85550000  1.0 -0.5715147462
O  O34  1  0.87060000  0.21700000  0.73560000  1.0 -0.5103333201
O  O35  1  0.50990000  0.16730000  0.70460000  1.0 -0.5893521216
O  O36  1  0.78940000  0.37030000  0.55100000  1.0 -0.437936863
O  O37  1  0.47690000  0.10400000  0.60950000  1.0 -0.5715147462
O  O38  1  0.01950000  0.30690000  0.93120000  1.0 -0.5715147462
O  O39  1  0.11840000  0.15520000  0.67570000  1.0 -0.7720971611
O  O40  1  0.81470000  0.15030000  0.85470000  1.0 -0.7988702413
O  O41  1  0.23850000  0.37269000  0.41970000  1.0 -0.7109750516
O  O42  1  0.37870000  0.31240000  0.79680000  1.0 -0.3691609856
O  O43  1  0.78200000  0.38209000  0.19250000  1.0 -0.7109750516
O  O44  1  0.41530000  0.43389000  0.50900000  1.0 -0.6479863133
O  O45  1  0.09040000  0.26517000  0.36450000  1.0 -0.6831885185
O  O46  1  0.95070000  0.44897000  0.31150000  1.0 -0.8396315184
O  O47  1  0.07410000  0.43909000  0.46770000  1.0 -0.6712662187
O  O48  1  0.72200000  0.57334000  0.72490000  1.0 -0.7159357673
O  O49  1  0.23260000  0.46440000  0.61720000  1.0 -0.3910845276
O  O50  1  0.64520000  0.50743000  0.63080000  1.0 -0.6088699233
O  O51  1  0.36230000  0.30760000  0.31200000  1.0 -0.7720971611
O  O52  1  0.40060000  0.56239000  0.65470000  1.0 -0.6088699233
O  O53  1  0.76520000  0.24420000  0.35550000  1.0 -0.5715147462
O  O54  1  0.87060000  0.28300000  0.23560000  1.0 -0.5103333201
O  O55  1  0.50990000  0.33270000  0.20460000  1.0 -0.5893521216
O  O56  1  0.78940000  0.12970000  0.05100000  1.0 -0.437936863
O  O57  1  0.47690000  0.39600000  0.10950000  1.0 -0.5715147462
O  O58  1  0.01950000  0.19310000  0.43120000  1.0 -0.5715147462
O  O59  1  0.11840000  0.34480000  0.17570000  1.0 -0.7720971611
O  O60  1  0.81470000  0.34970000  0.35470000  1.0 -0.7988702413
O  O61  1  0.76150000  0.87269000  0.08030000  1.0 -0.7109750516
O  O62  1  0.62130000  0.81240000  0.70320000  1.0 -0.3691609856
O  O63  1  0.21800000  0.88209000  0.30750000  1.0 -0.7109750516
O  O64  1  0.58470000  0.93389000  0.99100000  1.0 -0.6479863133
O  O65  1  0.90960000  0.76517000  0.13550000  1.0 -0.6831885185
O  O66  1  0.04930000  0.94897000  0.18850000  1.0 -0.8396315184
O  O67  1  0.92590000  0.93909000  0.03230000  1.0 -0.6712662187
O  O68  1  0.27800000  0.07334000  0.77510000  1.0 -0.7159357673
O  O69  1  0.76740000  0.96440000  0.88280000  1.0 -0.3910845276
O  O70  1  0.35480000  0.00743000  0.86920000  1.0 -0.6088699233
O  O71  1  0.63770000  0.80760000  0.18800000  1.0 -0.7720971611
O  O72  1  0.59940000  0.06239000  0.84530000  1.0 -0.6088699233
O  O73  1  0.23480000  0.74420000  0.14450000  1.0 -0.5715147462
O  O74  1  0.12940000  0.78300000  0.26440000  1.0 -0.5103333201
O  O75  1  0.49010000  0.83270000  0.29540000  1.0 -0.5893521216
O  O76  1  0.21060000  0.62970000  0.44900000  1.0 -0.437936863
O  O77  1  0.52310000  0.89600000  0.39050000  1.0 -0.5715147462
O  O78  1  0.98050000  0.69310000  0.06880000  1.0 -0.5752870049
O  O79  1  0.88160000  0.84480000  0.32430000  1.0 -0.7720971611
O  O80  1  0.18530000  0.84970000  0.14530000  1.0 -0.7988702413
