# DDEC6 charges by PACMAN v1.1 (https://github.com/mtap-research/PACMAN-charge/)
data_UVUDEW_ASR_pacman
_symmetry_space_group_name_H-M   'P 1'
_cell_length_a   17.10140000
_cell_length_b   17.10140000
_cell_length_c   17.10140000
_cell_angle_alpha   108.62000000
_cell_angle_beta   108.62000000
_cell_angle_gamma   108.62000000
_symmetry_Int_Tables_number   1
_chemical_formula_structural   Co2H13C23O10
_chemical_formula_sum   'Co12 H78 C138 O60'
_cell_volume   3966.80862900
_cell_formula_units_Z   6
loop_
 _symmetry_equiv_pos_site_id
 _symmetry_equiv_pos_as_xyz
  1  'x, y, z'
loop_
 _atom_site_type_symbol
 _atom_site_label
 _atom_site_symmetry_multiplicity
 _atom_site_fract_x
 _atom_site_fract_y
 _atom_site_fract_z
 _atom_site_occupancy
 _atom_site_charge
Co  Co1  1  0.86506000  0.66163000  0.22454000  1.0 0.941221701
Co  Co2  1  0.66163000  0.22454000  0.86506000  1.0 0.941221701
Co  Co3  1  0.22454000  0.86506000  0.66163000  1.0 0.941221701
Co  Co4  1  0.13494000  0.33837000  0.77546000  1.0 0.941221701
Co  Co5  1  0.33837000  0.77546000  0.13494000  1.0 0.941221701
Co  Co6  1  0.77546000  0.13494000  0.33837000  1.0 0.941221701
Co  Co7  1  0.75293000  0.41626000  0.09232000  1.0 1.0184746652
Co  Co8  1  0.41626000  0.09232000  0.75293000  1.0 1.0184746652
Co  Co9  1  0.09232000  0.75293000  0.41626000  1.0 1.0184746652
Co  Co10  1  0.24707000  0.58374000  0.90768000  1.0 1.0184746652
Co  Co11  1  0.58374000  0.90768000  0.24707000  1.0 1.0184746652
Co  Co12  1  0.90768000  0.24707000  0.58374000  1.0 1.0184746652
H  H1  1  0.94700000  0.33940000  0.90050000  1.0 0.1300356026
H  H2  1  0.33940000  0.90050000  0.94700000  1.0 0.1300356026
H  H3  1  0.90050000  0.94700000  0.33940000  1.0 0.1300356026
H  H4  1  0.05300000  0.66060000  0.09950000  1.0 0.1300356026
H  H5  1  0.66060000  0.09950000  0.05300000  1.0 0.1300356026
H  H6  1  0.09950000  0.05300000  0.66060000  1.0 0.1300356026
H  H7  1  0.20490000  0.52780000  0.11990000  1.0 0.1300356026
H  H8  1  0.52780000  0.11990000  0.20490000  1.0 0.1300356026
H  H9  1  0.11990000  0.20490000  0.52780000  1.0 0.1300356026
H  H10  1  0.79510000  0.47220000  0.88010000  1.0 0.1300356026
H  H11  1  0.47220000  0.88010000  0.79510000  1.0 0.1300356026
H  H12  1  0.88010000  0.79510000  0.47220000  1.0 0.1300356026
H  H13  1  0.98000000  0.44290000  0.16450000  1.0 0.1428262014
H  H14  1  0.44290000  0.16450000  0.98000000  1.0 0.1428262014
H  H15  1  0.16450000  0.98000000  0.44290000  1.0 0.1428262014
H  H16  1  0.02000000  0.55710000  0.83550000  1.0 0.1428262014
H  H17  1  0.55710000  0.83550000  0.02000000  1.0 0.1428262014
H  H18  1  0.83550000  0.02000000  0.55710000  1.0 0.1428262014
H  H19  1  0.27300000  0.53720000  0.26890000  1.0 0.0832420544
H  H20  1  0.53720000  0.26890000  0.27300000  1.0 0.0832420544
H  H21  1  0.26890000  0.27300000  0.53720000  1.0 0.0832420544
H  H22  1  0.72700000  0.46280000  0.73110000  1.0 0.0832420544
H  H23  1  0.46280000  0.73110000  0.72700000  1.0 0.0832420544
H  H24  1  0.73110000  0.72700000  0.46280000  1.0 0.0832420544
H  H25  1  0.27790000  0.63610000  0.28090000  1.0 0.0914564468
H  H26  1  0.63610000  0.28090000  0.27790000  1.0 0.0914564468
H  H27  1  0.28090000  0.27790000  0.63610000  1.0 0.0914564468
H  H28  1  0.72210000  0.36390000  0.71910000  1.0 0.0914564468
H  H29  1  0.36390000  0.71910000  0.72210000  1.0 0.0914564468
H  H30  1  0.71910000  0.72210000  0.36390000  1.0 0.0914564468
H  H31  1  0.27300000  0.66850000  0.42230000  1.0 0.1010202499
H  H32  1  0.66850000  0.42230000  0.27300000  1.0 0.1010202499
H  H33  1  0.42230000  0.27300000  0.66850000  1.0 0.1010202499
H  H34  1  0.72700000  0.33150000  0.57770000  1.0 0.1010202499
H  H35  1  0.33150000  0.57770000  0.72700000  1.0 0.1010202499
H  H36  1  0.57770000  0.72700000  0.33150000  1.0 0.1010202499
H  H37  1  0.25940000  0.56720000  0.40910000  1.0 0.0914564468
H  H38  1  0.56720000  0.40910000  0.25940000  1.0 0.0914564468
H  H39  1  0.40910000  0.25940000  0.56720000  1.0 0.0914564468
H  H40  1  0.74060000  0.43280000  0.59090000  1.0 0.0914564468
H  H41  1  0.43280000  0.59090000  0.74060000  1.0 0.0914564468
H  H42  1  0.59090000  0.74060000  0.43280000  1.0 0.0914564468
H  H43  1  0.42400000  0.70100000  0.42750000  1.0 0.1191279236
H  H44  1  0.70100000  0.42750000  0.42400000  1.0 0.1191279236
H  H45  1  0.42750000  0.42400000  0.70100000  1.0 0.1191279236
H  H46  1  0.57600000  0.29900000  0.57250000  1.0 0.1191279236
H  H47  1  0.29900000  0.57250000  0.57600000  1.0 0.1191279236
H  H48  1  0.57250000  0.57600000  0.29900000  1.0 0.1191279236
H  H49  1  0.41720000  0.69100000  0.51540000  1.0 0.1191279236
H  H50  1  0.69100000  0.51540000  0.41720000  1.0 0.1191279236
H  H51  1  0.51540000  0.41720000  0.69100000  1.0 0.1191279236
H  H52  1  0.58280000  0.30900000  0.48460000  1.0 0.1191279236
H  H53  1  0.30900000  0.48460000  0.58280000  1.0 0.1191279236
H  H54  1  0.48460000  0.58280000  0.30900000  1.0 0.1191279236
H  H55  1  0.41010000  0.60640000  0.43340000  1.0 0.1191279236
H  H56  1  0.60640000  0.43340000  0.41010000  1.0 0.1191279236
H  H57  1  0.43340000  0.41010000  0.60640000  1.0 0.1191279236
H  H58  1  0.58990000  0.39360000  0.56660000  1.0 0.1191279236
H  H59  1  0.39360000  0.56660000  0.58990000  1.0 0.1191279236
H  H60  1  0.56660000  0.58990000  0.39360000  1.0 0.1191279236
H  H61  1  0.84870000  0.39010000  0.32850000  1.0 0.1300356026
H  H62  1  0.39010000  0.32850000  0.84870000  1.0 0.1300356026
H  H63  1  0.32850000  0.84870000  0.39010000  1.0 0.1300356026
H  H64  1  0.15130000  0.60990000  0.67150000  1.0 0.1300356026
H  H65  1  0.60990000  0.67150000  0.15130000  1.0 0.1300356026
H  H66  1  0.67150000  0.15130000  0.60990000  1.0 0.1300356026
H  H67  1  0.91640000  0.49720000  0.60370000  1.0 0.1428262014
H  H68  1  0.49720000  0.60370000  0.91640000  1.0 0.1428262014
H  H69  1  0.60370000  0.91640000  0.49720000  1.0 0.1428262014
H  H70  1  0.08360000  0.50280000  0.39630000  1.0 0.1428262014
H  H71  1  0.50280000  0.39630000  0.08360000  1.0 0.1428262014
H  H72  1  0.39630000  0.08360000  0.50280000  1.0 0.1428262014
H  H73  1  0.92710000  0.66340000  0.48050000  1.0 0.1472087868
H  H74  1  0.66340000  0.48050000  0.92710000  1.0 0.1472087868
H  H75  1  0.48050000  0.92710000  0.66340000  1.0 0.1472087868
H  H76  1  0.07290000  0.33660000  0.51950000  1.0 0.1472087868
H  H77  1  0.33660000  0.51950000  0.07290000  1.0 0.1472087868
H  H78  1  0.51950000  0.07290000  0.33660000  1.0 0.1472087868
C  C1  1  0.84530000  0.33360000  0.98970000  1.0 0.5762253273
C  C2  1  0.33360000  0.98970000  0.84530000  1.0 0.5762253273
C  C3  1  0.98970000  0.84530000  0.33360000  1.0 0.5762253273
C  C4  1  0.15470000  0.66640000  0.01030000  1.0 0.5762253273
C  C5  1  0.66640000  0.01030000  0.15470000  1.0 0.5762253273
C  C6  1  0.01030000  0.15470000  0.66640000  1.0 0.5762253273
C  C7  1  0.94840000  0.38480000  0.02710000  1.0 -0.0081798965
C  C8  1  0.38480000  0.02710000  0.94840000  1.0 -0.0081798965
C  C9  1  0.02710000  0.94840000  0.38480000  1.0 -0.0081798965
C  C10  1  0.05160000  0.61520000  0.97290000  1.0 -0.0081798965
C  C11  1  0.61520000  0.97290000  0.05160000  1.0 -0.0081798965
C  C12  1  0.97290000  0.05160000  0.61520000  1.0 -0.0081798965
C  C13  1  0.98600000  0.37920000  0.96570000  1.0 -0.127625489
C  C14  1  0.37920000  0.96570000  0.98600000  1.0 -0.127625489
C  C15  1  0.96570000  0.98600000  0.37920000  1.0 -0.127625489
C  C16  1  0.01400000  0.62080000  0.03430000  1.0 -0.127625489
C  C17  1  0.62080000  0.03430000  0.01400000  1.0 -0.127625489
C  C18  1  0.03430000  0.01400000  0.62080000  1.0 -0.127625489
C  C19  1  0.08096000  0.43232000  0.00062000  1.0 -0.0081798965
C  C20  1  0.43232000  0.00062000  0.08096000  1.0 -0.0081798965
C  C21  1  0.00062000  0.08096000  0.43232000  1.0 -0.0081798965
C  C22  1  0.91904000  0.56768000  0.99938000  1.0 -0.0081798965
C  C23  1  0.56768000  0.99938000  0.91904000  1.0 -0.0081798965
C  C24  1  0.99938000  0.91904000  0.56768000  1.0 -0.0081798965
C  C25  1  0.11970000  0.43230000  0.93400000  1.0 0.5762253273
C  C26  1  0.43230000  0.93400000  0.11970000  1.0 0.5762253273
C  C27  1  0.93400000  0.11970000  0.43230000  1.0 0.5762253273
C  C28  1  0.88030000  0.56770000  0.06600000  1.0 0.5762253273
C  C29  1  0.56770000  0.06600000  0.88030000  1.0 0.5762253273
C  C30  1  0.06600000  0.88030000  0.56770000  1.0 0.5762253273
C  C31  1  0.14004000  0.49001000  0.09655000  1.0 -0.236782534
C  C32  1  0.49001000  0.09655000  0.14004000  1.0 -0.236782534
C  C33  1  0.09655000  0.14004000  0.49001000  1.0 -0.236782534
C  C34  1  0.85996000  0.50999000  0.90345000  1.0 -0.236782534
C  C35  1  0.50999000  0.90345000  0.85996000  1.0 -0.236782534
C  C36  1  0.90345000  0.85996000  0.50999000  1.0 -0.236782534
C  C37  1  0.10120000  0.49040000  0.15660000  1.0 0.246202392
C  C38  1  0.49040000  0.15660000  0.10120000  1.0 0.246202392
C  C39  1  0.15660000  0.10120000  0.49040000  1.0 0.246202392
C  C40  1  0.89880000  0.50960000  0.84340000  1.0 0.246202392
C  C41  1  0.50960000  0.84340000  0.89880000  1.0 0.246202392
C  C42  1  0.84340000  0.89880000  0.50960000  1.0 0.246202392
C  C43  1  0.00590000  0.43990000  0.12270000  1.0 -0.2094643432
C  C44  1  0.43990000  0.12270000  0.00590000  1.0 -0.2094643432
C  C45  1  0.12270000  0.00590000  0.43990000  1.0 -0.2094643432
C  C46  1  0.99410000  0.56010000  0.87730000  1.0 -0.2094643432
C  C47  1  0.56010000  0.87730000  0.99410000  1.0 -0.2094643432
C  C48  1  0.87730000  0.99410000  0.56010000  1.0 -0.2094643432
C  C49  1  0.25340000  0.58390000  0.29430000  1.0 -0.0308321286
C  C50  1  0.58390000  0.29430000  0.25340000  1.0 -0.0308321286
C  C51  1  0.29430000  0.25340000  0.58390000  1.0 -0.0308321286
C  C52  1  0.74660000  0.41610000  0.70570000  1.0 -0.0308321286
C  C53  1  0.41610000  0.70570000  0.74660000  1.0 -0.0308321286
C  C54  1  0.70570000  0.74660000  0.41610000  1.0 -0.0308321286
C  C55  1  0.28960000  0.61900000  0.39730000  1.0 -0.1487614928
C  C56  1  0.61900000  0.39730000  0.28960000  1.0 -0.1487614928
C  C57  1  0.39730000  0.28960000  0.61900000  1.0 -0.1487614928
C  C58  1  0.71040000  0.38100000  0.60270000  1.0 -0.1487614928
C  C59  1  0.38100000  0.60270000  0.71040000  1.0 -0.1487614928
C  C60  1  0.60270000  0.71040000  0.38100000  1.0 -0.1487614928
C  C61  1  0.39450000  0.65770000  0.44780000  1.0 -0.3892065516
C  C62  1  0.65770000  0.44780000  0.39450000  1.0 -0.3892065516
C  C63  1  0.44780000  0.39450000  0.65770000  1.0 -0.3892065516
C  C64  1  0.60550000  0.34230000  0.55220000  1.0 -0.3892065516
C  C65  1  0.34230000  0.55220000  0.60550000  1.0 -0.3892065516
C  C66  1  0.55220000  0.60550000  0.34230000  1.0 -0.3892065516
C  C67  1  0.87980000  0.54450000  0.31040000  1.0 0.5940244067
C  C68  1  0.54450000  0.31040000  0.87980000  1.0 0.5940244067
C  C69  1  0.31040000  0.87980000  0.54450000  1.0 0.5940244067
C  C70  1  0.12020000  0.45550000  0.68960000  1.0 0.5940244067
C  C71  1  0.45550000  0.68960000  0.12020000  1.0 0.5940244067
C  C72  1  0.68960000  0.12020000  0.45550000  1.0 0.5940244067
C  C73  1  0.88740000  0.52920000  0.39190000  1.0 -0.0223222077
C  C74  1  0.52920000  0.39190000  0.88740000  1.0 -0.0223222077
C  C75  1  0.39190000  0.88740000  0.52920000  1.0 -0.0223222077
C  C76  1  0.11260000  0.47080000  0.60810000  1.0 -0.0223222077
C  C77  1  0.47080000  0.60810000  0.11260000  1.0 -0.0223222077
C  C78  1  0.60810000  0.11260000  0.47080000  1.0 -0.0223222077
C  C79  1  0.86860000  0.44160000  0.38610000  1.0 -0.127625489
C  C80  1  0.44160000  0.38610000  0.86860000  1.0 -0.127625489
C  C81  1  0.38610000  0.86860000  0.44160000  1.0 -0.127625489
C  C82  1  0.13140000  0.55840000  0.61390000  1.0 -0.127625489
C  C83  1  0.55840000  0.61390000  0.13140000  1.0 -0.127625489
C  C84  1  0.61390000  0.13140000  0.55840000  1.0 -0.127625489
C  C85  1  0.87920000  0.43010000  0.46530000  1.0 -0.0081798965
C  C86  1  0.43010000  0.46530000  0.87920000  1.0 -0.0081798965
C  C87  1  0.46530000  0.87920000  0.43010000  1.0 -0.0081798965
C  C88  1  0.12080000  0.56990000  0.53470000  1.0 -0.0081798965
C  C89  1  0.56990000  0.53470000  0.12080000  1.0 -0.0081798965
C  C90  1  0.53470000  0.12080000  0.56990000  1.0 -0.0081798965
C  C91  1  0.86290000  0.33740000  0.46150000  1.0 0.5762253273
C  C92  1  0.33740000  0.46150000  0.86290000  1.0 0.5762253273
C  C93  1  0.46150000  0.86290000  0.33740000  1.0 0.5762253273
C  C94  1  0.13710000  0.66260000  0.53850000  1.0 0.5762253273
C  C95  1  0.66260000  0.53850000  0.13710000  1.0 0.5762253273
C  C96  1  0.53850000  0.13710000  0.66260000  1.0 0.5762253273
C  C97  1  0.90790000  0.50520000  0.54960000  1.0 -0.2094643432
C  C98  1  0.50520000  0.54960000  0.90790000  1.0 -0.2094643432
C  C99  1  0.54960000  0.90790000  0.50520000  1.0 -0.2094643432
C  C100  1  0.09210000  0.49480000  0.45040000  1.0 -0.2094643432
C  C101  1  0.49480000  0.45040000  0.09210000  1.0 -0.2094643432
C  C102  1  0.45040000  0.09210000  0.49480000  1.0 -0.2094643432
C  C103  1  0.92400000  0.59110000  0.55470000  1.0 0.2441281367
C  C104  1  0.59110000  0.55470000  0.92400000  1.0 0.2441281367
C  C105  1  0.55470000  0.92400000  0.59110000  1.0 0.2441281367
C  C106  1  0.07600000  0.40890000  0.44530000  1.0 0.246202392
C  C107  1  0.40890000  0.44530000  0.07600000  1.0 0.2441281367
C  C108  1  0.44530000  0.07600000  0.40890000  1.0 0.2441281367
C  C109  1  0.91470000  0.60350000  0.47630000  1.0 -0.1994045308
C  C110  1  0.60350000  0.47630000  0.91470000  1.0 -0.1994045308
C  C111  1  0.47630000  0.91470000  0.60350000  1.0 -0.1994045308
C  C112  1  0.08530000  0.39650000  0.52370000  1.0 -0.1994045308
C  C113  1  0.39650000  0.52370000  0.08530000  1.0 -0.1994045308
C  C114  1  0.52370000  0.08530000  0.39650000  1.0 -0.1994045308
C  C115  1  0.99050000  0.67290000  0.72230000  1.0 0.0611140399
C  C116  1  0.67290000  0.72230000  0.99050000  1.0 0.0611140399
C  C117  1  0.72230000  0.99050000  0.67290000  1.0 0.0611140399
C  C118  1  0.00950000  0.32710000  0.27770000  1.0 0.0611140399
C  C119  1  0.32710000  0.27770000  0.00950000  1.0 0.0611140399
C  C120  1  0.27770000  0.00950000  0.32710000  1.0 0.0611140399
C  C121  1  0.00770000  0.76350000  0.79690000  1.0 0.1064175498
C  C122  1  0.76350000  0.79690000  0.00770000  1.0 0.1064175498
C  C123  1  0.79690000  0.00770000  0.76350000  1.0 0.1010202499
C  C124  1  0.99230000  0.23650000  0.20310000  1.0 0.1064175498
C  C125  1  0.23650000  0.20310000  0.99230000  1.0 0.1064175498
C  C126  1  0.20310000  0.99230000  0.23650000  1.0 0.1064175498
C  C127  1  0.10200000  0.80480000  0.88990000  1.0 -0.0562274686
C  C128  1  0.80480000  0.88990000  0.10200000  1.0 -0.0507303768
C  C129  1  0.88990000  0.10200000  0.80480000  1.0 -0.0507303768
C  C130  1  0.89800000  0.19520000  0.11010000  1.0 -0.0562274686
C  C131  1  0.19520000  0.11010000  0.89800000  1.0 -0.0507303768
C  C132  1  0.11010000  0.89800000  0.19520000  1.0 -0.0562274686
C  C133  1  0.05560000  0.78890000  0.79080000  1.0 0.1010202499
C  C134  1  0.78890000  0.79080000  0.05560000  1.0 0.1064175498
C  C135  1  0.79080000  0.05560000  0.78890000  1.0 0.1010202499
C  C136  1  0.94440000  0.21110000  0.20920000  1.0 0.1010202499
C  C137  1  0.21110000  0.20920000  0.94440000  1.0 0.1010202499
C  C138  1  0.20920000  0.94440000  0.21110000  1.0 0.1010202499
O  O1  1  0.81189000  0.33974000  0.04577000  1.0 -0.5637592207
O  O2  1  0.33974000  0.04577000  0.81189000  1.0 -0.5637592207
O  O3  1  0.04577000  0.81189000  0.33974000  1.0 -0.5637592207
O  O4  1  0.18811000  0.66026000  0.95423000  1.0 -0.5637592207
O  O5  1  0.66026000  0.95423000  0.18811000  1.0 -0.5637592207
O  O6  1  0.95423000  0.18811000  0.66026000  1.0 -0.5637592207
O  O7  1  0.79598000  0.28472000  0.90271000  1.0 -0.5089214277
O  O8  1  0.28472000  0.90271000  0.79598000  1.0 -0.5089214277
O  O9  1  0.90271000  0.79598000  0.28472000  1.0 -0.5089214277
O  O10  1  0.20402000  0.71528000  0.09729000  1.0 -0.5089214277
O  O11  1  0.71528000  0.09729000  0.20402000  1.0 -0.5089214277
O  O12  1  0.09729000  0.20402000  0.71528000  1.0 -0.5089214277
O  O13  1  0.19554000  0.49977000  0.96055000  1.0 -0.5713009501
O  O14  1  0.49977000  0.96055000  0.19554000  1.0 -0.5713009501
O  O15  1  0.96055000  0.19554000  0.49977000  1.0 -0.5713009501
O  O16  1  0.80446000  0.50023000  0.03945000  1.0 -0.5713009501
O  O17  1  0.50023000  0.03945000  0.80446000  1.0 -0.5713009501
O  O18  1  0.03945000  0.80446000  0.50023000  1.0 -0.5713009501
O  O19  1  0.07321000  0.36156000  0.85299000  1.0 -0.5377930732
O  O20  1  0.36156000  0.85299000  0.07321000  1.0 -0.5377930732
O  O21  1  0.85299000  0.07321000  0.36156000  1.0 -0.5377930732
O  O22  1  0.92679000  0.63844000  0.14701000  1.0 -0.5377930732
O  O23  1  0.63844000  0.14701000  0.92679000  1.0 -0.5377930732
O  O24  1  0.14701000  0.92679000  0.63844000  1.0 -0.5377930732
O  O25  1  0.15288000  0.54158000  0.25264000  1.0 -0.1899366137
O  O26  1  0.54158000  0.25264000  0.15288000  1.0 -0.1899366137
O  O27  1  0.25264000  0.15288000  0.54158000  1.0 -0.1899366137
O  O28  1  0.84712000  0.45842000  0.74736000  1.0 -0.1899366137
O  O29  1  0.45842000  0.74736000  0.84712000  1.0 -0.1899366137
O  O30  1  0.74736000  0.84712000  0.45842000  1.0 -0.1899366137
O  O31  1  0.84559000  0.47587000  0.23204000  1.0 -0.5713009501
O  O32  1  0.47587000  0.23204000  0.84559000  1.0 -0.5713009501
O  O33  1  0.23204000  0.84559000  0.47587000  1.0 -0.5713009501
O  O34  1  0.15441000  0.52413000  0.76796000  1.0 -0.5713009501
O  O35  1  0.52413000  0.76796000  0.15441000  1.0 -0.5713009501
O  O36  1  0.76796000  0.15441000  0.52413000  1.0 -0.5713009501
O  O37  1  0.90850000  0.62885000  0.32395000  1.0 -0.5933419
O  O38  1  0.62885000  0.32395000  0.90850000  1.0 -0.5933419
O  O39  1  0.32395000  0.90850000  0.62885000  1.0 -0.5933419
O  O40  1  0.09150000  0.37115000  0.67605000  1.0 -0.5933419
O  O41  1  0.37115000  0.67605000  0.09150000  1.0 -0.5933419
O  O42  1  0.67605000  0.09150000  0.37115000  1.0 -0.5933419
O  O43  1  0.88434000  0.33457000  0.53739000  1.0 -0.5713009501
O  O44  1  0.33457000  0.53739000  0.88434000  1.0 -0.5713009501
O  O45  1  0.53739000  0.88434000  0.33457000  1.0 -0.5713009501
O  O46  1  0.11566000  0.66543000  0.46261000  1.0 -0.5713009501
O  O47  1  0.66543000  0.46261000  0.11566000  1.0 -0.5713009501
O  O48  1  0.46261000  0.11566000  0.66543000  1.0 -0.5713009501
O  O49  1  0.82893000  0.26880000  0.38257000  1.0 -0.5532274972
O  O50  1  0.26880000  0.38257000  0.82893000  1.0 -0.5532274972
O  O51  1  0.38257000  0.82893000  0.26880000  1.0 -0.5532274972
O  O52  1  0.17107000  0.73120000  0.61743000  1.0 -0.5532274972
O  O53  1  0.73120000  0.61743000  0.17107000  1.0 -0.5532274972
O  O54  1  0.61743000  0.17107000  0.73120000  1.0 -0.5532274972
O  O55  1  0.95107000  0.66905000  0.63418000  1.0 -0.1487614928
O  O56  1  0.66905000  0.63418000  0.95107000  1.0 -0.1487614928
O  O57  1  0.63418000  0.95107000  0.66905000  1.0 -0.1487614928
O  O58  1  0.04893000  0.33095000  0.36582000  1.0 -0.1487614928
O  O59  1  0.33095000  0.36582000  0.04893000  1.0 -0.1487614928
O  O60  1  0.36582000  0.04893000  0.33095000  1.0 -0.1487614928
