# DDEC6 charges by PACMAN v1.1 (https://github.com/mtap-research/PACMAN-charge/)
data_UVUFIC_ASR_pacman
_symmetry_space_group_name_H-M   'P 1'
_cell_length_a   17.31890000
_cell_length_b   17.31890000
_cell_length_c   17.31890000
_cell_angle_alpha   108.74800000
_cell_angle_beta   108.74800000
_cell_angle_gamma   108.74800000
_symmetry_Int_Tables_number   1
_chemical_formula_structural   Mn2H6C34O11
_chemical_formula_sum   'Mn12 H36 C204 O66'
_cell_volume   4102.46848563
_cell_formula_units_Z   6
loop_
 _symmetry_equiv_pos_site_id
 _symmetry_equiv_pos_as_xyz
  1  'x, y, z'
loop_
 _atom_site_type_symbol
 _atom_site_label
 _atom_site_symmetry_multiplicity
 _atom_site_fract_x
 _atom_site_fract_y
 _atom_site_fract_z
 _atom_site_occupancy
 _atom_site_charge
Mn  Mn1  1  0.77311000  0.13836000  0.33598000  1.0 0.9581611518
Mn  Mn2  1  0.13836000  0.33598000  0.77311000  1.0 0.9581611518
Mn  Mn3  1  0.33598000  0.77311000  0.13836000  1.0 0.9581611518
Mn  Mn4  1  0.22689000  0.86164000  0.66402000  1.0 0.9581611518
Mn  Mn5  1  0.86164000  0.66402000  0.22689000  1.0 0.9581611518
Mn  Mn6  1  0.66402000  0.22689000  0.86164000  1.0 0.9581611518
Mn  Mn7  1  0.57938000  0.90673000  0.25098000  1.0 1.0708032612
Mn  Mn8  1  0.90673000  0.25098000  0.57938000  1.0 1.0708032612
Mn  Mn9  1  0.25098000  0.57938000  0.90673000  1.0 1.0708032612
Mn  Mn10  1  0.42062000  0.09327000  0.74902000  1.0 1.0708032612
Mn  Mn11  1  0.09327000  0.74902000  0.42062000  1.0 1.0708032612
Mn  Mn12  1  0.74902000  0.42062000  0.09327000  1.0 1.0708032612
H  H1  1  0.66300000  0.09930000  0.05540000  1.0 0.1390588748
H  H2  1  0.09930000  0.05540000  0.66300000  1.0 0.1390588748
H  H3  1  0.05540000  0.66300000  0.09930000  1.0 0.1390588748
H  H4  1  0.33700000  0.90070000  0.94460000  1.0 0.1390588748
H  H5  1  0.90070000  0.94460000  0.33700000  1.0 0.1390588748
H  H6  1  0.94460000  0.33700000  0.90070000  1.0 0.1390588748
H  H7  1  0.47550000  0.90310000  0.78990000  1.0 0.1390588748
H  H8  1  0.90310000  0.78990000  0.47550000  1.0 0.1390588748
H  H9  1  0.78990000  0.47550000  0.90310000  1.0 0.1390588748
H  H10  1  0.52450000  0.09690000  0.21010000  1.0 0.1390588748
H  H11  1  0.09690000  0.21010000  0.52450000  1.0 0.1390588748
H  H12  1  0.21010000  0.52450000  0.09690000  1.0 0.1390588748
H  H13  1  0.53060000  0.83120000  0.99480000  1.0 0.1491688255
H  H14  1  0.83120000  0.99480000  0.53060000  1.0 0.1491688255
H  H15  1  0.99480000  0.53060000  0.83120000  1.0 0.1491688255
H  H16  1  0.46940000  0.16880000  0.00520000  1.0 0.1491688255
H  H17  1  0.16880000  0.00520000  0.46940000  1.0 0.1491688255
H  H18  1  0.00520000  0.46940000  0.16880000  1.0 0.1491688255
H  H19  1  0.83860000  0.39970000  0.33090000  1.0 0.1390588748
H  H20  1  0.39970000  0.33090000  0.83860000  1.0 0.1390588748
H  H21  1  0.33090000  0.83860000  0.39970000  1.0 0.1390588748
H  H22  1  0.16140000  0.60030000  0.66910000  1.0 0.1390588748
H  H23  1  0.60030000  0.66910000  0.16140000  1.0 0.1390588748
H  H24  1  0.66910000  0.16140000  0.60030000  1.0 0.1390588748
H  H25  1  0.94740000  0.67560000  0.49400000  1.0 0.1390588748
H  H26  1  0.67560000  0.49400000  0.94740000  1.0 0.1390588748
H  H27  1  0.49400000  0.94740000  0.67560000  1.0 0.1390588748
H  H28  1  0.05260000  0.32440000  0.50600000  1.0 0.1390588748
H  H29  1  0.32440000  0.50600000  0.05260000  1.0 0.1390588748
H  H30  1  0.50600000  0.05260000  0.32440000  1.0 0.1390588748
H  H31  1  0.91610000  0.50210000  0.60550000  1.0 0.1390588748
H  H32  1  0.50210000  0.60550000  0.91610000  1.0 0.1390588748
H  H33  1  0.60550000  0.91610000  0.50210000  1.0 0.1390588748
H  H34  1  0.08390000  0.49790000  0.39450000  1.0 0.1390588748
H  H35  1  0.49790000  0.39450000  0.08390000  1.0 0.1390588748
H  H36  1  0.39450000  0.08390000  0.49790000  1.0 0.1390588748
C  C1  1  0.64739000  0.99873000  0.14098000  1.0 0.5834573273
C  C2  1  0.99873000  0.14098000  0.64739000  1.0 0.5834573273
C  C3  1  0.14098000  0.64739000  0.99873000  1.0 0.5834573273
C  C4  1  0.35261000  0.00127000  0.85902000  1.0 0.5834573273
C  C5  1  0.00127000  0.85902000  0.35261000  1.0 0.5834573273
C  C6  1  0.85902000  0.35261000  0.00127000  1.0 0.5834573273
C  C7  1  0.60225000  0.96980000  0.03982000  1.0 -0.0026027962
C  C8  1  0.96980000  0.03982000  0.60225000  1.0 -0.0026027962
C  C9  1  0.03982000  0.60225000  0.96980000  1.0 -0.0026027962
C  C10  1  0.39775000  0.03020000  0.96018000  1.0 -0.0026027962
C  C11  1  0.03020000  0.96018000  0.39775000  1.0 -0.0026027962
C  C12  1  0.96018000  0.39775000  0.03020000  1.0 -0.0026027962
C  C13  1  0.61906000  0.03663000  0.01144000  1.0 -0.1292575311
C  C14  1  0.03663000  0.01144000  0.61906000  1.0 -0.1292575311
C  C15  1  0.01144000  0.61906000  0.03663000  1.0 -0.1292575311
C  C16  1  0.38094000  0.96337000  0.98856000  1.0 -0.1292575311
C  C17  1  0.96337000  0.98856000  0.38094000  1.0 -0.1292575311
C  C18  1  0.98856000  0.38094000  0.96337000  1.0 -0.1292575311
C  C19  1  0.57159000  0.01195000  0.91859000  1.0 -0.0080874509
C  C20  1  0.01195000  0.91859000  0.57159000  1.0 -0.0080874509
C  C21  1  0.91859000  0.57159000  0.01195000  1.0 -0.0080874509
C  C22  1  0.42841000  0.98805000  0.08141000  1.0 -0.0080874509
C  C23  1  0.98805000  0.08141000  0.42841000  1.0 -0.0080874509
C  C24  1  0.08141000  0.42841000  0.98805000  1.0 -0.0080874509
C  C25  1  0.59105000  0.08631000  0.89152000  1.0 0.571901745
C  C26  1  0.08631000  0.89152000  0.59105000  1.0 0.571901745
C  C27  1  0.89152000  0.59105000  0.08631000  1.0 0.571901745
C  C28  1  0.40895000  0.91369000  0.10848000  1.0 0.571901745
C  C29  1  0.91369000  0.10848000  0.40895000  1.0 0.571901745
C  C30  1  0.10848000  0.40895000  0.91369000  1.0 0.571901745
C  C31  1  0.50870000  0.91974000  0.85325000  1.0 -0.2472360567
C  C32  1  0.91974000  0.85325000  0.50870000  1.0 -0.2472360567
C  C33  1  0.85325000  0.50870000  0.91974000  1.0 -0.2472360567
C  C34  1  0.49130000  0.08026000  0.14675000  1.0 -0.2472360567
C  C35  1  0.08026000  0.14675000  0.49130000  1.0 -0.2472360567
C  C36  1  0.14675000  0.49130000  0.08026000  1.0 -0.2472360567
C  C37  1  0.49504000  0.85219000  0.88187000  1.0 0.2676973232
C  C38  1  0.85219000  0.88187000  0.49504000  1.0 0.2676973232
C  C39  1  0.88187000  0.49504000  0.85219000  1.0 0.2676973232
C  C40  1  0.50496000  0.14781000  0.11813000  1.0 0.2676973232
C  C41  1  0.14781000  0.11813000  0.50496000  1.0 0.2676973232
C  C42  1  0.11813000  0.50496000  0.14781000  1.0 0.2676973232
C  C43  1  0.54101000  0.87721000  0.97528000  1.0 -0.2261341151
C  C44  1  0.87721000  0.97528000  0.54101000  1.0 -0.2261341151
C  C45  1  0.97528000  0.54101000  0.87721000  1.0 -0.2261341151
C  C46  1  0.45899000  0.12279000  0.02472000  1.0 -0.2261341151
C  C47  1  0.12279000  0.02472000  0.45899000  1.0 -0.2261341151
C  C48  1  0.02472000  0.45899000  0.12279000  1.0 -0.2261341151
C  C49  1  0.40180000  0.72570000  0.72480000  1.0 0.1716898296
C  C50  1  0.72570000  0.72480000  0.40180000  1.0 0.1716898296
C  C51  1  0.72480000  0.40180000  0.72570000  1.0 0.1716898296
C  C52  1  0.59820000  0.27430000  0.27520000  1.0 0.1716898296
C  C53  1  0.27430000  0.27520000  0.59820000  1.0 0.1716898296
C  C54  1  0.27520000  0.59820000  0.27430000  1.0 0.1716898296
C  C55  1  0.47010000  0.72530000  0.69710000  1.0 -0.0624788825
C  C56  1  0.72530000  0.69710000  0.47010000  1.0 -0.0624788825
C  C57  1  0.69710000  0.47010000  0.72530000  1.0 -0.0624788825
C  C58  1  0.52990000  0.27470000  0.30290000  1.0 -0.0624788825
C  C59  1  0.27470000  0.30290000  0.52990000  1.0 -0.0624788825
C  C60  1  0.30290000  0.52990000  0.27470000  1.0 -0.0624788825
C  C61  1  0.40920000  0.67980000  0.58570000  1.0 0.0117259266
C  C62  1  0.67980000  0.58570000  0.40920000  1.0 0.0117259266
C  C63  1  0.58570000  0.40920000  0.67980000  1.0 0.0117259266
C  C64  1  0.59080000  0.32020000  0.41430000  1.0 0.0117259266
C  C65  1  0.32020000  0.41430000  0.59080000  1.0 0.0117259266
C  C66  1  0.41430000  0.59080000  0.32020000  1.0 0.0117259266
C  C67  1  0.47210000  0.67900000  0.53320000  1.0 -0.0217256006
C  C68  1  0.67900000  0.53320000  0.47210000  1.0 -0.0217256006
C  C69  1  0.53320000  0.47210000  0.67900000  1.0 -0.0217256006
C  C70  1  0.52790000  0.32100000  0.46680000  1.0 -0.0217256006
C  C71  1  0.32100000  0.46680000  0.52790000  1.0 -0.0217256006
C  C72  1  0.46680000  0.52790000  0.32100000  1.0 -0.0217256006
C  C73  1  0.85094000  0.34368000  0.46008000  1.0 0.5941582087
C  C74  1  0.34368000  0.46008000  0.85094000  1.0 0.5941582087
C  C75  1  0.46008000  0.85094000  0.34368000  1.0 0.5941582087
C  C76  1  0.14906000  0.65632000  0.53992000  1.0 0.5941582087
C  C77  1  0.65632000  0.53992000  0.14906000  1.0 0.5941582087
C  C78  1  0.53992000  0.14906000  0.65632000  1.0 0.5941582087
C  C79  1  0.87421000  0.43759000  0.46608000  1.0 0.0117259266
C  C80  1  0.43759000  0.46608000  0.87421000  1.0 0.0117259266
C  C81  1  0.46608000  0.87421000  0.43759000  1.0 0.0117259266
C  C82  1  0.12579000  0.56241000  0.53392000  1.0 0.0117259266
C  C83  1  0.56241000  0.53392000  0.12579000  1.0 0.0117259266
C  C84  1  0.53392000  0.12579000  0.56241000  1.0 0.0117259266
C  C85  1  0.86486000  0.45094000  0.39005000  1.0 -0.1491742419
C  C86  1  0.45094000  0.39005000  0.86486000  1.0 -0.1491742419
C  C87  1  0.39005000  0.86486000  0.45094000  1.0 -0.1491742419
C  C88  1  0.13514000  0.54906000  0.60995000  1.0 -0.1491742419
C  C89  1  0.54906000  0.60995000  0.13514000  1.0 -0.1491742419
C  C90  1  0.60995000  0.13514000  0.54906000  1.0 -0.1491742419
C  C91  1  0.89432000  0.54088000  0.40085000  1.0 -0.0080874509
C  C92  1  0.54088000  0.40085000  0.89432000  1.0 -0.0080874509
C  C93  1  0.40085000  0.89432000  0.54088000  1.0 -0.0080874509
C  C94  1  0.10568000  0.45912000  0.59915000  1.0 -0.0080874509
C  C95  1  0.45912000  0.59915000  0.10568000  1.0 -0.0080874509
C  C96  1  0.59915000  0.10568000  0.45912000  1.0 -0.0080874509
C  C97  1  0.88943000  0.55870000  0.32153000  1.0 0.5984778169
C  C98  1  0.55870000  0.32153000  0.88943000  1.0 0.5984778169
C  C99  1  0.32153000  0.88943000  0.55870000  1.0 0.5984778169
C  C100  1  0.11057000  0.44130000  0.67847000  1.0 0.5984778169
C  C101  1  0.44130000  0.67847000  0.11057000  1.0 0.5984778169
C  C102  1  0.67847000  0.11057000  0.44130000  1.0 0.5984778169
C  C103  1  0.92894000  0.61486000  0.48710000  1.0 -0.2601124283
C  C104  1  0.61486000  0.48710000  0.92894000  1.0 -0.2601124283
C  C105  1  0.48710000  0.92894000  0.61486000  1.0 -0.2601124283
C  C106  1  0.07106000  0.38514000  0.51290000  1.0 -0.2601124283
C  C107  1  0.38514000  0.51290000  0.07106000  1.0 -0.2601124283
C  C108  1  0.51290000  0.07106000  0.38514000  1.0 -0.2601124283
C  C109  1  0.93680000  0.60070000  0.56270000  1.0 0.2676973232
C  C110  1  0.60070000  0.56270000  0.93680000  1.0 0.2676973232
C  C111  1  0.56270000  0.93680000  0.60070000  1.0 0.2676973232
C  C112  1  0.06320000  0.39930000  0.43730000  1.0 0.2676973232
C  C113  1  0.39930000  0.43730000  0.06320000  1.0 0.2676973232
C  C114  1  0.43730000  0.06320000  0.39930000  1.0 0.2676973232
C  C115  1  0.91011000  0.51207000  0.55352000  1.0 -0.2764063712
C  C116  1  0.51207000  0.55352000  0.91011000  1.0 -0.2764063712
C  C117  1  0.55352000  0.91011000  0.51207000  1.0 -0.2764063712
C  C118  1  0.08989000  0.48793000  0.44648000  1.0 -0.2764063712
C  C119  1  0.48793000  0.44648000  0.08989000  1.0 -0.2764063712
C  C120  1  0.44648000  0.08989000  0.48793000  1.0 -0.2764063712
C  C121  1  0.94650000  0.65210000  0.72150000  1.0 0.0396094262
C  C122  1  0.65210000  0.72150000  0.94650000  1.0 0.0396094262
C  C123  1  0.72150000  0.94650000  0.65210000  1.0 0.0396094262
C  C124  1  0.05350000  0.34790000  0.27850000  1.0 0.0396094262
C  C125  1  0.34790000  0.27850000  0.05350000  1.0 0.0396094262
C  C126  1  0.27850000  0.05350000  0.34790000  1.0 0.0396094262
C  C127  1  0.94360000  0.73990000  0.78360000  1.0 -0.1565042845
C  C128  1  0.73990000  0.78360000  0.94360000  1.0 -0.1565042845
C  C129  1  0.78360000  0.94360000  0.73990000  1.0 -0.1565042845
C  C130  1  0.05640000  0.26010000  0.21640000  1.0 -0.1565042845
C  C131  1  0.26010000  0.21640000  0.05640000  1.0 -0.1565042845
C  C132  1  0.21640000  0.05640000  0.26010000  1.0 -0.1565042845
C  C133  1  0.04800000  0.82380000  0.82420000  1.0 0.0654925469
C  C134  1  0.82380000  0.82420000  0.04800000  1.0 0.0654925469
C  C135  1  0.82420000  0.04800000  0.82380000  1.0 0.0654925469
C  C136  1  0.95200000  0.17620000  0.17580000  1.0 0.0654925469
C  C137  1  0.17620000  0.17580000  0.95200000  1.0 0.0654925469
C  C138  1  0.17580000  0.95200000  0.17620000  1.0 0.0654925469
C  C139  1  0.13870000  0.92300000  0.91930000  1.0 -0.0776652972
C  C140  1  0.92300000  0.91930000  0.13870000  1.0 -0.0776652972
C  C141  1  0.91930000  0.13870000  0.92300000  1.0 -0.0776652972
C  C142  1  0.86130000  0.07700000  0.08070000  1.0 -0.0776652972
C  C143  1  0.07700000  0.08070000  0.86130000  1.0 -0.0776652972
C  C144  1  0.08070000  0.86130000  0.07700000  1.0 -0.0776652972
C  C145  1  0.38240000  0.62420000  0.68490000  1.0 0.0315307405
C  C146  1  0.62420000  0.68490000  0.38240000  1.0 0.0315307405
C  C147  1  0.68490000  0.38240000  0.62420000  1.0 0.0315307405
C  C148  1  0.61760000  0.37580000  0.31510000  1.0 0.0315307405
C  C149  1  0.37580000  0.31510000  0.61760000  1.0 0.0315307405
C  C150  1  0.31510000  0.61760000  0.37580000  1.0 0.0315307405
C  C151  1  0.00760000  0.68300000  0.72670000  1.0 0.1390588748
C  C152  1  0.68300000  0.72670000  0.00760000  1.0 0.1390588748
C  C153  1  0.72670000  0.00760000  0.68300000  1.0 0.1390588748
C  C154  1  0.99240000  0.31700000  0.27330000  1.0 0.1390588748
C  C155  1  0.31700000  0.27330000  0.99240000  1.0 0.1390588748
C  C156  1  0.27330000  0.99240000  0.31700000  1.0 0.1390588748
C  C157  1  0.10290000  0.77050000  0.81900000  1.0 0.0178367605
C  C158  1  0.77050000  0.81900000  0.10290000  1.0 0.0178367605
C  C159  1  0.81900000  0.10290000  0.77050000  1.0 0.0178367605
C  C160  1  0.89710000  0.22950000  0.18100000  1.0 0.0178367605
C  C161  1  0.22950000  0.18100000  0.89710000  1.0 0.0178367605
C  C162  1  0.18100000  0.89710000  0.22950000  1.0 0.0178367605
C  C163  1  0.16770000  0.77400000  0.87640000  1.0 -0.0776652972
C  C164  1  0.77400000  0.87640000  0.16770000  1.0 -0.0776652972
C  C165  1  0.87640000  0.16770000  0.77400000  1.0 -0.0776652972
C  C166  1  0.83230000  0.22600000  0.12360000  1.0 -0.0776652972
C  C167  1  0.22600000  0.12360000  0.83230000  1.0 -0.0776652972
C  C168  1  0.12360000  0.83230000  0.22600000  1.0 -0.0776652972
C  C169  1  0.49880000  0.64600000  0.74020000  1.0 0.0978468944
C  C170  1  0.64600000  0.74020000  0.49880000  1.0 0.0978468944
C  C171  1  0.74020000  0.49880000  0.64600000  1.0 0.0978468944
C  C172  1  0.50120000  0.35400000  0.25980000  1.0 0.0978468944
C  C173  1  0.35400000  0.25980000  0.50120000  1.0 0.0978468944
C  C174  1  0.25980000  0.50120000  0.35400000  1.0 0.0978468944
C  C175  1  0.35800000  0.59020000  0.57740000  1.0 -0.0080874509
C  C176  1  0.59020000  0.57740000  0.35800000  1.0 -0.0080874509
C  C177  1  0.57740000  0.35800000  0.59020000  1.0 -0.0080874509
C  C178  1  0.64200000  0.40980000  0.42260000  1.0 -0.0080874509
C  C179  1  0.40980000  0.42260000  0.64200000  1.0 -0.0080874509
C  C180  1  0.42260000  0.64200000  0.40980000  1.0 -0.0080874509
C  C181  1  0.14810000  0.89630000  0.96930000  1.0 -0.026621932
C  C182  1  0.89630000  0.96930000  0.14810000  1.0 -0.0217256006
C  C183  1  0.96930000  0.14810000  0.89630000  1.0 -0.0217256006
C  C184  1  0.85190000  0.10370000  0.03070000  1.0 -0.0217256006
C  C185  1  0.10370000  0.03070000  0.85190000  1.0 -0.026621932
C  C186  1  0.03070000  0.85190000  0.10370000  1.0 -0.026621932
C  C187  1  0.10370000  0.79380000  0.89840000  1.0 0.0458411028
C  C188  1  0.79380000  0.89840000  0.10370000  1.0 0.0458411028
C  C189  1  0.89840000  0.10370000  0.79380000  1.0 0.0458411028
C  C190  1  0.89630000  0.20620000  0.10160000  1.0 0.0458411028
C  C191  1  0.20620000  0.10160000  0.89630000  1.0 0.0458411028
C  C192  1  0.10160000  0.89630000  0.20620000  1.0 0.0458411028
C  C193  1  0.06480000  0.78710000  0.80780000  1.0 0.0458411028
C  C194  1  0.78710000  0.80780000  0.06480000  1.0 0.0458411028
C  C195  1  0.80780000  0.06480000  0.78710000  1.0 0.0458411028
C  C196  1  0.93520000  0.21290000  0.19220000  1.0 0.0458411028
C  C197  1  0.21290000  0.19220000  0.93520000  1.0 0.0396094262
C  C198  1  0.19220000  0.93520000  0.21290000  1.0 0.0458411028
C  C199  1  0.02330000  0.66430000  0.73390000  1.0 -0.0026027962
C  C200  1  0.66430000  0.73390000  0.02330000  1.0 -0.0026027962
C  C201  1  0.73390000  0.02330000  0.66430000  1.0 -0.0026027962
C  C202  1  0.97670000  0.33570000  0.26610000  1.0 -0.0026027962
C  C203  1  0.33570000  0.26610000  0.97670000  1.0 -0.0026027962
C  C204  1  0.26610000  0.97670000  0.33570000  1.0 -0.0026027962
O  O1  1  0.62991000  0.93772000  0.16568000  1.0 -0.5574742889
O  O2  1  0.93772000  0.16568000  0.62991000  1.0 -0.5574742889
O  O3  1  0.16568000  0.62991000  0.93772000  1.0 -0.5574742889
O  O4  1  0.37009000  0.06228000  0.83432000  1.0 -0.5574742889
O  O5  1  0.06228000  0.83432000  0.37009000  1.0 -0.5574742889
O  O6  1  0.83432000  0.37009000  0.06228000  1.0 -0.5574742889
O  O7  1  0.69886000  0.08416000  0.19515000  1.0 -0.5320224997
O  O8  1  0.08416000  0.19515000  0.69886000  1.0 -0.5320224997
O  O9  1  0.19515000  0.69886000  0.08416000  1.0 -0.5320224997
O  O10  1  0.30114000  0.91584000  0.80485000  1.0 -0.5320224997
O  O11  1  0.91584000  0.80485000  0.30114000  1.0 -0.5320224997
O  O12  1  0.80485000  0.30114000  0.91584000  1.0 -0.5320224997
O  O13  1  0.53909000  0.07215000  0.81250000  1.0 -0.5917108592
O  O14  1  0.07215000  0.81250000  0.53909000  1.0 -0.5917108592
O  O15  1  0.81250000  0.53909000  0.07215000  1.0 -0.5917108592
O  O16  1  0.46091000  0.92785000  0.18750000  1.0 -0.5917108592
O  O17  1  0.92785000  0.18750000  0.46091000  1.0 -0.5917108592
O  O18  1  0.18750000  0.46091000  0.92785000  1.0 -0.5917108592
O  O19  1  0.66150000  0.16371000  0.94824000  1.0 -0.5048909422
O  O20  1  0.16371000  0.94824000  0.66150000  1.0 -0.5052638289
O  O21  1  0.94824000  0.66150000  0.16371000  1.0 -0.5048909422
O  O22  1  0.33850000  0.83629000  0.05176000  1.0 -0.5048909422
O  O23  1  0.83629000  0.05176000  0.33850000  1.0 -0.5048909422
O  O24  1  0.05176000  0.33850000  0.83629000  1.0 -0.5048909422
O  O25  1  0.43621000  0.75932000  0.82441000  1.0 -0.215931136
O  O26  1  0.75932000  0.82441000  0.43621000  1.0 -0.215931136
O  O27  1  0.82441000  0.43621000  0.75932000  1.0 -0.215931136
O  O28  1  0.56379000  0.24068000  0.17559000  1.0 -0.215931136
O  O29  1  0.24068000  0.17559000  0.56379000  1.0 -0.215931136
O  O30  1  0.17559000  0.56379000  0.24068000  1.0 -0.215931136
O  O31  1  0.87927000  0.34104000  0.53504000  1.0 -0.5917108592
O  O32  1  0.34104000  0.53504000  0.87927000  1.0 -0.5917108592
O  O33  1  0.53504000  0.87927000  0.34104000  1.0 -0.5917108592
O  O34  1  0.12073000  0.65896000  0.46496000  1.0 -0.5917108592
O  O35  1  0.65896000  0.46496000  0.12073000  1.0 -0.5917108592
O  O36  1  0.46496000  0.12073000  0.65896000  1.0 -0.5917108592
O  O37  1  0.80514000  0.27452000  0.38055000  1.0 -0.5772122478
O  O38  1  0.27452000  0.38055000  0.80514000  1.0 -0.5772122478
O  O39  1  0.38055000  0.80514000  0.27452000  1.0 -0.5772122478
O  O40  1  0.19486000  0.72548000  0.61945000  1.0 -0.5772122478
O  O41  1  0.72548000  0.61945000  0.19486000  1.0 -0.5772122478
O  O42  1  0.61945000  0.19486000  0.72548000  1.0 -0.5772122478
O  O43  1  0.84547000  0.49278000  0.24121000  1.0 -0.5691764291
O  O44  1  0.49278000  0.24121000  0.84547000  1.0 -0.5691764291
O  O45  1  0.24121000  0.84547000  0.49278000  1.0 -0.5691764291
O  O46  1  0.15453000  0.50722000  0.75879000  1.0 -0.5691764291
O  O47  1  0.50722000  0.75879000  0.15453000  1.0 -0.5691764291
O  O48  1  0.75879000  0.15453000  0.50722000  1.0 -0.5691764291
O  O49  1  0.92988000  0.64377000  0.33893000  1.0 -0.6071200009
O  O50  1  0.64377000  0.33893000  0.92988000  1.0 -0.6071200009
O  O51  1  0.33893000  0.92988000  0.64377000  1.0 -0.6071200009
O  O52  1  0.07012000  0.35623000  0.66107000  1.0 -0.6071200009
O  O53  1  0.35623000  0.66107000  0.07012000  1.0 -0.6071200009
O  O54  1  0.66107000  0.07012000  0.35623000  1.0 -0.6071200009
O  O55  1  0.94630000  0.67190000  0.63950000  1.0 0.0396094262
O  O56  1  0.67190000  0.63950000  0.94630000  1.0 0.0396094262
O  O57  1  0.63950000  0.94630000  0.67190000  1.0 0.0396094262
O  O58  1  0.05370000  0.32810000  0.36050000  1.0 0.0396094262
O  O59  1  0.32810000  0.36050000  0.05370000  1.0 0.0396094262
O  O60  1  0.36050000  0.05370000  0.32810000  1.0 0.0396094262
O  O61  1  0.99040000  0.68240000  0.64790000  1.0 0.0117259266
O  O62  1  0.68240000  0.64790000  0.99040000  1.0 0.0117259266
O  O63  1  0.64790000  0.99040000  0.68240000  1.0 0.0117259266
O  O64  1  0.00960000  0.31760000  0.35210000  1.0 0.0117259266
O  O65  1  0.31760000  0.35210000  0.00960000  1.0 0.0117259266
O  O66  1  0.35210000  0.00960000  0.31760000  1.0 0.0117259266
