# DDEC6 charges by PACMAN v1.1 (https://github.com/mtap-research/PACMAN-charge/)
data_UVUQOT_ASR_pacman
_symmetry_space_group_name_H-M   'P 1'
_cell_length_a   19.46440000
_cell_length_b   19.46440000
_cell_length_c   31.24800000
_cell_angle_alpha   78.71090000
_cell_angle_beta   101.28900000
_cell_angle_gamma   135.38200000
_symmetry_Int_Tables_number   1
_chemical_formula_structural   ZnH8C12(IN)4
_chemical_formula_sum   'Zn12 H96 C144 I48 N48'
_cell_volume   8126.95067888
_cell_formula_units_Z   12
loop_
 _symmetry_equiv_pos_site_id
 _symmetry_equiv_pos_as_xyz
  1  'x, y, z'
loop_
 _atom_site_type_symbol
 _atom_site_label
 _atom_site_symmetry_multiplicity
 _atom_site_fract_x
 _atom_site_fract_y
 _atom_site_fract_z
 _atom_site_occupancy
 _atom_site_charge
Zn  Zn1  1  0.21744000  0.97510000  0.56870000  1.0 0.4562550687
Zn  Zn2  1  0.02490000  0.78256000  0.06870000  1.0 0.4562550687
Zn  Zn3  1  0.54113000  0.69861000  0.90366000  1.0 0.3766573621
Zn  Zn4  1  0.30139000  0.45887000  0.40366000  1.0 0.3766573621
Zn  Zn5  1  0.68662000  0.03350000  0.72461000  1.0 0.4495925881
Zn  Zn6  1  0.96650000  0.31338000  0.22461000  1.0 0.4495925881
Zn  Zn7  1  0.97510000  0.21744000  0.93130000  1.0 0.4562550687
Zn  Zn8  1  0.78256000  0.02490000  0.43130000  1.0 0.4562550687
Zn  Zn9  1  0.69861000  0.54113000  0.59634000  1.0 0.3766573621
Zn  Zn10  1  0.45887000  0.30139000  0.09634000  1.0 0.3766573621
Zn  Zn11  1  0.03350000  0.68662000  0.77539000  1.0 0.4495925881
Zn  Zn12  1  0.31338000  0.96650000  0.27539000  1.0 0.4495925881
H  H1  1  0.29830000  0.84110000  0.70060000  1.0 0.1284872867
H  H2  1  0.15890000  0.70170000  0.20060000  1.0 0.1284872867
H  H3  1  0.31680000  0.96000000  0.65370000  1.0 0.1180450907
H  H4  1  0.04000000  0.68320000  0.15370000  1.0 0.1180450907
H  H5  1  0.07840000  0.75840000  0.58040000  1.0 0.1284872867
H  H6  1  0.24160000  0.92160000  0.08040000  1.0 0.1284872867
H  H7  1  0.05230000  0.63350000  0.62610000  1.0 0.140584383
H  H8  1  0.36650000  0.94770000  0.12610000  1.0 0.140584383
H  H9  1  0.89190000  0.39490000  0.68410000  1.0 0.140584383
H  H10  1  0.60510000  0.10810000  0.18410000  1.0 0.140584383
H  H11  1  0.75110000  0.22810000  0.68730000  1.0 0.1180450907
H  H12  1  0.77190000  0.24890000  0.18730000  1.0 0.1180450907
H  H13  1  0.89880000  0.16740000  0.75350000  1.0 0.1100543243
H  H14  1  0.83260000  0.10120000  0.25350000  1.0 0.1100543243
H  H15  1  0.04340000  0.33240000  0.75310000  1.0 0.140584383
H  H16  1  0.66760000  0.95660000  0.25310000  1.0 0.140584383
H  H17  1  0.23250000  0.49250000  0.80890000  1.0 0.140584383
H  H18  1  0.50750000  0.76750000  0.30890000  1.0 0.140584383
H  H19  1  0.35280000  0.53320000  0.86340000  1.0 0.1100543243
H  H20  1  0.46680000  0.64720000  0.36340000  1.0 0.1100543243
H  H21  1  0.50440000  0.81400000  0.83930000  1.0 0.1180450907
H  H22  1  0.18600000  0.49560000  0.33930000  1.0 0.1180450907
H  H23  1  0.39010000  0.78210000  0.78230000  1.0 0.140584383
H  H24  1  0.21790000  0.60990000  0.28230000  1.0 0.140584383
H  H25  1  0.89840000  0.86360000  0.50000000  1.0 0.1478504591
H  H26  1  0.13640000  0.10160000  0.00000000  1.0 0.1478504591
H  H27  1  0.04540000  0.90780000  0.50280000  1.0 0.1180450907
H  H28  1  0.09220000  0.95460000  0.00280000  1.0 0.1180450907
H  H29  1  0.09250000  0.93710000  0.62930000  1.0 0.1284872867
H  H30  1  0.06290000  0.90750000  0.12930000  1.0 0.1284872867
H  H31  1  0.94990000  0.89910000  0.62950000  1.0 0.140584383
H  H32  1  0.10090000  0.05010000  0.12950000  1.0 0.140584383
H  H33  1  0.83630000  0.94970000  0.66370000  1.0 0.140584383
H  H34  1  0.05030000  0.16370000  0.16370000  1.0 0.140584383
H  H35  1  0.82020000  0.01680000  0.70970000  1.0 0.1180450907
H  H36  1  0.98320000  0.17980000  0.20970000  1.0 0.1180450907
H  H37  1  0.57940000  0.92740000  0.64140000  1.0 0.1180450907
H  H38  1  0.07260000  0.42060000  0.14140000  1.0 0.1180450907
H  H39  1  0.58650000  0.85510000  0.59430000  1.0 0.140584383
H  H40  1  0.14490000  0.41350000  0.09430000  1.0 0.140584383
H  H41  1  0.48130000  0.69550000  0.51860000  1.0 0.140584383
H  H42  1  0.30450000  0.51870000  0.01860000  1.0 0.140584383
H  H43  1  0.35560000  0.58700000  0.46850000  1.0 0.1180450907
H  H44  1  0.41300000  0.64440000  0.96850000  1.0 0.1180450907
H  H45  1  0.50620000  0.54220000  0.43680000  1.0 0.0988870781
H  H46  1  0.45780000  0.49380000  0.93680000  1.0 0.0988870781
H  H47  1  0.63930000  0.65530000  0.48390000  1.0 0.1478504591
H  H48  1  0.34470000  0.36070000  0.98390000  1.0 0.1478504591
H  H49  1  0.84110000  0.29830000  0.79940000  1.0 0.1284872867
H  H50  1  0.70170000  0.15890000  0.29940000  1.0 0.1284872867
H  H51  1  0.96000000  0.31680000  0.84630000  1.0 0.1180450907
H  H52  1  0.68320000  0.04000000  0.34630000  1.0 0.1180450907
H  H53  1  0.75840000  0.07840000  0.91960000  1.0 0.1284872867
H  H54  1  0.92160000  0.24160000  0.41960000  1.0 0.1284872867
H  H55  1  0.63350000  0.05230000  0.87390000  1.0 0.140584383
H  H56  1  0.94770000  0.36650000  0.37390000  1.0 0.140584383
H  H57  1  0.39490000  0.89190000  0.81590000  1.0 0.140584383
H  H58  1  0.10810000  0.60510000  0.31590000  1.0 0.140584383
H  H59  1  0.22810000  0.75110000  0.81270000  1.0 0.1180450907
H  H60  1  0.24890000  0.77190000  0.31270000  1.0 0.1180450907
H  H61  1  0.16740000  0.89880000  0.74650000  1.0 0.1100543243
H  H62  1  0.10120000  0.83260000  0.24650000  1.0 0.1100543243
H  H63  1  0.33240000  0.04340000  0.74690000  1.0 0.140584383
H  H64  1  0.95660000  0.66760000  0.24690000  1.0 0.140584383
H  H65  1  0.49250000  0.23250000  0.69110000  1.0 0.140584383
H  H66  1  0.76750000  0.50750000  0.19110000  1.0 0.140584383
H  H67  1  0.53320000  0.35280000  0.63660000  1.0 0.1100543243
H  H68  1  0.64720000  0.46680000  0.13660000  1.0 0.1100543243
H  H69  1  0.81400000  0.50440000  0.66070000  1.0 0.1180450907
H  H70  1  0.49560000  0.18600000  0.16070000  1.0 0.1180450907
H  H71  1  0.78210000  0.39010000  0.71770000  1.0 0.140584383
H  H72  1  0.60990000  0.21790000  0.21770000  1.0 0.140584383
H  H73  1  0.86360000  0.89840000  0.00000000  1.0 0.1478504591
H  H74  1  0.10160000  0.13640000  0.50000000  1.0 0.1478504591
H  H75  1  0.90780000  0.04540000  0.99720000  1.0 0.1180450907
H  H76  1  0.95460000  0.09220000  0.49720000  1.0 0.1180450907
H  H77  1  0.93710000  0.09250000  0.87070000  1.0 0.1284872867
H  H78  1  0.90750000  0.06290000  0.37070000  1.0 0.1284872867
H  H79  1  0.89910000  0.94990000  0.87050000  1.0 0.140584383
H  H80  1  0.05010000  0.10090000  0.37050000  1.0 0.140584383
H  H81  1  0.94970000  0.83630000  0.83630000  1.0 0.140584383
H  H82  1  0.16370000  0.05030000  0.33630000  1.0 0.140584383
H  H83  1  0.01680000  0.82020000  0.79030000  1.0 0.1180450907
H  H84  1  0.17980000  0.98320000  0.29030000  1.0 0.1180450907
H  H85  1  0.92740000  0.57940000  0.85860000  1.0 0.1180450907
H  H86  1  0.42060000  0.07260000  0.35860000  1.0 0.1180450907
H  H87  1  0.85510000  0.58650000  0.90570000  1.0 0.140584383
H  H88  1  0.41350000  0.14490000  0.40570000  1.0 0.140584383
H  H89  1  0.69550000  0.48130000  0.98140000  1.0 0.140584383
H  H90  1  0.51870000  0.30450000  0.48140000  1.0 0.140584383
H  H91  1  0.58700000  0.35560000  0.03150000  1.0 0.1180450907
H  H92  1  0.64440000  0.41300000  0.53150000  1.0 0.1180450907
H  H93  1  0.54220000  0.50620000  0.06320000  1.0 0.0988870781
H  H94  1  0.49380000  0.45780000  0.56320000  1.0 0.0988870781
H  H95  1  0.65530000  0.63930000  0.01610000  1.0 0.1478504591
H  H96  1  0.36070000  0.34470000  0.51610000  1.0 0.1478504591
C  C1  1  0.16050000  0.64710000  0.69843000  1.0 0.3766573621
C  C2  1  0.35290000  0.83950000  0.19843000  1.0 0.3766573621
C  C3  1  0.07424000  0.48776000  0.71962000  1.0 0.3661187791
C  C4  1  0.51224000  0.92576000  0.21962000  1.0 0.3661187791
C  C5  1  0.22124000  0.60656000  0.75425000  1.0 0.3766573621
C  C6  1  0.39344000  0.77876000  0.25425000  1.0 0.3766573621
C  C7  1  0.17303000  0.72397000  0.66848000  1.0 0.0694906522
C  C8  1  0.27603000  0.82697000  0.16848000  1.0 0.0694906522
C  C9  1  0.25215000  0.82265000  0.67611000  1.0 -0.1117289899
C  C10  1  0.17735000  0.74785000  0.17611000  1.0 -0.1117289899
C  C11  1  0.26286000  0.89294000  0.64799000  1.0 0.091290173
C  C12  1  0.10706000  0.73714000  0.14799000  1.0 0.091290173
C  C13  1  0.12327000  0.77493000  0.60527000  1.0 0.1100543243
C  C14  1  0.22507000  0.87673000  0.10527000  1.0 0.1100543243
C  C15  1  0.10722000  0.69998000  0.63225000  1.0 -0.1117289899
C  C16  1  0.30002000  0.89278000  0.13225000  1.0 -0.1117289899
C  C17  1  0.98295000  0.38185000  0.71853000  1.0 0.0694906522
C  C18  1  0.61815000  0.01705000  0.21853000  1.0 0.0694906522
C  C19  1  0.89488000  0.34932000  0.69879000  1.0 -0.1309609957
C  C20  1  0.65068000  0.10512000  0.19879000  1.0 -0.1309609957
C  C21  1  0.81139000  0.24981000  0.70064000  1.0 0.091290173
C  C22  1  0.75019000  0.18861000  0.20064000  1.0 0.091290173
C  C23  1  0.89768000  0.21452000  0.73936000  1.0 0.0849302091
C  C24  1  0.78548000  0.10232000  0.23936000  1.0 0.0849302091
C  C25  1  0.98411000  0.31249000  0.73927000  1.0 -0.1189638969
C  C26  1  0.68751000  0.01589000  0.23927000  1.0 -0.1189638969
C  C27  1  0.29897000  0.63263000  0.78945000  1.0 0.0694906522
C  C28  1  0.36737000  0.70103000  0.28945000  1.0 0.0694906522
C  C29  1  0.28832000  0.55928000  0.81421000  1.0 -0.1117289899
C  C30  1  0.44072000  0.71168000  0.31421000  1.0 -0.1117289899
C  C31  1  0.36000000  0.58420000  0.84680000  1.0 0.091290173
C  C32  1  0.41580000  0.64000000  0.34680000  1.0 0.091290173
C  C33  1  0.44875000  0.74805000  0.83257000  1.0 0.0988870781
C  C34  1  0.25195000  0.55125000  0.33257000  1.0 0.0988870781
C  C35  1  0.38093000  0.72987000  0.79872000  1.0 -0.1189638969
C  C36  1  0.27013000  0.61907000  0.29872000  1.0 -0.1189638969
C  C37  1  0.81541000  0.84919000  0.56380000  1.0 0.3519385361
C  C38  1  0.15081000  0.18459000  0.06380000  1.0 0.3519385361
C  C39  1  0.72211000  0.85369000  0.59265000  1.0 0.3613034017
C  C40  1  0.14631000  0.27789000  0.09265000  1.0 0.3613034017
C  C41  1  0.65911000  0.76149000  0.53684000  1.0 0.3613034017
C  C42  1  0.23851000  0.34089000  0.03684000  1.0 0.3613034017
C  C43  1  0.90909000  0.87771000  0.56440000  1.0 0.0639170908
C  C44  1  0.12229000  0.09091000  0.06440000  1.0 0.0639170908
C  C45  1  0.93815000  0.87985000  0.52687000  1.0 -0.1189638969
C  C46  1  0.12015000  0.06185000  0.02687000  1.0 -0.1189638969
C  C47  1  0.02528000  0.90552000  0.52880000  1.0 0.0988870781
C  C48  1  0.09448000  0.97472000  0.02880000  1.0 0.0988870781
C  C49  1  0.05294000  0.92326000  0.60262000  1.0 0.0988870781
C  C50  1  0.07674000  0.94706000  0.10262000  1.0 0.0988870781
C  C51  1  0.96799000  0.90001000  0.60311000  1.0 -0.1117289899
C  C52  1  0.09999000  0.03201000  0.10311000  1.0 -0.1117289899
C  C53  1  0.71292000  0.89548000  0.62357000  1.0 0.0694906522
C  C54  1  0.10452000  0.28708000  0.12357000  1.0 0.0694906522
C  C55  1  0.78283000  0.94417000  0.65858000  1.0 -0.1309609957
C  C56  1  0.05583000  0.21717000  0.15858000  1.0 -0.1309609957
C  C57  1  0.77278000  0.98402000  0.68563000  1.0 0.091290173
C  C58  1  0.01598000  0.22722000  0.18563000  1.0 0.091290173
C  C59  1  0.63195000  0.93145000  0.64592000  1.0 0.0988870781
C  C60  1  0.06855000  0.36805000  0.14592000  1.0 0.0988870781
C  C61  1  0.63587000  0.88873000  0.61761000  1.0 -0.1189638969
C  C62  1  0.11127000  0.36413000  0.11761000  1.0 -0.1189638969
C  C63  1  0.57493000  0.68847000  0.50633000  1.0 0.0694906522
C  C64  1  0.31153000  0.42507000  0.00633000  1.0 0.0694906522
C  C65  1  0.48872000  0.66588000  0.50163000  1.0 -0.1189638969
C  C66  1  0.33412000  0.51128000  0.00163000  1.0 -0.1189638969
C  C67  1  0.41358000  0.60022000  0.47214000  1.0 0.091290173
C  C68  1  0.39978000  0.58642000  0.97214000  1.0 0.091290173
C  C69  1  0.50183000  0.57497000  0.45336000  1.0 0.0694906522
C  C70  1  0.42503000  0.49817000  0.95336000  1.0 0.0694906522
C  C71  1  0.58117000  0.64163000  0.48154000  1.0 -0.1189638969
C  C72  1  0.35837000  0.41883000  0.98154000  1.0 -0.1189638969
C  C73  1  0.64710000  0.16050000  0.80157000  1.0 0.3766573621
C  C74  1  0.83950000  0.35290000  0.30157000  1.0 0.3766573621
C  C75  1  0.48776000  0.07424000  0.78038000  1.0 0.3661187791
C  C76  1  0.92576000  0.51224000  0.28038000  1.0 0.3661187791
C  C77  1  0.60656000  0.22124000  0.74575000  1.0 0.3766573621
C  C78  1  0.77876000  0.39344000  0.24575000  1.0 0.3766573621
C  C79  1  0.72397000  0.17303000  0.83152000  1.0 0.0694906522
C  C80  1  0.82697000  0.27603000  0.33152000  1.0 0.0694906522
C  C81  1  0.82265000  0.25215000  0.82389000  1.0 -0.1117289899
C  C82  1  0.74785000  0.17735000  0.32389000  1.0 -0.1117289899
C  C83  1  0.89294000  0.26286000  0.85201000  1.0 0.091290173
C  C84  1  0.73714000  0.10706000  0.35201000  1.0 0.091290173
C  C85  1  0.77493000  0.12327000  0.89473000  1.0 0.1100543243
C  C86  1  0.87673000  0.22507000  0.39473000  1.0 0.1100543243
C  C87  1  0.69998000  0.10722000  0.86775000  1.0 -0.1117289899
C  C88  1  0.89278000  0.30002000  0.36775000  1.0 -0.1117289899
C  C89  1  0.38185000  0.98295000  0.78147000  1.0 0.0694906522
C  C90  1  0.01705000  0.61815000  0.28147000  1.0 0.0694906522
C  C91  1  0.34932000  0.89488000  0.80121000  1.0 -0.1309609957
C  C92  1  0.10512000  0.65068000  0.30121000  1.0 -0.1309609957
C  C93  1  0.24981000  0.81139000  0.79936000  1.0 0.091290173
C  C94  1  0.18861000  0.75019000  0.29936000  1.0 0.091290173
C  C95  1  0.21452000  0.89768000  0.76064000  1.0 0.0849302091
C  C96  1  0.10232000  0.78548000  0.26064000  1.0 0.0849302091
C  C97  1  0.31249000  0.98411000  0.76073000  1.0 -0.1189638969
C  C98  1  0.01589000  0.68751000  0.26073000  1.0 -0.1189638969
C  C99  1  0.63263000  0.29897000  0.71055000  1.0 0.0694906522
C  C100  1  0.70103000  0.36737000  0.21055000  1.0 0.0694906522
C  C101  1  0.55928000  0.28832000  0.68579000  1.0 -0.1117289899
C  C102  1  0.71168000  0.44072000  0.18579000  1.0 -0.1117289899
C  C103  1  0.58420000  0.36000000  0.65320000  1.0 0.091290173
C  C104  1  0.64000000  0.41580000  0.15320000  1.0 0.091290173
C  C105  1  0.74805000  0.44875000  0.66743000  1.0 0.0988870781
C  C106  1  0.55125000  0.25195000  0.16743000  1.0 0.0988870781
C  C107  1  0.72987000  0.38093000  0.70128000  1.0 -0.1189638969
C  C108  1  0.61907000  0.27013000  0.20128000  1.0 -0.1189638969
C  C109  1  0.84919000  0.81541000  0.93620000  1.0 0.3519385361
C  C110  1  0.18459000  0.15081000  0.43620000  1.0 0.3519385361
C  C111  1  0.85369000  0.72211000  0.90735000  1.0 0.3613034017
C  C112  1  0.27789000  0.14631000  0.40735000  1.0 0.3613034017
C  C113  1  0.76149000  0.65911000  0.96316000  1.0 0.3613034017
C  C114  1  0.34089000  0.23851000  0.46316000  1.0 0.3613034017
C  C115  1  0.87771000  0.90909000  0.93560000  1.0 0.0639170908
C  C116  1  0.09091000  0.12229000  0.43560000  1.0 0.0639170908
C  C117  1  0.87985000  0.93815000  0.97313000  1.0 -0.1189638969
C  C118  1  0.06185000  0.12015000  0.47313000  1.0 -0.1189638969
C  C119  1  0.90552000  0.02528000  0.97120000  1.0 0.0988870781
C  C120  1  0.97472000  0.09448000  0.47120000  1.0 0.0988870781
C  C121  1  0.92326000  0.05294000  0.89738000  1.0 0.0988870781
C  C122  1  0.94706000  0.07674000  0.39738000  1.0 0.0988870781
C  C123  1  0.90001000  0.96799000  0.89689000  1.0 -0.1117289899
C  C124  1  0.03201000  0.09999000  0.39689000  1.0 -0.1117289899
C  C125  1  0.89548000  0.71292000  0.87643000  1.0 0.0694906522
C  C126  1  0.28708000  0.10452000  0.37643000  1.0 0.0694906522
C  C127  1  0.94417000  0.78283000  0.84142000  1.0 -0.1309609957
C  C128  1  0.21717000  0.05583000  0.34142000  1.0 -0.1309609957
C  C129  1  0.98402000  0.77278000  0.81437000  1.0 0.091290173
C  C130  1  0.22722000  0.01598000  0.31437000  1.0 0.091290173
C  C131  1  0.93145000  0.63195000  0.85408000  1.0 0.0988870781
C  C132  1  0.36805000  0.06855000  0.35408000  1.0 0.0988870781
C  C133  1  0.88873000  0.63587000  0.88239000  1.0 -0.1189638969
C  C134  1  0.36413000  0.11127000  0.38239000  1.0 -0.1189638969
C  C135  1  0.68847000  0.57493000  0.99367000  1.0 0.0694906522
C  C136  1  0.42507000  0.31153000  0.49367000  1.0 0.0694906522
C  C137  1  0.66588000  0.48872000  0.99837000  1.0 -0.1189638969
C  C138  1  0.51128000  0.33412000  0.49837000  1.0 -0.1189638969
C  C139  1  0.60022000  0.41358000  0.02786000  1.0 0.091290173
C  C140  1  0.58642000  0.39978000  0.52786000  1.0 0.091290173
C  C141  1  0.57497000  0.50183000  0.04664000  1.0 0.0694906522
C  C142  1  0.49817000  0.42503000  0.54664000  1.0 0.0694906522
C  C143  1  0.64163000  0.58117000  0.01846000  1.0 -0.1189638969
C  C144  1  0.41883000  0.35837000  0.51846000  1.0 -0.1189638969
I  I1  1  0.33841000  0.13899000  0.60415000  1.0 -0.4106589567
I  I2  1  0.86101000  0.66159000  0.10415000  1.0 -0.4106589567
I  I3  1  0.23651000  0.96109000  0.49228000  1.0 -0.3660686224
I  I4  1  0.03891000  0.76349000  0.99228000  1.0 -0.3660686224
I  I5  1  0.63421000  0.85463000  0.93838000  1.0 -0.3493194006
I  I6  1  0.14537000  0.36579000  0.43838000  1.0 -0.3493194006
I  I7  1  0.60898000  0.65262000  0.86736000  1.0 0.0203727219
I  I8  1  0.34738000  0.39102000  0.36736000  1.0 0.0203727219
I  I9  1  0.70896000  0.96778000  0.80052000  1.0 -0.3493194006
I  I10  1  0.03222000  0.29104000  0.30052000  1.0 -0.3493194006
I  I11  1  0.53548000  0.00424000  0.69970000  1.0 -0.4004549216
I  I12  1  0.99576000  0.46452000  0.19970000  1.0 -0.4004549216
I  I13  1  0.33047000  0.13073000  0.60720000  1.0 -0.4106589567
I  I14  1  0.86927000  0.66953000  0.10720000  1.0 -0.4004549216
I  I15  1  0.24120000  0.97000000  0.49570000  1.0 -0.3306438833
I  I16  1  0.03000000  0.75880000  0.99570000  1.0 -0.3306438833
I  I17  1  0.63210000  0.84990000  0.94340000  1.0 -0.3660686224
I  I18  1  0.15010000  0.36790000  0.44340000  1.0 -0.3660686224
I  I19  1  0.62770000  0.67370000  0.86730000  1.0 0.0040703913
I  I20  1  0.32630000  0.37230000  0.36730000  1.0 0.0040703913
I  I21  1  0.70270000  0.97170000  0.79710000  1.0 -0.3306438833
I  I22  1  0.02830000  0.29730000  0.29710000  1.0 -0.3306438833
I  I23  1  0.53970000  0.01050000  0.69480000  1.0 -0.4004549216
I  I24  1  0.98950000  0.46030000  0.19480000  1.0 -0.4004549216
I  I25  1  0.13899000  0.33841000  0.89585000  1.0 -0.4106589567
I  I26  1  0.66159000  0.86101000  0.39585000  1.0 -0.4106589567
I  I27  1  0.96109000  0.23651000  0.00772000  1.0 -0.3660686224
I  I28  1  0.76349000  0.03891000  0.50772000  1.0 -0.3660686224
I  I29  1  0.85463000  0.63421000  0.56162000  1.0 -0.3493194006
I  I30  1  0.36579000  0.14537000  0.06162000  1.0 -0.3493194006
I  I31  1  0.65262000  0.60898000  0.63264000  1.0 0.0203727219
I  I32  1  0.39102000  0.34738000  0.13264000  1.0 0.0203727219
I  I33  1  0.96778000  0.70896000  0.69948000  1.0 -0.3493194006
I  I34  1  0.29104000  0.03222000  0.19948000  1.0 -0.3493194006
I  I35  1  0.00424000  0.53548000  0.80030000  1.0 -0.4004549216
I  I36  1  0.46452000  0.99576000  0.30030000  1.0 -0.4004549216
I  I37  1  0.13073000  0.33047000  0.89280000  1.0 -0.4106589567
I  I38  1  0.66953000  0.86927000  0.39280000  1.0 -0.4106589567
I  I39  1  0.97000000  0.24120000  0.00430000  1.0 -0.3306438833
I  I40  1  0.75880000  0.03000000  0.50430000  1.0 -0.3306438833
I  I41  1  0.84990000  0.63210000  0.55660000  1.0 -0.3660686224
I  I42  1  0.36790000  0.15010000  0.05660000  1.0 -0.3660686224
I  I43  1  0.67370000  0.62770000  0.63270000  1.0 0.0040703913
I  I44  1  0.37230000  0.32630000  0.13270000  1.0 0.0040703913
I  I45  1  0.97170000  0.70270000  0.70290000  1.0 -0.3306438833
I  I46  1  0.29730000  0.02830000  0.20290000  1.0 -0.3306438833
I  I47  1  0.01050000  0.53970000  0.80520000  1.0 -0.4004549216
I  I48  1  0.46030000  0.98950000  0.30520000  1.0 -0.4004549216
N  N1  1  0.07886000  0.55276000  0.69209000  1.0 -0.3394599058
N  N2  1  0.44724000  0.92114000  0.19209000  1.0 -0.3394599058
N  N3  1  0.14471000  0.51045000  0.74984000  1.0 -0.3493194006
N  N4  1  0.48955000  0.85529000  0.24984000  1.0 -0.3493194006
N  N5  1  0.23221000  0.67819000  0.73037000  1.0 -0.3394599058
N  N6  1  0.32181000  0.76779000  0.23037000  1.0 -0.3394599058
N  N7  1  0.19978000  0.87040000  0.61268000  1.0 -0.143294061
N  N8  1  0.12960000  0.80022000  0.11268000  1.0 -0.143294061
N  N9  1  0.81197000  0.18253000  0.72043000  1.0 -0.1536422729
N  N10  1  0.81747000  0.18803000  0.22043000  1.0 -0.1536422729
N  N11  1  0.43913000  0.67669000  0.85611000  1.0 -0.1582831744
N  N12  1  0.32331000  0.56087000  0.35611000  1.0 -0.1582831744
N  N13  1  0.80877000  0.88303000  0.59450000  1.0 -0.3591745667
N  N14  1  0.11697000  0.19123000  0.09450000  1.0 -0.3591745667
N  N15  1  0.64366000  0.79084000  0.56537000  1.0 -0.3493194006
N  N16  1  0.20916000  0.35634000  0.06537000  1.0 -0.3493194006
N  N17  1  0.74440000  0.79100000  0.53341000  1.0 -0.3493194006
N  N18  1  0.20900000  0.25560000  0.03341000  1.0 -0.3493194006
N  N19  1  0.08296000  0.92754000  0.56605000  1.0 -0.143294061
N  N20  1  0.07246000  0.91704000  0.06605000  1.0 -0.143294061
N  N21  1  0.69941000  0.97879000  0.67968000  1.0 -0.143294061
N  N22  1  0.02121000  0.30059000  0.17968000  1.0 -0.143294061
N  N23  1  0.41895000  0.55443000  0.44841000  1.0 -0.1582831744
N  N24  1  0.44557000  0.58105000  0.94841000  1.0 -0.1582831744
N  N25  1  0.55276000  0.07886000  0.80791000  1.0 -0.3394599058
N  N26  1  0.92114000  0.44724000  0.30791000  1.0 -0.3394599058
N  N27  1  0.51045000  0.14471000  0.75016000  1.0 -0.3493194006
N  N28  1  0.85529000  0.48955000  0.25016000  1.0 -0.3493194006
N  N29  1  0.67819000  0.23221000  0.76963000  1.0 -0.3394599058
N  N30  1  0.76779000  0.32181000  0.26963000  1.0 -0.3394599058
N  N31  1  0.87040000  0.19978000  0.88732000  1.0 -0.143294061
N  N32  1  0.80022000  0.12960000  0.38732000  1.0 -0.143294061
N  N33  1  0.18253000  0.81197000  0.77957000  1.0 -0.1536422729
N  N34  1  0.18803000  0.81747000  0.27957000  1.0 -0.1536422729
N  N35  1  0.67669000  0.43913000  0.64389000  1.0 -0.1582831744
N  N36  1  0.56087000  0.32331000  0.14389000  1.0 -0.1582831744
N  N37  1  0.88303000  0.80877000  0.90550000  1.0 -0.3591745667
N  N38  1  0.19123000  0.11697000  0.40550000  1.0 -0.3591745667
N  N39  1  0.79084000  0.64366000  0.93463000  1.0 -0.3493194006
N  N40  1  0.35634000  0.20916000  0.43463000  1.0 -0.3493194006
N  N41  1  0.79100000  0.74440000  0.96659000  1.0 -0.3493194006
N  N42  1  0.25560000  0.20900000  0.46659000  1.0 -0.3493194006
N  N43  1  0.92754000  0.08296000  0.93395000  1.0 -0.143294061
N  N44  1  0.91704000  0.07246000  0.43395000  1.0 -0.143294061
N  N45  1  0.97879000  0.69941000  0.82032000  1.0 -0.143294061
N  N46  1  0.30059000  0.02121000  0.32032000  1.0 -0.143294061
N  N47  1  0.55443000  0.41895000  0.05159000  1.0 -0.1582831744
N  N48  1  0.58105000  0.44557000  0.55159000  1.0 -0.1582831744
