# DDEC6 charges by PACMAN v1.1 (https://github.com/mtap-research/PACMAN-charge/)
data_UWEPAQ_FSR_pacman
_symmetry_space_group_name_H-M   'P 1'
_cell_length_a   9.50500000
_cell_length_b   14.22700000
_cell_length_c   22.28500000
_cell_angle_alpha   90.00000000
_cell_angle_beta   99.23000000
_cell_angle_gamma   90.00000000
_symmetry_Int_Tables_number   1
_chemical_formula_structural   CoP2H28(C15O4)2
_chemical_formula_sum   'Co4 P8 H112 C120 O32'
_cell_volume   2974.52968261
_cell_formula_units_Z   4
loop_
 _symmetry_equiv_pos_site_id
 _symmetry_equiv_pos_as_xyz
  1  'x, y, z'
loop_
 _atom_site_type_symbol
 _atom_site_label
 _atom_site_symmetry_multiplicity
 _atom_site_fract_x
 _atom_site_fract_y
 _atom_site_fract_z
 _atom_site_occupancy
 _atom_site_charge
Co  Co1  1  0.72840000  0.48849000  0.24691000  1.0 1.1767781739
Co  Co2  1  0.74984000  0.13515000  0.24991000  1.0 1.1005683904
Co  Co3  1  0.27160000  0.98849000  0.75309000  1.0 1.1767781739
Co  Co4  1  0.25016000  0.63515000  0.75009000  1.0 1.1005683904
P  P1  1  0.62028000  0.30212000  0.32636000  1.0 1.3279987637
P  P2  1  0.93340000  0.55220000  0.70245000  1.0 1.3210371797
P  P3  1  0.86108000  0.30551000  0.17115000  1.0 1.3279987637
P  P4  1  0.56630000  0.55778000  0.79617000  1.0 1.3210371797
P  P5  1  0.37972000  0.80212000  0.67364000  1.0 1.3279987637
P  P6  1  0.06660000  0.05220000  0.29755000  1.0 1.3210371797
P  P7  1  0.13892000  0.80551000  0.82885000  1.0 1.3279987637
P  P8  1  0.43370000  0.05778000  0.20383000  1.0 1.3210371797
H  H1  1  0.65870000  0.23846000  0.42331000  1.0 0.1466931429
H  H2  1  0.51710000  0.29982000  0.41376000  1.0 0.1416328136
H  H3  1  0.88288000  0.26507000  0.39878000  1.0 0.1282964975
H  H4  1  0.12180000  0.29201000  0.39138000  1.0 0.1196023527
H  H5  1  0.24100000  0.42247000  0.43736000  1.0 0.110054164
H  H6  1  0.11920000  0.52915000  0.49058000  1.0 0.1196023527
H  H7  1  0.90046000  0.59077000  0.51179000  1.0 0.0993915767
H  H8  1  0.70313000  0.69211000  0.47709000  1.0 0.1282964975
H  H9  1  0.48760000  0.71766000  0.41300000  1.0 0.110054164
H  H10  1  0.35286000  0.58997000  0.37109000  1.0 0.1196023527
H  H11  1  0.44323000  0.43895000  0.38359000  1.0 0.1282964975
H  H12  1  0.08720000  0.42467000  0.63825000  1.0 0.1196023527
H  H13  1  0.17503000  0.27215000  0.64434000  1.0 0.110054164
H  H14  1  0.03464000  0.14788000  0.59962000  1.0 0.110054164
H  H15  1  0.80993000  0.17994000  0.54466000  1.0 0.1196023527
H  H16  1  0.61783000  0.28470000  0.51401000  1.0 0.0993915767
H  H17  1  0.40184000  0.35433000  0.53325000  1.0 0.110054164
H  H18  1  0.28632000  0.46149000  0.58753000  1.0 0.110054164
H  H19  1  0.41371000  0.58716000  0.63696000  1.0 0.1196023527
H  H20  1  0.65569000  0.60490000  0.63251000  1.0 0.1196023527
H  H21  1  0.01193000  0.57188000  0.60959000  1.0 0.1416328136
H  H22  1  0.86781000  0.62844000  0.60982000  1.0 0.1282964975
H  H23  1  0.83031000  0.24018000  0.07472000  1.0 0.1466931429
H  H24  1  0.97298000  0.30049000  0.08620000  1.0 0.1416328136
H  H25  1  0.04903000  0.43686000  0.11622000  1.0 0.1282964975
H  H26  1  0.14369000  0.58731000  0.13157000  1.0 0.1196023527
H  H27  1  0.01365000  0.71751000  0.08887000  1.0 0.1196023527
H  H28  1  0.79918000  0.69446000  0.02396000  1.0 0.1196023527
H  H29  1  0.60080000  0.59639000  0.98692000  1.0 0.0993915767
H  H30  1  0.37898000  0.53612000  0.00675000  1.0 0.1196023527
H  H31  1  0.25162000  0.42692000  0.05540000  1.0 0.110054164
H  H32  1  0.36402000  0.29086000  0.09775000  1.0 0.1196023527
H  H33  1  0.60563000  0.26565000  0.09343000  1.0 0.1282964975
H  H34  1  0.84246000  0.60839000  0.86587000  1.0 0.1196023527
H  H35  1  0.08377000  0.59013000  0.86091000  1.0 0.1196023527
H  H36  1  0.21042000  0.46430000  0.90981000  1.0 0.110054164
H  H37  1  0.09527000  0.35626000  0.96387000  1.0 0.110054164
H  H38  1  0.87959000  0.28689000  0.98379000  1.0 0.0993915767
H  H39  1  0.68897000  0.18323000  0.95003000  1.0 0.1196023527
H  H40  1  0.46062000  0.15233000  0.89739000  1.0 0.110054164
H  H41  1  0.31845000  0.27846000  0.85552000  1.0 0.110054164
H  H42  1  0.41094000  0.43098000  0.86217000  1.0 0.1282964975
H  H43  1  0.48722000  0.57544000  0.88867000  1.0 0.1416328136
H  H44  1  0.63105000  0.63245000  0.88895000  1.0 0.1416328136
H  H45  1  0.45176000  0.23393000  0.27763000  1.0 0.3878261113
H  H46  1  0.79530000  0.63555000  0.73942000  1.0 0.3736881678
H  H47  1  0.03634000  0.24746000  0.22235000  1.0 0.3878261113
H  H48  1  0.70577000  0.47701000  0.76197000  1.0 0.3820862039
H  H49  1  0.93878000  0.45599000  0.33827000  1.0 0.3878261113
H  H50  1  0.99477000  0.51393000  0.29141000  1.0 0.3820862039
H  H51  1  0.62026000  0.65780000  0.28338000  1.0 0.3878261113
H  H52  1  0.63377000  0.58351000  0.33166000  1.0 0.3878261113
H  H53  1  0.84238000  0.56698000  0.16452000  1.0 0.3820862039
H  H54  1  0.83634000  0.64568000  0.20868000  1.0 0.3736881678
H  H55  1  0.52833000  0.45807000  0.15165000  1.0 0.3820862039
H  H56  1  0.44285000  0.49509000  0.19748000  1.0 0.3961647515
H  H57  1  0.34130000  0.73846000  0.57669000  1.0 0.1466931429
H  H58  1  0.48290000  0.79982000  0.58624000  1.0 0.1416328136
H  H59  1  0.11712000  0.76507000  0.60122000  1.0 0.1282964975
H  H60  1  0.87820000  0.79201000  0.60862000  1.0 0.1196023527
H  H61  1  0.75900000  0.92247000  0.56264000  1.0 0.110054164
H  H62  1  0.88080000  0.02915000  0.50942000  1.0 0.1196023527
H  H63  1  0.09954000  0.09077000  0.48821000  1.0 0.0993915767
H  H64  1  0.29687000  0.19211000  0.52291000  1.0 0.1282964975
H  H65  1  0.51240000  0.21766000  0.58700000  1.0 0.110054164
H  H66  1  0.64714000  0.08997000  0.62891000  1.0 0.1196023527
H  H67  1  0.55677000  0.93895000  0.61641000  1.0 0.1282964975
H  H68  1  0.91280000  0.92467000  0.36175000  1.0 0.1196023527
H  H69  1  0.82497000  0.77215000  0.35566000  1.0 0.110054164
H  H70  1  0.96536000  0.64788000  0.40038000  1.0 0.110054164
H  H71  1  0.19007000  0.67994000  0.45534000  1.0 0.1196023527
H  H72  1  0.38217000  0.78470000  0.48599000  1.0 0.0993915767
H  H73  1  0.59816000  0.85433000  0.46675000  1.0 0.110054164
H  H74  1  0.71368000  0.96149000  0.41247000  1.0 0.110054164
H  H75  1  0.58629000  0.08716000  0.36304000  1.0 0.1196023527
H  H76  1  0.34431000  0.10490000  0.36749000  1.0 0.1196023527
H  H77  1  0.98807000  0.07188000  0.39041000  1.0 0.1416328136
H  H78  1  0.13219000  0.12844000  0.39018000  1.0 0.1282964975
H  H79  1  0.16969000  0.74018000  0.92528000  1.0 0.1466931429
H  H80  1  0.02702000  0.80049000  0.91380000  1.0 0.1416328136
H  H81  1  0.95097000  0.93686000  0.88378000  1.0 0.1282964975
H  H82  1  0.85631000  0.08731000  0.86843000  1.0 0.110054164
H  H83  1  0.98635000  0.21751000  0.91113000  1.0 0.1196023527
H  H84  1  0.20082000  0.19446000  0.97604000  1.0 0.1196023527
H  H85  1  0.39920000  0.09639000  0.01308000  1.0 0.0993915767
H  H86  1  0.62102000  0.03612000  0.99325000  1.0 0.1196023527
H  H87  1  0.74838000  0.92692000  0.94460000  1.0 0.110054164
H  H88  1  0.63598000  0.79086000  0.90225000  1.0 0.1196023527
H  H89  1  0.39437000  0.76565000  0.90657000  1.0 0.1282964975
H  H90  1  0.15754000  0.10839000  0.13413000  1.0 0.1196023527
H  H91  1  0.91623000  0.09013000  0.13909000  1.0 0.1196023527
H  H92  1  0.78958000  0.96430000  0.09019000  1.0 0.110054164
H  H93  1  0.90473000  0.85626000  0.03613000  1.0 0.110054164
H  H94  1  0.12041000  0.78689000  0.01621000  1.0 0.0993915767
H  H95  1  0.31103000  0.68323000  0.04997000  1.0 0.1196023527
H  H96  1  0.53938000  0.65233000  0.10261000  1.0 0.110054164
H  H97  1  0.68155000  0.77846000  0.14448000  1.0 0.110054164
H  H98  1  0.58906000  0.93098000  0.13783000  1.0 0.1282964975
H  H99  1  0.51278000  0.07544000  0.11133000  1.0 0.1416328136
H  H100  1  0.36895000  0.13245000  0.11105000  1.0 0.1416328136
H  H101  1  0.54824000  0.73393000  0.72237000  1.0 0.3878261113
H  H102  1  0.20470000  0.13555000  0.26058000  1.0 0.3736881678
H  H103  1  0.96366000  0.74746000  0.77765000  1.0 0.3878261113
H  H104  1  0.29423000  0.97701000  0.23803000  1.0 0.3820862039
H  H105  1  0.06122000  0.95599000  0.66173000  1.0 0.3878261113
H  H106  1  0.00523000  0.01393000  0.70859000  1.0 0.3820862039
H  H107  1  0.37974000  0.15780000  0.71662000  1.0 0.3878261113
H  H108  1  0.36623000  0.08351000  0.66834000  1.0 0.3820862039
H  H109  1  0.15762000  0.06698000  0.83548000  1.0 0.3820862039
H  H110  1  0.16366000  0.14568000  0.79132000  1.0 0.3736881678
H  H111  1  0.47167000  0.95807000  0.84835000  1.0 0.3820862039
H  H112  1  0.55715000  0.99509000  0.80252000  1.0 0.3961647515
C  C1  1  0.61830000  0.29970000  0.40800000  1.0 -0.561596417
C  C2  1  0.69480000  0.37630000  0.45000000  1.0 0.1282964975
C  C3  1  0.85490000  0.38540000  0.44560000  1.0 0.0105153871
C  C4  1  0.92950000  0.31990000  0.41630000  1.0 -0.1501853957
C  C5  1  0.07230000  0.33540000  0.41280000  1.0 -0.1188271977
C  C6  1  0.14330000  0.41270000  0.43990000  1.0 -0.1188271977
C  C7  1  0.07060000  0.47630000  0.47110000  1.0 -0.1672480415
C  C8  1  0.92680000  0.46260000  0.47400000  1.0 0.0496112789
C  C9  1  0.84580000  0.53040000  0.50760000  1.0 -0.1501853957
C  C10  1  0.70550000  0.54970000  0.46770000  1.0 0.0496112789
C  C11  1  0.65120000  0.64030000  0.45800000  1.0 -0.1592942598
C  C12  1  0.52230000  0.65550000  0.42070000  1.0 -0.1188271977
C  C13  1  0.44410000  0.57980000  0.39470000  1.0 -0.1188271977
C  C14  1  0.49690000  0.49020000  0.40260000  1.0 -0.1501853957
C  C15  1  0.83370000  0.49400000  0.57620000  1.0 0.1196023527
C  C16  1  0.89730000  0.39580000  0.58530000  1.0 0.0176750592
C  C17  1  0.03070000  0.37530000  0.61830000  1.0 -0.1188271977
C  C18  1  0.08230000  0.28430000  0.62270000  1.0 -0.1022377761
C  C19  1  0.00020000  0.21060000  0.59570000  1.0 -0.1022377761
C  C20  1  0.86730000  0.23010000  0.56310000  1.0 -0.1501853957
C  C21  1  0.81640000  0.32070000  0.55680000  1.0 0.0559661825
C  C22  1  0.67580000  0.34370000  0.51810000  1.0 -0.1501853957
C  C23  1  0.59810000  0.41410000  0.55160000  1.0 0.0496112789
C  C24  1  0.45380000  0.40500000  0.55390000  1.0 -0.1592942598
C  C25  1  0.38490000  0.46860000  0.58580000  1.0 -0.0921816762
C  C26  1  0.46060000  0.54290000  0.61510000  1.0 -0.076023304
C  C27  1  0.60480000  0.55310000  0.61280000  1.0 -0.1289475869
C  C28  1  0.67550000  0.48800000  0.58170000  1.0 0.0176750592
C  C29  1  0.91460000  0.56700000  0.61980000  1.0 -0.561596417
C  C30  1  0.87080000  0.30130000  0.09020000  1.0 -0.561596417
C  C31  1  0.79890000  0.37790000  0.04740000  1.0 0.1282964975
C  C32  1  0.86730000  0.47440000  0.06060000  1.0 0.0105153871
C  C33  1  0.99740000  0.48900000  0.09730000  1.0 -0.1501853957
C  C34  1  0.05340000  0.57860000  0.10700000  1.0 -0.1188271977
C  C35  1  0.97770000  0.65570000  0.08070000  1.0 -0.1141043391
C  C36  1  0.85000000  0.64180000  0.04270000  1.0 -0.1592942598
C  C37  1  0.79410000  0.55150000  0.03120000  1.0 0.0496112789
C  C38  1  0.65360000  0.53530000  0.99100000  1.0 -0.1501853957
C  C39  1  0.57010000  0.46730000  0.02320000  1.0 0.0496112789
C  C40  1  0.42550000  0.48170000  0.02500000  1.0 -0.1672480415
C  C41  1  0.34950000  0.41640000  0.05340000  1.0 -0.1289475869
C  C42  1  0.41630000  0.33600000  0.07890000  1.0 -0.1289475869
C  C43  1  0.56050000  0.32150000  0.07680000  1.0 -0.1438404854
C  C44  1  0.63920000  0.38820000  0.05040000  1.0 0.0105153871
C  C45  1  0.66570000  0.49780000  0.92230000  1.0 0.1196023527
C  C46  1  0.82320000  0.49090000  0.91660000  1.0 0.0176750592
C  C47  1  0.89340000  0.55640000  0.88540000  1.0 -0.1289475869
C  C48  1  0.03680000  0.54590000  0.88280000  1.0 -0.076023304
C  C49  1  0.11190000  0.47150000  0.91170000  1.0 -0.0921816762
C  C50  1  0.04320000  0.40730000  0.94370000  1.0 -0.1592942598
C  C51  1  0.89960000  0.41660000  0.94640000  1.0 0.0496112789
C  C52  1  0.82210000  0.34610000  0.97960000  1.0 -0.1501853957
C  C53  1  0.68130000  0.32440000  0.94000000  1.0 0.0496112789
C  C54  1  0.63050000  0.23380000  0.93300000  1.0 -0.1501853957
C  C55  1  0.49550000  0.21500000  0.90150000  1.0 -0.1022377761
C  C56  1  0.41240000  0.28950000  0.87620000  1.0 -0.1022377761
C  C57  1  0.46700000  0.38060000  0.88110000  1.0 -0.1188271977
C  C58  1  0.60160000  0.39900000  0.91300000  1.0 0.0176750592
C  C59  1  0.58480000  0.57090000  0.87860000  1.0 -0.561596417
C  C60  1  0.62880000  0.47390000  0.43830000  1.0 0.0105153871
C  C61  1  0.38170000  0.79970000  0.59200000  1.0 -0.561596417
C  C62  1  0.30520000  0.87630000  0.55000000  1.0 0.1282964975
C  C63  1  0.14510000  0.88540000  0.55440000  1.0 0.0105153871
C  C64  1  0.07050000  0.81990000  0.58370000  1.0 -0.1501853957
C  C65  1  0.92770000  0.83540000  0.58720000  1.0 -0.1188271977
C  C66  1  0.85670000  0.91270000  0.56010000  1.0 -0.1188271977
C  C67  1  0.92940000  0.97630000  0.52890000  1.0 -0.1672480415
C  C68  1  0.07320000  0.96260000  0.52600000  1.0 0.0496112789
C  C69  1  0.15420000  0.03040000  0.49240000  1.0 -0.1501853957
C  C70  1  0.29450000  0.04970000  0.53230000  1.0 0.0496112789
C  C71  1  0.34880000  0.14030000  0.54200000  1.0 -0.1592942598
C  C72  1  0.47770000  0.15550000  0.57930000  1.0 -0.1188271977
C  C73  1  0.55590000  0.07980000  0.60530000  1.0 -0.1188271977
C  C74  1  0.50310000  0.99020000  0.59740000  1.0 -0.1501853957
C  C75  1  0.16630000  0.99400000  0.42380000  1.0 0.1196023527
C  C76  1  0.10270000  0.89580000  0.41470000  1.0 0.0176750592
C  C77  1  0.96930000  0.87530000  0.38170000  1.0 -0.1188271977
C  C78  1  0.91770000  0.78430000  0.37730000  1.0 -0.1022377761
C  C79  1  0.99980000  0.71060000  0.40430000  1.0 -0.1022377761
C  C80  1  0.13270000  0.73010000  0.43690000  1.0 -0.1501853957
C  C81  1  0.18360000  0.82070000  0.44320000  1.0 0.0559661825
C  C82  1  0.32420000  0.84370000  0.48190000  1.0 -0.1501853957
C  C83  1  0.40190000  0.91410000  0.44840000  1.0 0.0496112789
C  C84  1  0.54620000  0.90500000  0.44610000  1.0 -0.1592942598
C  C85  1  0.61510000  0.96860000  0.41420000  1.0 -0.0921816762
C  C86  1  0.53940000  0.04290000  0.38490000  1.0 -0.076023304
C  C87  1  0.39520000  0.05310000  0.38720000  1.0 -0.1289475869
C  C88  1  0.32450000  0.98800000  0.41830000  1.0 0.0176750592
C  C89  1  0.08540000  0.06700000  0.38020000  1.0 -0.561596417
C  C90  1  0.12920000  0.80130000  0.90980000  1.0 -0.561596417
C  C91  1  0.20110000  0.87790000  0.95260000  1.0 0.1282964975
C  C92  1  0.13270000  0.97440000  0.93940000  1.0 0.0105153871
C  C93  1  0.00260000  0.98900000  0.90270000  1.0 -0.1501853957
C  C94  1  0.94660000  0.07860000  0.89300000  1.0 -0.1188271977
C  C95  1  0.02230000  0.15570000  0.91930000  1.0 -0.1141043391
C  C96  1  0.15000000  0.14180000  0.95730000  1.0 -0.1592942598
C  C97  1  0.20590000  0.05150000  0.96880000  1.0 0.0496112789
C  C98  1  0.34640000  0.03530000  0.00900000  1.0 -0.1501853957
C  C99  1  0.42990000  0.96730000  0.97680000  1.0 0.0496112789
C  C100  1  0.57450000  0.98170000  0.97500000  1.0 -0.1672480415
C  C101  1  0.65050000  0.91640000  0.94660000  1.0 -0.1289475869
C  C102  1  0.58370000  0.83600000  0.92110000  1.0 -0.1289475869
C  C103  1  0.43950000  0.82150000  0.92320000  1.0 -0.1438404854
C  C104  1  0.36080000  0.88820000  0.94960000  1.0 0.0105153871
C  C105  1  0.33430000  0.99780000  0.07770000  1.0 0.1196023527
C  C106  1  0.17680000  0.99090000  0.08340000  1.0 0.0176750592
C  C107  1  0.10660000  0.05640000  0.11460000  1.0 -0.1289475869
C  C108  1  0.96320000  0.04590000  0.11720000  1.0 -0.076023304
C  C109  1  0.88810000  0.97150000  0.08830000  1.0 -0.0921816762
C  C110  1  0.95680000  0.90730000  0.05630000  1.0 -0.1592942598
C  C111  1  0.10040000  0.91660000  0.05360000  1.0 0.0496112789
C  C112  1  0.17790000  0.84610000  0.02040000  1.0 -0.1501853957
C  C113  1  0.31870000  0.82440000  0.06000000  1.0 0.0496112789
C  C114  1  0.36950000  0.73380000  0.06700000  1.0 -0.1501853957
C  C115  1  0.50450000  0.71500000  0.09850000  1.0 -0.1022377761
C  C116  1  0.58760000  0.78950000  0.12380000  1.0 -0.1022377761
C  C117  1  0.53300000  0.88060000  0.11890000  1.0 -0.1188271977
C  C118  1  0.39840000  0.89900000  0.08700000  1.0 0.0176750592
C  C119  1  0.41520000  0.07090000  0.12140000  1.0 -0.561596417
C  C120  1  0.37120000  0.97390000  0.56170000  1.0 0.0105153871
O  O1  1  0.66340000  0.39590000  0.30645000  1.0 -0.791205668
O  O2  1  0.70620000  0.21840000  0.31292000  1.0 -0.7973275419
O  O3  1  0.45800000  0.28350000  0.29834000  1.0 -0.6138089533
O  O4  1  0.87210000  0.64700000  0.72673000  1.0 -0.6438220079
O  O5  1  0.84940000  0.47090000  0.72032000  1.0 -0.7111627495
O  O6  1  0.09150000  0.55060000  0.72527000  1.0 -0.777736717
O  O7  1  0.80200000  0.39660000  0.18812000  1.0 -0.7973275419
O  O8  1  0.78690000  0.21660000  0.18470000  1.0 -0.7973275419
O  O9  1  0.02360000  0.29820000  0.20300000  1.0 -0.6256826158
O  O10  1  0.63520000  0.64220000  0.76995000  1.0 -0.7617241974
O  O11  1  0.64050000  0.46500000  0.78215000  1.0 -0.602475905
O  O12  1  0.40800000  0.54840000  0.77330000  1.0 -0.7686076994
O  O13  1  0.91770000  0.49800000  0.30800000  1.0 -0.7200730439
O  O14  1  0.65170000  0.59970000  0.29460000  1.0 -0.7278316255
O  O15  1  0.79510000  0.59260000  0.19240000  1.0 -0.7200730439
O  O16  1  0.53010000  0.48820000  0.18730000  1.0 -0.7111627495
O  O17  1  0.33660000  0.89590000  0.69355000  1.0 -0.791205668
O  O18  1  0.29380000  0.71840000  0.68708000  1.0 -0.7973275419
O  O19  1  0.54200000  0.78350000  0.70166000  1.0 -0.6138089533
O  O20  1  0.12790000  0.14700000  0.27327000  1.0 -0.6438220079
O  O21  1  0.15060000  0.97090000  0.27968000  1.0 -0.7111627495
O  O22  1  0.90850000  0.05060000  0.27473000  1.0 -0.777736717
O  O23  1  0.19800000  0.89660000  0.81188000  1.0 -0.7973275419
O  O24  1  0.21310000  0.71660000  0.81530000  1.0 -0.7973275419
O  O25  1  0.97640000  0.79820000  0.79700000  1.0 -0.6256826158
O  O26  1  0.36480000  0.14220000  0.23005000  1.0 -0.7617241974
O  O27  1  0.35950000  0.96500000  0.21785000  1.0 -0.602475905
O  O28  1  0.59200000  0.04840000  0.22670000  1.0 -0.7686076994
O  O29  1  0.08230000  0.99800000  0.69200000  1.0 -0.7200730439
O  O30  1  0.34830000  0.09970000  0.70540000  1.0 -0.7278316255
O  O31  1  0.20490000  0.09260000  0.80760000  1.0 -0.7200730439
O  O32  1  0.46990000  0.98820000  0.81270000  1.0 -0.7200730439
