# DDEC6 charges by PACMAN v1.1 (https://github.com/mtap-research/PACMAN-charge/)
data_UXACAY_ASR_pacman
_symmetry_space_group_name_H-M   'P 1'
_cell_length_a   19.66810000
_cell_length_b   19.66810000
_cell_length_c   6.81100000
_cell_angle_alpha   88.98310000
_cell_angle_beta   91.01690000
_cell_angle_gamma   147.21300000
_symmetry_Int_Tables_number   1
_chemical_formula_structural   ErH2C13O6
_chemical_formula_sum   'Er4 H8 C52 O24'
_cell_volume   1426.50680442
_cell_formula_units_Z   4
loop_
 _symmetry_equiv_pos_site_id
 _symmetry_equiv_pos_as_xyz
  1  'x, y, z'
loop_
 _atom_site_type_symbol
 _atom_site_label
 _atom_site_symmetry_multiplicity
 _atom_site_fract_x
 _atom_site_fract_y
 _atom_site_fract_z
 _atom_site_occupancy
 _atom_site_charge
Er  Er1  1  0.33937000  0.07673000  0.79910000  1.0 1.9749874494
Er  Er2  1  0.07673000  0.33937000  0.70090000  1.0 1.9756917379
Er  Er3  1  0.66063000  0.92327000  0.20090000  1.0 1.9756917379
Er  Er4  1  0.92327000  0.66063000  0.29910000  1.0 1.9756917379
H  H1  1  0.20310000  0.16630000  0.47360000  1.0 0.1279431342
H  H2  1  0.16630000  0.20310000  0.02640000  1.0 0.1279431342
H  H3  1  0.79690000  0.83370000  0.52640000  1.0 0.1279431342
H  H4  1  0.83370000  0.79690000  0.97360000  1.0 0.1279431342
H  H5  1  0.98480000  0.92240000  0.59500000  1.0 0.1110389254
H  H6  1  0.92240000  0.98480000  0.90500000  1.0 0.1110389254
H  H7  1  0.01520000  0.07760000  0.40500000  1.0 0.1110389254
H  H8  1  0.07760000  0.01520000  0.09500000  1.0 0.1110389254
C  C1  1  0.21910000  0.08590000  0.62120000  1.0 0.6353524944
C  C2  1  0.08590000  0.21910000  0.87880000  1.0 0.6353524944
C  C3  1  0.78090000  0.91410000  0.37880000  1.0 0.6346127412
C  C4  1  0.91410000  0.78090000  0.12120000  1.0 0.6346127412
C  C5  1  0.15470000  0.09210000  0.53420000  1.0 -0.2238430757
C  C6  1  0.09210000  0.15470000  0.96580000  1.0 -0.2250499406
C  C7  1  0.84530000  0.90790000  0.46580000  1.0 -0.2238430757
C  C8  1  0.90790000  0.84530000  0.03420000  1.0 -0.2238430757
C  C9  1  0.03270000  0.99730000  0.53890000  1.0 -0.0576202802
C  C10  1  0.99730000  0.03270000  0.96110000  1.0 -0.0576202802
C  C11  1  0.96730000  0.00270000  0.46110000  1.0 -0.0576202802
C  C12  1  0.00270000  0.96730000  0.03890000  1.0 -0.0576202802
C  C13  1  0.23380000  0.89220000  0.44020000  1.0 0.5700643084
C  C14  1  0.89220000  0.23380000  0.05980000  1.0 0.5700643084
C  C15  1  0.76620000  0.10780000  0.55980000  1.0 0.5700643084
C  C16  1  0.10780000  0.76620000  0.94020000  1.0 0.5700643084
C  C17  1  0.26120000  0.84300000  0.49100000  1.0 -0.082711023
C  C18  1  0.84300000  0.26120000  0.00900000  1.0 -0.082711023
C  C19  1  0.73880000  0.15700000  0.50900000  1.0 -0.082711023
C  C20  1  0.15700000  0.73880000  0.99100000  1.0 -0.082711023
C  C21  1  0.35980000  0.90820000  0.59300000  1.0 -0.0108455118
C  C22  1  0.90820000  0.35980000  0.90700000  1.0 -0.0108455118
C  C23  1  0.64020000  0.09180000  0.40700000  1.0 -0.0108455118
C  C24  1  0.09180000  0.64020000  0.09300000  1.0 -0.0108455118
C  C25  1  0.38050000  0.85730000  0.65600000  1.0 -0.082711023
C  C26  1  0.85730000  0.38050000  0.84400000  1.0 -0.082711023
C  C27  1  0.61950000  0.14270000  0.34400000  1.0 -0.082711023
C  C28  1  0.14270000  0.61950000  0.15600000  1.0 -0.082711023
C  C29  1  0.46150000  0.90670000  0.79300000  1.0 -0.0508231648
C  C30  1  0.90670000  0.46150000  0.70700000  1.0 -0.0508231648
C  C31  1  0.53850000  0.09330000  0.20700000  1.0 -0.0508231648
C  C32  1  0.09330000  0.53850000  0.29300000  1.0 -0.0508231648
C  C33  1  0.49300000  0.86320000  0.84910000  1.0 0.5204307458
C  C34  1  0.86320000  0.49300000  0.65090000  1.0 0.5204307458
C  C35  1  0.50700000  0.13680000  0.15090000  1.0 0.5204307458
C  C36  1  0.13680000  0.50700000  0.34910000  1.0 0.5204307458
C  C37  1  0.33150000  0.91050000  0.39200000  1.0 0.0224835088
C  C38  1  0.91050000  0.33150000  0.10800000  1.0 0.0224835088
C  C39  1  0.66850000  0.08950000  0.60800000  1.0 0.0224835088
C  C40  1  0.08950000  0.66850000  0.89200000  1.0 0.0224835088
C  C41  1  0.41220000  0.95980000  0.57100000  1.0 0.1004751644
C  C42  1  0.95980000  0.41220000  0.92900000  1.0 0.1004751644
C  C43  1  0.58780000  0.04020000  0.42900000  1.0 0.1004751644
C  C44  1  0.04020000  0.58780000  0.07100000  1.0 0.1004751644
C  C45  1  0.45600000  0.92400000  0.56100000  1.0 0.0596849213
C  C46  1  0.92400000  0.45600000  0.93900000  1.0 0.0596849213
C  C47  1  0.54400000  0.07600000  0.43900000  1.0 0.0596849213
C  C48  1  0.07600000  0.54400000  0.06100000  1.0 0.0596849213
C  C49  1  0.54070000  0.97730000  0.74000000  1.0 0.0224835088
C  C50  1  0.97730000  0.54070000  0.76000000  1.0 0.0224835088
C  C51  1  0.45930000  0.02270000  0.26000000  1.0 0.0224835088
C  C52  1  0.02270000  0.45930000  0.24000000  1.0 0.0224835088
O  O1  1  0.15750000  0.99070000  0.72050000  1.0 -0.6370560506
O  O2  1  0.99070000  0.15750000  0.77950000  1.0 -0.6370560506
O  O3  1  0.84250000  0.00930000  0.27950000  1.0 -0.6370560506
O  O4  1  0.00930000  0.84250000  0.22050000  1.0 -0.6370560506
O  O5  1  0.33566000  0.17714000  0.60360000  1.0 -0.6563923338
O  O6  1  0.17714000  0.33566000  0.89640000  1.0 -0.6563923338
O  O7  1  0.66434000  0.82286000  0.39640000  1.0 -0.6563923338
O  O8  1  0.82286000  0.66434000  0.10360000  1.0 -0.6563923338
O  O9  1  0.29742000  0.99418000  0.50060000  1.0 -0.6177696905
O  O10  1  0.99418000  0.29742000  0.99940000  1.0 -0.6177696905
O  O11  1  0.70258000  0.00582000  0.49940000  1.0 -0.6177696905
O  O12  1  0.00582000  0.70258000  0.00060000  1.0 -0.6177696905
O  O13  1  0.12950000  0.81010000  0.35820000  1.0 -0.6177696905
O  O14  1  0.81010000  0.12950000  0.14180000  1.0 -0.6177696905
O  O15  1  0.87050000  0.18990000  0.64180000  1.0 -0.6145704964
O  O16  1  0.18990000  0.87050000  0.85820000  1.0 -0.6177696905
O  O17  1  0.55630000  0.90970000  0.00480000  1.0 -0.6866714486
O  O18  1  0.90970000  0.55630000  0.49520000  1.0 -0.6866714486
O  O19  1  0.44370000  0.09030000  0.99520000  1.0 -0.6866714486
O  O20  1  0.09030000  0.44370000  0.50480000  1.0 -0.6866714486
O  O21  1  0.44122000  0.77338000  0.76190000  1.0 -0.4213872903
O  O22  1  0.77338000  0.44122000  0.73810000  1.0 -0.4213872903
O  O23  1  0.55878000  0.22662000  0.23810000  1.0 -0.4213872903
O  O24  1  0.22662000  0.55878000  0.26190000  1.0 -0.4213872903
