# DDEC6 charges by PACMAN v1.1 (https://github.com/mtap-research/PACMAN-charge/)
data_UXECUX_FSR_pacman
_symmetry_space_group_name_H-M   'P 1'
_cell_length_a   9.29980000
_cell_length_b   9.68320000
_cell_length_c   11.21700000
_cell_angle_alpha   72.55000000
_cell_angle_beta   81.06000000
_cell_angle_gamma   64.68000000
_symmetry_Int_Tables_number   1
_chemical_formula_structural   Tb(C5O3)3
_chemical_formula_sum   'Tb2 C30 O18'
_cell_volume   870.62082178
_cell_formula_units_Z   2
loop_
 _symmetry_equiv_pos_site_id
 _symmetry_equiv_pos_as_xyz
  1  'x, y, z'
loop_
 _atom_site_type_symbol
 _atom_site_label
 _atom_site_symmetry_multiplicity
 _atom_site_fract_x
 _atom_site_fract_y
 _atom_site_fract_z
 _atom_site_occupancy
 _atom_site_charge
Tb  Tb1  1  0.75552000  0.44936000  0.51524000  1.0 2.0000115161
Tb  Tb2  1  0.24448000  0.55064000  0.48476000  1.0 2.0000115161
C  C1  1  0.62170000  0.70200000  0.63810000  1.0 0.5931227928
C  C2  1  0.54740000  0.84390000  0.68800000  1.0 -0.0965962062
C  C3  1  0.42320000  0.85740000  0.77900000  1.0 0.1049896752
C  C4  1  0.35080000  0.99220000  0.82260000  1.0 -0.1786287228
C  C5  1  0.40180000  0.11470000  0.77590000  1.0 0.2533461427
C  C6  1  0.52720000  0.10220000  0.68550000  1.0 -0.1786287228
C  C7  1  0.59800000  0.96730000  0.64290000  1.0 0.0594741556
C  C8  1  0.20850000  0.27490000  0.89810000  1.0 0.2128749614
C  C9  1  0.05530000  0.33790000  0.85330000  1.0 -0.1786287228
C  C10  1  0.92680000  0.36610000  0.94010000  1.0 0.0594741556
C  C11  1  0.95200000  0.33480000  0.06610000  1.0 -0.0426583985
C  C12  1  0.10460000  0.27090000  0.10740000  1.0 0.0227603292
C  C13  1  0.23460000  0.24000000  0.02370000  1.0 -0.1264691694
C  C14  1  0.01960000  0.38360000  0.71750000  1.0 0.6833771294
C  C15  1  0.58360000  0.23340000  0.63200000  1.0 0.6499371653
C  C16  1  0.37830000  0.29800000  0.36190000  1.0 0.5931227928
C  C17  1  0.45260000  0.15610000  0.31200000  1.0 -0.0965962062
C  C18  1  0.57680000  0.14260000  0.22100000  1.0 0.1072589954
C  C19  1  0.64920000  0.00780000  0.17740000  1.0 -0.1786287228
C  C20  1  0.59820000  0.88530000  0.22410000  1.0 0.2533461427
C  C21  1  0.47280000  0.89780000  0.31450000  1.0 -0.1786287228
C  C22  1  0.40200000  0.03270000  0.35710000  1.0 0.0594741556
C  C23  1  0.79150000  0.72510000  0.10190000  1.0 0.2128749614
C  C24  1  0.94470000  0.66210000  0.14670000  1.0 -0.1786287228
C  C25  1  0.07320000  0.63390000  0.05990000  1.0 0.0594741556
C  C26  1  0.04800000  0.66520000  0.93390000  1.0 -0.0426583985
C  C27  1  0.89540000  0.72910000  0.89260000  1.0 0.0227603292
C  C28  1  0.76540000  0.76000000  0.97630000  1.0 -0.1264691694
C  C29  1  0.98040000  0.61640000  0.28250000  1.0 0.6833771294
C  C30  1  0.41640000  0.76660000  0.36800000  1.0 0.6499371653
O  O1  1  0.34190000  0.24840000  0.81650000  1.0 -0.1934491271
O  O2  1  0.73050000  0.34940000  0.35280000  1.0 -0.1264691694
O  O3  1  0.48610000  0.37150000  0.58700000  1.0 -0.6427301938
O  O4  1  0.01100000  0.23050000  0.48390000  1.0 0.0460731624
O  O5  1  0.90330000  0.36290000  0.69530000  1.0 -0.6138591046
O  O6  1  0.57370000  0.59110000  0.67480000  1.0 -0.5504820222
O  O7  1  0.73240000  0.69330000  0.55550000  1.0 -0.578015166
O  O8  1  0.10050000  0.44160000  0.63770000  1.0 -0.6226548428
O  O9  1  0.72890000  0.20140000  0.63020000  1.0 -0.5573062772
O  O10  1  0.65810000  0.75160000  0.18350000  1.0 -0.1934491271
O  O11  1  0.26950000  0.65060000  0.64720000  1.0 -0.1264691694
O  O12  1  0.51390000  0.62850000  0.41300000  1.0 -0.6427301938
O  O13  1  0.98900000  0.76950000  0.51610000  1.0 0.0460731624
O  O14  1  0.09670000  0.63710000  0.30470000  1.0 -0.6138591046
O  O15  1  0.42630000  0.40890000  0.32520000  1.0 -0.5504820222
O  O16  1  0.26760000  0.30670000  0.44450000  1.0 -0.578015166
O  O17  1  0.89950000  0.55840000  0.36230000  1.0 -0.6226548428
O  O18  1  0.27110000  0.79860000  0.36980000  1.0 -0.5573062772
