# DDEC6 charges by PACMAN v1.1 (https://github.com/mtap-research/PACMAN-charge/)
data_UXELIT_FSR_pacman
_symmetry_space_group_name_H-M   'P 1'
_cell_length_a   18.08310000
_cell_length_b   18.08310000
_cell_length_c   18.08310000
_cell_angle_alpha   61.11890000
_cell_angle_beta   61.11890000
_cell_angle_gamma   61.11890000
_symmetry_Int_Tables_number   1
_chemical_formula_structural   Zn4H18(C12O5)3
_chemical_formula_sum   'Zn16 H72 C144 O60'
_cell_volume   4286.52077319
_cell_formula_units_Z   4
loop_
 _symmetry_equiv_pos_site_id
 _symmetry_equiv_pos_as_xyz
  1  'x, y, z'
loop_
 _atom_site_type_symbol
 _atom_site_label
 _atom_site_symmetry_multiplicity
 _atom_site_fract_x
 _atom_site_fract_y
 _atom_site_fract_z
 _atom_site_occupancy
 _atom_site_charge
Zn  Zn1  1  0.39053000  0.39056000  0.22083000  1.0 0.8391694742
Zn  Zn2  1  0.39056000  0.22083000  0.39053000  1.0 0.8391694742
Zn  Zn3  1  0.22083000  0.39053000  0.39056000  1.0 0.8391694742
Zn  Zn4  1  0.39496000  0.39496000  0.39496000  1.0 0.6949018555
Zn  Zn5  1  0.97928000  0.80612000  0.80614000  1.0 0.947788568
Zn  Zn6  1  0.80612000  0.80614000  0.97928000  1.0 0.947788568
Zn  Zn7  1  0.80614000  0.97928000  0.80612000  1.0 0.947788568
Zn  Zn8  1  0.80520000  0.80520000  0.80520000  1.0 0.9372924583
Zn  Zn9  1  0.60947000  0.60944000  0.77917000  1.0 0.8391694742
Zn  Zn10  1  0.60944000  0.77917000  0.60947000  1.0 0.8391694742
Zn  Zn11  1  0.77917000  0.60947000  0.60944000  1.0 0.8391694742
Zn  Zn12  1  0.60504000  0.60504000  0.60504000  1.0 0.6949018555
Zn  Zn13  1  0.02072000  0.19388000  0.19386000  1.0 0.947788568
Zn  Zn14  1  0.19388000  0.19386000  0.02072000  1.0 0.947788568
Zn  Zn15  1  0.19386000  0.02072000  0.19388000  1.0 0.947788568
Zn  Zn16  1  0.19480000  0.19480000  0.19480000  1.0 0.9372924583
H  H1  1  0.94320000  0.61210000  0.16090000  1.0 0.072935346
H  H2  1  0.61210000  0.16090000  0.94320000  1.0 0.072935346
H  H3  1  0.16090000  0.94320000  0.61210000  1.0 0.072935346
H  H4  1  0.16370000  0.66420000  0.94800000  1.0 0.0786408422
H  H5  1  0.66420000  0.94800000  0.16370000  1.0 0.0786408422
H  H6  1  0.94800000  0.16370000  0.66420000  1.0 0.0786408422
H  H7  1  0.03130000  0.53110000  0.25430000  1.0 0.0786408422
H  H8  1  0.53110000  0.25430000  0.03130000  1.0 0.0786408422
H  H9  1  0.25430000  0.03130000  0.53110000  1.0 0.0786408422
H  H10  1  0.24830000  0.58460000  0.03930000  1.0 0.072935346
H  H11  1  0.58460000  0.03930000  0.24830000  1.0 0.072935346
H  H12  1  0.03930000  0.24830000  0.58460000  1.0 0.072935346
H  H13  1  0.15260000  0.59790000  0.69140000  1.0 0.0786408422
H  H14  1  0.59790000  0.69140000  0.15260000  1.0 0.0786408422
H  H15  1  0.69140000  0.15260000  0.59790000  1.0 0.0786408422
H  H16  1  0.24190000  0.51610000  0.59570000  1.0 0.0515223088
H  H17  1  0.51610000  0.59570000  0.24190000  1.0 0.0515223088
H  H18  1  0.59570000  0.24190000  0.51610000  1.0 0.0515223088
H  H19  1  0.66560000  0.16250000  0.94930000  1.0 0.0786408422
H  H20  1  0.16250000  0.94930000  0.66560000  1.0 0.0786408422
H  H21  1  0.94930000  0.66560000  0.16250000  1.0 0.0786408422
H  H22  1  0.61270000  0.94370000  0.16040000  1.0 0.072935346
H  H23  1  0.94370000  0.16040000  0.61270000  1.0 0.072935346
H  H24  1  0.16040000  0.61270000  0.94370000  1.0 0.072935346
H  H25  1  0.58290000  0.24790000  0.03930000  1.0 0.0786408422
H  H26  1  0.24790000  0.03930000  0.58290000  1.0 0.0786408422
H  H27  1  0.03930000  0.58290000  0.24790000  1.0 0.0786408422
H  H28  1  0.53050000  0.03210000  0.25230000  1.0 0.072935346
H  H29  1  0.03210000  0.25230000  0.53050000  1.0 0.072935346
H  H30  1  0.25230000  0.53050000  0.03210000  1.0 0.072935346
H  H31  1  0.15490000  0.67530000  0.61660000  1.0 0.0786408422
H  H32  1  0.67530000  0.61660000  0.15490000  1.0 0.0786408422
H  H33  1  0.61660000  0.15490000  0.67530000  1.0 0.0786408422
H  H34  1  0.24600000  0.58520000  0.53070000  1.0 0.0515223088
H  H35  1  0.58520000  0.53070000  0.24600000  1.0 0.0515223088
H  H36  1  0.53070000  0.24600000  0.58520000  1.0 0.0515223088
H  H37  1  0.05680000  0.38790000  0.83910000  1.0 0.072935346
H  H38  1  0.38790000  0.83910000  0.05680000  1.0 0.072935346
H  H39  1  0.83910000  0.05680000  0.38790000  1.0 0.072935346
H  H40  1  0.83630000  0.33580000  0.05200000  1.0 0.0786408422
H  H41  1  0.33580000  0.05200000  0.83630000  1.0 0.0786408422
H  H42  1  0.05200000  0.83630000  0.33580000  1.0 0.0786408422
H  H43  1  0.96870000  0.46890000  0.74570000  1.0 0.0786408422
H  H44  1  0.46890000  0.74570000  0.96870000  1.0 0.0786408422
H  H45  1  0.74570000  0.96870000  0.46890000  1.0 0.0786408422
H  H46  1  0.75170000  0.41540000  0.96070000  1.0 0.072935346
H  H47  1  0.41540000  0.96070000  0.75170000  1.0 0.072935346
H  H48  1  0.96070000  0.75170000  0.41540000  1.0 0.072935346
H  H49  1  0.84740000  0.40210000  0.30860000  1.0 0.0786408422
H  H50  1  0.40210000  0.30860000  0.84740000  1.0 0.0786408422
H  H51  1  0.30860000  0.84740000  0.40210000  1.0 0.0786408422
H  H52  1  0.75810000  0.48390000  0.40430000  1.0 0.0515223088
H  H53  1  0.48390000  0.40430000  0.75810000  1.0 0.0515223088
H  H54  1  0.40430000  0.75810000  0.48390000  1.0 0.0515223088
H  H55  1  0.33440000  0.83750000  0.05070000  1.0 0.0786408422
H  H56  1  0.83750000  0.05070000  0.33440000  1.0 0.0786408422
H  H57  1  0.05070000  0.33440000  0.83750000  1.0 0.0786408422
H  H58  1  0.38730000  0.05630000  0.83960000  1.0 0.072935346
H  H59  1  0.05630000  0.83960000  0.38730000  1.0 0.072935346
H  H60  1  0.83960000  0.38730000  0.05630000  1.0 0.072935346
H  H61  1  0.41710000  0.75210000  0.96070000  1.0 0.0786408422
H  H62  1  0.75210000  0.96070000  0.41710000  1.0 0.0786408422
H  H63  1  0.96070000  0.41710000  0.75210000  1.0 0.0786408422
H  H64  1  0.46950000  0.96790000  0.74770000  1.0 0.072935346
H  H65  1  0.96790000  0.74770000  0.46950000  1.0 0.072935346
H  H66  1  0.74770000  0.46950000  0.96790000  1.0 0.072935346
H  H67  1  0.84510000  0.32470000  0.38340000  1.0 0.0786408422
H  H68  1  0.32470000  0.38340000  0.84510000  1.0 0.0786408422
H  H69  1  0.38340000  0.84510000  0.32470000  1.0 0.0786408422
H  H70  1  0.75400000  0.41480000  0.46930000  1.0 0.0515223088
H  H71  1  0.41480000  0.46930000  0.75400000  1.0 0.0515223088
H  H72  1  0.46930000  0.75400000  0.41480000  1.0 0.0515223088
C  C1  1  0.98650000  0.71380000  0.98710000  1.0 0.5362378376
C  C2  1  0.71380000  0.98710000  0.98650000  1.0 0.5362378376
C  C3  1  0.98710000  0.98650000  0.71380000  1.0 0.5362378376
C  C4  1  0.04480000  0.65180000  0.04540000  1.0 -0.0328138868
C  C5  1  0.65180000  0.04540000  0.04480000  1.0 -0.0328138868
C  C6  1  0.04540000  0.04480000  0.65180000  1.0 -0.0328138868
C  C7  1  0.00460000  0.60690000  0.13770000  1.0 -0.039229981
C  C8  1  0.60690000  0.13770000  0.00460000  1.0 -0.039229981
C  C9  1  0.13770000  0.00460000  0.60690000  1.0 -0.039229981
C  C10  1  0.13680000  0.63780000  0.01030000  1.0 -0.039229981
C  C11  1  0.63780000  0.01030000  0.13680000  1.0 -0.039229981
C  C12  1  0.01030000  0.13680000  0.63780000  1.0 -0.039229981
C  C13  1  0.05720000  0.55610000  0.19170000  1.0 -0.039229981
C  C14  1  0.55610000  0.19170000  0.05720000  1.0 -0.039229981
C  C15  1  0.19170000  0.05720000  0.55610000  1.0 -0.039229981
C  C16  1  0.18750000  0.58810000  0.06300000  1.0 -0.0328138868
C  C17  1  0.58810000  0.06300000  0.18750000  1.0 -0.0328138868
C  C18  1  0.06300000  0.18750000  0.58810000  1.0 -0.0328138868
C  C19  1  0.15260000  0.54110000  0.15210000  1.0 -0.0200278858
C  C20  1  0.54110000  0.15210000  0.15260000  1.0 -0.0200278858
C  C21  1  0.15210000  0.15260000  0.54110000  1.0 -0.0200278858
C  C22  1  0.21015000  0.48165000  0.20995000  1.0 0.5195934491
C  C23  1  0.48165000  0.20995000  0.21015000  1.0 0.5195934491
C  C24  1  0.20995000  0.21015000  0.48165000  1.0 0.5195934491
C  C25  1  0.98221000  0.71081000  0.70991000  1.0 0.5484792309
C  C26  1  0.71081000  0.70991000  0.98221000  1.0 0.5484792309
C  C27  1  0.70991000  0.98221000  0.71081000  1.0 0.5484792309
C  C28  1  0.03880000  0.65300000  0.65260000  1.0 -0.0200278858
C  C29  1  0.65300000  0.65260000  0.03880000  1.0 -0.0200278858
C  C30  1  0.65260000  0.03880000  0.65300000  1.0 -0.0200278858
C  C31  1  0.00203000  0.62443000  0.62473000  1.0 -0.1004387422
C  C32  1  0.62443000  0.62473000  0.00203000  1.0 -0.1004387422
C  C33  1  0.62473000  0.00203000  0.62443000  1.0 -0.1004387422
C  C34  1  0.05460000  0.57080000  0.57140000  1.0 -0.1535052789
C  C35  1  0.57080000  0.57140000  0.05460000  1.0 -0.1535052789
C  C36  1  0.57140000  0.05460000  0.57080000  1.0 -0.1535052789
C  C37  1  0.12980000  0.59720000  0.65430000  1.0 -0.0580328179
C  C38  1  0.59720000  0.65430000  0.12980000  1.0 -0.0580328179
C  C39  1  0.65430000  0.12980000  0.59720000  1.0 -0.0580328179
C  C40  1  0.18000000  0.54490000  0.60240000  1.0 -0.0580328179
C  C41  1  0.54490000  0.60240000  0.18000000  1.0 -0.0580328179
C  C42  1  0.60240000  0.18000000  0.54490000  1.0 -0.0580328179
C  C43  1  0.14370000  0.53170000  0.55770000  1.0 0.0107120281
C  C44  1  0.53170000  0.55770000  0.14370000  1.0 0.0107120281
C  C45  1  0.55770000  0.14370000  0.53170000  1.0 0.0107120281
C  C46  1  0.19550000  0.47150000  0.50250000  1.0 0.2796237783
C  C47  1  0.47150000  0.50250000  0.19550000  1.0 0.2796237783
C  C48  1  0.50250000  0.19550000  0.47150000  1.0 0.2796237783
C  C49  1  0.63810000  0.13590000  0.01120000  1.0 -0.039229981
C  C50  1  0.13590000  0.01120000  0.63810000  1.0 -0.039229981
C  C51  1  0.01120000  0.63810000  0.13590000  1.0 -0.039229981
C  C52  1  0.60710000  0.00510000  0.13700000  1.0 -0.0328138868
C  C53  1  0.00510000  0.13700000  0.60710000  1.0 -0.039229981
C  C54  1  0.13700000  0.60710000  0.00510000  1.0 -0.039229981
C  C55  1  0.58740000  0.18670000  0.06360000  1.0 -0.0328138868
C  C56  1  0.18670000  0.06360000  0.58740000  1.0 -0.0328138868
C  C57  1  0.06360000  0.58740000  0.18670000  1.0 -0.039229981
C  C58  1  0.55620000  0.05810000  0.18980000  1.0 -0.039229981
C  C59  1  0.05810000  0.18980000  0.55620000  1.0 -0.039229981
C  C60  1  0.18980000  0.55620000  0.05810000  1.0 -0.039229981
C  C61  1  0.13070000  0.64440000  0.60840000  1.0 -0.0580328179
C  C62  1  0.64440000  0.60840000  0.13070000  1.0 -0.0542369468
C  C63  1  0.60840000  0.13070000  0.64440000  1.0 -0.0542369468
C  C64  1  0.18370000  0.59400000  0.55570000  1.0 -0.0580328179
C  C65  1  0.59400000  0.55570000  0.18370000  1.0 -0.0542369468
C  C66  1  0.55570000  0.18370000  0.59400000  1.0 -0.0580328179
C  C67  1  0.14740000  0.55320000  0.53680000  1.0 0.0107120281
C  C68  1  0.55320000  0.53680000  0.14740000  1.0 0.0107120281
C  C69  1  0.53680000  0.14740000  0.55320000  1.0 0.0107120281
C  C70  1  0.20590000  0.49710000  0.47770000  1.0 0.2533115911
C  C71  1  0.49710000  0.47770000  0.20590000  1.0 0.2533115911
C  C72  1  0.47770000  0.20590000  0.49710000  1.0 0.2533115911
C  C73  1  0.01350000  0.28620000  0.01290000  1.0 0.5362378376
C  C74  1  0.28620000  0.01290000  0.01350000  1.0 0.5362378376
C  C75  1  0.01290000  0.01350000  0.28620000  1.0 0.5362378376
C  C76  1  0.95520000  0.34820000  0.95460000  1.0 -0.0328138868
C  C77  1  0.34820000  0.95460000  0.95520000  1.0 -0.0328138868
C  C78  1  0.95460000  0.95520000  0.34820000  1.0 -0.0328138868
C  C79  1  0.99540000  0.39310000  0.86230000  1.0 -0.039229981
C  C80  1  0.39310000  0.86230000  0.99540000  1.0 -0.039229981
C  C81  1  0.86230000  0.99540000  0.39310000  1.0 -0.039229981
C  C82  1  0.86320000  0.36220000  0.98970000  1.0 -0.039229981
C  C83  1  0.36220000  0.98970000  0.86320000  1.0 -0.039229981
C  C84  1  0.98970000  0.86320000  0.36220000  1.0 -0.039229981
C  C85  1  0.94280000  0.44390000  0.80830000  1.0 -0.039229981
C  C86  1  0.44390000  0.80830000  0.94280000  1.0 -0.039229981
C  C87  1  0.80830000  0.94280000  0.44390000  1.0 -0.039229981
C  C88  1  0.81250000  0.41190000  0.93700000  1.0 -0.0328138868
C  C89  1  0.41190000  0.93700000  0.81250000  1.0 -0.0328138868
C  C90  1  0.93700000  0.81250000  0.41190000  1.0 -0.0328138868
C  C91  1  0.84740000  0.45890000  0.84790000  1.0 -0.0200278858
C  C92  1  0.45890000  0.84790000  0.84740000  1.0 -0.0200278858
C  C93  1  0.84790000  0.84740000  0.45890000  1.0 -0.0200278858
C  C94  1  0.78985000  0.51835000  0.79005000  1.0 0.5195934491
C  C95  1  0.51835000  0.79005000  0.78985000  1.0 0.5195934491
C  C96  1  0.79005000  0.78985000  0.51835000  1.0 0.5195934491
C  C97  1  0.01779000  0.28919000  0.29009000  1.0 0.5484792309
C  C98  1  0.28919000  0.29009000  0.01779000  1.0 0.5484792309
C  C99  1  0.29009000  0.01779000  0.28919000  1.0 0.5484792309
C  C100  1  0.96120000  0.34700000  0.34740000  1.0 -0.0200278858
C  C101  1  0.34700000  0.34740000  0.96120000  1.0 -0.0200278858
C  C102  1  0.34740000  0.96120000  0.34700000  1.0 -0.0200278858
C  C103  1  0.99797000  0.37557000  0.37527000  1.0 -0.1004387422
C  C104  1  0.37557000  0.37527000  0.99797000  1.0 -0.1004387422
C  C105  1  0.37527000  0.99797000  0.37557000  1.0 -0.1004387422
C  C106  1  0.94540000  0.42920000  0.42860000  1.0 -0.1535052789
C  C107  1  0.42920000  0.42860000  0.94540000  1.0 -0.1535052789
C  C108  1  0.42860000  0.94540000  0.42920000  1.0 -0.1535052789
C  C109  1  0.87020000  0.40280000  0.34570000  1.0 -0.0580328179
C  C110  1  0.40280000  0.34570000  0.87020000  1.0 -0.0580328179
C  C111  1  0.34570000  0.87020000  0.40280000  1.0 -0.0580328179
C  C112  1  0.82000000  0.45510000  0.39760000  1.0 -0.0580328179
C  C113  1  0.45510000  0.39760000  0.82000000  1.0 -0.0580328179
C  C114  1  0.39760000  0.82000000  0.45510000  1.0 -0.0580328179
C  C115  1  0.85630000  0.46830000  0.44230000  1.0 0.0107120281
C  C116  1  0.46830000  0.44230000  0.85630000  1.0 0.0107120281
C  C117  1  0.44230000  0.85630000  0.46830000  1.0 0.0107120281
C  C118  1  0.80450000  0.52850000  0.49750000  1.0 0.2796237783
C  C119  1  0.52850000  0.49750000  0.80450000  1.0 0.2796237783
C  C120  1  0.49750000  0.80450000  0.52850000  1.0 0.2796237783
C  C121  1  0.36190000  0.86410000  0.98880000  1.0 -0.039229981
C  C122  1  0.86410000  0.98880000  0.36190000  1.0 -0.039229981
C  C123  1  0.98880000  0.36190000  0.86410000  1.0 -0.039229981
C  C124  1  0.39290000  0.99490000  0.86300000  1.0 -0.0328138868
C  C125  1  0.99490000  0.86300000  0.39290000  1.0 -0.0328138868
C  C126  1  0.86300000  0.39290000  0.99490000  1.0 -0.0328138868
C  C127  1  0.41260000  0.81330000  0.93640000  1.0 -0.0328138868
C  C128  1  0.81330000  0.93640000  0.41260000  1.0 -0.0328138868
C  C129  1  0.93640000  0.41260000  0.81330000  1.0 -0.0328138868
C  C130  1  0.44380000  0.94190000  0.81020000  1.0 -0.039229981
C  C131  1  0.94190000  0.81020000  0.44380000  1.0 -0.039229981
C  C132  1  0.81020000  0.44380000  0.94190000  1.0 -0.039229981
C  C133  1  0.86930000  0.35560000  0.39160000  1.0 -0.0542369468
C  C134  1  0.35560000  0.39160000  0.86930000  1.0 -0.0580328179
C  C135  1  0.39160000  0.86930000  0.35560000  1.0 -0.0542369468
C  C136  1  0.81630000  0.40600000  0.44430000  1.0 -0.0542369468
C  C137  1  0.40600000  0.44430000  0.81630000  1.0 -0.0580328179
C  C138  1  0.44430000  0.81630000  0.40600000  1.0 -0.0580328179
C  C139  1  0.85260000  0.44680000  0.46320000  1.0 0.0107120281
C  C140  1  0.44680000  0.46320000  0.85260000  1.0 0.0107120281
C  C141  1  0.46320000  0.85260000  0.44680000  1.0 0.0107120281
C  C142  1  0.79410000  0.50290000  0.52230000  1.0 0.2533115911
C  C143  1  0.50290000  0.52230000  0.79410000  1.0 0.2533115911
C  C144  1  0.52230000  0.79410000  0.50290000  1.0 0.2533115911
O  O1  1  0.02850000  0.73290000  0.90140000  1.0 -0.5687634183
O  O2  1  0.73290000  0.90140000  0.02850000  1.0 -0.5687634183
O  O3  1  0.90140000  0.02850000  0.73290000  1.0 -0.5687634183
O  O4  1  0.90150000  0.73400000  0.02820000  1.0 -0.5687634183
O  O5  1  0.73400000  0.02820000  0.90150000  1.0 -0.5687634183
O  O6  1  0.02820000  0.90150000  0.73400000  1.0 -0.5687634183
O  O7  1  0.29272000  0.45982000  0.17162000  1.0 -0.5029748215
O  O8  1  0.45982000  0.17162000  0.29272000  1.0 -0.5029748215
O  O9  1  0.17162000  0.29272000  0.45982000  1.0 -0.5029748215
O  O10  1  0.17164000  0.45944000  0.29284000  1.0 -0.5090718849
O  O11  1  0.45944000  0.29284000  0.17164000  1.0 -0.5090718849
O  O12  1  0.29284000  0.17164000  0.45944000  1.0 -0.5090718849
O  O13  1  0.84940000  0.84940000  0.84940000  1.0 -1.0579463525
O  O14  1  0.02211000  0.73341000  0.73321000  1.0 -0.5275621795
O  O15  1  0.73341000  0.73321000  0.02211000  1.0 -0.5275621795
O  O16  1  0.73321000  0.02211000  0.73341000  1.0 -0.5275621795
O  O17  1  0.90002000  0.73192000  0.73142000  1.0 -0.4891550822
O  O18  1  0.73192000  0.73142000  0.90002000  1.0 -0.4891550822
O  O19  1  0.73142000  0.90002000  0.73192000  1.0 -0.4891550822
O  O20  1  0.34954000  0.34954000  0.34954000  1.0 -0.8946411295
O  O21  1  0.16265000  0.46395000  0.46415000  1.0 -0.3547066731
O  O22  1  0.46395000  0.46415000  0.16265000  1.0 -0.3547066731
O  O23  1  0.46415000  0.16265000  0.46395000  1.0 -0.3547066731
O  O24  1  0.44653000  0.44653000  0.44653000  1.0 0.043349901
O  O25  1  0.27750000  0.42690000  0.49930000  1.0 -0.1728925043
O  O26  1  0.42690000  0.49930000  0.27750000  1.0 -0.1728925043
O  O27  1  0.49930000  0.27750000  0.42690000  1.0 -0.1728925043
O  O28  1  0.29180000  0.47470000  0.45890000  1.0 -0.1728925043
O  O29  1  0.47470000  0.45890000  0.29180000  1.0 -0.1728925043
O  O30  1  0.45890000  0.29180000  0.47470000  1.0 -0.1728925043
O  O31  1  0.97150000  0.26710000  0.09860000  1.0 -0.5687634183
O  O32  1  0.26710000  0.09860000  0.97150000  1.0 -0.5687634183
O  O33  1  0.09860000  0.97150000  0.26710000  1.0 -0.5687634183
O  O34  1  0.09850000  0.26600000  0.97180000  1.0 -0.5687634183
O  O35  1  0.26600000  0.97180000  0.09850000  1.0 -0.5687634183
O  O36  1  0.97180000  0.09850000  0.26600000  1.0 -0.5687634183
O  O37  1  0.70728000  0.54018000  0.82838000  1.0 -0.5029748215
O  O38  1  0.54018000  0.82838000  0.70728000  1.0 -0.5029748215
O  O39  1  0.82838000  0.70728000  0.54018000  1.0 -0.5029748215
O  O40  1  0.82836000  0.54056000  0.70716000  1.0 -0.5090718849
O  O41  1  0.54056000  0.70716000  0.82836000  1.0 -0.5090718849
O  O42  1  0.70716000  0.82836000  0.54056000  1.0 -0.5090718849
O  O43  1  0.15060000  0.15060000  0.15060000  1.0 -1.0579463525
O  O44  1  0.97789000  0.26659000  0.26679000  1.0 -0.5275621795
O  O45  1  0.26659000  0.26679000  0.97789000  1.0 -0.5275621795
O  O46  1  0.26679000  0.97789000  0.26659000  1.0 -0.5275621795
O  O47  1  0.09998000  0.26808000  0.26858000  1.0 -0.4891550822
O  O48  1  0.26808000  0.26858000  0.09998000  1.0 -0.4891550822
O  O49  1  0.26858000  0.09998000  0.26808000  1.0 -0.4891550822
O  O50  1  0.65046000  0.65046000  0.65046000  1.0 -0.8953970356
O  O51  1  0.83735000  0.53605000  0.53585000  1.0 -0.3550313992
O  O52  1  0.53605000  0.53585000  0.83735000  1.0 -0.3547066731
O  O53  1  0.53585000  0.83735000  0.53605000  1.0 -0.3547066731
O  O54  1  0.55347000  0.55347000  0.55347000  1.0 0.043349901
O  O55  1  0.72250000  0.57310000  0.50070000  1.0 -0.1728925043
O  O56  1  0.57310000  0.50070000  0.72250000  1.0 -0.1728925043
O  O57  1  0.50070000  0.72250000  0.57310000  1.0 -0.1728925043
O  O58  1  0.70820000  0.52530000  0.54110000  1.0 -0.1728925043
O  O59  1  0.52530000  0.54110000  0.70820000  1.0 -0.1728925043
O  O60  1  0.54110000  0.70820000  0.52530000  1.0 -0.1728925043
