# DDEC6 charges by PACMAN v1.1 (https://github.com/mtap-research/PACMAN-charge/)
data_UXISUR_ASR_pacman
_symmetry_space_group_name_H-M   'P 1'
_cell_length_a   18.63250000
_cell_length_b   18.63250000
_cell_length_c   18.63250000
_cell_angle_alpha   60.00000000
_cell_angle_beta   60.00000000
_cell_angle_gamma   60.00000000
_symmetry_Int_Tables_number   1
_chemical_formula_structural   CuH2(C3O2)2
_chemical_formula_sum   'Cu12 H24 C72 O48'
_cell_volume   4574.02350337
_cell_formula_units_Z   12
loop_
 _symmetry_equiv_pos_site_id
 _symmetry_equiv_pos_as_xyz
  1  'x, y, z'
loop_
 _atom_site_type_symbol
 _atom_site_label
 _atom_site_symmetry_multiplicity
 _atom_site_fract_x
 _atom_site_fract_y
 _atom_site_fract_z
 _atom_site_occupancy
 _atom_site_charge
Cu  Cu1  1  0.07046000  0.50000000  0.92954000  1.0 0.856168945
Cu  Cu2  1  0.50000000  0.07046000  0.50000000  1.0 0.856168945
Cu  Cu3  1  0.92954000  0.50000000  0.07046000  1.0 0.856168945
Cu  Cu4  1  0.50000000  0.92954000  0.50000000  1.0 0.856168945
Cu  Cu5  1  0.92954000  0.07046000  0.50000000  1.0 0.856168945
Cu  Cu6  1  0.50000000  0.50000000  0.07046000  1.0 0.856168945
Cu  Cu7  1  0.07046000  0.92954000  0.50000000  1.0 0.856168945
Cu  Cu8  1  0.50000000  0.50000000  0.92954000  1.0 0.856168945
Cu  Cu9  1  0.50000000  0.92954000  0.07046000  1.0 0.856168945
Cu  Cu10  1  0.07046000  0.50000000  0.50000000  1.0 0.856168945
Cu  Cu11  1  0.50000000  0.07046000  0.92954000  1.0 0.856168945
Cu  Cu12  1  0.92954000  0.50000000  0.50000000  1.0 0.856168945
H  H1  1  0.98710000  0.46950000  0.77170000  1.0 0.1368383361
H  H2  1  0.46950000  0.98710000  0.77170000  1.0 0.1368383361
H  H3  1  0.77170000  0.77170000  0.98710000  1.0 0.1368383361
H  H4  1  0.77170000  0.77170000  0.46950000  1.0 0.1368383361
H  H5  1  0.77170000  0.98710000  0.46950000  1.0 0.1368383361
H  H6  1  0.77170000  0.46950000  0.98710000  1.0 0.1368383361
H  H7  1  0.98710000  0.77170000  0.77170000  1.0 0.1368383361
H  H8  1  0.46950000  0.77170000  0.77170000  1.0 0.1368383361
H  H9  1  0.46950000  0.77170000  0.98710000  1.0 0.1368383361
H  H10  1  0.98710000  0.77170000  0.46950000  1.0 0.1368383361
H  H11  1  0.77170000  0.98710000  0.77170000  1.0 0.1368383361
H  H12  1  0.77170000  0.46950000  0.77170000  1.0 0.1368383361
H  H13  1  0.01290000  0.53050000  0.22830000  1.0 0.1368383361
H  H14  1  0.53050000  0.01290000  0.22830000  1.0 0.1368383361
H  H15  1  0.22830000  0.22830000  0.53050000  1.0 0.1368383361
H  H16  1  0.22830000  0.22830000  0.01290000  1.0 0.1368383361
H  H17  1  0.22830000  0.01290000  0.22830000  1.0 0.1368383361
H  H18  1  0.22830000  0.53050000  0.22830000  1.0 0.1368383361
H  H19  1  0.01290000  0.22830000  0.53050000  1.0 0.1368383361
H  H20  1  0.53050000  0.22830000  0.01290000  1.0 0.1368383361
H  H21  1  0.53050000  0.22830000  0.22830000  1.0 0.1368383361
H  H22  1  0.01290000  0.22830000  0.22830000  1.0 0.1368383361
H  H23  1  0.22830000  0.01290000  0.53050000  1.0 0.1368383361
H  H24  1  0.22830000  0.53050000  0.01290000  1.0 0.1368383361
C  C1  1  0.93082000  0.47628000  0.93082000  1.0 0.5805533622
C  C2  1  0.47628000  0.93082000  0.66208000  1.0 0.5805533622
C  C3  1  0.93082000  0.66208000  0.93082000  1.0 0.5805533622
C  C4  1  0.66208000  0.93082000  0.47628000  1.0 0.5805533622
C  C5  1  0.93082000  0.93082000  0.47628000  1.0 0.5805533622
C  C6  1  0.66208000  0.47628000  0.93082000  1.0 0.5805533622
C  C7  1  0.93082000  0.93082000  0.66208000  1.0 0.5805533622
C  C8  1  0.47628000  0.66208000  0.93082000  1.0 0.5805533622
C  C9  1  0.47628000  0.93082000  0.93082000  1.0 0.5805533622
C  C10  1  0.93082000  0.66208000  0.47628000  1.0 0.5805533622
C  C11  1  0.66208000  0.93082000  0.93082000  1.0 0.5805533622
C  C12  1  0.93082000  0.47628000  0.66208000  1.0 0.5805533622
C  C13  1  0.06918000  0.52372000  0.33792000  1.0 0.5805533622
C  C14  1  0.52372000  0.06918000  0.06918000  1.0 0.5805533622
C  C15  1  0.06918000  0.33792000  0.52372000  1.0 0.5805533622
C  C16  1  0.33792000  0.06918000  0.06918000  1.0 0.5805533622
C  C17  1  0.06918000  0.06918000  0.33792000  1.0 0.5805533622
C  C18  1  0.33792000  0.52372000  0.06918000  1.0 0.5805533622
C  C19  1  0.06918000  0.06918000  0.52372000  1.0 0.5805533622
C  C20  1  0.52372000  0.33792000  0.06918000  1.0 0.5805533622
C  C21  1  0.52372000  0.06918000  0.33792000  1.0 0.5805533622
C  C22  1  0.06918000  0.33792000  0.06918000  1.0 0.5805533622
C  C23  1  0.33792000  0.06918000  0.52372000  1.0 0.5805533622
C  C24  1  0.06918000  0.52372000  0.06918000  1.0 0.5805533622
C  C25  1  0.88652000  0.46952000  0.88652000  1.0 -0.0279902511
C  C26  1  0.46952000  0.88652000  0.75744000  1.0 -0.0279902511
C  C27  1  0.88652000  0.75744000  0.88652000  1.0 -0.0279902511
C  C28  1  0.75744000  0.88652000  0.46952000  1.0 -0.0279902511
C  C29  1  0.88652000  0.88652000  0.46952000  1.0 -0.0279902511
C  C30  1  0.75744000  0.46952000  0.88652000  1.0 -0.0279902511
C  C31  1  0.88652000  0.88652000  0.75744000  1.0 -0.0279902511
C  C32  1  0.46952000  0.75744000  0.88652000  1.0 -0.0279902511
C  C33  1  0.46952000  0.88652000  0.88652000  1.0 -0.0279902511
C  C34  1  0.88652000  0.75744000  0.46952000  1.0 -0.0279902511
C  C35  1  0.75744000  0.88652000  0.88652000  1.0 -0.0279902511
C  C36  1  0.88652000  0.46952000  0.75744000  1.0 -0.0279902511
C  C37  1  0.11348000  0.53048000  0.24256000  1.0 -0.0279902511
C  C38  1  0.53048000  0.11348000  0.11348000  1.0 -0.0279902511
C  C39  1  0.11348000  0.24256000  0.53048000  1.0 -0.0279902511
C  C40  1  0.24256000  0.11348000  0.11348000  1.0 -0.0279902511
C  C41  1  0.11348000  0.11348000  0.24256000  1.0 -0.0279902511
C  C42  1  0.24256000  0.53048000  0.11348000  1.0 -0.0279902511
C  C43  1  0.11348000  0.11348000  0.53048000  1.0 -0.0279902511
C  C44  1  0.53048000  0.24256000  0.11348000  1.0 -0.0279902511
C  C45  1  0.53048000  0.11348000  0.24256000  1.0 -0.0279902511
C  C46  1  0.11348000  0.24256000  0.11348000  1.0 -0.0279902511
C  C47  1  0.24256000  0.11348000  0.53048000  1.0 -0.0279902511
C  C48  1  0.11348000  0.53048000  0.11348000  1.0 -0.0279902511
C  C49  1  0.92949000  0.46953000  0.80049000  1.0 -0.0851444271
C  C50  1  0.46953000  0.92949000  0.80049000  1.0 -0.0851444271
C  C51  1  0.80049000  0.80049000  0.92949000  1.0 -0.0851444271
C  C52  1  0.80049000  0.80049000  0.46953000  1.0 -0.0851444271
C  C53  1  0.80049000  0.92949000  0.46953000  1.0 -0.0851444271
C  C54  1  0.80049000  0.46953000  0.92949000  1.0 -0.0843489574
C  C55  1  0.92949000  0.80049000  0.80049000  1.0 -0.0851444271
C  C56  1  0.46953000  0.80049000  0.80049000  1.0 -0.0851444271
C  C57  1  0.46953000  0.80049000  0.92949000  1.0 -0.0851444271
C  C58  1  0.92949000  0.80049000  0.46953000  1.0 -0.0851444271
C  C59  1  0.80049000  0.92949000  0.80049000  1.0 -0.0851444271
C  C60  1  0.80049000  0.46953000  0.80049000  1.0 -0.0851444271
C  C61  1  0.07051000  0.53047000  0.19951000  1.0 -0.0851444271
C  C62  1  0.53047000  0.07051000  0.19951000  1.0 -0.0851444271
C  C63  1  0.19951000  0.19951000  0.53047000  1.0 -0.0851444271
C  C64  1  0.19951000  0.19951000  0.07051000  1.0 -0.0851444271
C  C65  1  0.19951000  0.07051000  0.19951000  1.0 -0.0851444271
C  C66  1  0.19951000  0.53047000  0.19951000  1.0 -0.0851444271
C  C67  1  0.07051000  0.19951000  0.53047000  1.0 -0.0851444271
C  C68  1  0.53047000  0.19951000  0.07051000  1.0 -0.0851444271
C  C69  1  0.53047000  0.19951000  0.19951000  1.0 -0.0851444271
C  C70  1  0.07051000  0.19951000  0.19951000  1.0 -0.0851444271
C  C71  1  0.19951000  0.07051000  0.53047000  1.0 -0.0843489574
C  C72  1  0.19951000  0.53047000  0.07051000  1.0 -0.0851444271
O  O1  1  0.00738000  0.47912000  0.88770000  1.0 -0.5162038909
O  O2  1  0.47912000  0.00738000  0.62580000  1.0 -0.5162038909
O  O3  1  0.88770000  0.62580000  0.00738000  1.0 -0.5162038909
O  O4  1  0.62580000  0.88770000  0.47912000  1.0 -0.5162038909
O  O5  1  0.88770000  0.00738000  0.47912000  1.0 -0.5162038909
O  O6  1  0.62580000  0.47912000  0.00738000  1.0 -0.5162038909
O  O7  1  0.00738000  0.88770000  0.62580000  1.0 -0.5162038909
O  O8  1  0.47912000  0.62580000  0.88770000  1.0 -0.5162038909
O  O9  1  0.47912000  0.88770000  0.00738000  1.0 -0.5162038909
O  O10  1  0.00738000  0.62580000  0.47912000  1.0 -0.5162038909
O  O11  1  0.62580000  0.00738000  0.88770000  1.0 -0.5162038909
O  O12  1  0.88770000  0.47912000  0.62580000  1.0 -0.5162038909
O  O13  1  0.99262000  0.52088000  0.37420000  1.0 -0.5162038909
O  O14  1  0.52088000  0.99262000  0.11230000  1.0 -0.5162038909
O  O15  1  0.11230000  0.37420000  0.52088000  1.0 -0.5162038909
O  O16  1  0.37420000  0.11230000  0.99262000  1.0 -0.5162038909
O  O17  1  0.11230000  0.99262000  0.37420000  1.0 -0.5162038909
O  O18  1  0.37420000  0.52088000  0.11230000  1.0 -0.5162038909
O  O19  1  0.99262000  0.11230000  0.52088000  1.0 -0.5162038909
O  O20  1  0.52088000  0.37420000  0.99262000  1.0 -0.5162038909
O  O21  1  0.52088000  0.11230000  0.37420000  1.0 -0.5162038909
O  O22  1  0.99262000  0.37420000  0.11230000  1.0 -0.5162038909
O  O23  1  0.37420000  0.99262000  0.52088000  1.0 -0.5162038909
O  O24  1  0.11230000  0.52088000  0.99262000  1.0 -0.5162038909
O  O25  1  0.99262000  0.52088000  0.11230000  1.0 -0.5162038909
O  O26  1  0.52088000  0.99262000  0.37420000  1.0 -0.5162038909
O  O27  1  0.11230000  0.37420000  0.99262000  1.0 -0.5162038909
O  O28  1  0.37420000  0.11230000  0.52088000  1.0 -0.5162038909
O  O29  1  0.11230000  0.99262000  0.52088000  1.0 -0.5162038909
O  O30  1  0.37420000  0.52088000  0.99262000  1.0 -0.5162038909
O  O31  1  0.99262000  0.11230000  0.37420000  1.0 -0.5162038909
O  O32  1  0.52088000  0.37420000  0.11230000  1.0 -0.5162038909
O  O33  1  0.52088000  0.11230000  0.99262000  1.0 -0.5162038909
O  O34  1  0.99262000  0.37420000  0.52088000  1.0 -0.5162038909
O  O35  1  0.37420000  0.99262000  0.11230000  1.0 -0.5162038909
O  O36  1  0.11230000  0.52088000  0.37420000  1.0 -0.5162038909
O  O37  1  0.00738000  0.47912000  0.62580000  1.0 -0.5162038909
O  O38  1  0.47912000  0.00738000  0.88770000  1.0 -0.5162038909
O  O39  1  0.88770000  0.62580000  0.47912000  1.0 -0.5162038909
O  O40  1  0.62580000  0.88770000  0.00738000  1.0 -0.5162038909
O  O41  1  0.88770000  0.00738000  0.62580000  1.0 -0.5162038909
O  O42  1  0.62580000  0.47912000  0.88770000  1.0 -0.5162038909
O  O43  1  0.00738000  0.88770000  0.47912000  1.0 -0.5162038909
O  O44  1  0.47912000  0.62580000  0.00738000  1.0 -0.5162038909
O  O45  1  0.47912000  0.88770000  0.62580000  1.0 -0.5162038909
O  O46  1  0.00738000  0.62580000  0.88770000  1.0 -0.5162038909
O  O47  1  0.62580000  0.00738000  0.47912000  1.0 -0.5162038909
O  O48  1  0.88770000  0.47912000  0.00738000  1.0 -0.5162038909
