# DDEC6 charges by PACMAN v1.1 (https://github.com/mtap-research/PACMAN-charge/)
data_UYAMOY_FSR_pacman
_symmetry_space_group_name_H-M   'P 1'
_cell_length_a   18.44680000
_cell_length_b   13.25750000
_cell_length_c   26.17450000
_cell_angle_alpha   90.00000000
_cell_angle_beta   124.54500000
_cell_angle_gamma   90.00000000
_symmetry_Int_Tables_number   1
_chemical_formula_structural   Cd5H58C70(N7O)6
_chemical_formula_sum   'Cd10 H116 C140 N84 O12'
_cell_volume   5272.54335605
_cell_formula_units_Z   2
loop_
 _symmetry_equiv_pos_site_id
 _symmetry_equiv_pos_as_xyz
  1  'x, y, z'
loop_
 _atom_site_type_symbol
 _atom_site_label
 _atom_site_symmetry_multiplicity
 _atom_site_fract_x
 _atom_site_fract_y
 _atom_site_fract_z
 _atom_site_occupancy
 _atom_site_charge
Cd  Cd1  1  0.24105000  0.42180000  0.42508000  1.0 0.6764213341
Cd  Cd2  1  0.75895000  0.92180000  0.07492000  1.0 0.6764213341
Cd  Cd3  1  0.75895000  0.57820000  0.57492000  1.0 0.6764213341
Cd  Cd4  1  0.24105000  0.07820000  0.92508000  1.0 0.6764213341
Cd  Cd5  1  0.50000000  0.50000000  0.50000000  1.0 0.6031755107
Cd  Cd6  1  0.50000000  0.00000000  0.00000000  1.0 0.6031755107
Cd  Cd7  1  0.23646000  0.19303000  0.52855000  1.0 0.7303368347
Cd  Cd8  1  0.76354000  0.69303000  0.97145000  1.0 0.7303368347
Cd  Cd9  1  0.76354000  0.80697000  0.47145000  1.0 0.7303368347
Cd  Cd10  1  0.23646000  0.30697000  0.02855000  1.0 0.7303368347
H  H1  1  0.07130000  0.36100000  0.55750000  1.0 0.1086034114
H  H2  1  0.92870000  0.86100000  0.94250000  1.0 0.1086034114
H  H3  1  0.92870000  0.63900000  0.44250000  1.0 0.1086034114
H  H4  1  0.07130000  0.13900000  0.05750000  1.0 0.1086034114
H  H5  1  0.03670000  0.56610000  0.43640000  1.0 0.1182789649
H  H6  1  0.96330000  0.06610000  0.06360000  1.0 0.1182789649
H  H7  1  0.96330000  0.43390000  0.56360000  1.0 0.1182789649
H  H8  1  0.03670000  0.93390000  0.93640000  1.0 0.1182789649
H  H9  1  0.70550000  0.34540000  0.80280000  1.0 0.0925947158
H  H10  1  0.29450000  0.84540000  0.69720000  1.0 0.0925947158
H  H11  1  0.29450000  0.65460000  0.19720000  1.0 0.0925947158
H  H12  1  0.70550000  0.15460000  0.30280000  1.0 0.0925947158
H  H13  1  0.56080000  0.31870000  0.71830000  1.0 0.13120694
H  H14  1  0.43920000  0.81870000  0.78170000  1.0 0.13120694
H  H15  1  0.43920000  0.68130000  0.28170000  1.0 0.13120694
H  H16  1  0.56080000  0.18130000  0.21830000  1.0 0.13120694
H  H17  1  0.64870000  0.33770000  0.60970000  1.0 0.1182789649
H  H18  1  0.35130000  0.83770000  0.89030000  1.0 0.1182789649
H  H19  1  0.35130000  0.66230000  0.39030000  1.0 0.1182789649
H  H20  1  0.64870000  0.16230000  0.10970000  1.0 0.1182789649
H  H21  1  0.78850000  0.34130000  0.69580000  1.0 0.0925947158
H  H22  1  0.21150000  0.84130000  0.80420000  1.0 0.0925947158
H  H23  1  0.21150000  0.65870000  0.30420000  1.0 0.0925947158
H  H24  1  0.78850000  0.15870000  0.19580000  1.0 0.0925947158
H  H25  1  0.15380000  0.98980000  0.46480000  1.0 0.0925947158
H  H26  1  0.84620000  0.48980000  0.03520000  1.0 0.0925947158
H  H27  1  0.84620000  0.01020000  0.53520000  1.0 0.0925947158
H  H28  1  0.15380000  0.51020000  0.96480000  1.0 0.0925947158
H  H29  1  0.17760000  0.82010000  0.45780000  1.0 0.1086034114
H  H30  1  0.82240000  0.32010000  0.04220000  1.0 0.1086034114
H  H31  1  0.82240000  0.17990000  0.54220000  1.0 0.1086034114
H  H32  1  0.17760000  0.67990000  0.95780000  1.0 0.1086034114
H  H33  1  0.43680000  0.88700000  0.55370000  1.0 0.1182789649
H  H34  1  0.56320000  0.38700000  0.94630000  1.0 0.1182789649
H  H35  1  0.56320000  0.11300000  0.44630000  1.0 0.1182789649
H  H36  1  0.43680000  0.61300000  0.05370000  1.0 0.1182789649
H  H37  1  0.40070000  0.04370000  0.57020000  1.0 0.0702978519
H  H38  1  0.59930000  0.54370000  0.92980000  1.0 0.0702978519
H  H39  1  0.59930000  0.95630000  0.42980000  1.0 0.0702978519
H  H40  1  0.40070000  0.45630000  0.07020000  1.0 0.0702978519
H  H41  1  0.18710000  0.24680000  0.62160000  1.0 0.1028438605
H  H42  1  0.81290000  0.74680000  0.87840000  1.0 0.1028438605
H  H43  1  0.81290000  0.75320000  0.37840000  1.0 0.1028438605
H  H44  1  0.18710000  0.25320000  0.12160000  1.0 0.1028438605
H  H45  1  0.21500000  0.21740000  0.71620000  1.0 0.1400939134
H  H46  1  0.78500000  0.71740000  0.78380000  1.0 0.1400939134
H  H47  1  0.78500000  0.78260000  0.28380000  1.0 0.1400939134
H  H48  1  0.21500000  0.28260000  0.21620000  1.0 0.1400939134
H  H49  1  0.42950000  0.06760000  0.76080000  1.0 0.1400939134
H  H50  1  0.57050000  0.56760000  0.73920000  1.0 0.1400939134
H  H51  1  0.57050000  0.93240000  0.23920000  1.0 0.1400939134
H  H52  1  0.42950000  0.43240000  0.26080000  1.0 0.1400939134
H  H53  1  0.39460000  0.09950000  0.66280000  1.0 0.0925947158
H  H54  1  0.60540000  0.59950000  0.83720000  1.0 0.0925947158
H  H55  1  0.60540000  0.90050000  0.33720000  1.0 0.0925947158
H  H56  1  0.39460000  0.40050000  0.16280000  1.0 0.0925947158
H  H57  1  0.11850000  0.41040000  0.27450000  1.0 0.1028438605
H  H58  1  0.88150000  0.91040000  0.22550000  1.0 0.1028438605
H  H59  1  0.88150000  0.58960000  0.72550000  1.0 0.1028438605
H  H60  1  0.11850000  0.08960000  0.77450000  1.0 0.1028438605
H  H61  1  0.01130000  0.49060000  0.18660000  1.0 0.1400939134
H  H62  1  0.98870000  0.99060000  0.31340000  1.0 0.1400939134
H  H63  1  0.98870000  0.50940000  0.81340000  1.0 0.1400939134
H  H64  1  0.01130000  0.00940000  0.68660000  1.0 0.1400939134
H  H65  1  0.00500000  0.70170000  0.29260000  1.0 0.1400939134
H  H66  1  0.99500000  0.20170000  0.20740000  1.0 0.1400939134
H  H67  1  0.99500000  0.29830000  0.70740000  1.0 0.1400939134
H  H68  1  0.00500000  0.79830000  0.79260000  1.0 0.1400939134
H  H69  1  0.11410000  0.61640000  0.37720000  1.0 0.1028438605
H  H70  1  0.88590000  0.11640000  0.12280000  1.0 0.1028438605
H  H71  1  0.88590000  0.38360000  0.62280000  1.0 0.1028438605
H  H72  1  0.11410000  0.88360000  0.87720000  1.0 0.1028438605
H  H73  1  0.03990000  0.22450000  0.50760000  1.0 0.0925947158
H  H74  1  0.96010000  0.72450000  0.99240000  1.0 0.0925947158
H  H75  1  0.96010000  0.77550000  0.49240000  1.0 0.0925947158
H  H76  1  0.03990000  0.27550000  0.00760000  1.0 0.0925947158
H  H77  1  0.96150000  0.00710000  0.40640000  1.0 0.13120694
H  H78  1  0.03850000  0.50710000  0.09360000  1.0 0.13120694
H  H79  1  0.03850000  0.99290000  0.59360000  1.0 0.13120694
H  H80  1  0.96150000  0.49290000  0.90640000  1.0 0.13120694
H  H81  1  0.86700000  0.03240000  0.38900000  1.0 0.13120694
H  H82  1  0.13300000  0.53240000  0.11100000  1.0 0.13120694
H  H83  1  0.13300000  0.96760000  0.61100000  1.0 0.13120694
H  H84  1  0.86700000  0.46760000  0.88900000  1.0 0.13120694
H  H85  1  0.90230000  0.08460000  0.35340000  1.0 0.13120694
H  H86  1  0.09770000  0.58460000  0.14660000  1.0 0.13120694
H  H87  1  0.09770000  0.91540000  0.64660000  1.0 0.13120694
H  H88  1  0.90230000  0.41540000  0.85340000  1.0 0.13120694
H  H89  1  0.87040000  0.26330000  0.39430000  1.0 0.1483201283
H  H90  1  0.12960000  0.76330000  0.10570000  1.0 0.1483201283
H  H91  1  0.12960000  0.73670000  0.60570000  1.0 0.1483201283
H  H92  1  0.87040000  0.23670000  0.89430000  1.0 0.1483201283
H  H93  1  0.82910000  0.17940000  0.41250000  1.0 0.1182789649
H  H94  1  0.17090000  0.67940000  0.08750000  1.0 0.1182789649
H  H95  1  0.17090000  0.82060000  0.58750000  1.0 0.1182789649
H  H96  1  0.82910000  0.32060000  0.91250000  1.0 0.1182789649
H  H97  1  0.90060000  0.25250000  0.46340000  1.0 0.1182789649
H  H98  1  0.09940000  0.75250000  0.03660000  1.0 0.1182789649
H  H99  1  0.09940000  0.74750000  0.53660000  1.0 0.1182789649
H  H100  1  0.90060000  0.24750000  0.96340000  1.0 0.1182789649
H  H101  1  0.20110000  0.96120000  0.54230000  1.0 0.0808389852
H  H102  1  0.79890000  0.46120000  0.95770000  1.0 0.0808389852
H  H103  1  0.79890000  0.03880000  0.45770000  1.0 0.0808389852
H  H104  1  0.20110000  0.53880000  0.04230000  1.0 0.0808389852
H  H105  1  0.23060000  0.80170000  0.53170000  1.0 0.1086034114
H  H106  1  0.76940000  0.30170000  0.96830000  1.0 0.1086034114
H  H107  1  0.76940000  0.19830000  0.46830000  1.0 0.1086034114
H  H108  1  0.23060000  0.69830000  0.03170000  1.0 0.1086034114
H  H109  1  0.39110000  0.90370000  0.48590000  1.0 0.1086034114
H  H110  1  0.60890000  0.40370000  0.01410000  1.0 0.1086034114
H  H111  1  0.60890000  0.09630000  0.51410000  1.0 0.1086034114
H  H112  1  0.39110000  0.59630000  0.98590000  1.0 0.1086034114
H  H113  1  0.36500000  0.06500000  0.50960000  1.0 0.0808389852
H  H114  1  0.63500000  0.56500000  0.99040000  1.0 0.0808389852
H  H115  1  0.63500000  0.93500000  0.49040000  1.0 0.0808389852
H  H116  1  0.36500000  0.43500000  0.00960000  1.0 0.0808389852
C  C1  1  0.14190000  0.41230000  0.49730000  1.0 0.5663700896
C  C2  1  0.85810000  0.91230000  0.00270000  1.0 0.5663700896
C  C3  1  0.85810000  0.58770000  0.50270000  1.0 0.5663700896
C  C4  1  0.14190000  0.08770000  0.99730000  1.0 0.5663700896
C  C5  1  0.06950000  0.45940000  0.49930000  1.0 -0.0188795973
C  C6  1  0.93050000  0.95940000  0.00070000  1.0 -0.0188795973
C  C7  1  0.93050000  0.54060000  0.50070000  1.0 -0.0188795973
C  C8  1  0.06950000  0.04060000  0.99930000  1.0 -0.0188795973
C  C9  1  0.04330000  0.41890000  0.53440000  1.0 -0.13496166
C  C10  1  0.95670000  0.91890000  0.96560000  1.0 -0.13496166
C  C11  1  0.95670000  0.58110000  0.46560000  1.0 -0.13496166
C  C12  1  0.04330000  0.08110000  0.03440000  1.0 -0.13496166
C  C13  1  0.02350000  0.53920000  0.46300000  1.0 -0.1174339158
C  C14  1  0.97650000  0.03920000  0.03700000  1.0 -0.1174339158
C  C15  1  0.97650000  0.46080000  0.53700000  1.0 -0.1174339158
C  C16  1  0.02350000  0.96080000  0.96300000  1.0 -0.1174339158
C  C17  1  0.49680000  0.31250000  0.59900000  1.0 0.2381134378
C  C18  1  0.50320000  0.81250000  0.90100000  1.0 0.2381134378
C  C19  1  0.50320000  0.68750000  0.40100000  1.0 0.2381134378
C  C20  1  0.49680000  0.18750000  0.09900000  1.0 0.2381134378
C  C21  1  0.69430000  0.33980000  0.76350000  1.0 0.0808389852
C  C22  1  0.30570000  0.83980000  0.73650000  1.0 0.0808389852
C  C23  1  0.30570000  0.66020000  0.23650000  1.0 0.0808389852
C  C24  1  0.69430000  0.16020000  0.26350000  1.0 0.0808389852
C  C25  1  0.60550000  0.32600000  0.71220000  1.0 -0.1888938481
C  C26  1  0.39450000  0.82600000  0.78780000  1.0 -0.1888938481
C  C27  1  0.39450000  0.67400000  0.28780000  1.0 -0.1888938481
C  C28  1  0.60550000  0.17400000  0.21220000  1.0 -0.1888938481
C  C29  1  0.58680000  0.32350000  0.65220000  1.0 0.0702978519
C  C30  1  0.41320000  0.82350000  0.84780000  1.0 0.0702978519
C  C31  1  0.41320000  0.67650000  0.34780000  1.0 0.0702978519
C  C32  1  0.58680000  0.17650000  0.15220000  1.0 0.0702978519
C  C33  1  0.65810000  0.33440000  0.64850000  1.0 -0.171571861
C  C34  1  0.34190000  0.83440000  0.85150000  1.0 -0.171571861
C  C35  1  0.34190000  0.66560000  0.35150000  1.0 -0.171571861
C  C36  1  0.65810000  0.16560000  0.14850000  1.0 -0.171571861
C  C37  1  0.74220000  0.34040000  0.70050000  1.0 0.0571971993
C  C38  1  0.25780000  0.84040000  0.79950000  1.0 0.0571971993
C  C39  1  0.25780000  0.65960000  0.29950000  1.0 0.0571971993
C  C40  1  0.74220000  0.15960000  0.20050000  1.0 0.0571971993
C  C41  1  0.33070000  0.73070000  0.49680000  1.0 0.2008207674
C  C42  1  0.66930000  0.23070000  0.00320000  1.0 0.2008207674
C  C43  1  0.66930000  0.26930000  0.50320000  1.0 0.2008207674
C  C44  1  0.33070000  0.76930000  0.99680000  1.0 0.2008207674
C  C45  1  0.21130000  0.96560000  0.48690000  1.0 -0.0064121143
C  C46  1  0.78870000  0.46560000  0.01310000  1.0 -0.0064121143
C  C47  1  0.78870000  0.03440000  0.51310000  1.0 -0.0064121143
C  C48  1  0.21130000  0.53440000  0.98690000  1.0 -0.0064121143
C  C49  1  0.22440000  0.86480000  0.47950000  1.0 -0.0712973547
C  C50  1  0.77560000  0.36480000  0.02050000  1.0 -0.0712973547
C  C51  1  0.77560000  0.13520000  0.52050000  1.0 -0.0712973547
C  C52  1  0.22440000  0.63520000  0.97950000  1.0 -0.0712973547
C  C53  1  0.31210000  0.83340000  0.50650000  1.0 0.0290765544
C  C54  1  0.68790000  0.33340000  0.99350000  1.0 0.0290765544
C  C55  1  0.68790000  0.16660000  0.49350000  1.0 0.0290765544
C  C56  1  0.31210000  0.66666667  0.00650000  1.0 0.0290765544
C  C57  1  0.37870000  0.90300000  0.53830000  1.0 -0.0712973547
C  C58  1  0.62130000  0.40300000  0.96170000  1.0 -0.0712973547
C  C59  1  0.62130000  0.09700000  0.46170000  1.0 -0.0712973547
C  C60  1  0.37870000  0.59700000  0.03830000  1.0 -0.0712973547
C  C61  1  0.35520000  0.99800000  0.54630000  1.0 -0.0014623578
C  C62  1  0.64480000  0.49800000  0.95370000  1.0 -0.0014623578
C  C63  1  0.64480000  0.00200000  0.45370000  1.0 -0.0014623578
C  C64  1  0.35520000  0.50200000  0.04630000  1.0 -0.0014623578
C  C65  1  0.34290000  0.11310000  0.81070000  1.0 0.2184185731
C  C66  1  0.65710000  0.61310000  0.68930000  1.0 0.2184185731
C  C67  1  0.65710000  0.88690000  0.18930000  1.0 0.2184185731
C  C68  1  0.34290000  0.38690000  0.31070000  1.0 0.2184185731
C  C69  1  0.23640000  0.20900000  0.64980000  1.0 0.0571971993
C  C70  1  0.76360000  0.70900000  0.85020000  1.0 0.0571971993
C  C71  1  0.76360000  0.79100000  0.35020000  1.0 0.0571971993
C  C72  1  0.23640000  0.29100000  0.14980000  1.0 0.0571971993
C  C73  1  0.25260000  0.19170000  0.70640000  1.0 -0.1888938481
C  C74  1  0.74740000  0.69170000  0.79360000  1.0 -0.1888938481
C  C75  1  0.74740000  0.80830000  0.29360000  1.0 -0.1888938481
C  C76  1  0.25260000  0.30830000  0.20640000  1.0 -0.1888938481
C  C77  1  0.32630000  0.13460000  0.74980000  1.0 0.0925947158
C  C78  1  0.67370000  0.63460000  0.75020000  1.0 0.0925947158
C  C79  1  0.67370000  0.86540000  0.25020000  1.0 0.0925947158
C  C80  1  0.32630000  0.36540000  0.24980000  1.0 0.0925947158
C  C81  1  0.37850000  0.10330000  0.73280000  1.0 -0.1815555495
C  C82  1  0.62150000  0.60330000  0.76720000  1.0 -0.1815555495
C  C83  1  0.62150000  0.89670000  0.26720000  1.0 -0.1815555495
C  C84  1  0.37850000  0.39670000  0.23280000  1.0 -0.1815555495
C  C85  1  0.35740000  0.12360000  0.67340000  1.0 0.0808389852
C  C86  1  0.64260000  0.62360000  0.82660000  1.0 0.0808389852
C  C87  1  0.64260000  0.87640000  0.32660000  1.0 0.0808389852
C  C88  1  0.35740000  0.37640000  0.17340000  1.0 0.0808389852
C  C89  1  0.92510000  0.66060000  0.17330000  1.0 0.2287033173
C  C90  1  0.07490000  0.16060000  0.32670000  1.0 0.2287033173
C  C91  1  0.07490000  0.33940000  0.82670000  1.0 0.2287033173
C  C92  1  0.92510000  0.83940000  0.67330000  1.0 0.2287033173
C  C93  1  0.09530000  0.47020000  0.27810000  1.0 0.0702978519
C  C94  1  0.90470000  0.97020000  0.22190000  1.0 0.0702978519
C  C95  1  0.90470000  0.52980000  0.72190000  1.0 0.0702978519
C  C96  1  0.09530000  0.02980000  0.77810000  1.0 0.0702978519
C  C97  1  0.03090000  0.51790000  0.22520000  1.0 -0.1888938481
C  C98  1  0.96910000  0.01790000  0.27480000  1.0 -0.1888938481
C  C99  1  0.96910000  0.48210000  0.77480000  1.0 -0.1888938481
C  C100  1  0.03090000  0.98210000  0.72520000  1.0 -0.1888938481
C  C101  1  0.99470000  0.60690000  0.22880000  1.0 0.0925947158
C  C102  1  0.00530000  0.10690000  0.27120000  1.0 0.0925947158
C  C103  1  0.00530000  0.39310000  0.77120000  1.0 0.0925947158
C  C104  1  0.99470000  0.89310000  0.72880000  1.0 0.0925947158
C  C105  1  0.02720000  0.64250000  0.28740000  1.0 -0.1984910918
C  C106  1  0.97280000  0.14250000  0.21260000  1.0 -0.1984910918
C  C107  1  0.97280000  0.35750000  0.71260000  1.0 -0.1984910918
C  C108  1  0.02720000  0.85750000  0.78740000  1.0 -0.1984910918
C  C109  1  0.09260000  0.59010000  0.33810000  1.0 0.0808389852
C  C110  1  0.90740000  0.09010000  0.16190000  1.0 0.0808389852
C  C111  1  0.90740000  0.40990000  0.66190000  1.0 0.0808389852
C  C112  1  0.09260000  0.90990000  0.83810000  1.0 0.0808389852
C  C113  1  0.03490000  0.16580000  0.48630000  1.0 0.2718988779
C  C114  1  0.96510000  0.66580000  0.01370000  1.0 0.2718988779
C  C115  1  0.96510000  0.83420000  0.51370000  1.0 0.2718988779
C  C116  1  0.03490000  0.33420000  0.98630000  1.0 0.2718988779
C  C117  1  0.91830000  0.05900000  0.39290000  1.0 -0.3462455375
C  C118  1  0.08170000  0.55900000  0.10710000  1.0 -0.3462455375
C  C119  1  0.08170000  0.94100000  0.60710000  1.0 -0.3462455375
C  C120  1  0.91830000  0.44100000  0.89290000  1.0 -0.3462455375
C  C121  1  0.88200000  0.21600000  0.42600000  1.0 -0.3763636601
C  C122  1  0.11800000  0.71600000  0.07400000  1.0 -0.3763636601
C  C123  1  0.11800000  0.78400000  0.57400000  1.0 -0.3763636601
C  C124  1  0.88200000  0.28400000  0.92600000  1.0 -0.3763636601
C  C125  1  0.24060000  0.95000000  0.53150000  1.0 -0.0014623578
C  C126  1  0.75940000  0.45000000  0.96850000  1.0 -0.0014623578
C  C127  1  0.75940000  0.05000000  0.46850000  1.0 -0.0014623578
C  C128  1  0.24060000  0.55000000  0.03150000  1.0 -0.0014623578
C  C129  1  0.25660000  0.85400000  0.52400000  1.0 -0.091208334
C  C130  1  0.74340000  0.35400000  0.97600000  1.0 -0.091208334
C  C131  1  0.74340000  0.14600000  0.47600000  1.0 -0.091208334
C  C132  1  0.25660000  0.64600000  0.02400000  1.0 -0.091208334
C  C133  1  0.35400000  0.91300000  0.49900000  1.0 -0.0759327067
C  C134  1  0.64600000  0.41300000  0.00100000  1.0 -0.0759327067
C  C135  1  0.64600000  0.08700000  0.50100000  1.0 -0.0759327067
C  C136  1  0.35400000  0.58700000  0.99900000  1.0 -0.0759327067
C  C137  1  0.33400000  0.01100000  0.51100000  1.0 0.0184265609
C  C138  1  0.66600000  0.51100000  0.98900000  1.0 0.0184265609
C  C139  1  0.66600000  0.98900000  0.48900000  1.0 0.0184265609
C  C140  1  0.33400000  0.48900000  0.01100000  1.0 0.0184265609
N  N1  1  0.45680000  0.36830000  0.54590000  1.0 -0.2487509557
N  N2  1  0.54320000  0.86830000  0.95410000  1.0 -0.2487509557
N  N3  1  0.54320000  0.63170000  0.45410000  1.0 -0.2487509557
N  N4  1  0.45680000  0.13170000  0.04590000  1.0 -0.2487509557
N  N5  1  0.37150000  0.34110000  0.51420000  1.0 -0.059735666
N  N6  1  0.62850000  0.84110000  0.98580000  1.0 -0.059735666
N  N7  1  0.62850000  0.65890000  0.48580000  1.0 -0.059735666
N  N8  1  0.37150000  0.15890000  0.01420000  1.0 -0.059735666
N  N9  1  0.36170000  0.27160000  0.54550000  1.0 -0.0981276193
N  N10  1  0.63830000  0.77160000  0.95450000  1.0 -0.0981276193
N  N11  1  0.63830000  0.72840000  0.45450000  1.0 -0.0981276193
N  N12  1  0.36170000  0.22840000  0.04550000  1.0 -0.0981276193
N  N13  1  0.43890000  0.25350000  0.59910000  1.0 -0.2985729975
N  N14  1  0.56110000  0.75350000  0.90090000  1.0 -0.2985729975
N  N15  1  0.56110000  0.74650000  0.40090000  1.0 -0.2985729975
N  N16  1  0.43890000  0.24650000  0.09910000  1.0 -0.2985729975
N  N17  1  0.76110000  0.34520000  0.75880000  1.0 -0.2583965289
N  N18  1  0.23890000  0.84520000  0.74120000  1.0 -0.2583965289
N  N19  1  0.23890000  0.65480000  0.24120000  1.0 -0.2583965289
N  N20  1  0.76110000  0.15480000  0.25880000  1.0 -0.2583965289
N  N21  1  0.26990000  0.65670000  0.47300000  1.0 -0.2693458153
N  N22  1  0.73010000  0.15670000  0.02700000  1.0 -0.2693458153
N  N23  1  0.73010000  0.34330000  0.52700000  1.0 -0.2693458153
N  N24  1  0.26990000  0.84330000  0.97300000  1.0 -0.2693458153
N  N25  1  0.31150000  0.57620000  0.47130000  1.0 -0.0496403714
N  N26  1  0.68850000  0.07620000  0.02870000  1.0 -0.0496403714
N  N27  1  0.68850000  0.42380000  0.52870000  1.0 -0.0496403714
N  N28  1  0.31150000  0.92380000  0.97130000  1.0 -0.0496403714
N  N29  1  0.39350000  0.60000000  0.49340000  1.0 -0.0496403714
N  N30  1  0.60650000  0.10000000  0.00660000  1.0 -0.0496403714
N  N31  1  0.60650000  0.40000000  0.50660000  1.0 -0.0496403714
N  N32  1  0.39350000  0.90000000  0.99340000  1.0 -0.0496403714
N  N33  1  0.40710000  0.69830000  0.50960000  1.0 -0.2487509557
N  N34  1  0.59290000  0.19830000  0.99040000  1.0 -0.2487509557
N  N35  1  0.59290000  0.30170000  0.49040000  1.0 -0.2487509557
N  N36  1  0.40710000  0.80170000  0.00960000  1.0 -0.2487509557
N  N37  1  0.27700000  0.02970000  0.52410000  1.0 -0.1888938481
N  N38  1  0.72300000  0.52970000  0.97590000  1.0 -0.1888938481
N  N39  1  0.72300000  0.97030000  0.47590000  1.0 -0.1888938481
N  N40  1  0.27700000  0.47030000  0.02410000  1.0 -0.1888938481
N  N41  1  0.28110000  0.12450000  0.82210000  1.0 -0.2693458153
N  N42  1  0.71890000  0.62450000  0.67790000  1.0 -0.2693458153
N  N43  1  0.71890000  0.87550000  0.17790000  1.0 -0.2693458153
N  N44  1  0.28110000  0.37550000  0.32210000  1.0 -0.2693458153
N  N45  1  0.32020000  0.09480000  0.88030000  1.0 -0.0712973547
N  N46  1  0.67980000  0.59480000  0.61970000  1.0 -0.0712973547
N  N47  1  0.67980000  0.90520000  0.11970000  1.0 -0.0712973547
N  N48  1  0.32020000  0.40520000  0.38030000  1.0 -0.0712973547
N  N49  1  0.40110000  0.06550000  0.90240000  1.0 -0.059735666
N  N50  1  0.59890000  0.56550000  0.59760000  1.0 -0.059735666
N  N51  1  0.59890000  0.93450000  0.09760000  1.0 -0.059735666
N  N52  1  0.40110000  0.43450000  0.40240000  1.0 -0.059735666
N  N53  1  0.41740000  0.07670000  0.85910000  1.0 -0.2583965289
N  N54  1  0.58260000  0.57670000  0.64090000  1.0 -0.2583965289
N  N55  1  0.58260000  0.92330000  0.14090000  1.0 -0.2583965289
N  N56  1  0.41740000  0.42330000  0.35910000  1.0 -0.2583965289
N  N57  1  0.28770000  0.17470000  0.63200000  1.0 -0.209365935
N  N58  1  0.71230000  0.67470000  0.86800000  1.0 -0.209365935
N  N59  1  0.71230000  0.82530000  0.36800000  1.0 -0.209365935
N  N60  1  0.28770000  0.32530000  0.13200000  1.0 -0.209365935
N  N61  1  0.88640000  0.74410000  0.17280000  1.0 -0.2583965289
N  N62  1  0.11360000  0.24410000  0.32720000  1.0 -0.2583965289
N  N63  1  0.11360000  0.25590000  0.82720000  1.0 -0.2583965289
N  N64  1  0.88640000  0.75590000  0.67280000  1.0 -0.2583965289
N  N65  1  0.83060000  0.76820000  0.11310000  1.0 -0.059735666
N  N66  1  0.16940000  0.26820000  0.38690000  1.0 -0.059735666
N  N67  1  0.16940000  0.23180000  0.88690000  1.0 -0.059735666
N  N68  1  0.83060000  0.73180000  0.61310000  1.0 -0.059735666
N  N69  1  0.83630000  0.69800000  0.07870000  1.0 -0.091208334
N  N70  1  0.16370000  0.19800000  0.42130000  1.0 -0.091208334
N  N71  1  0.16370000  0.30200000  0.92130000  1.0 -0.091208334
N  N72  1  0.83630000  0.80200000  0.57870000  1.0 -0.091208334
N  N73  1  0.89600000  0.63000000  0.11550000  1.0 -0.2693458153
N  N74  1  0.10400000  0.13000000  0.38450000  1.0 -0.2693458153
N  N75  1  0.10400000  0.37000000  0.88450000  1.0 -0.2693458153
N  N76  1  0.89600000  0.87000000  0.61550000  1.0 -0.2693458153
N  N77  1  0.12680000  0.50590000  0.33520000  1.0 -0.209365935
N  N78  1  0.87320000  0.00590000  0.16480000  1.0 -0.209365935
N  N79  1  0.87320000  0.49410000  0.66480000  1.0 -0.209365935
N  N80  1  0.12680000  0.99410000  0.83520000  1.0 -0.209365935
N  N81  1  0.95500000  0.14200000  0.43860000  1.0 0.0290765544
N  N82  1  0.04500000  0.64200000  0.06140000  1.0 0.0290765544
N  N83  1  0.04500000  0.85800000  0.56140000  1.0 0.0290765544
N  N84  1  0.95500000  0.35800000  0.93860000  1.0 0.0290765544
O  O1  1  0.15850000  0.44990000  0.46200000  1.0 -0.5099356276
O  O2  1  0.84150000  0.94990000  0.03800000  1.0 -0.5099356276
O  O3  1  0.84150000  0.55010000  0.53800000  1.0 -0.5099356276
O  O4  1  0.15850000  0.05010000  0.96200000  1.0 -0.5099356276
O  O5  1  0.18140000  0.33960000  0.53270000  1.0 -0.5410642726
O  O6  1  0.81860000  0.83960000  0.96730000  1.0 -0.5410642726
O  O7  1  0.81860000  0.66040000  0.46730000  1.0 -0.5410642726
O  O8  1  0.18140000  0.16040000  0.03270000  1.0 -0.5410642726
O  O9  1  0.10270000  0.11990000  0.50570000  1.0 -0.4464545352
O  O10  1  0.89730000  0.61990000  0.99430000  1.0 -0.4464545352
O  O11  1  0.89730000  0.88010000  0.49430000  1.0 -0.4464545352
O  O12  1  0.10270000  0.38010000  0.00570000  1.0 -0.4464545352
