# DDEC6 charges by PACMAN v1.1 (https://github.com/mtap-research/PACMAN-charge/)
data_UYAMIS_ASR_pacman
_symmetry_space_group_name_H-M   'P 1'
_cell_length_a   16.21940000
_cell_length_b   16.21940000
_cell_length_c   26.17880000
_cell_angle_alpha   79.28300000
_cell_angle_beta   100.71700000
_cell_angle_gamma   127.64400000
_symmetry_Int_Tables_number   1
_chemical_formula_structural   Cd7H54C64(N5O14)2
_chemical_formula_sum   'Cd14 H108 C128 N20 O56'
_cell_volume   5334.77993109
_cell_formula_units_Z   2
loop_
 _symmetry_equiv_pos_site_id
 _symmetry_equiv_pos_as_xyz
  1  'x, y, z'
loop_
 _atom_site_type_symbol
 _atom_site_label
 _atom_site_symmetry_multiplicity
 _atom_site_fract_x
 _atom_site_fract_y
 _atom_site_fract_z
 _atom_site_occupancy
 _atom_site_charge
Cd  Cd1  1  0.71208000  0.96528000  0.55866000  1.0 0.923545579
Cd  Cd2  1  0.96528000  0.71208000  0.94134000  1.0 0.923545579
Cd  Cd3  1  0.28792000  0.03472000  0.44134000  1.0 0.923545579
Cd  Cd4  1  0.03472000  0.28792000  0.05866000  1.0 0.923545579
Cd  Cd5  1  0.50000000  0.00000000  0.50000000  1.0 0.9621794818
Cd  Cd6  1  0.00000000  0.50000000  0.00000000  1.0 0.9621794818
Cd  Cd7  1  0.93307000  0.19161000  0.63017000  1.0 0.9257284997
Cd  Cd8  1  0.19161000  0.93307000  0.86983000  1.0 0.923545579
Cd  Cd9  1  0.06693000  0.80839000  0.36983000  1.0 0.923545579
Cd  Cd10  1  0.80839000  0.06693000  0.13017000  1.0 0.9257284997
Cd  Cd11  1  0.87010000  0.37788000  0.65167000  1.0 0.9120110123
Cd  Cd12  1  0.37788000  0.87010000  0.84833000  1.0 0.9120110123
Cd  Cd13  1  0.12990000  0.62212000  0.34833000  1.0 0.9120110123
Cd  Cd14  1  0.62212000  0.12990000  0.15167000  1.0 0.9120110123
H  H1  1  0.65450000  0.32890000  0.55250000  1.0 0.1517128247
H  H2  1  0.32890000  0.65450000  0.94750000  1.0 0.1517128247
H  H3  1  0.34550000  0.67110000  0.44750000  1.0 0.1517128247
H  H4  1  0.67110000  0.34550000  0.05250000  1.0 0.1517128247
H  H5  1  0.55420000  0.22200000  0.53410000  1.0 0.1517128247
H  H6  1  0.22200000  0.55420000  0.96590000  1.0 0.1517128247
H  H7  1  0.44580000  0.77800000  0.46590000  1.0 0.1517128247
H  H8  1  0.77800000  0.44580000  0.03410000  1.0 0.1517128247
H  H9  1  0.58140000  0.23940000  0.59360000  1.0 0.1517128247
H  H10  1  0.23940000  0.58140000  0.90640000  1.0 0.1517128247
H  H11  1  0.41860000  0.76060000  0.40640000  1.0 0.1517128247
H  H12  1  0.76060000  0.41860000  0.09360000  1.0 0.1517128247
H  H13  1  0.33160000  0.78860000  0.57020000  1.0 0.1133946952
H  H14  1  0.78860000  0.33160000  0.92980000  1.0 0.1133946952
H  H15  1  0.66840000  0.21140000  0.42980000  1.0 0.1133946952
H  H16  1  0.21140000  0.66840000  0.07020000  1.0 0.1133946952
H  H17  1  0.16360000  0.64620000  0.58580000  1.0 0.1201163082
H  H18  1  0.64620000  0.16360000  0.91420000  1.0 0.1201163082
H  H19  1  0.83640000  0.35380000  0.41420000  1.0 0.1201163082
H  H20  1  0.35380000  0.83640000  0.08580000  1.0 0.1201163082
H  H21  1  0.24770000  0.45750000  0.60140000  1.0 0.1201163082
H  H22  1  0.45750000  0.24770000  0.89860000  1.0 0.1201163082
H  H23  1  0.75230000  0.54250000  0.39860000  1.0 0.1201163082
H  H24  1  0.54250000  0.75230000  0.10140000  1.0 0.1201163082
H  H25  1  0.41940000  0.60020000  0.59070000  1.0 0.1201163082
H  H26  1  0.60020000  0.41940000  0.90930000  1.0 0.1201163082
H  H27  1  0.58060000  0.39980000  0.40930000  1.0 0.1201163082
H  H28  1  0.39980000  0.58060000  0.09070000  1.0 0.1201163082
H  H29  1  0.68340000  0.13080000  0.36220000  1.0 0.1201163082
H  H30  1  0.13080000  0.68340000  0.13780000  1.0 0.1201163082
H  H31  1  0.31660000  0.86920000  0.63780000  1.0 0.1201163082
H  H32  1  0.86920000  0.31660000  0.86220000  1.0 0.1201163082
H  H33  1  0.72150000  0.15510000  0.27730000  1.0 0.1038679703
H  H34  1  0.15510000  0.72150000  0.22270000  1.0 0.1038679703
H  H35  1  0.27850000  0.84490000  0.72270000  1.0 0.1038679703
H  H36  1  0.84490000  0.27850000  0.77730000  1.0 0.1038679703
H  H37  1  0.74920000  0.92160000  0.30890000  1.0 0.1201163082
H  H38  1  0.92160000  0.74920000  0.19110000  1.0 0.1201163082
H  H39  1  0.25080000  0.07840000  0.69110000  1.0 0.1201163082
H  H40  1  0.07840000  0.25080000  0.80890000  1.0 0.1201163082
H  H41  1  0.71110000  0.89750000  0.39350000  1.0 0.1201163082
H  H42  1  0.89750000  0.71110000  0.10650000  1.0 0.1201163082
H  H43  1  0.28890000  0.10250000  0.60650000  1.0 0.1201163082
H  H44  1  0.10250000  0.28890000  0.89350000  1.0 0.1201163082
H  H45  1  0.81610000  0.97570000  0.74640000  1.0 0.1201163082
H  H46  1  0.97570000  0.81610000  0.75360000  1.0 0.1201163082
H  H47  1  0.18390000  0.02430000  0.25360000  1.0 0.1201163082
H  H48  1  0.02430000  0.18390000  0.24640000  1.0 0.1201163082
H  H49  1  0.91710000  0.86090000  0.67360000  1.0 0.1201163082
H  H50  1  0.86090000  0.91710000  0.82640000  1.0 0.1201163082
H  H51  1  0.08290000  0.13910000  0.32640000  1.0 0.1201163082
H  H52  1  0.13910000  0.08290000  0.17360000  1.0 0.1201163082
H  H53  1  0.87690000  0.02970000  0.47070000  1.0 0.1201163082
H  H54  1  0.02970000  0.87690000  0.02930000  1.0 0.1201163082
H  H55  1  0.12310000  0.97030000  0.52930000  1.0 0.1201163082
H  H56  1  0.97030000  0.12310000  0.97070000  1.0 0.1201163082
H  H57  1  0.90590000  0.94830000  0.42030000  1.0 0.1133946952
H  H58  1  0.94830000  0.90590000  0.07970000  1.0 0.1133946952
H  H59  1  0.09410000  0.05170000  0.57970000  1.0 0.1133946952
H  H60  1  0.05170000  0.09410000  0.92030000  1.0 0.1133946952
H  H61  1  0.91080000  0.52840000  0.84720000  1.0 0.0790698276
H  H62  1  0.52840000  0.91080000  0.65280000  1.0 0.0790698276
H  H63  1  0.08920000  0.47160000  0.15280000  1.0 0.0790698276
H  H64  1  0.47160000  0.08920000  0.34720000  1.0 0.0790698276
H  H65  1  0.98110000  0.64830000  0.82910000  1.0 0.0790698276
H  H66  1  0.64830000  0.98110000  0.67090000  1.0 0.0790698276
H  H67  1  0.01890000  0.35170000  0.17090000  1.0 0.0790698276
H  H68  1  0.35170000  0.01890000  0.32910000  1.0 0.0790698276
H  H69  1  0.87010000  0.57370000  0.79990000  1.0 0.0860474238
H  H70  1  0.57370000  0.87010000  0.70010000  1.0 0.0860474238
H  H71  1  0.12990000  0.42630000  0.20010000  1.0 0.0860474238
H  H72  1  0.42630000  0.12990000  0.29990000  1.0 0.0860474238
H  H73  1  0.12340000  0.62620000  0.76720000  1.0 0.0790698276
H  H74  1  0.62620000  0.12340000  0.73280000  1.0 0.0790698276
H  H75  1  0.87660000  0.37380000  0.23280000  1.0 0.0790698276
H  H76  1  0.37380000  0.87660000  0.26720000  1.0 0.0790698276
H  H77  1  0.11990000  0.66550000  0.81660000  1.0 0.0719935669
H  H78  1  0.66550000  0.11990000  0.68340000  1.0 0.0719935669
H  H79  1  0.88010000  0.33450000  0.18340000  1.0 0.0719935669
H  H80  1  0.33450000  0.88010000  0.31660000  1.0 0.0719935669
H  H81  1  0.09180000  0.55360000  0.81970000  1.0 0.0790698276
H  H82  1  0.55360000  0.09180000  0.68030000  1.0 0.0790698276
H  H83  1  0.90820000  0.44640000  0.18030000  1.0 0.0790698276
H  H84  1  0.44640000  0.90820000  0.31970000  1.0 0.0790698276
H  H85  1  0.09680000  0.59420000  0.83510000  1.0 0.0790698276
H  H86  1  0.59420000  0.09680000  0.66490000  1.0 0.0790698276
H  H87  1  0.90320000  0.40580000  0.16490000  1.0 0.0790698276
H  H88  1  0.40580000  0.90320000  0.33510000  1.0 0.0790698276
H  H89  1  0.09890000  0.69230000  0.81400000  1.0 0.0790698276
H  H90  1  0.69230000  0.09890000  0.68600000  1.0 0.0790698276
H  H91  1  0.90110000  0.30770000  0.18600000  1.0 0.0790698276
H  H92  1  0.30770000  0.90110000  0.31400000  1.0 0.0790698276
H  H93  1  0.01990000  0.60750000  0.85430000  1.0 0.0719935669
H  H94  1  0.60750000  0.01990000  0.64570000  1.0 0.0719935669
H  H95  1  0.98010000  0.39250000  0.14570000  1.0 0.0719935669
H  H96  1  0.39250000  0.98010000  0.35430000  1.0 0.0719935669
H  H97  1  0.88100000  0.56920000  0.81700000  1.0 0.0790698276
H  H98  1  0.56920000  0.88100000  0.68300000  1.0 0.0790698276
H  H99  1  0.11900000  0.43080000  0.18300000  1.0 0.0790698276
H  H100  1  0.43080000  0.11900000  0.31700000  1.0 0.0790698276
H  H101  1  0.86520000  0.58300000  0.75590000  1.0 0.0790698276
H  H102  1  0.58300000  0.86520000  0.74410000  1.0 0.0790698276
H  H103  1  0.13480000  0.41700000  0.24410000  1.0 0.0790698276
H  H104  1  0.41700000  0.13480000  0.25590000  1.0 0.0790698276
H  H105  1  0.82080000  0.47180000  0.78490000  1.0 0.0790698276
H  H106  1  0.47180000  0.82080000  0.71510000  1.0 0.0790698276
H  H107  1  0.17920000  0.52820000  0.21510000  1.0 0.0790698276
H  H108  1  0.52820000  0.17920000  0.28490000  1.0 0.0790698276
C  C1  1  0.67230000  0.21350000  0.56680000  1.0 0.3258201031
C  C2  1  0.21350000  0.67230000  0.93320000  1.0 0.3258201031
C  C3  1  0.32770000  0.78650000  0.43320000  1.0 0.3258201031
C  C4  1  0.78650000  0.32770000  0.06680000  1.0 0.3258201031
C  C5  1  0.61010000  0.25450000  0.56130000  1.0 -0.520993218
C  C6  1  0.25450000  0.61010000  0.93870000  1.0 -0.520993218
C  C7  1  0.38990000  0.74550000  0.43870000  1.0 -0.520993218
C  C8  1  0.74550000  0.38990000  0.06130000  1.0 -0.520993218
C  C9  1  0.50390000  0.80130000  0.57160000  1.0 0.5431768297
C  C10  1  0.80130000  0.50390000  0.92840000  1.0 0.5431768297
C  C11  1  0.49610000  0.19870000  0.42840000  1.0 0.5431768297
C  C12  1  0.19870000  0.49610000  0.07160000  1.0 0.5431768297
C  C13  1  0.07890000  0.44230000  0.60630000  1.0 0.5884644984
C  C14  1  0.44230000  0.07890000  0.89370000  1.0 0.5884644984
C  C15  1  0.92110000  0.55770000  0.39370000  1.0 0.5884644984
C  C16  1  0.55770000  0.92110000  0.10630000  1.0 0.5884644984
C  C17  1  0.39320000  0.70940000  0.57990000  1.0 -0.0295419192
C  C18  1  0.70940000  0.39320000  0.92010000  1.0 -0.0295419192
C  C19  1  0.60680000  0.29060000  0.42010000  1.0 -0.0295419192
C  C20  1  0.29060000  0.60680000  0.07990000  1.0 -0.0295419192
C  C21  1  0.31560000  0.72220000  0.57760000  1.0 -0.1296211495
C  C22  1  0.72220000  0.31560000  0.92240000  1.0 -0.1296211495
C  C23  1  0.68440000  0.27780000  0.42240000  1.0 -0.1217494733
C  C24  1  0.27780000  0.68440000  0.07760000  1.0 -0.1217494733
C  C25  1  0.21460000  0.63660000  0.58610000  1.0 -0.1008469166
C  C26  1  0.63660000  0.21460000  0.91390000  1.0 -0.1008469166
C  C27  1  0.78540000  0.36340000  0.41390000  1.0 -0.1008469166
C  C28  1  0.36340000  0.78540000  0.08610000  1.0 -0.1008469166
C  C29  1  0.18830000  0.53730000  0.59510000  1.0 -0.0295419192
C  C30  1  0.53730000  0.18830000  0.90490000  1.0 -0.0295419192
C  C31  1  0.81170000  0.46270000  0.40490000  1.0 -0.0295419192
C  C32  1  0.46270000  0.81170000  0.09510000  1.0 -0.0295419192
C  C33  1  0.26510000  0.52450000  0.59600000  1.0 -0.1093530563
C  C34  1  0.52450000  0.26510000  0.90400000  1.0 -0.1093530563
C  C35  1  0.73490000  0.47550000  0.40400000  1.0 -0.1093530563
C  C36  1  0.47550000  0.73490000  0.09600000  1.0 -0.1093530563
C  C37  1  0.36800000  0.60980000  0.58910000  1.0 -0.1093530563
C  C38  1  0.60980000  0.36800000  0.91090000  1.0 -0.1093530563
C  C39  1  0.63200000  0.39020000  0.41090000  1.0 -0.1093530563
C  C40  1  0.39020000  0.63200000  0.08910000  1.0 -0.1093530563
C  C41  1  0.65970000  0.99130000  0.44020000  1.0 0.5708571522
C  C42  1  0.99130000  0.65970000  0.05980000  1.0 0.5708571522
C  C43  1  0.34030000  0.00870000  0.55980000  1.0 0.5708571522
C  C44  1  0.00870000  0.34030000  0.94020000  1.0 0.5708571522
C  C45  1  0.75960000  0.05440000  0.22820000  1.0 0.5558743177
C  C46  1  0.05440000  0.75960000  0.27180000  1.0 0.5558743177
C  C47  1  0.24040000  0.94560000  0.77180000  1.0 0.5558743177
C  C48  1  0.94560000  0.24040000  0.72820000  1.0 0.5558743177
C  C49  1  0.68740000  0.00780000  0.38550000  1.0 -0.0213295958
C  C50  1  0.00780000  0.68740000  0.11450000  1.0 -0.0213295958
C  C51  1  0.31260000  0.99220000  0.61450000  1.0 -0.0213295958
C  C52  1  0.99220000  0.31260000  0.88550000  1.0 -0.0213295958
C  C53  1  0.69470000  0.08730000  0.35130000  1.0 -0.148942534
C  C54  1  0.08730000  0.69470000  0.14870000  1.0 -0.148942534
C  C55  1  0.30530000  0.91270000  0.64870000  1.0 -0.148942534
C  C56  1  0.91270000  0.30530000  0.85130000  1.0 -0.148942534
C  C57  1  0.71870000  0.10270000  0.30050000  1.0 -0.200211689
C  C58  1  0.10270000  0.71870000  0.19950000  1.0 -0.200211689
C  C59  1  0.28130000  0.89730000  0.69950000  1.0 -0.200211689
C  C60  1  0.89730000  0.28130000  0.80050000  1.0 -0.200211689
C  C61  1  0.73860000  0.04040000  0.28440000  1.0 -0.0213295958
C  C62  1  0.04040000  0.73860000  0.21560000  1.0 -0.0213295958
C  C63  1  0.26140000  0.95960000  0.71560000  1.0 -0.0213295958
C  C64  1  0.95960000  0.26140000  0.78440000  1.0 -0.0213295958
C  C65  1  0.73520000  0.96340000  0.31940000  1.0 -0.1008469166
C  C66  1  0.96340000  0.73520000  0.18060000  1.0 -0.1008469166
C  C67  1  0.26480000  0.03660000  0.68060000  1.0 -0.1008469166
C  C68  1  0.03660000  0.26480000  0.81940000  1.0 -0.1008469166
C  C69  1  0.71120000  0.94820000  0.36990000  1.0 -0.1093530563
C  C70  1  0.94820000  0.71120000  0.13010000  1.0 -0.1093530563
C  C71  1  0.28880000  0.05180000  0.63010000  1.0 -0.1093530563
C  C72  1  0.05180000  0.28880000  0.86990000  1.0 -0.1093530563
C  C73  1  0.81500000  0.94440000  0.65050000  1.0 0.5558743177
C  C74  1  0.94440000  0.81500000  0.84950000  1.0 0.5558743177
C  C75  1  0.18500000  0.05560000  0.34950000  1.0 0.5558743177
C  C76  1  0.05560000  0.18500000  0.15050000  1.0 0.5558743177
C  C77  1  0.85780000  0.91960000  0.70210000  1.0 -0.0213295958
C  C78  1  0.91960000  0.85780000  0.79790000  1.0 -0.0213295958
C  C79  1  0.14220000  0.08040000  0.29790000  1.0 -0.0213295958
C  C80  1  0.08040000  0.14220000  0.20210000  1.0 -0.0213295958
C  C81  1  0.84450000  0.93970000  0.74790000  1.0 -0.1093530563
C  C82  1  0.93970000  0.84450000  0.75210000  1.0 -0.1093530563
C  C83  1  0.15550000  0.06030000  0.25210000  1.0 -0.1093530563
C  C84  1  0.06030000  0.15550000  0.24790000  1.0 -0.1093530563
C  C85  1  0.90650000  0.87310000  0.70430000  1.0 -0.1008469166
C  C86  1  0.87310000  0.90650000  0.79570000  1.0 -0.1008469166
C  C87  1  0.09350000  0.12690000  0.29570000  1.0 -0.1008469166
C  C88  1  0.12690000  0.09350000  0.20430000  1.0 -0.1008469166
C  C89  1  0.96380000  0.10140000  0.56350000  1.0 0.5708571522
C  C90  1  0.10140000  0.96380000  0.93650000  1.0 0.5708571522
C  C91  1  0.03620000  0.89860000  0.43650000  1.0 0.5708571522
C  C92  1  0.89860000  0.03620000  0.06350000  1.0 0.5708571522
C  C93  1  0.98300000  0.04880000  0.53040000  1.0 -0.0213295958
C  C94  1  0.04880000  0.98300000  0.96960000  1.0 -0.0213295958
C  C95  1  0.01700000  0.95120000  0.46960000  1.0 -0.0213295958
C  C96  1  0.95120000  0.01700000  0.03040000  1.0 -0.0213295958
C  C97  1  0.92680000  0.01780000  0.48270000  1.0 -0.1093530563
C  C98  1  0.01780000  0.92680000  0.01730000  1.0 -0.1008469166
C  C99  1  0.07320000  0.98220000  0.51730000  1.0 -0.1093530563
C  C100  1  0.98220000  0.07320000  0.98270000  1.0 -0.1093530563
C  C101  1  0.94430000  0.96910000  0.45250000  1.0 -0.1093530563
C  C102  1  0.96910000  0.94430000  0.04750000  1.0 -0.1093530563
C  C103  1  0.05570000  0.03090000  0.54750000  1.0 -0.1093530563
C  C104  1  0.03090000  0.05570000  0.95250000  1.0 -0.1093530563
C  C105  1  0.92510000  0.50690000  0.74200000  1.0 0.2238774596
C  C106  1  0.50690000  0.92510000  0.75800000  1.0 0.2251051216
C  C107  1  0.07490000  0.49310000  0.25800000  1.0 0.2238774596
C  C108  1  0.49310000  0.07490000  0.24200000  1.0 0.2251051216
C  C109  1  0.93060000  0.57940000  0.81760000  1.0 -0.1296211495
C  C110  1  0.57940000  0.93060000  0.68240000  1.0 -0.1296211495
C  C111  1  0.06940000  0.42060000  0.18240000  1.0 -0.1296211495
C  C112  1  0.42060000  0.06940000  0.31760000  1.0 -0.1296211495
C  C113  1  0.08800000  0.60600000  0.79770000  1.0 -0.200211689
C  C114  1  0.60600000  0.08800000  0.70230000  1.0 -0.200211689
C  C115  1  0.91200000  0.39400000  0.20230000  1.0 -0.200211689
C  C116  1  0.39400000  0.91200000  0.29770000  1.0 -0.200211689
C  C117  1  0.99000000  0.52600000  0.74500000  1.0 0.241294518
C  C118  1  0.52600000  0.99000000  0.75500000  1.0 0.241294518
C  C119  1  0.01000000  0.47400000  0.25500000  1.0 0.241294518
C  C120  1  0.47400000  0.01000000  0.24500000  1.0 0.241294518
C  C121  1  0.05500000  0.61900000  0.82500000  1.0 -0.1217494733
C  C122  1  0.61900000  0.05500000  0.67500000  1.0 -0.1217494733
C  C123  1  0.94500000  0.38100000  0.17500000  1.0 -0.1217494733
C  C124  1  0.38100000  0.94500000  0.32500000  1.0 -0.1217494733
C  C125  1  0.87700000  0.54500000  0.78500000  1.0 -0.1886383073
C  C126  1  0.54500000  0.87700000  0.71500000  1.0 -0.1886383073
C  C127  1  0.12300000  0.45500000  0.21500000  1.0 -0.1886383073
C  C128  1  0.45500000  0.12300000  0.28500000  1.0 -0.1886383073
N  N1  1  0.64114000  0.12766000  0.54650000  1.0 -0.287076533
N  N2  1  0.12766000  0.64114000  0.95350000  1.0 -0.287076533
N  N3  1  0.35886000  0.87234000  0.45350000  1.0 -0.287076533
N  N4  1  0.87234000  0.35886000  0.04650000  1.0 -0.287076533
N  N5  1  0.71695000  0.11545000  0.56100000  1.0 -0.0782686436
N  N6  1  0.11545000  0.71695000  0.93900000  1.0 -0.0782686436
N  N7  1  0.28305000  0.88455000  0.43900000  1.0 -0.0782686436
N  N8  1  0.88455000  0.28305000  0.06100000  1.0 -0.0782686436
N  N9  1  0.79229000  0.19151000  0.58870000  1.0 -0.0782686436
N  N10  1  0.19151000  0.79229000  0.91130000  1.0 -0.0782686436
N  N11  1  0.20771000  0.80849000  0.41130000  1.0 -0.0782686436
N  N12  1  0.80849000  0.20771000  0.08870000  1.0 -0.0782686436
N  N13  1  0.76607000  0.25413000  0.59330000  1.0 -0.3131472246
N  N14  1  0.25413000  0.76607000  0.90670000  1.0 -0.3131472246
N  N15  1  0.23393000  0.74587000  0.40670000  1.0 -0.3131472246
N  N16  1  0.74587000  0.23393000  0.09330000  1.0 -0.3131472246
N  N17  1  0.97680000  0.56200000  0.78190000  1.0 -0.0530110934
N  N18  1  0.56200000  0.97680000  0.71810000  1.0 -0.0530110934
N  N19  1  0.02320000  0.43800000  0.21810000  1.0 -0.0530110934
N  N20  1  0.43800000  0.02320000  0.28190000  1.0 -0.0530110934
O  O1  1  0.52676000  0.89184000  0.55943000  1.0 -0.591205915
O  O2  1  0.89184000  0.52676000  0.94057000  1.0 -0.591205915
O  O3  1  0.47324000  0.10816000  0.44057000  1.0 -0.591205915
O  O4  1  0.10816000  0.47324000  0.05943000  1.0 -0.591205915
O  O5  1  0.57349000  0.78791000  0.57890000  1.0 -0.5017081426
O  O6  1  0.78791000  0.57349000  0.92110000  1.0 -0.5017081426
O  O7  1  0.42651000  0.21209000  0.42110000  1.0 -0.5017081426
O  O8  1  0.21209000  0.42651000  0.07890000  1.0 -0.5017081426
O  O9  1  0.05640000  0.35520000  0.60450000  1.0 -0.5279071929
O  O10  1  0.35520000  0.05640000  0.89550000  1.0 -0.5279071929
O  O11  1  0.94360000  0.64480000  0.39550000  1.0 -0.5279071929
O  O12  1  0.64480000  0.94360000  0.10450000  1.0 -0.5279071929
O  O13  1  0.02030000  0.46150000  0.61790000  1.0 -0.591205915
O  O14  1  0.46150000  0.02030000  0.88210000  1.0 -0.591205915
O  O15  1  0.97970000  0.53850000  0.38210000  1.0 -0.591205915
O  O16  1  0.53850000  0.97970000  0.11790000  1.0 -0.591205915
O  O17  1  0.68701000  0.94439000  0.47459000  1.0 -0.539576471
O  O18  1  0.94439000  0.68701000  0.02541000  1.0 -0.539576471
O  O19  1  0.31299000  0.05561000  0.52541000  1.0 -0.539576471
O  O20  1  0.05561000  0.31299000  0.97459000  1.0 -0.539576471
O  O21  1  0.61302000  0.02658000  0.44729000  1.0 -0.5742950441
O  O22  1  0.02658000  0.61302000  0.05271000  1.0 -0.5750041009
O  O23  1  0.38698000  0.97342000  0.55271000  1.0 -0.5750041009
O  O24  1  0.97342000  0.38698000  0.94729000  1.0 -0.5742950441
O  O25  1  0.75130000  0.11710000  0.19650000  1.0 -0.5979247541
O  O26  1  0.11710000  0.75130000  0.30350000  1.0 -0.5979247541
O  O27  1  0.24870000  0.88290000  0.80350000  1.0 -0.5979247541
O  O28  1  0.88290000  0.24870000  0.69650000  1.0 -0.5979247541
O  O29  1  0.78980000  0.00600000  0.21620000  1.0 -0.5017081426
O  O30  1  0.00600000  0.78980000  0.28380000  1.0 -0.5017081426
O  O31  1  0.21020000  0.99400000  0.78380000  1.0 -0.5017081426
O  O32  1  0.99400000  0.21020000  0.71620000  1.0 -0.5017081426
O  O33  1  0.79375000  0.00925000  0.64764000  1.0 -0.5979247541
O  O34  1  0.00925000  0.79375000  0.85236000  1.0 -0.5979247541
O  O35  1  0.20625000  0.99075000  0.35236000  1.0 -0.5979247541
O  O36  1  0.99075000  0.20625000  0.14764000  1.0 -0.5979247541
O  O37  1  0.79798000  0.89842000  0.61200000  1.0 -0.4928573744
O  O38  1  0.89842000  0.79798000  0.88800000  1.0 -0.4928573744
O  O39  1  0.20202000  0.10158000  0.38800000  1.0 -0.4928573744
O  O40  1  0.10158000  0.20202000  0.11200000  1.0 -0.4928573744
O  O41  1  0.88981000  0.10999000  0.54791000  1.0 -0.591205915
O  O42  1  0.10999000  0.88981000  0.95209000  1.0 -0.591205915
O  O43  1  0.11019000  0.89001000  0.45209000  1.0 -0.591205915
O  O44  1  0.89001000  0.11019000  0.04791000  1.0 -0.591205915
O  O45  1  0.02086000  0.13634000  0.60500000  1.0 -0.520993218
O  O46  1  0.13634000  0.02086000  0.89500000  1.0 -0.520993218
O  O47  1  0.97914000  0.86366000  0.39500000  1.0 -0.520993218
O  O48  1  0.86366000  0.97914000  0.10500000  1.0 -0.520993218
O  O49  1  0.96840000  0.49160000  0.71520000  1.0 -0.0213295958
O  O50  1  0.49160000  0.96840000  0.78480000  1.0 -0.0213295958
O  O51  1  0.03160000  0.50840000  0.28480000  1.0 -0.0213295958
O  O52  1  0.50840000  0.03160000  0.21520000  1.0 -0.0213295958
O  O53  1  0.92200000  0.49800000  0.70800000  1.0 -0.0295419192
O  O54  1  0.49800000  0.92200000  0.79200000  1.0 -0.0295419192
O  O55  1  0.07800000  0.50200000  0.29200000  1.0 -0.0295419192
O  O56  1  0.50200000  0.07800000  0.20800000  1.0 -0.0295419192
