# DDEC6 charges by PACMAN v1.1 (https://github.com/mtap-research/PACMAN-charge/)
data_UYUNUA_ASR_pacman
_symmetry_space_group_name_H-M   'P 1'
_cell_length_a   15.50340000
_cell_length_b   15.63990000
_cell_length_c   15.71050000
_cell_angle_alpha   89.98300000
_cell_angle_beta   93.28300000
_cell_angle_gamma   104.75300000
_symmetry_Int_Tables_number   1
_chemical_formula_structural   Zn3H66C60S4(NO4)4
_chemical_formula_sum   'Zn6 H132 C120 S8 N8 O32'
_cell_volume   3677.31781639
_cell_formula_units_Z   2
loop_
 _symmetry_equiv_pos_site_id
 _symmetry_equiv_pos_as_xyz
  1  'x, y, z'
loop_
 _atom_site_type_symbol
 _atom_site_label
 _atom_site_symmetry_multiplicity
 _atom_site_fract_x
 _atom_site_fract_y
 _atom_site_fract_z
 _atom_site_occupancy
 _atom_site_charge
Zn  Zn1  1  0.21069000  0.36930000  0.61918000  1.0 0.8493045437
Zn  Zn2  1  0.34328000  0.92100000  0.72750000  1.0 0.5666271614
Zn  Zn3  1  0.32730000  0.92630000  0.77760000  1.0 0.5423486101
Zn  Zn4  1  0.78931000  0.63070000  0.38082000  1.0 0.8493045437
Zn  Zn5  1  0.65672000  0.07900000  0.27250000  1.0 0.5666271614
Zn  Zn6  1  0.67270000  0.07370000  0.22240000  1.0 0.5423486101
H  H1  1  0.27020000  0.22840000  0.47610000  1.0 0.1290662426
H  H2  1  0.51640000  0.46440000  0.85960000  1.0 0.1215819942
H  H3  1  0.33040000  0.00070000  0.54310000  1.0 0.1290662426
H  H4  1  0.66420000  0.12920000  0.70940000  1.0 0.1215819942
H  H5  1  0.57900000  0.45630000  0.61580000  1.0 0.1215819942
H  H6  1  0.23030000  0.02740000  0.89240000  1.0 0.1215819942
H  H7  1  0.59800000  0.13870000  0.95150000  1.0 0.1215819942
H  H8  1  0.17370000  0.25580000  0.82560000  1.0 0.1290662426
H  H9  1  0.59560000  0.30030000  0.48000000  1.0 0.0903824548
H  H10  1  0.60030000  0.19940000  0.49140000  1.0 0.0903824548
H  H11  1  0.70810000  0.24390000  0.60680000  1.0 0.1290662426
H  H12  1  0.70420000  0.34450000  0.59380000  1.0 0.1122377756
H  H13  1  0.82890000  0.31230000  0.52950000  1.0 0.1215819942
H  H14  1  0.76080000  0.24270000  0.46690000  1.0 0.1215819942
H  H15  1  0.45310000  0.24370000  0.05570000  1.0 0.0903824548
H  H16  1  0.42960000  0.33630000  0.03500000  1.0 0.1008788215
H  H17  1  0.90320000  0.20920000  0.43130000  1.0 0.1215819942
H  H18  1  0.79330000  0.48240000  0.51100000  1.0 0.1290662426
H  H19  1  0.66860000  0.22250000  0.13250000  1.0 0.1215819942
H  H20  1  0.60090000  0.30530000  0.00700000  1.0 0.1215819942
H  H21  1  0.57680000  0.39830000  0.99490000  1.0 0.1290662426
H  H22  1  0.66050000  0.40010000  0.12240000  1.0 0.1215819942
H  H23  1  0.56290000  0.40910000  0.14150000  1.0 0.1122377756
H  H24  1  0.14690000  0.32750000  0.35690000  1.0 0.1215819942
H  H25  1  0.95080000  0.21790000  0.18130000  1.0 0.1290662426
H  H26  1  0.73850000  0.45080000  0.26610000  1.0 0.1215819942
H  H27  1  0.73180000  0.30670000  0.32330000  1.0 0.1215819942
H  H28  1  0.50140000  0.16930000  0.31870000  1.0 0.1387282418
H  H29  1  0.24370000  0.94510000  0.42870000  1.0 0.1290662426
H  H30  1  0.13750000  0.92770000  0.41470000  1.0 0.1387282418
H  H31  1  0.18320000  0.93370000  0.50920000  1.0 0.1290662426
H  H32  1  0.49290000  0.31000000  0.25910000  1.0 0.1290662426
H  H33  1  0.78930000  0.17980000  0.74460000  1.0 0.1215819942
H  H34  1  0.86640000  0.22260000  0.81560000  1.0 0.1290662426
H  H35  1  0.79140000  0.27290000  0.78820000  1.0 0.1290662426
H  H36  1  0.72990000  0.44380000  0.70980000  1.0 0.1290662426
H  H37  1  0.78310000  0.54570000  0.72080000  1.0 0.1215819942
H  H38  1  0.70370000  0.51640000  0.64870000  1.0 0.1215819942
H  H39  1  0.10000000  0.27990000  0.21460000  1.0 0.1290662426
H  H40  1  0.73280000  0.03880000  0.90910000  1.0 0.1387282418
H  H41  1  0.83530000  0.09320000  0.90990000  1.0 0.1290662426
H  H42  1  0.78280000  0.05440000  0.82200000  1.0 0.1290662426
H  H43  1  0.76190000  0.27290000  0.94560000  1.0 0.1215819942
H  H44  1  0.81940000  0.20550000  0.97600000  1.0 0.1290662426
H  H45  1  0.71370000  0.18010000  0.98560000  1.0 0.1215819942
H  H46  1  0.09840000  0.95900000  0.85560000  1.0 0.1215819942
H  H47  1  0.99870000  0.96990000  0.85770000  1.0 0.1290662426
H  H48  1  0.06950000  0.00560000  0.93600000  1.0 0.1290662426
H  H49  1  0.60900000  0.62910000  0.73100000  1.0 0.1215819942
H  H50  1  0.71400000  0.64820000  0.71930000  1.0 0.1290662426
H  H51  1  0.67820000  0.65180000  0.81240000  1.0 0.1215819942
H  H52  1  0.63930000  0.54590000  0.88570000  1.0 0.1215819942
H  H53  1  0.74260000  0.56450000  0.86650000  1.0 0.1290662426
H  H54  1  0.68430000  0.46510000  0.87710000  1.0 0.1290662426
H  H55  1  0.03190000  0.15680000  0.88380000  1.0 0.1215819942
H  H56  1  0.96590000  0.09720000  0.81240000  1.0 0.1290662426
H  H57  1  0.03930000  0.18330000  0.78560000  1.0 0.1290662426
H  H58  1  0.12640000  0.06790000  0.54930000  1.0 0.1387282418
H  H59  1  0.06930000  0.03780000  0.46140000  1.0 0.1290662426
H  H60  1  0.12620000  0.13810000  0.47520000  1.0 0.1290662426
H  H61  1  0.13530000  0.03470000  0.72730000  1.0 0.1290662426
H  H62  1  0.09850000  0.11950000  0.70570000  1.0 0.1387282418
H  H63  1  0.03000000  0.02560000  0.71920000  1.0 0.1290662426
H  H64  1  0.22000000  0.14790000  0.36000000  1.0 0.1215819942
H  H65  1  0.13230000  0.06910000  0.34010000  1.0 0.1215819942
H  H66  1  0.22900000  0.05350000  0.32800000  1.0 0.1290662426
H  H67  1  0.72980000  0.77160000  0.52390000  1.0 0.1290662426
H  H68  1  0.48360000  0.53560000  0.14040000  1.0 0.1215819942
H  H69  1  0.66960000  0.99930000  0.45690000  1.0 0.1290662426
H  H70  1  0.33580000  0.87080000  0.29060000  1.0 0.1215819942
H  H71  1  0.42100000  0.54370000  0.38420000  1.0 0.1215819942
H  H72  1  0.76970000  0.97260000  0.10760000  1.0 0.1215819942
H  H73  1  0.40200000  0.86130000  0.04850000  1.0 0.1215819942
H  H74  1  0.82630000  0.74420000  0.17440000  1.0 0.1290662426
H  H75  1  0.40440000  0.69970000  0.52000000  1.0 0.0903824548
H  H76  1  0.39970000  0.80060000  0.50860000  1.0 0.0903824548
H  H77  1  0.29190000  0.75610000  0.39320000  1.0 0.1290662426
H  H78  1  0.29580000  0.65550000  0.40620000  1.0 0.1122377756
H  H79  1  0.17110000  0.68770000  0.47050000  1.0 0.1215819942
H  H80  1  0.23920000  0.75730000  0.53310000  1.0 0.1215819942
H  H81  1  0.54690000  0.75630000  0.94430000  1.0 0.0903824548
H  H82  1  0.57040000  0.66370000  0.96500000  1.0 0.1008788215
H  H83  1  0.09680000  0.79080000  0.56870000  1.0 0.1215819942
H  H84  1  0.20670000  0.51760000  0.48900000  1.0 0.1290662426
H  H85  1  0.33140000  0.77750000  0.86750000  1.0 0.1215819942
H  H86  1  0.39910000  0.69470000  0.99300000  1.0 0.1215819942
H  H87  1  0.42320000  0.60170000  0.00510000  1.0 0.1290662426
H  H88  1  0.33950000  0.59990000  0.87760000  1.0 0.1215819942
H  H89  1  0.43710000  0.59090000  0.85850000  1.0 0.1122377756
H  H90  1  0.85310000  0.67250000  0.64310000  1.0 0.1215819942
H  H91  1  0.04920000  0.78210000  0.81870000  1.0 0.1290662426
H  H92  1  0.26150000  0.54920000  0.73390000  1.0 0.1215819942
H  H93  1  0.26820000  0.69330000  0.67670000  1.0 0.1215819942
H  H94  1  0.49860000  0.83070000  0.68130000  1.0 0.1387282418
H  H95  1  0.75630000  0.05490000  0.57130000  1.0 0.1290662426
H  H96  1  0.86250000  0.07230000  0.58530000  1.0 0.1387282418
H  H97  1  0.81680000  0.06630000  0.49080000  1.0 0.1290662426
H  H98  1  0.50710000  0.69000000  0.74090000  1.0 0.1290662426
H  H99  1  0.21070000  0.82020000  0.25540000  1.0 0.1215819942
H  H100  1  0.13360000  0.77740000  0.18440000  1.0 0.1290662426
H  H101  1  0.20860000  0.72710000  0.21180000  1.0 0.1290662426
H  H102  1  0.27010000  0.55620000  0.29020000  1.0 0.1290662426
H  H103  1  0.21690000  0.45430000  0.27920000  1.0 0.1215819942
H  H104  1  0.29630000  0.48360000  0.35130000  1.0 0.1215819942
H  H105  1  0.90000000  0.72010000  0.78540000  1.0 0.1290662426
H  H106  1  0.26720000  0.96120000  0.09090000  1.0 0.1387282418
H  H107  1  0.16470000  0.90680000  0.09010000  1.0 0.1290662426
H  H108  1  0.21720000  0.94560000  0.17800000  1.0 0.1290662426
H  H109  1  0.23810000  0.72710000  0.05440000  1.0 0.1215819942
H  H110  1  0.18060000  0.79450000  0.02400000  1.0 0.1290662426
H  H111  1  0.28630000  0.81990000  0.01440000  1.0 0.1215819942
H  H112  1  0.90160000  0.04100000  0.14440000  1.0 0.1215819942
H  H113  1  0.00130000  0.03010000  0.14230000  1.0 0.1290662426
H  H114  1  0.93050000  0.99440000  0.06400000  1.0 0.1290662426
H  H115  1  0.39100000  0.37090000  0.26900000  1.0 0.1215819942
H  H116  1  0.28600000  0.35180000  0.28070000  1.0 0.1290662426
H  H117  1  0.32180000  0.34820000  0.18760000  1.0 0.1215819942
H  H118  1  0.36070000  0.45410000  0.11430000  1.0 0.1215819942
H  H119  1  0.25740000  0.43550000  0.13350000  1.0 0.1290662426
H  H120  1  0.31570000  0.53490000  0.12290000  1.0 0.1290662426
H  H121  1  0.96810000  0.84320000  0.11620000  1.0 0.1215819942
H  H122  1  0.03410000  0.90280000  0.18760000  1.0 0.1290662426
H  H123  1  0.96070000  0.81670000  0.21440000  1.0 0.1290662426
H  H124  1  0.87360000  0.93210000  0.45070000  1.0 0.1387282418
H  H125  1  0.93070000  0.96220000  0.53860000  1.0 0.1290662426
H  H126  1  0.87380000  0.86190000  0.52480000  1.0 0.1290662426
H  H127  1  0.86470000  0.96530000  0.27270000  1.0 0.1290662426
H  H128  1  0.90150000  0.88050000  0.29430000  1.0 0.1387282418
H  H129  1  0.97000000  0.97440000  0.28080000  1.0 0.1290662426
H  H130  1  0.78000000  0.85210000  0.64000000  1.0 0.1215819942
H  H131  1  0.86770000  0.93090000  0.65990000  1.0 0.1215819942
H  H132  1  0.77100000  0.94650000  0.67200000  1.0 0.1290662426
C  C1  1  0.46250000  0.07270000  0.78100000  1.0 0.2601241536
C  C2  1  0.38300000  0.37320000  0.69460000  1.0 0.3097848462
C  C3  1  0.39670000  0.24440000  0.53110000  1.0 -0.1825037507
C  C4  1  0.44980000  0.39580000  0.63520000  1.0 -0.2090216932
C  C5  1  0.36260000  0.22650000  0.90730000  1.0 0.2080288696
C  C6  1  0.45930000  0.20230000  0.56300000  1.0 0.2080288696
C  C7  1  0.41230000  0.40360000  0.77960000  1.0 -0.2090216932
C  C8  1  0.30180000  0.27070000  0.87430000  1.0 -0.1825037507
C  C9  1  0.31160000  0.19730000  0.49830000  1.0 -0.1263485484
C  C10  1  0.33560000  0.13520000  0.91230000  1.0 -0.1825037507
C  C11  1  0.43070000  0.11030000  0.56990000  1.0 -0.1825037507
C  C12  1  0.49970000  0.44770000  0.80170000  1.0 -0.1460994912
C  C13  1  0.53110000  0.08830000  0.72410000  1.0 -0.2090216932
C  C14  1  0.56380000  0.46850000  0.74190000  1.0 0.0779550465
C  C15  1  0.34730000  0.06320000  0.53790000  1.0 -0.1161624332
C  C16  1  0.62030000  0.12040000  0.75050000  1.0 -0.1263485484
C  C17  1  0.53680000  0.44220000  0.65850000  1.0 -0.1161624332
C  C18  1  0.64710000  0.13980000  0.83510000  1.0 0.0779550465
C  C19  1  0.24780000  0.09000000  0.88820000  1.0 -0.1376827193
C  C20  1  0.49170000  0.09460000  0.86670000  1.0 -0.198420657
C  C21  1  0.58160000  0.12620000  0.89280000  1.0 -0.1161624332
C  C22  1  0.21430000  0.22450000  0.84920000  1.0 -0.1263485484
C  C23  1  0.28790000  0.10560000  0.49840000  1.0 0.0903824548
C  C24  1  0.18610000  0.13380000  0.85840000  1.0 0.0903824548
C  C25  1  0.60680000  0.25640000  0.52180000  1.0 -0.0283498482
C  C26  1  0.81880000  0.15560000  0.28420000  1.0 0.4947101044
C  C27  1  0.91270000  0.20440000  0.30310000  1.0 -0.0283498482
C  C28  1  0.74760000  0.16900000  0.86400000  1.0 0.2601241536
C  C29  1  0.66020000  0.51830000  0.76780000  1.0 0.2487801082
C  C30  1  0.03040000  0.27000000  0.40810000  1.0 -0.0283498482
C  C31  1  0.69860000  0.28740000  0.56390000  1.0 -0.2171006446
C  C32  1  0.19910000  0.05450000  0.45350000  1.0 0.2601241536
C  C33  1  0.76920000  0.29890000  0.49910000  1.0 -0.1077261177
C  C34  1  0.46670000  0.29650000  0.01910000  1.0 -0.0283498482
C  C35  1  0.06140000  0.29320000  0.49860000  1.0 0.5497361588
C  C36  1  0.94340000  0.22570000  0.38730000  1.0 -0.1161624332
C  C37  1  0.77880000  0.45650000  0.45570000  1.0 0.1215819942
C  C38  1  0.62550000  0.22640000  0.17190000  1.0 0.0256028938
C  C39  1  0.56560000  0.34400000  0.02930000  1.0 -0.2171006446
C  C40  1  0.08980000  0.08500000  0.83200000  1.0 0.2449965643
C  C41  1  0.59640000  0.36840000  0.11990000  1.0 -0.1161624332
C  C42  1  0.08730000  0.29380000  0.34390000  1.0 -0.1005985161
C  C43  1  0.97190000  0.22910000  0.23920000  1.0 -0.1005985161
C  C44  1  0.74890000  0.43890000  0.32460000  1.0 -0.0437964184
C  C45  1  0.74580000  0.36070000  0.35500000  1.0 -0.0926585404
C  C46  1  0.53490000  0.19850000  0.27350000  1.0 -0.0562851635
C  C47  1  0.19010000  0.95680000  0.45140000  1.0 -0.4726821242
C  C48  1  0.52920000  0.27390000  0.24040000  1.0 -0.0926585404
C  C49  1  0.80330000  0.21480000  0.79760000  1.0 -0.4726821242
C  C50  1  0.72460000  0.50490000  0.70660000  1.0 -0.4611613684
C  C51  1  0.05860000  0.26880000  0.25810000  1.0 -0.1077261177
C  C52  1  0.77750000  0.08040000  0.87750000  1.0 -0.4403963469
C  C53  1  0.76180000  0.21040000  0.95010000  1.0 -0.4726821242
C  C54  1  0.06170000  0.99730000  0.87390000  1.0 -0.4611613684
C  C55  1  0.66590000  0.62200000  0.75650000  1.0 -0.4611613684
C  C56  1  0.68340000  0.52390000  0.85600000  1.0 -0.4780531434
C  C57  1  0.02660000  0.13380000  0.82520000  1.0 -0.4726821242
C  C58  1  0.12450000  0.07620000  0.48740000  1.0 -0.4780531434
C  C59  1  0.08830000  0.06440000  0.73770000  1.0 -0.4780531434
C  C60  1  0.19480000  0.08380000  0.36250000  1.0 -0.4726821242
C  C61  1  0.53750000  0.92730000  0.21900000  1.0 0.2601241536
C  C62  1  0.61700000  0.62680000  0.30540000  1.0 0.3097848462
C  C63  1  0.60330000  0.75560000  0.46890000  1.0 -0.1825037507
C  C64  1  0.55020000  0.60420000  0.36480000  1.0 -0.2090216932
C  C65  1  0.63740000  0.77350000  0.09270000  1.0 0.2080288696
C  C66  1  0.54070000  0.79770000  0.43700000  1.0 0.2080288696
C  C67  1  0.58770000  0.59640000  0.22040000  1.0 -0.2090216932
C  C68  1  0.69820000  0.72930000  0.12570000  1.0 -0.1825037507
C  C69  1  0.68840000  0.80270000  0.50170000  1.0 -0.1263485484
C  C70  1  0.66440000  0.86480000  0.08770000  1.0 -0.1825037507
C  C71  1  0.56930000  0.88970000  0.43010000  1.0 -0.1825037507
C  C72  1  0.50030000  0.55230000  0.19830000  1.0 -0.1460994912
C  C73  1  0.46890000  0.91170000  0.27590000  1.0 -0.2090216932
C  C74  1  0.43620000  0.53150000  0.25810000  1.0 0.0779550465
C  C75  1  0.65270000  0.93680000  0.46210000  1.0 -0.1161624332
C  C76  1  0.37970000  0.87960000  0.24950000  1.0 -0.1263485484
C  C77  1  0.46320000  0.55780000  0.34150000  1.0 -0.1161624332
C  C78  1  0.35290000  0.86020000  0.16490000  1.0 0.0779550465
C  C79  1  0.75220000  0.91000000  0.11180000  1.0 -0.1376827193
C  C80  1  0.50830000  0.90540000  0.13330000  1.0 -0.198420657
C  C81  1  0.41840000  0.87380000  0.10720000  1.0 -0.1161624332
C  C82  1  0.78570000  0.77550000  0.15080000  1.0 -0.1263485484
C  C83  1  0.71210000  0.89440000  0.50160000  1.0 0.0903824548
C  C84  1  0.81390000  0.86620000  0.14160000  1.0 0.0903824548
C  C85  1  0.39320000  0.74360000  0.47820000  1.0 -0.0283498482
C  C86  1  0.18120000  0.84440000  0.71580000  1.0 0.4947101044
C  C87  1  0.08730000  0.79560000  0.69690000  1.0 -0.0283498482
C  C88  1  0.25240000  0.83100000  0.13600000  1.0 0.2601241536
C  C89  1  0.33980000  0.48170000  0.23220000  1.0 0.2487801082
C  C90  1  0.96960000  0.73000000  0.59190000  1.0 -0.0283498482
C  C91  1  0.30140000  0.71260000  0.43610000  1.0 -0.2171006446
C  C92  1  0.80090000  0.94550000  0.54650000  1.0 0.2601241536
C  C93  1  0.23080000  0.70110000  0.50090000  1.0 -0.1077261177
C  C94  1  0.53330000  0.70350000  0.98090000  1.0 -0.0283498482
C  C95  1  0.93860000  0.70680000  0.50140000  1.0 0.5497361588
C  C96  1  0.05660000  0.77430000  0.61270000  1.0 -0.1161624332
C  C97  1  0.22120000  0.54350000  0.54430000  1.0 0.1215819942
C  C98  1  0.37450000  0.77360000  0.82810000  1.0 0.0256028938
C  C99  1  0.43440000  0.65600000  0.97070000  1.0 -0.2171006446
C  C100  1  0.91020000  0.91500000  0.16800000  1.0 0.2487801082
C  C101  1  0.40360000  0.63160000  0.88010000  1.0 -0.1161624332
C  C102  1  0.91270000  0.70620000  0.65610000  1.0 -0.1005985161
C  C103  1  0.02810000  0.77090000  0.76080000  1.0 -0.1005985161
C  C104  1  0.25110000  0.56110000  0.67540000  1.0 -0.0437964184
C  C105  1  0.25420000  0.63930000  0.64500000  1.0 -0.0926585404
C  C106  1  0.46510000  0.80150000  0.72650000  1.0 -0.0562851635
C  C107  1  0.80990000  0.04320000  0.54860000  1.0 -0.4726821242
C  C108  1  0.47080000  0.72610000  0.75960000  1.0 -0.0926585404
C  C109  1  0.19670000  0.78520000  0.20240000  1.0 -0.4780531434
C  C110  1  0.27540000  0.49510000  0.29340000  1.0 -0.4611613684
C  C111  1  0.94140000  0.73120000  0.74190000  1.0 -0.1077261177
C  C112  1  0.22250000  0.91960000  0.12250000  1.0 -0.4403963469
C  C113  1  0.23820000  0.78960000  0.04990000  1.0 -0.4726821242
C  C114  1  0.93830000  0.00270000  0.12610000  1.0 -0.4611613684
C  C115  1  0.33410000  0.37800000  0.24350000  1.0 -0.4611613684
C  C116  1  0.31660000  0.47610000  0.14400000  1.0 -0.4780531434
C  C117  1  0.97340000  0.86620000  0.17480000  1.0 -0.4726821242
C  C118  1  0.87550000  0.92380000  0.51260000  1.0 -0.4780531434
C  C119  1  0.91170000  0.93560000  0.26230000  1.0 -0.4780531434
C  C120  1  0.80520000  0.91620000  0.63750000  1.0 -0.4780531434
S  S1  1  0.42181000  0.36246000  0.52824000  1.0 1.0077277469
S  S2  1  0.33407000  0.38658000  0.85878000  1.0 1.0077277469
S  S3  1  0.50226000  0.04918000  0.61821000  1.0 1.0077277469
S  S4  1  0.41140000  0.07092000  0.94319000  1.0 1.0035483407
S  S5  1  0.57819000  0.63754000  0.47176000  1.0 1.0077277469
S  S6  1  0.66593000  0.61342000  0.14122000  1.0 1.0077277469
S  S7  1  0.49774000  0.95082000  0.38179000  1.0 1.0035483407
S  S8  1  0.58860000  0.92908000  0.05681000  1.0 1.0035483407
N  N1  1  0.76580000  0.37020000  0.43870000  1.0 0.0473887044
N  N2  1  0.76900000  0.50030000  0.38750000  1.0 -0.2804964317
N  N3  1  0.59820000  0.16850000  0.23140000  1.0 -0.2522917522
N  N4  1  0.58420000  0.29180000  0.17480000  1.0 0.0473887044
N  N5  1  0.23420000  0.62980000  0.56130000  1.0 0.0473887044
N  N6  1  0.23100000  0.49970000  0.61250000  1.0 -0.2804964317
N  N7  1  0.40180000  0.83150000  0.76860000  1.0 -0.2522917522
N  N8  1  0.41580000  0.70820000  0.82520000  1.0 0.0473887044
O  O1  1  0.37800000  0.04150000  0.75630000  1.0 -0.4276724887
O  O2  1  0.44940000  0.27080000  0.92930000  1.0 -0.2090216932
O  O3  1  0.49760000  0.39380000  0.47900000  1.0 -0.5140645934
O  O4  1  0.25620000  0.41250000  0.82640000  1.0 -0.5321037007
O  O5  1  0.37780000  0.42930000  0.93650000  1.0 -0.5192548665
O  O6  1  0.44830000  0.95860000  0.62190000  1.0 -0.5462951792
O  O7  1  0.76630000  0.13220000  0.34290000  1.0 -0.4403963469
O  O8  1  0.58180000  0.06330000  0.57500000  1.0 -0.4970342351
O  O9  1  0.45320000  0.09970000  0.02510000  1.0 -0.5192548665
O  O10  1  0.36280000  0.97930000  0.93240000  1.0 -0.5462951792
O  O11  1  0.14500000  0.31900000  0.51300000  1.0 -0.570122881
O  O12  1  0.00480000  0.28400000  0.55300000  1.0 -0.5819943977
O  O13  1  0.54380000  0.24570000  0.58930000  1.0 -0.198420657
O  O14  1  0.30140000  0.32690000  0.67510000  1.0 -0.5192548665
O  O15  1  0.34030000  0.38530000  0.50030000  1.0 -0.5321037007
O  O16  1  0.79040000  0.13740000  0.20790000  1.0 -0.4403963469
O  O17  1  0.62200000  0.95850000  0.24370000  1.0 -0.4276724887
O  O18  1  0.55060000  0.72920000  0.07070000  1.0 -0.2090216932
O  O19  1  0.50240000  0.60620000  0.52100000  1.0 -0.5140645934
O  O20  1  0.74380000  0.58750000  0.17360000  1.0 -0.5321037007
O  O21  1  0.62220000  0.57070000  0.06350000  1.0 -0.5192548665
O  O22  1  0.55170000  0.04140000  0.37810000  1.0 -0.5462951792
O  O23  1  0.23370000  0.86780000  0.65710000  1.0 -0.4403963469
O  O24  1  0.41820000  0.93670000  0.42500000  1.0 -0.4970342351
O  O25  1  0.54680000  0.90030000  0.97490000  1.0 -0.5192548665
O  O26  1  0.63720000  0.02070000  0.06760000  1.0 -0.5462951792
O  O27  1  0.85500000  0.68100000  0.48700000  1.0 -0.570122881
O  O28  1  0.99520000  0.71600000  0.44700000  1.0 -0.5819943977
O  O29  1  0.45620000  0.75430000  0.41070000  1.0 -0.198420657
O  O30  1  0.69860000  0.67310000  0.32490000  1.0 -0.5192548665
O  O31  1  0.65970000  0.61470000  0.49970000  1.0 -0.5321037007
O  O32  1  0.20960000  0.86260000  0.79210000  1.0 -0.4403963469
