# DDEC6 charges by PACMAN v1.1 (https://github.com/mtap-research/PACMAN-charge/)
data_UZEZUX_ASR_pacman
_symmetry_space_group_name_H-M   'P 1'
_cell_length_a   14.11610000
_cell_length_b   14.11610000
_cell_length_c   14.11610000
_cell_angle_alpha   90.00000000
_cell_angle_beta   90.00000000
_cell_angle_gamma   90.00000000
_symmetry_Int_Tables_number   1
_chemical_formula_structural   Zr3FeH8C14O11
_chemical_formula_sum   'Zr6 Fe2 H16 C28 O22'
_cell_volume   2812.83449176
_cell_formula_units_Z   2
loop_
 _symmetry_equiv_pos_site_id
 _symmetry_equiv_pos_as_xyz
  1  'x, y, z'
loop_
 _atom_site_type_symbol
 _atom_site_label
 _atom_site_symmetry_multiplicity
 _atom_site_fract_x
 _atom_site_fract_y
 _atom_site_fract_z
 _atom_site_occupancy
 _atom_site_charge
Zr  Zr1  1  0.86258000  0.93626000  0.03414000  1.0 2.1174862035
Zr  Zr2  1  0.95494000  0.87566000  0.84746000  1.0 2.0678428061
Zr  Zr3  1  0.03674000  0.10129000  0.06713000  1.0 2.0678428061
Zr  Zr4  1  0.12915000  0.04073000  0.88047000  1.0 2.1174862035
Zr  Zr5  1  0.09415000  0.87323000  0.01357000  1.0 2.1498173125
Zr  Zr6  1  0.89760000  0.10374000  0.90096000  1.0 2.1498173125
Fe  Fe1  1  0.99600000  0.48845000  0.95722000  1.0 0.1126351776
Fe  Fe2  1  0.49588000  0.98865000  0.95745000  1.0 0.1191086003
H  H1  1  0.80440000  0.42011000  0.93149000  1.0 0.1191086003
H  H2  1  0.95458000  0.59042000  0.13352000  1.0 0.1126351776
H  H3  1  0.01746000  0.41447000  0.14910000  1.0 0.1191086003
H  H4  1  0.03745000  0.38654000  0.78101000  1.0 0.1191086003
H  H5  1  0.18750000  0.55692000  0.98316000  1.0 0.1191086003
H  H6  1  0.97465000  0.56253000  0.76532000  1.0 0.1191086003
H  H7  1  0.82324000  0.59384000  0.00006000  1.0 0.1191086003
H  H8  1  0.16875000  0.38315000  0.91457000  1.0 0.1191086003
H  H9  1  0.42863000  0.92141000  0.78142000  1.0 0.1191086003
H  H10  1  0.56338000  0.05576000  0.13341000  1.0 0.1191086003
H  H11  1  0.60115000  0.86785000  0.83139000  1.0 0.1126351776
H  H12  1  0.39086000  0.10962000  0.08376000  1.0 0.1126351776
H  H13  1  0.42115000  0.83873000  0.07446000  1.0 0.1191086003
H  H14  1  0.59516000  0.81772000  0.01364000  1.0 0.1126351776
H  H15  1  0.39662000  0.15977000  0.90146000  1.0 0.1126351776
H  H16  1  0.57049000  0.13840000  0.84036000  1.0 0.1191086003
C  C1  1  0.92930000  0.28226000  0.01913000  1.0 0.6826318152
C  C2  1  0.06251000  0.69466000  0.89538000  1.0 0.6826318152
C  C3  1  0.91483000  0.38380000  0.03566000  1.0 -0.1323319167
C  C4  1  0.85182000  0.44145000  0.98780000  1.0 -0.111453138
C  C5  1  0.86151000  0.53195000  0.02343000  1.0 -0.1198978551
C  C6  1  0.93001000  0.53016000  0.09301000  1.0 -0.111453138
C  C7  1  0.96267000  0.43850000  0.10115000  1.0 -0.1198978551
C  C8  1  0.06204000  0.44680000  0.82148000  1.0 -0.111453138
C  C9  1  0.13047000  0.44502000  0.89117000  1.0 -0.1198978551
C  C10  1  0.14015000  0.53552000  0.92676000  1.0 -0.111453138
C  C11  1  0.07713000  0.59312000  0.87888000  1.0 -0.1323319167
C  C12  1  0.02938000  0.53846000  0.81331000  1.0 -0.1198978551
C  C13  1  0.77160000  0.78054000  0.91275000  1.0 0.7198456772
C  C14  1  0.69974000  0.70493000  0.89805000  1.0 -0.2719772063
C  C15  1  0.21993000  0.19661000  0.00186000  1.0 0.7198456772
C  C16  1  0.29166000  0.27235000  0.01648000  1.0 -0.2719772063
C  C17  1  0.29375000  0.91465000  0.93509000  1.0 0.6718401558
C  C18  1  0.69804000  0.06254000  0.97962000  1.0 0.6718401558
C  C19  1  0.44520000  0.85083000  0.00267000  1.0 -0.091112229
C  C20  1  0.53617000  0.83985000  0.97052000  1.0 -0.091112229
C  C21  1  0.53896000  0.86591000  0.87605000  1.0 -0.0721753217
C  C22  1  0.44920000  0.89393000  0.84998000  1.0 -0.091112229
C  C23  1  0.39235000  0.88667000  0.92924000  1.0 -0.1323319167
C  C24  1  0.54273000  0.08330000  0.06490000  1.0 -0.091112229
C  C25  1  0.45297000  0.11148000  0.03898000  1.0 -0.0721753217
C  C26  1  0.45563000  0.13750000  0.94449000  1.0 -0.091112229
C  C27  1  0.54654000  0.12639000  0.91220000  1.0 -0.091112229
C  C28  1  0.59948000  0.09060000  0.98556000  1.0 -0.1323319167
O  O1  1  0.97186000  0.23387000  0.08332000  1.0 -0.6017594017
O  O2  1  0.90215000  0.24714000  0.93966000  1.0 -0.6017594017
O  O3  1  0.01932000  0.74282000  0.83151000  1.0 -0.6017594017
O  O4  1  0.09032000  0.72990000  0.97460000  1.0 -0.6017594017
O  O5  1  0.77167000  0.82605000  0.99192000  1.0 -0.6064772956
O  O6  1  0.83031000  0.79544000  0.84496000  1.0 -0.6064772956
O  O7  1  0.84449000  0.96499000  0.89072000  1.0 -1.1233656757
O  O8  1  0.95501000  0.83007000  0.98704000  1.0 -1.0969606988
O  O9  1  0.97542000  0.93848000  0.71384000  1.0 -0.3141443782
O  O10  1  0.99986000  0.95751000  0.09829000  1.0 -0.8199912063
O  O11  1  0.99189000  0.01942000  0.81633000  1.0 -0.8199912063
O  O12  1  0.03671000  0.14689000  0.92753000  1.0 -1.0969606988
O  O13  1  0.01632000  0.03814000  0.20064000  1.0 -0.3185354524
O  O14  1  0.21998000  0.15100000  0.92274000  1.0 -0.6064772956
O  O15  1  0.16112000  0.18186000  0.06955000  1.0 -0.6064772956
O  O16  1  0.14722000  0.01198000  0.02387000  1.0 -1.1233656757
O  O17  1  0.09972000  0.89493000  0.86834000  1.0 -1.1405163758
O  O18  1  0.89200000  0.08204000  0.04619000  1.0 -1.1405163758
O  O19  1  0.24043000  0.86616000  0.99074000  1.0 -0.6017594017
O  O20  1  0.26633000  0.98653000  0.88629000  1.0 -0.6017594017
O  O21  1  0.75138000  0.11107000  0.92397000  1.0 -0.6017594017
O  O22  1  0.72543000  0.99056000  0.02831000  1.0 -0.6017594017
