# DDEC6 charges by PACMAN v1.1 (https://github.com/mtap-research/PACMAN-charge/)
data_UZOBER_ASR_pacman
_symmetry_space_group_name_H-M   'P 1'
_cell_length_a   11.33640000
_cell_length_b   11.33640000
_cell_length_c   8.34190000
_cell_angle_alpha   90.00000000
_cell_angle_beta   90.00000000
_cell_angle_gamma   139.66900000
_symmetry_Int_Tables_number   1
_chemical_formula_structural   AgH8(CN)6
_chemical_formula_sum   'Ag2 H16 C12 N12'
_cell_volume   693.83367283
_cell_formula_units_Z   2
loop_
 _symmetry_equiv_pos_site_id
 _symmetry_equiv_pos_as_xyz
  1  'x, y, z'
loop_
 _atom_site_type_symbol
 _atom_site_label
 _atom_site_symmetry_multiplicity
 _atom_site_fract_x
 _atom_site_fract_y
 _atom_site_fract_z
 _atom_site_occupancy
 _atom_site_charge
Ag  Ag1  1  0.00000000  0.00000000  0.25000000  1.0 0.2775630026
Ag  Ag2  1  0.00000000  0.00000000  0.75000000  1.0 0.2775630026
H  H1  1  0.16000000  0.61600000  0.37600000  1.0 0.036176169
H  H2  1  0.84000000  0.38400000  0.37600000  1.0 0.036176169
H  H3  1  0.61600000  0.16000000  0.12400000  1.0 0.036176169
H  H4  1  0.38400000  0.84000000  0.12400000  1.0 0.036176169
H  H5  1  0.84000000  0.38400000  0.62400000  1.0 0.036176169
H  H6  1  0.16000000  0.61600000  0.62400000  1.0 0.036176169
H  H7  1  0.38400000  0.84000000  0.87600000  1.0 0.036176169
H  H8  1  0.61600000  0.16000000  0.87600000  1.0 0.036176169
H  H9  1  0.06820000  0.34780000  0.26220000  1.0 0.1138891845
H  H10  1  0.93180000  0.65220000  0.26220000  1.0 0.1138891845
H  H11  1  0.34780000  0.06820000  0.23780000  1.0 0.1138891845
H  H12  1  0.65220000  0.93180000  0.23780000  1.0 0.1138891845
H  H13  1  0.93180000  0.65220000  0.73780000  1.0 0.1138891845
H  H14  1  0.06820000  0.34780000  0.73780000  1.0 0.1138891845
H  H15  1  0.65220000  0.93180000  0.76220000  1.0 0.1138891845
H  H16  1  0.34780000  0.06820000  0.76220000  1.0 0.1138891845
C  C1  1  0.09400000  0.54320000  0.50000000  1.0 -0.0926233114
C  C2  1  0.90600000  0.45680000  0.50000000  1.0 -0.0926233114
C  C3  1  0.54320000  0.09400000  0.00000000  1.0 -0.0926233114
C  C4  1  0.45680000  0.90600000  0.00000000  1.0 -0.0926233114
C  C5  1  0.06380000  0.31900000  0.36940000  1.0 -0.0053462831
C  C6  1  0.93620000  0.68100000  0.36940000  1.0 -0.0053462831
C  C7  1  0.31900000  0.06380000  0.13060000  1.0 -0.0053462831
C  C8  1  0.68100000  0.93620000  0.13060000  1.0 -0.0053462831
C  C9  1  0.93620000  0.68100000  0.63060000  1.0 -0.0053462831
C  C10  1  0.06380000  0.31900000  0.63060000  1.0 -0.0053462831
C  C11  1  0.68100000  0.93620000  0.86940000  1.0 -0.0053462831
C  C12  1  0.31900000  0.06380000  0.86940000  1.0 -0.0053462831
N  N1  1  0.07720000  0.39880000  0.50000000  1.0 0.0034940044
N  N2  1  0.92280000  0.60120000  0.50000000  1.0 0.0034940044
N  N3  1  0.39880000  0.07720000  0.00000000  1.0 0.0034940044
N  N4  1  0.60120000  0.92280000  0.00000000  1.0 0.0034940044
N  N5  1  0.04350000  0.19470000  0.41800000  1.0 -0.1695451675
N  N6  1  0.95650000  0.80530000  0.41800000  1.0 -0.1695451675
N  N7  1  0.19470000  0.04350000  0.08200000  1.0 -0.1695451675
N  N8  1  0.80530000  0.95650000  0.08200000  1.0 -0.1695451675
N  N9  1  0.95650000  0.80530000  0.58200000  1.0 -0.1695451675
N  N10  1  0.04350000  0.19470000  0.58200000  1.0 -0.1695451675
N  N11  1  0.80530000  0.95650000  0.91800000  1.0 -0.1695451675
N  N12  1  0.19470000  0.04350000  0.91800000  1.0 -0.1695451675
