# DDEC6 charges by PACMAN v1.1 (https://github.com/mtap-research/PACMAN-charge/)
data_UZOBAN_ASR_pacman
_symmetry_space_group_name_H-M   'P 1'
_cell_length_a   17.65310000
_cell_length_b   17.65310000
_cell_length_c   23.29900000
_cell_angle_alpha   90.00000000
_cell_angle_beta   90.00000000
_cell_angle_gamma   149.69700000
_symmetry_Int_Tables_number   1
_chemical_formula_structural   CdH20(C6N)4
_chemical_formula_sum   'Cd4 H80 C96 N16'
_cell_volume   3663.55828767
_cell_formula_units_Z   4
loop_
 _symmetry_equiv_pos_site_id
 _symmetry_equiv_pos_as_xyz
  1  'x, y, z'
loop_
 _atom_site_type_symbol
 _atom_site_label
 _atom_site_symmetry_multiplicity
 _atom_site_fract_x
 _atom_site_fract_y
 _atom_site_fract_z
 _atom_site_occupancy
 _atom_site_charge
Cd  Cd1  1  0.50000000  0.00000000  0.50000000  1.0 0.6014098425
Cd  Cd2  1  0.00000000  0.50000000  0.00000000  1.0 0.6014098425
Cd  Cd3  1  0.00000000  0.00000000  0.50000000  1.0 0.5908967156
Cd  Cd4  1  0.00000000  0.00000000  0.00000000  1.0 0.5908967156
H  H1  1  0.17770000  0.71010000  0.43770000  1.0 0.072252243
H  H2  1  0.82230000  0.28990000  0.43770000  1.0 0.072252243
H  H3  1  0.28990000  0.82230000  0.06230000  1.0 0.072252243
H  H4  1  0.71010000  0.17770000  0.06230000  1.0 0.072252243
H  H5  1  0.82230000  0.28990000  0.56230000  1.0 0.072252243
H  H6  1  0.17770000  0.71010000  0.56230000  1.0 0.072252243
H  H7  1  0.71010000  0.17770000  0.93770000  1.0 0.072252243
H  H8  1  0.28990000  0.82230000  0.93770000  1.0 0.072252243
H  H9  1  0.04270000  0.63410000  0.35970000  1.0 0.1192004047
H  H10  1  0.95730000  0.36590000  0.35970000  1.0 0.1192004047
H  H11  1  0.36590000  0.95730000  0.14030000  1.0 0.1192004047
H  H12  1  0.63410000  0.04270000  0.14030000  1.0 0.1192004047
H  H13  1  0.95730000  0.36590000  0.64030000  1.0 0.1192004047
H  H14  1  0.04270000  0.63410000  0.64030000  1.0 0.1192004047
H  H15  1  0.63410000  0.04270000  0.85970000  1.0 0.1192004047
H  H16  1  0.36590000  0.95730000  0.85970000  1.0 0.1192004047
H  H17  1  0.37790000  0.06150000  0.32100000  1.0 0.1192004047
H  H18  1  0.62210000  0.93850000  0.32100000  1.0 0.1192004047
H  H19  1  0.93850000  0.62210000  0.17900000  1.0 0.1192004047
H  H20  1  0.06150000  0.37790000  0.17900000  1.0 0.1192004047
H  H21  1  0.62210000  0.93850000  0.67900000  1.0 0.1192004047
H  H22  1  0.37790000  0.06150000  0.67900000  1.0 0.1192004047
H  H23  1  0.06150000  0.37790000  0.82100000  1.0 0.1192004047
H  H24  1  0.93850000  0.62210000  0.82100000  1.0 0.1192004047
H  H25  1  0.50200000  0.12840000  0.40220000  1.0 0.0819937777
H  H26  1  0.49800000  0.87160000  0.40220000  1.0 0.0819937777
H  H27  1  0.87160000  0.49800000  0.09780000  1.0 0.0819937777
H  H28  1  0.12840000  0.50200000  0.09780000  1.0 0.0819937777
H  H29  1  0.49800000  0.87160000  0.59780000  1.0 0.0819937777
H  H30  1  0.50200000  0.12840000  0.59780000  1.0 0.0819937777
H  H31  1  0.12840000  0.50200000  0.90220000  1.0 0.0819937777
H  H32  1  0.87160000  0.49800000  0.90220000  1.0 0.0819937777
H  H33  1  0.03320000  0.68600000  0.26970000  1.0 0.0819937777
H  H34  1  0.96680000  0.31400000  0.26970000  1.0 0.0819937777
H  H35  1  0.31400000  0.96680000  0.23030000  1.0 0.0819937777
H  H36  1  0.68600000  0.03320000  0.23030000  1.0 0.0819937777
H  H37  1  0.96680000  0.31400000  0.73030000  1.0 0.0819937777
H  H38  1  0.03320000  0.68600000  0.73030000  1.0 0.0819937777
H  H39  1  0.68600000  0.03320000  0.76970000  1.0 0.0819937777
H  H40  1  0.31400000  0.96680000  0.76970000  1.0 0.0819937777
H  H41  1  0.95790000  0.74050000  0.25440000  1.0 0.0819937777
H  H42  1  0.04210000  0.25950000  0.25440000  1.0 0.0819937777
H  H43  1  0.25950000  0.04210000  0.24560000  1.0 0.0819937777
H  H44  1  0.74050000  0.95790000  0.24560000  1.0 0.0819937777
H  H45  1  0.04210000  0.25950000  0.74560000  1.0 0.0819937777
H  H46  1  0.95790000  0.74050000  0.74560000  1.0 0.0819937777
H  H47  1  0.74050000  0.95790000  0.75440000  1.0 0.0819937777
H  H48  1  0.25950000  0.04210000  0.75440000  1.0 0.0819937777
H  H49  1  0.88150000  0.66830000  0.36390000  1.0 0.1192004047
H  H50  1  0.11850000  0.33170000  0.36390000  1.0 0.1192004047
H  H51  1  0.33170000  0.11850000  0.13610000  1.0 0.1192004047
H  H52  1  0.66830000  0.88150000  0.13610000  1.0 0.1192004047
H  H53  1  0.11850000  0.33170000  0.63610000  1.0 0.1192004047
H  H54  1  0.88150000  0.66830000  0.63610000  1.0 0.1192004047
H  H55  1  0.66830000  0.88150000  0.86390000  1.0 0.1192004047
H  H56  1  0.33170000  0.11850000  0.86390000  1.0 0.1192004047
H  H57  1  0.86470000  0.72890000  0.44190000  1.0 0.0819937777
H  H58  1  0.13530000  0.27110000  0.44190000  1.0 0.0819937777
H  H59  1  0.27110000  0.13530000  0.05810000  1.0 0.0819937777
H  H60  1  0.72890000  0.86470000  0.05810000  1.0 0.0819937777
H  H61  1  0.13530000  0.27110000  0.55810000  1.0 0.0819937777
H  H62  1  0.86470000  0.72890000  0.55810000  1.0 0.0819937777
H  H63  1  0.72890000  0.86470000  0.94190000  1.0 0.0819937777
H  H64  1  0.27110000  0.13530000  0.94190000  1.0 0.0819937777
H  H65  1  0.18930000  0.13070000  0.39070000  1.0 0.0819937777
H  H66  1  0.81070000  0.86930000  0.39070000  1.0 0.0819937777
H  H67  1  0.86930000  0.81070000  0.10930000  1.0 0.0819937777
H  H68  1  0.13070000  0.18930000  0.10930000  1.0 0.0819937777
H  H69  1  0.81070000  0.86930000  0.60930000  1.0 0.0819937777
H  H70  1  0.18930000  0.13070000  0.60930000  1.0 0.0819937777
H  H71  1  0.13070000  0.18930000  0.89070000  1.0 0.0819937777
H  H72  1  0.86930000  0.81070000  0.89070000  1.0 0.0819937777
H  H73  1  0.21350000  0.08270000  0.30940000  1.0 0.1192004047
H  H74  1  0.78650000  0.91730000  0.30940000  1.0 0.1192004047
H  H75  1  0.91730000  0.78650000  0.19060000  1.0 0.1192004047
H  H76  1  0.08270000  0.21350000  0.19060000  1.0 0.1192004047
H  H77  1  0.78650000  0.91730000  0.69060000  1.0 0.1192004047
H  H78  1  0.21350000  0.08270000  0.69060000  1.0 0.1192004047
H  H79  1  0.08270000  0.21350000  0.80940000  1.0 0.1192004047
H  H80  1  0.91730000  0.78650000  0.80940000  1.0 0.1192004047
C  C1  1  0.21910000  0.78250000  0.41390000  1.0 0.0242313716
C  C2  1  0.78090000  0.21750000  0.41390000  1.0 0.0256120835
C  C3  1  0.21750000  0.78090000  0.08610000  1.0 0.0256120835
C  C4  1  0.78250000  0.21910000  0.08610000  1.0 0.0242313716
C  C5  1  0.78090000  0.21750000  0.58610000  1.0 0.0256120835
C  C6  1  0.21910000  0.78250000  0.58610000  1.0 0.0242313716
C  C7  1  0.78250000  0.21910000  0.91390000  1.0 0.0242313716
C  C8  1  0.21750000  0.78090000  0.91390000  1.0 0.0256120835
C  C9  1  0.13770000  0.73610000  0.36660000  1.0 -0.2327647743
C  C10  1  0.86230000  0.26390000  0.36660000  1.0 -0.2327647743
C  C11  1  0.26390000  0.86230000  0.13340000  1.0 -0.2327647743
C  C12  1  0.73610000  0.13770000  0.13340000  1.0 -0.2327647743
C  C13  1  0.86230000  0.26390000  0.63340000  1.0 -0.2327647743
C  C14  1  0.13770000  0.73610000  0.63340000  1.0 -0.2327647743
C  C15  1  0.73610000  0.13770000  0.86660000  1.0 -0.2327647743
C  C16  1  0.26390000  0.86230000  0.86660000  1.0 -0.2327647743
C  C17  1  0.19688000  0.83972000  0.32976000  1.0 0.1192004047
C  C18  1  0.80312000  0.16028000  0.32976000  1.0 0.1192004047
C  C19  1  0.16028000  0.80312000  0.17024000  1.0 0.1192004047
C  C20  1  0.83972000  0.19688000  0.17024000  1.0 0.1192004047
C  C21  1  0.80312000  0.16028000  0.67024000  1.0 0.1192004047
C  C22  1  0.19688000  0.83972000  0.67024000  1.0 0.1192004047
C  C23  1  0.83972000  0.19688000  0.82976000  1.0 0.1192004047
C  C24  1  0.16028000  0.80312000  0.82976000  1.0 0.1192004047
C  C25  1  0.33410000  0.98690000  0.34420000  1.0 -0.2205323529
C  C26  1  0.66590000  0.01310000  0.34420000  1.0 -0.2205323529
C  C27  1  0.01310000  0.66590000  0.15580000  1.0 -0.2205323529
C  C28  1  0.98690000  0.33410000  0.15580000  1.0 -0.2205323529
C  C29  1  0.66590000  0.01310000  0.65580000  1.0 -0.2205323529
C  C30  1  0.33410000  0.98690000  0.65580000  1.0 -0.2205323529
C  C31  1  0.98690000  0.33410000  0.84420000  1.0 -0.2205323529
C  C32  1  0.01310000  0.66590000  0.84420000  1.0 -0.2205323529
C  C33  1  0.40950000  0.02730000  0.39300000  1.0 0.0466293434
C  C34  1  0.59050000  0.97270000  0.39300000  1.0 0.0466293434
C  C35  1  0.97270000  0.59050000  0.10700000  1.0 0.0466293434
C  C36  1  0.02730000  0.40950000  0.10700000  1.0 0.0466293434
C  C37  1  0.59050000  0.97270000  0.60700000  1.0 0.0466293434
C  C38  1  0.40950000  0.02730000  0.60700000  1.0 0.0466293434
C  C39  1  0.02730000  0.40950000  0.89300000  1.0 0.0466293434
C  C40  1  0.97270000  0.59050000  0.89300000  1.0 0.0466293434
C  C41  1  0.11553000  0.79247000  0.27735000  1.0 -0.1139816966
C  C42  1  0.88447000  0.20753000  0.27735000  1.0 -0.1139816966
C  C43  1  0.20753000  0.88447000  0.22265000  1.0 -0.1139816966
C  C44  1  0.79247000  0.11553000  0.22265000  1.0 -0.1139816966
C  C45  1  0.88447000  0.20753000  0.72265000  1.0 -0.1139816966
C  C46  1  0.11553000  0.79247000  0.72265000  1.0 -0.1139816966
C  C47  1  0.79247000  0.11553000  0.77735000  1.0 -0.1139816966
C  C48  1  0.20753000  0.88447000  0.77735000  1.0 -0.1139816966
C  C49  1  0.05715000  0.82645000  0.27254000  1.0 -0.1172558114
C  C50  1  0.94285000  0.17355000  0.27254000  1.0 -0.1172558114
C  C51  1  0.17355000  0.94285000  0.22746000  1.0 -0.1172558114
C  C52  1  0.82645000  0.05715000  0.22746000  1.0 -0.1172558114
C  C53  1  0.94285000  0.17355000  0.72746000  1.0 -0.1172558114
C  C54  1  0.05715000  0.82645000  0.72746000  1.0 -0.1172558114
C  C55  1  0.82645000  0.05715000  0.77254000  1.0 -0.1172558114
C  C56  1  0.17355000  0.94285000  0.77254000  1.0 -0.1172558114
C  C57  1  0.04945000  0.86795000  0.32653000  1.0 0.1093977142
C  C58  1  0.95055000  0.13205000  0.32653000  1.0 0.1093977142
C  C59  1  0.13205000  0.95055000  0.17347000  1.0 0.1093977142
C  C60  1  0.86795000  0.04945000  0.17347000  1.0 0.1093977142
C  C61  1  0.95055000  0.13205000  0.67347000  1.0 0.1093977142
C  C62  1  0.04945000  0.86795000  0.67347000  1.0 0.1093977142
C  C63  1  0.86795000  0.04945000  0.82653000  1.0 0.1093977142
C  C64  1  0.13205000  0.95055000  0.82653000  1.0 0.1093977142
C  C65  1  0.94720000  0.76560000  0.36790000  1.0 -0.2133763906
C  C66  1  0.05280000  0.23440000  0.36790000  1.0 -0.2133763906
C  C67  1  0.23440000  0.05280000  0.13210000  1.0 -0.2133763906
C  C68  1  0.76560000  0.94720000  0.13210000  1.0 -0.2133763906
C  C69  1  0.05280000  0.23440000  0.63210000  1.0 -0.2133763906
C  C70  1  0.94720000  0.76560000  0.63210000  1.0 -0.2133763906
C  C71  1  0.76560000  0.94720000  0.86790000  1.0 -0.2133763906
C  C72  1  0.23440000  0.05280000  0.86790000  1.0 -0.2133763906
C  C73  1  0.93920000  0.80320000  0.41500000  1.0 -0.00401875
C  C74  1  0.06080000  0.19680000  0.41500000  1.0 -0.00401875
C  C75  1  0.19680000  0.06080000  0.08500000  1.0 -0.00401875
C  C76  1  0.80320000  0.93920000  0.08500000  1.0 -0.00401875
C  C77  1  0.06080000  0.19680000  0.58500000  1.0 -0.00401875
C  C78  1  0.93920000  0.80320000  0.58500000  1.0 -0.00401875
C  C79  1  0.80320000  0.93920000  0.91500000  1.0 -0.00401875
C  C80  1  0.19680000  0.06080000  0.91500000  1.0 -0.00401875
C  C81  1  0.12530000  0.03450000  0.38570000  1.0 0.0641739352
C  C82  1  0.87470000  0.96550000  0.38570000  1.0 0.0641739352
C  C83  1  0.96550000  0.87470000  0.11430000  1.0 0.0641739352
C  C84  1  0.03450000  0.12530000  0.11430000  1.0 0.0641739352
C  C85  1  0.87470000  0.96550000  0.61430000  1.0 0.0641739352
C  C86  1  0.12530000  0.03450000  0.61430000  1.0 0.0641739352
C  C87  1  0.03450000  0.12530000  0.88570000  1.0 0.0641739352
C  C88  1  0.96550000  0.87470000  0.88570000  1.0 0.0641739352
C  C89  1  0.14070000  0.00670000  0.33620000  1.0 -0.2532968361
C  C90  1  0.85930000  0.99330000  0.33620000  1.0 -0.2532968361
C  C91  1  0.99330000  0.85930000  0.16380000  1.0 -0.2532968361
C  C92  1  0.00670000  0.14070000  0.16380000  1.0 -0.2532968361
C  C93  1  0.85930000  0.99330000  0.66380000  1.0 -0.2532968361
C  C94  1  0.14070000  0.00670000  0.66380000  1.0 -0.2532968361
C  C95  1  0.00670000  0.14070000  0.83620000  1.0 -0.2532968361
C  C96  1  0.99330000  0.85930000  0.83620000  1.0 -0.2532968361
N  N1  1  0.35275000  0.92525000  0.42657000  1.0 -0.2327647743
N  N2  1  0.64725000  0.07475000  0.42657000  1.0 -0.2327647743
N  N3  1  0.07475000  0.64725000  0.07343000  1.0 -0.2354301911
N  N4  1  0.92525000  0.35275000  0.07343000  1.0 -0.2327647743
N  N5  1  0.64725000  0.07475000  0.57343000  1.0 -0.2327647743
N  N6  1  0.35275000  0.92525000  0.57343000  1.0 -0.2327647743
N  N7  1  0.92525000  0.35275000  0.92657000  1.0 -0.2327647743
N  N8  1  0.07475000  0.64725000  0.92657000  1.0 -0.2354301911
N  N9  1  0.03233000  0.94107000  0.42485000  1.0 -0.2327647743
N  N10  1  0.96767000  0.05893000  0.42485000  1.0 -0.2327647743
N  N11  1  0.05893000  0.96767000  0.07515000  1.0 -0.2327647743
N  N12  1  0.94107000  0.03233000  0.07515000  1.0 -0.2327647743
N  N13  1  0.96767000  0.05893000  0.57515000  1.0 -0.2327647743
N  N14  1  0.03233000  0.94107000  0.57515000  1.0 -0.2327647743
N  N15  1  0.94107000  0.03233000  0.92485000  1.0 -0.2327647743
N  N16  1  0.05893000  0.96767000  0.92485000  1.0 -0.2327647743
