# DDEC6 charges by PACMAN v1.1 (https://github.com/mtap-research/PACMAN-charge/)
data_UZUNAF_ASR_pacman
_symmetry_space_group_name_H-M   'P 1'
_cell_length_a   15.32180000
_cell_length_b   15.32180000
_cell_length_c   8.64620000
_cell_angle_alpha   85.09310000
_cell_angle_beta   94.90690000
_cell_angle_gamma   129.13500000
_symmetry_Int_Tables_number   1
_chemical_formula_structural   CuH11C11(NO2)2
_chemical_formula_sum   'Cu4 H44 C44 N8 O16'
_cell_volume   1567.32833202
_cell_formula_units_Z   4
loop_
 _symmetry_equiv_pos_site_id
 _symmetry_equiv_pos_as_xyz
  1  'x, y, z'
loop_
 _atom_site_type_symbol
 _atom_site_label
 _atom_site_symmetry_multiplicity
 _atom_site_fract_x
 _atom_site_fract_y
 _atom_site_fract_z
 _atom_site_occupancy
 _atom_site_charge
Cu  Cu1  1  0.08508000  0.50610000  0.96189000  1.0 0.7405246207
Cu  Cu2  1  0.50610000  0.08508000  0.53811000  1.0 0.7405246207
Cu  Cu3  1  0.91492000  0.49390000  0.03811000  1.0 0.7405246207
Cu  Cu4  1  0.49390000  0.91492000  0.46189000  1.0 0.7405246207
H  H1  1  0.13560000  0.36360000  0.82340000  1.0 0.1164067023
H  H2  1  0.36360000  0.13560000  0.67660000  1.0 0.1164067023
H  H3  1  0.86440000  0.63640000  0.17660000  1.0 0.1164067023
H  H4  1  0.63640000  0.86440000  0.32340000  1.0 0.1164067023
H  H5  1  0.26280000  0.37800000  0.68290000  1.0 0.1401640977
H  H6  1  0.37800000  0.26280000  0.81710000  1.0 0.1401640977
H  H7  1  0.73720000  0.62200000  0.31710000  1.0 0.1401640977
H  H8  1  0.62200000  0.73720000  0.18290000  1.0 0.1401640977
H  H9  1  0.46390000  0.70950000  0.72850000  1.0 0.1401640977
H  H10  1  0.70950000  0.46390000  0.77150000  1.0 0.1401640977
H  H11  1  0.53610000  0.29050000  0.27150000  1.0 0.1401640977
H  H12  1  0.29050000  0.53610000  0.22850000  1.0 0.1401640977
H  H13  1  0.33090000  0.68550000  0.86820000  1.0 0.1164067023
H  H14  1  0.68550000  0.33090000  0.63180000  1.0 0.1164067023
H  H15  1  0.66910000  0.31450000  0.13180000  1.0 0.1164067023
H  H16  1  0.31450000  0.66910000  0.36820000  1.0 0.1164067023
H  H17  1  0.53930000  0.63670000  0.59610000  1.0 0.1060803951
H  H18  1  0.63670000  0.53930000  0.90390000  1.0 0.1060803951
H  H19  1  0.46070000  0.36330000  0.40390000  1.0 0.1060803951
H  H20  1  0.36330000  0.46070000  0.09610000  1.0 0.1060803951
H  H21  1  0.16800000  0.75900000  0.70690000  1.0 0.1401640977
H  H22  1  0.75900000  0.16800000  0.79310000  1.0 0.1401640977
H  H23  1  0.83200000  0.24100000  0.29310000  1.0 0.1401640977
H  H24  1  0.24100000  0.83200000  0.20690000  1.0 0.1401640977
H  H25  1  0.14370000  0.82930000  0.59920000  1.0 0.1308417329
H  H26  1  0.82930000  0.14370000  0.90080000  1.0 0.1308417329
H  H27  1  0.85630000  0.17070000  0.40080000  1.0 0.1308417329
H  H28  1  0.17070000  0.85630000  0.09920000  1.0 0.1308417329
H  H29  1  0.12180000  0.64700000  0.48840000  1.0 0.0968957105
H  H30  1  0.64700000  0.12180000  0.01160000  1.0 0.0968957105
H  H31  1  0.87820000  0.35300000  0.51160000  1.0 0.0968957105
H  H32  1  0.35300000  0.87820000  0.98840000  1.0 0.0968957105
H  H33  1  0.08470000  0.71170000  0.39420000  1.0 0.0917361834
H  H34  1  0.71170000  0.08470000  0.10580000  1.0 0.0917361834
H  H35  1  0.91530000  0.28830000  0.60580000  1.0 0.0917361834
H  H36  1  0.28830000  0.91530000  0.89420000  1.0 0.0917361834
H  H37  1  0.92550000  0.54070000  0.49500000  1.0 0.1401640977
H  H38  1  0.54070000  0.92550000  0.00500000  1.0 0.1401640977
H  H39  1  0.07450000  0.45930000  0.50500000  1.0 0.1401640977
H  H40  1  0.45930000  0.07450000  0.99500000  1.0 0.1401640977
H  H41  1  0.94180000  0.64040000  0.56830000  1.0 0.1308417329
H  H42  1  0.64040000  0.94180000  0.93170000  1.0 0.1308417329
H  H43  1  0.05820000  0.35960000  0.43170000  1.0 0.1308417329
H  H44  1  0.35960000  0.05820000  0.06830000  1.0 0.1308417329
C  C1  1  0.20340000  0.43480000  0.80360000  1.0 0.0732363322
C  C2  1  0.43480000  0.20340000  0.69640000  1.0 0.0732363322
C  C3  1  0.79660000  0.56520000  0.19640000  1.0 0.0732363322
C  C4  1  0.56520000  0.79660000  0.30360000  1.0 0.0732363322
C  C5  1  0.27890000  0.44230000  0.71930000  1.0 -0.1673073164
C  C6  1  0.44230000  0.27890000  0.78070000  1.0 -0.1673073164
C  C7  1  0.72110000  0.55770000  0.28070000  1.0 -0.1673073164
C  C8  1  0.55770000  0.72110000  0.21930000  1.0 -0.1673073164
C  C9  1  0.37920000  0.54640000  0.68900000  1.0 0.1060803951
C  C10  1  0.54640000  0.37920000  0.81100000  1.0 0.1060803951
C  C11  1  0.62080000  0.45360000  0.31100000  1.0 0.1060803951
C  C12  1  0.45360000  0.62080000  0.18900000  1.0 0.1060803951
C  C13  1  0.39690000  0.63750000  0.74660000  1.0 -0.1918596971
C  C14  1  0.63750000  0.39690000  0.75340000  1.0 -0.1918596971
C  C15  1  0.60310000  0.36250000  0.25340000  1.0 -0.1918596971
C  C16  1  0.36250000  0.60310000  0.24660000  1.0 -0.1918596971
C  C17  1  0.31700000  0.62260000  0.83010000  1.0 0.0847170063
C  C18  1  0.62260000  0.31700000  0.66990000  1.0 0.0847170063
C  C19  1  0.68300000  0.37740000  0.16990000  1.0 0.0847170063
C  C20  1  0.37740000  0.68300000  0.33010000  1.0 0.0847170063
C  C21  1  0.46970000  0.56530000  0.60300000  1.0 0.0395305277
C  C22  1  0.56530000  0.46970000  0.89700000  1.0 0.0395305277
C  C23  1  0.53030000  0.43470000  0.39700000  1.0 0.0395305277
C  C24  1  0.43470000  0.53030000  0.10300000  1.0 0.0395305277
C  C25  1  0.29320000  0.86740000  0.55780000  1.0 0.6184603878
C  C26  1  0.86740000  0.29320000  0.94220000  1.0 0.6184603878
C  C27  1  0.70680000  0.13260000  0.44220000  1.0 0.6184603878
C  C28  1  0.13260000  0.70680000  0.05780000  1.0 0.6184603878
C  C29  1  0.17130000  0.78710000  0.60090000  1.0 -0.3282173267
C  C30  1  0.78710000  0.17130000  0.89910000  1.0 -0.3282173267
C  C31  1  0.82870000  0.21290000  0.39910000  1.0 -0.3282173267
C  C32  1  0.21290000  0.82870000  0.10090000  1.0 -0.3282173267
C  C33  1  0.09080000  0.68540000  0.49750000  1.0 -0.0930682915
C  C34  1  0.68540000  0.09080000  0.00250000  1.0 -0.0930682915
C  C35  1  0.90920000  0.31460000  0.50250000  1.0 -0.0930682915
C  C36  1  0.31460000  0.90920000  0.99750000  1.0 -0.0930682915
C  C37  1  0.97380000  0.60260000  0.56420000  1.0 -0.3282173267
C  C38  1  0.60260000  0.97380000  0.93580000  1.0 -0.3282173267
C  C39  1  0.02620000  0.39740000  0.43580000  1.0 -0.3282173267
C  C40  1  0.39740000  0.02620000  0.06420000  1.0 -0.3282173267
C  C41  1  0.97480000  0.55540000  0.72600000  1.0 0.6121791014
C  C42  1  0.55540000  0.97480000  0.77400000  1.0 0.6121791014
C  C43  1  0.02520000  0.44460000  0.27400000  1.0 0.6121791014
C  C44  1  0.44460000  0.02520000  0.22600000  1.0 0.6121791014
N  N1  1  0.22020000  0.52220000  0.85910000  1.0 -0.2372396431
N  N2  1  0.52220000  0.22020000  0.64090000  1.0 -0.2372396431
N  N3  1  0.77980000  0.47780000  0.14090000  1.0 -0.2372396431
N  N4  1  0.47780000  0.77980000  0.35910000  1.0 -0.2372396431
N  N5  1  0.45210000  0.48250000  0.53790000  1.0 -0.1918596971
N  N6  1  0.48250000  0.45210000  0.96210000  1.0 -0.1918596971
N  N7  1  0.54790000  0.51750000  0.46210000  1.0 -0.1918596971
N  N8  1  0.51750000  0.54790000  0.03790000  1.0 -0.1918596971
O  O1  1  0.33520000  0.82480000  0.51510000  1.0 -0.5295647822
O  O2  1  0.82480000  0.33520000  0.98490000  1.0 -0.5295647822
O  O3  1  0.66480000  0.17520000  0.48490000  1.0 -0.5295647822
O  O4  1  0.17520000  0.66480000  0.01510000  1.0 -0.5295647822
O  O5  1  0.04618000  0.54182000  0.75530000  1.0 -0.5063884548
O  O6  1  0.54182000  0.04618000  0.74470000  1.0 -0.5063884548
O  O7  1  0.95382000  0.45818000  0.24470000  1.0 -0.5063884548
O  O8  1  0.45818000  0.95382000  0.25530000  1.0 -0.5063884548
O  O9  1  0.34460000  0.96960000  0.57360000  1.0 -0.5213066033
O  O10  1  0.96960000  0.34460000  0.92640000  1.0 -0.5213066033
O  O11  1  0.65540000  0.03040000  0.42640000  1.0 -0.5213066033
O  O12  1  0.03040000  0.65540000  0.07360000  1.0 -0.5213066033
O  O13  1  0.90577000  0.53743000  0.81950000  1.0 -0.5295647822
O  O14  1  0.53743000  0.90577000  0.68050000  1.0 -0.5295647822
O  O15  1  0.09423000  0.46257000  0.18050000  1.0 -0.5295647822
O  O16  1  0.46257000  0.09423000  0.31950000  1.0 -0.5295647822
