# DDEC6 charges by PACMAN v1.1 (https://github.com/mtap-research/PACMAN-charge/)
data_VABJUH_ASR_pacman
_symmetry_space_group_name_H-M   'P 1'
_cell_length_a   12.55860000
_cell_length_b   12.55860000
_cell_length_c   12.55860000
_cell_angle_alpha   103.94400000
_cell_angle_beta   103.94400000
_cell_angle_gamma   121.20100000
_symmetry_Int_Tables_number   1
_chemical_formula_structural   InH4C8O5
_chemical_formula_sum   'In4 H16 C32 O20'
_cell_volume   1476.04733972
_cell_formula_units_Z   4
loop_
 _symmetry_equiv_pos_site_id
 _symmetry_equiv_pos_as_xyz
  1  'x, y, z'
loop_
 _atom_site_type_symbol
 _atom_site_label
 _atom_site_symmetry_multiplicity
 _atom_site_fract_x
 _atom_site_fract_y
 _atom_site_fract_z
 _atom_site_occupancy
 _atom_site_charge
In  In1  1  0.18764000  0.81236000  0.00000000  1.0 1.5651382422
In  In2  1  0.81236000  0.18764000  0.00000000  1.0 1.5651382422
In  In3  1  0.43764000  0.93764000  0.87528000  1.0 1.5651382422
In  In4  1  0.06236000  0.56236000  0.12472000  1.0 1.5651382422
H  H1  1  0.48053000  0.28897000  0.95480000  1.0 0.1267002159
H  H2  1  0.33417000  0.52573000  0.04520000  1.0 0.1267002159
H  H3  1  0.77573000  0.23053000  0.69156000  1.0 0.1267002159
H  H4  1  0.53897000  0.08417000  0.30844000  1.0 0.1267002159
H  H5  1  0.76947000  0.22427000  0.30844000  1.0 0.1267002159
H  H6  1  0.91583000  0.46103000  0.69156000  1.0 0.1267002159
H  H7  1  0.47427000  0.66583000  0.95480000  1.0 0.1267002159
H  H8  1  0.71103000  0.51947000  0.04520000  1.0 0.1267002159
H  H9  1  0.43100000  0.87500000  0.05600000  1.0 0.3945282167
H  H10  1  0.81900000  0.37500000  0.94400000  1.0 0.3945282167
H  H11  1  0.62500000  0.18100000  0.05600000  1.0 0.3945282167
H  H12  1  0.12500000  0.56900000  0.94400000  1.0 0.3945282167
H  H13  1  0.13800000  0.13800000  0.00000000  1.0 0.1474026655
H  H14  1  0.38800000  0.88800000  0.50000000  1.0 0.1474026655
H  H15  1  0.11200000  0.61200000  0.50000000  1.0 0.1474026655
H  H16  1  0.86200000  0.86200000  0.00000000  1.0 0.1474026655
C  C1  1  0.29630000  0.07272000  0.94442000  1.0 0.6069564437
C  C2  1  0.31920000  0.20930000  0.99230000  1.0 -0.005726731
C  C3  1  0.43060000  0.31710000  0.97890000  1.0 -0.18030917
C  C4  1  0.12830000  0.35188000  0.05558000  1.0 0.6069564437
C  C5  1  0.21700000  0.32690000  0.00770000  1.0 -0.005726731
C  C6  1  0.33820000  0.45170000  0.02110000  1.0 -0.18030917
C  C7  1  0.60188000  0.04630000  0.72358000  1.0 0.6069564437
C  C8  1  0.57690000  0.06920000  0.60990000  1.0 -0.005726731
C  C9  1  0.70170000  0.18060000  0.61350000  1.0 -0.18030917
C  C10  1  0.32272000  0.87830000  0.27642000  1.0 0.6069564437
C  C11  1  0.45930000  0.96700000  0.39010000  1.0 -0.005726731
C  C12  1  0.56710000  0.08820000  0.38650000  1.0 -0.18030917
C  C13  1  0.95370000  0.39812000  0.27642000  1.0 0.6069564437
C  C14  1  0.93080000  0.42310000  0.39010000  1.0 -0.005726731
C  C15  1  0.81940000  0.29830000  0.38650000  1.0 -0.18030917
C  C16  1  0.12170000  0.67728000  0.72358000  1.0 0.6069564437
C  C17  1  0.03300000  0.54070000  0.60990000  1.0 -0.005726731
C  C18  1  0.91180000  0.43290000  0.61350000  1.0 -0.18030917
C  C19  1  0.64812000  0.87170000  0.94442000  1.0 0.6069564437
C  C20  1  0.67310000  0.78300000  0.99230000  1.0 -0.005726731
C  C21  1  0.54830000  0.66180000  0.97890000  1.0 -0.18030917
C  C22  1  0.92728000  0.70370000  0.05558000  1.0 0.6069564437
C  C23  1  0.79070000  0.68080000  0.00770000  1.0 -0.005726731
C  C24  1  0.68290000  0.56940000  0.02110000  1.0 -0.18030917
C  C25  1  0.21370000  0.21370000  0.00000000  1.0 -0.1039814959
C  C26  1  0.43740000  0.43740000  0.00000000  1.0 0.0818100357
C  C27  1  0.46370000  0.96370000  0.50000000  1.0 -0.1039814959
C  C28  1  0.68740000  0.18740000  0.50000000  1.0 0.0818100357
C  C29  1  0.03630000  0.53630000  0.50000000  1.0 -0.1039814959
C  C30  1  0.81260000  0.31260000  0.50000000  1.0 0.0818100357
C  C31  1  0.78630000  0.78630000  0.00000000  1.0 -0.1039814959
C  C32  1  0.56260000  0.56260000  0.00000000  1.0 0.0818100357
O  O1  1  0.35240000  0.04646000  0.88626000  1.0 -0.5502067516
O  O2  1  0.23012000  0.99874000  0.99778000  1.0 -0.5890443111
O  O3  1  0.16020000  0.46614000  0.11374000  1.0 -0.5502067516
O  O4  1  0.00096000  0.23234000  0.00222000  1.0 -0.5890443111
O  O5  1  0.71614000  0.10240000  0.80594000  1.0 -0.5502067516
O  O6  1  0.48234000  0.98012000  0.73138000  1.0 -0.5890443111
O  O7  1  0.29646000  0.91020000  0.19406000  1.0 -0.5502067516
O  O8  1  0.24874000  0.75096000  0.26862000  1.0 -0.5890443111
O  O9  1  0.89760000  0.28386000  0.19406000  1.0 -0.5502067516
O  O10  1  0.01988000  0.51766000  0.26862000  1.0 -0.5890443111
O  O11  1  0.08980000  0.70354000  0.80594000  1.0 -0.5502067516
O  O12  1  0.24904000  0.75126000  0.73138000  1.0 -0.5890443111
O  O13  1  0.53386000  0.83980000  0.88626000  1.0 -0.5502067516
O  O14  1  0.76766000  0.99904000  0.99778000  1.0 -0.5890443111
O  O15  1  0.95354000  0.64760000  0.11374000  1.0 -0.5502067516
O  O16  1  0.00126000  0.76988000  0.00222000  1.0 -0.5890443111
O  O17  1  0.37485000  0.87500000  0.99985000  1.0 -0.901637056
O  O18  1  0.87515000  0.37500000  0.00015000  1.0 -0.901637056
O  O19  1  0.62500000  0.12485000  0.99985000  1.0 -0.901637056
O  O20  1  0.12500000  0.62515000  0.00015000  1.0 -0.901637056
