# DDEC6 charges by PACMAN v1.1 (https://github.com/mtap-research/PACMAN-charge/)
data_VABJUE_ASR_pacman
_symmetry_space_group_name_H-M   'P 1'
_cell_length_a   15.91600000
_cell_length_b   15.74000000
_cell_length_c   5.47100000
_cell_angle_alpha   90.00000000
_cell_angle_beta   90.00000000
_cell_angle_gamma   90.00000000
_symmetry_Int_Tables_number   1
_chemical_formula_structural   AgH8(C2N)4
_chemical_formula_sum   'Ag4 H32 C32 N16'
_cell_volume   1370.58310264
_cell_formula_units_Z   4
loop_
 _symmetry_equiv_pos_site_id
 _symmetry_equiv_pos_as_xyz
  1  'x, y, z'
loop_
 _atom_site_type_symbol
 _atom_site_label
 _atom_site_symmetry_multiplicity
 _atom_site_fract_x
 _atom_site_fract_y
 _atom_site_fract_z
 _atom_site_occupancy
 _atom_site_charge
Ag  Ag1  1  0.25000000  0.00000000  0.62598000  1.0 0.523260553
Ag  Ag2  1  0.75000000  0.00000000  0.37402000  1.0 0.523260553
Ag  Ag3  1  0.25000000  0.50000000  0.87402000  1.0 0.523260553
Ag  Ag4  1  0.75000000  0.50000000  0.12598000  1.0 0.523260553
H  H1  1  0.29969000  0.18510000  0.39464000  1.0 0.1116737394
H  H2  1  0.70031000  0.81490000  0.60536000  1.0 0.1116737394
H  H3  1  0.20031000  0.81490000  0.39464000  1.0 0.1116737394
H  H4  1  0.79969000  0.18510000  0.60536000  1.0 0.1116737394
H  H5  1  0.20031000  0.68510000  0.10536000  1.0 0.1116737394
H  H6  1  0.79969000  0.31490000  0.89464000  1.0 0.1116737394
H  H7  1  0.29969000  0.31490000  0.10536000  1.0 0.1116737394
H  H8  1  0.70031000  0.68510000  0.89464000  1.0 0.1116737394
H  H9  1  0.18729000  0.18435000  0.37798000  1.0 0.1116737394
H  H10  1  0.81271000  0.81565000  0.62202000  1.0 0.1116737394
H  H11  1  0.31271000  0.81565000  0.37798000  1.0 0.1116737394
H  H12  1  0.68729000  0.18435000  0.62202000  1.0 0.1116737394
H  H13  1  0.31271000  0.68435000  0.12202000  1.0 0.1116737394
H  H14  1  0.68729000  0.31565000  0.87798000  1.0 0.1116737394
H  H15  1  0.18729000  0.31565000  0.12202000  1.0 0.1116737394
H  H16  1  0.81271000  0.68435000  0.87798000  1.0 0.1116737394
H  H17  1  0.96775000  0.07676000  0.15091000  1.0 0.1116737394
H  H18  1  0.03225000  0.92324000  0.84909000  1.0 0.1116737394
H  H19  1  0.53225000  0.92324000  0.15091000  1.0 0.1116737394
H  H20  1  0.46775000  0.07676000  0.84909000  1.0 0.1116737394
H  H21  1  0.53225000  0.57676000  0.34909000  1.0 0.1116737394
H  H22  1  0.46775000  0.42324000  0.65091000  1.0 0.1116737394
H  H23  1  0.96775000  0.42324000  0.34909000  1.0 0.1116737394
H  H24  1  0.03225000  0.57676000  0.65091000  1.0 0.1116737394
H  H25  1  0.94932000  0.96765000  0.22612000  1.0 0.1019649633
H  H26  1  0.05068000  0.03235000  0.77388000  1.0 0.1019649633
H  H27  1  0.55068000  0.03235000  0.22612000  1.0 0.1019649633
H  H28  1  0.44932000  0.96765000  0.77388000  1.0 0.1019649633
H  H29  1  0.55068000  0.46765000  0.27388000  1.0 0.1019649633
H  H30  1  0.44932000  0.53235000  0.72612000  1.0 0.1019649633
H  H31  1  0.94932000  0.53235000  0.27388000  1.0 0.1019649633
H  H32  1  0.05068000  0.46765000  0.72612000  1.0 0.1019649633
C  C1  1  0.25096000  0.15389000  0.05348000  1.0 0.2836805519
C  C2  1  0.74904000  0.84611000  0.94652000  1.0 0.2836805519
C  C3  1  0.24904000  0.84611000  0.05349000  1.0 0.2836805519
C  C4  1  0.75096000  0.15389000  0.94651000  1.0 0.2836805519
C  C5  1  0.24904000  0.65389000  0.44651000  1.0 0.2856607332
C  C6  1  0.75096000  0.34611000  0.55349000  1.0 0.2836805519
C  C7  1  0.25096000  0.34611000  0.44651000  1.0 0.2836805519
C  C8  1  0.74904000  0.65389000  0.55349000  1.0 0.2836805519
C  C9  1  0.24529000  0.20209000  0.27751000  1.0 -0.1955817447
C  C10  1  0.75471000  0.79791000  0.72249000  1.0 -0.1936005585
C  C11  1  0.25471000  0.79791000  0.27751000  1.0 -0.1936005585
C  C12  1  0.74529000  0.20209000  0.72249000  1.0 -0.1936005585
C  C13  1  0.25471000  0.70209000  0.22249000  1.0 -0.1955817447
C  C14  1  0.74529000  0.29791000  0.77751000  1.0 -0.1936005585
C  C15  1  0.24529000  0.29791000  0.22249000  1.0 -0.1936005585
C  C16  1  0.75471000  0.70209000  0.77751000  1.0 -0.1955817447
C  C17  1  0.07787000  0.01096000  0.24941000  1.0 0.3041077299
C  C18  1  0.92213000  0.98904000  0.75059000  1.0 0.305497606
C  C19  1  0.42213000  0.98904000  0.24941000  1.0 0.305497606
C  C20  1  0.57787000  0.01096000  0.75059000  1.0 0.3041077299
C  C21  1  0.42213000  0.51096000  0.25059000  1.0 0.3041077299
C  C22  1  0.57787000  0.48904000  0.74941000  1.0 0.3041077299
C  C23  1  0.07786000  0.48905000  0.25059000  1.0 0.3041077299
C  C24  1  0.92214000  0.51095000  0.74941000  1.0 0.3041077299
C  C25  1  0.99491000  0.01205000  0.13504000  1.0 -0.1936005585
C  C26  1  0.00509000  0.98795000  0.86496000  1.0 -0.1936005585
C  C27  1  0.50509000  0.98795000  0.13504000  1.0 -0.1936005585
C  C28  1  0.49491000  0.01205000  0.86496000  1.0 -0.1936005585
C  C29  1  0.50509000  0.51205000  0.36496000  1.0 -0.1936005585
C  C30  1  0.49491000  0.48795000  0.63504000  1.0 -0.1936005585
C  C31  1  0.99491000  0.48795000  0.36496000  1.0 -0.1936005585
C  C32  1  0.00509000  0.51205000  0.63504000  1.0 -0.1936005585
N  N1  1  0.25598000  0.11206000  0.87727000  1.0 -0.4429763549
N  N2  1  0.74402000  0.88794000  0.12273000  1.0 -0.4429763549
N  N3  1  0.24402000  0.88794000  0.87727000  1.0 -0.4429763549
N  N4  1  0.75598000  0.11206000  0.12273000  1.0 -0.4429763549
N  N5  1  0.24402000  0.61206000  0.62273000  1.0 -0.4429763549
N  N6  1  0.75598000  0.38794000  0.37727000  1.0 -0.4429763549
N  N7  1  0.25598000  0.38794000  0.62273000  1.0 -0.4429763549
N  N8  1  0.74402000  0.61206000  0.37727000  1.0 -0.4429763549
N  N9  1  0.13709000  0.00686000  0.37761000  1.0 -0.4560793148
N  N10  1  0.86291000  0.99314000  0.62239000  1.0 -0.4560793148
N  N11  1  0.36291000  0.99314000  0.37761000  1.0 -0.4560793148
N  N12  1  0.63709000  0.00686000  0.62239000  1.0 -0.4560793148
N  N13  1  0.36291000  0.50686000  0.12239000  1.0 -0.4560793148
N  N14  1  0.63709000  0.49314000  0.87761000  1.0 -0.4560793148
N  N15  1  0.13709000  0.49314000  0.12238000  1.0 -0.4560793148
N  N16  1  0.86291000  0.50686000  0.87762000  1.0 -0.4560793148
