# DDEC6 charges by PACMAN v1.1 (https://github.com/mtap-research/PACMAN-charge/)
data_VABKAL_ASR_pacman
_symmetry_space_group_name_H-M   'P 1'
_cell_length_a   16.37800000
_cell_length_b   16.16000000
_cell_length_c   5.27700000
_cell_angle_alpha   90.00000000
_cell_angle_beta   90.00000000
_cell_angle_gamma   90.00000000
_symmetry_Int_Tables_number   1
_chemical_formula_structural   AgH8(C2N)4
_chemical_formula_sum   'Ag4 H32 C32 N16'
_cell_volume   1396.65556896
_cell_formula_units_Z   4
loop_
 _symmetry_equiv_pos_site_id
 _symmetry_equiv_pos_as_xyz
  1  'x, y, z'
loop_
 _atom_site_type_symbol
 _atom_site_label
 _atom_site_symmetry_multiplicity
 _atom_site_fract_x
 _atom_site_fract_y
 _atom_site_fract_z
 _atom_site_occupancy
 _atom_site_charge
Ag  Ag1  1  0.25000000  0.00000000  0.61775000  1.0 0.5370257014
Ag  Ag2  1  0.75000000  0.00000000  0.38225000  1.0 0.5370257014
Ag  Ag3  1  0.25000000  0.50000000  0.88225000  1.0 0.5370257014
Ag  Ag4  1  0.75000000  0.50000000  0.11775000  1.0 0.5370257014
H  H1  1  0.29889000  0.18943000  0.40478000  1.0 0.1107562587
H  H2  1  0.70111000  0.81057000  0.59522000  1.0 0.1107562587
H  H3  1  0.20111000  0.81057000  0.40478000  1.0 0.1107562587
H  H4  1  0.79889000  0.18943000  0.59522000  1.0 0.1107562587
H  H5  1  0.20111000  0.68943000  0.09522000  1.0 0.1107562587
H  H6  1  0.79889000  0.31057000  0.90478000  1.0 0.1107562587
H  H7  1  0.29889000  0.31057000  0.09522000  1.0 0.1107562587
H  H8  1  0.70111000  0.68943000  0.90478000  1.0 0.1107562587
H  H9  1  0.18903000  0.18863000  0.39193000  1.0 0.1107562587
H  H10  1  0.81097000  0.81137000  0.60807000  1.0 0.1107562587
H  H11  1  0.31097000  0.81137000  0.39193000  1.0 0.1107562587
H  H12  1  0.68903000  0.18863000  0.60807000  1.0 0.1107562587
H  H13  1  0.31097000  0.68863000  0.10807000  1.0 0.1107562587
H  H14  1  0.68903000  0.31137000  0.89193000  1.0 0.1107562587
H  H15  1  0.18903000  0.31137000  0.10807000  1.0 0.1107562587
H  H16  1  0.81097000  0.68863000  0.89193000  1.0 0.1107562587
H  H17  1  0.05447000  0.93572000  0.86307000  1.0 0.1159495517
H  H18  1  0.94553000  0.06428000  0.13693000  1.0 0.1159495517
H  H19  1  0.44553000  0.06428000  0.86307000  1.0 0.1159495517
H  H20  1  0.55447000  0.93572000  0.13693000  1.0 0.1159495517
H  H21  1  0.44553000  0.43572000  0.63693000  1.0 0.1159495517
H  H22  1  0.55447000  0.56428000  0.36307000  1.0 0.1159495517
H  H23  1  0.05447000  0.56428000  0.63693000  1.0 0.1159495517
H  H24  1  0.94553000  0.43572000  0.36307000  1.0 0.1159495517
H  H25  1  0.06322000  0.04583000  0.83282000  1.0 0.1107562587
H  H26  1  0.93678000  0.95417000  0.16718000  1.0 0.1107562587
H  H27  1  0.43678000  0.95417000  0.83282000  1.0 0.1107562587
H  H28  1  0.56322000  0.04583000  0.16718000  1.0 0.1107562587
H  H29  1  0.43678000  0.54583000  0.66718000  1.0 0.1107562587
H  H30  1  0.56322000  0.45417000  0.33282000  1.0 0.1107562587
H  H31  1  0.06322000  0.45417000  0.66718000  1.0 0.1107562587
H  H32  1  0.93678000  0.54583000  0.33282000  1.0 0.1107562587
C  C1  1  0.24880000  0.15263000  0.05411000  1.0 0.2988607531
C  C2  1  0.75120000  0.84737000  0.94589000  1.0 0.2988607531
C  C3  1  0.25120000  0.84737000  0.05411000  1.0 0.2988607531
C  C4  1  0.74880000  0.15263000  0.94589000  1.0 0.2988607531
C  C5  1  0.25120000  0.65263000  0.44589000  1.0 0.2988607531
C  C6  1  0.74880000  0.34737000  0.55411000  1.0 0.2988607531
C  C7  1  0.24880000  0.34737000  0.44589000  1.0 0.2988607531
C  C8  1  0.75120000  0.65263000  0.55411000  1.0 0.2988607531
C  C9  1  0.24519000  0.20308000  0.28265000  1.0 -0.1965910232
C  C10  1  0.75481000  0.79692000  0.71735000  1.0 -0.1965910232
C  C11  1  0.25481000  0.79692000  0.28265000  1.0 -0.1965910232
C  C12  1  0.74519000  0.20308000  0.71735000  1.0 -0.1965910232
C  C13  1  0.25481000  0.70308000  0.21735000  1.0 -0.1965910232
C  C14  1  0.74519000  0.29692000  0.78265000  1.0 -0.1965910232
C  C15  1  0.24519000  0.29692000  0.21735000  1.0 -0.1965910232
C  C16  1  0.75481000  0.70308000  0.78265000  1.0 -0.1965910232
C  C17  1  0.09977000  0.99805000  0.18473000  1.0 0.2988607531
C  C18  1  0.90023000  0.00195000  0.81527000  1.0 0.2988607531
C  C19  1  0.40023000  0.00195000  0.18473000  1.0 0.2988607531
C  C20  1  0.59977000  0.99805000  0.81527000  1.0 0.2988607531
C  C21  1  0.40023000  0.49805000  0.31527000  1.0 0.2988607531
C  C22  1  0.59977000  0.50195000  0.68473000  1.0 0.2988607531
C  C23  1  0.09977000  0.50195000  0.31527000  1.0 0.2988607531
C  C24  1  0.90023000  0.49805000  0.68473000  1.0 0.2988607531
C  C25  1  0.04642000  0.99510000  0.96463000  1.0 -0.1965910232
C  C26  1  0.95358000  0.00490000  0.03537000  1.0 -0.1965910232
C  C27  1  0.45358000  0.00490000  0.96463000  1.0 -0.1965910232
C  C28  1  0.54642000  0.99510000  0.03537000  1.0 -0.1965910232
C  C29  1  0.45358000  0.49510000  0.53537000  1.0 -0.1965910232
C  C30  1  0.54642000  0.50490000  0.46463000  1.0 -0.1965910232
C  C31  1  0.04642000  0.50490000  0.53537000  1.0 -0.1965910232
C  C32  1  0.95358000  0.49510000  0.46463000  1.0 -0.1965910232
N  N1  1  0.25375000  0.10896000  0.87640000  1.0 -0.4606353191
N  N2  1  0.74625000  0.89104000  0.12360000  1.0 -0.4606353191
N  N3  1  0.24625000  0.89104000  0.87640000  1.0 -0.4606353191
N  N4  1  0.75375000  0.10896000  0.12360000  1.0 -0.4606353191
N  N5  1  0.24625000  0.60896000  0.62360000  1.0 -0.4606353191
N  N6  1  0.75375000  0.39104000  0.37640000  1.0 -0.4606353191
N  N7  1  0.25375000  0.39104000  0.62360000  1.0 -0.4606353191
N  N8  1  0.74625000  0.60896000  0.37640000  1.0 -0.4606353191
N  N9  1  0.14042000  0.00367000  0.36845000  1.0 -0.4606353191
N  N10  1  0.85958000  0.99633000  0.63155000  1.0 -0.4606353191
N  N11  1  0.35958000  0.99633000  0.36845000  1.0 -0.4606353191
N  N12  1  0.64042000  0.00367000  0.63155000  1.0 -0.4606353191
N  N13  1  0.35958000  0.50367000  0.13155000  1.0 -0.4606353191
N  N14  1  0.64042000  0.49633000  0.86845000  1.0 -0.4606353191
N  N15  1  0.14042000  0.49633000  0.13155000  1.0 -0.4606353191
N  N16  1  0.85958000  0.50367000  0.86845000  1.0 -0.4606353191
