# DDEC6 charges by PACMAN v1.1 (https://github.com/mtap-research/PACMAN-charge/)
data_VABKEP_ASR_pacman
_symmetry_space_group_name_H-M   'P 1'
_cell_length_a   11.26100000
_cell_length_b   11.26100000
_cell_length_c   6.31900000
_cell_angle_alpha   90.00000000
_cell_angle_beta   90.00000000
_cell_angle_gamma   90.00000000
_symmetry_Int_Tables_number   1
_chemical_formula_structural   AgH8(C2N)4
_chemical_formula_sum   'Ag2 H16 C16 N8'
_cell_volume   801.31315460
_cell_formula_units_Z   2
loop_
 _symmetry_equiv_pos_site_id
 _symmetry_equiv_pos_as_xyz
  1  'x, y, z'
loop_
 _atom_site_type_symbol
 _atom_site_label
 _atom_site_symmetry_multiplicity
 _atom_site_fract_x
 _atom_site_fract_y
 _atom_site_fract_z
 _atom_site_occupancy
 _atom_site_charge
Ag  Ag1  1  0.25000000  0.75000000  0.00000000  1.0 0.5351727832
Ag  Ag2  1  0.75000000  0.25000000  0.00000000  1.0 0.5351727832
H  H1  1  0.51583000  0.09004000  0.31497000  1.0 0.1069871377
H  H2  1  0.48417000  0.90996000  0.68503000  1.0 0.1069871377
H  H3  1  0.98417000  0.40996000  0.31497000  1.0 0.1069871377
H  H4  1  0.01583000  0.59004000  0.68503000  1.0 0.1069871377
H  H5  1  0.40996000  0.51583000  0.31497000  1.0 0.1069871377
H  H6  1  0.59004000  0.48417000  0.68503000  1.0 0.1069871377
H  H7  1  0.09004000  0.98417000  0.31497000  1.0 0.1069871377
H  H8  1  0.90996000  0.01583000  0.68503000  1.0 0.1069871377
H  H9  1  0.61596000  0.96473000  0.38302000  1.0 0.1038183685
H  H10  1  0.38404000  0.03527000  0.61698000  1.0 0.1038183685
H  H11  1  0.88404000  0.53527000  0.38302000  1.0 0.1038183685
H  H12  1  0.11596000  0.46473000  0.61698000  1.0 0.1038183685
H  H13  1  0.53527000  0.61596000  0.38302000  1.0 0.1038183685
H  H14  1  0.46473000  0.38404000  0.61698000  1.0 0.1038183685
H  H15  1  0.96473000  0.88404000  0.38302000  1.0 0.1038183685
H  H16  1  0.03527000  0.11596000  0.61698000  1.0 0.1038183685
C  C1  1  0.44743000  0.91414000  0.26538000  1.0 0.281140678
C  C2  1  0.55257000  0.08586000  0.73462000  1.0 0.281140678
C  C3  1  0.05257000  0.58586000  0.26538000  1.0 0.281140678
C  C4  1  0.94743000  0.41414000  0.73462000  1.0 0.281140678
C  C5  1  0.58586000  0.44743000  0.26538000  1.0 0.281140678
C  C6  1  0.41414000  0.55257000  0.73462000  1.0 0.281140678
C  C7  1  0.91414000  0.05257000  0.26538000  1.0 0.281140678
C  C8  1  0.08586000  0.94743000  0.73462000  1.0 0.281140678
C  C9  1  0.52040000  0.99675000  0.38267000  1.0 -0.1723964881
C  C10  1  0.47960000  0.00325000  0.61733000  1.0 -0.1723964881
C  C11  1  0.97960000  0.50325000  0.38267000  1.0 -0.1723964881
C  C12  1  0.02040000  0.49675000  0.61733000  1.0 -0.1723964881
C  C13  1  0.50325000  0.52040000  0.38267000  1.0 -0.1723964881
C  C14  1  0.49675000  0.47960000  0.61733000  1.0 -0.1723964881
C  C15  1  0.99675000  0.97960000  0.38267000  1.0 -0.1723964881
C  C16  1  0.00325000  0.02040000  0.61733000  1.0 -0.1723964881
N  N1  1  0.38601000  0.85329000  0.15710000  1.0 -0.4533428919
N  N2  1  0.61399000  0.14671000  0.84290000  1.0 -0.4533428919
N  N3  1  0.11399000  0.64671000  0.15710000  1.0 -0.4533428919
N  N4  1  0.88601000  0.35329000  0.84290000  1.0 -0.4533428919
N  N5  1  0.64671000  0.38601000  0.15710000  1.0 -0.4533428919
N  N6  1  0.35329000  0.61399000  0.84290000  1.0 -0.4533428919
N  N7  1  0.85329000  0.11399000  0.15710000  1.0 -0.4533428919
N  N8  1  0.14671000  0.88601000  0.84290000  1.0 -0.4533428919
