# DDEC6 charges by PACMAN v1.1 (https://github.com/mtap-research/PACMAN-charge/)
data_VABLUG_ASR_pacman
_symmetry_space_group_name_H-M   'P 1'
_cell_length_a   10.92000000
_cell_length_b   12.84200000
_cell_length_c   13.27900000
_cell_angle_alpha   90.00000000
_cell_angle_beta   90.00000000
_cell_angle_gamma   90.00000000
_symmetry_Int_Tables_number   1
_chemical_formula_structural   AgH16(C3N)4
_chemical_formula_sum   'Ag4 H64 C48 N16'
_cell_volume   1862.17578456
_cell_formula_units_Z   4
loop_
 _symmetry_equiv_pos_site_id
 _symmetry_equiv_pos_as_xyz
  1  'x, y, z'
loop_
 _atom_site_type_symbol
 _atom_site_label
 _atom_site_symmetry_multiplicity
 _atom_site_fract_x
 _atom_site_fract_y
 _atom_site_fract_z
 _atom_site_occupancy
 _atom_site_charge
Ag  Ag1  1  0.75019000  0.25000000  0.25000000  1.0 0.5278978374
Ag  Ag2  1  0.24981000  0.75000000  0.75000000  1.0 0.5278978374
Ag  Ag3  1  0.74981000  0.25000000  0.75000000  1.0 0.5278978374
Ag  Ag4  1  0.25019000  0.75000000  0.25000000  1.0 0.5278978374
H  H1  1  0.47201000  0.58826000  0.16428000  1.0 0.1020944569
H  H2  1  0.52799000  0.41174000  0.83572000  1.0 0.1020944569
H  H3  1  0.02799000  0.58826000  0.83572000  1.0 0.1020944569
H  H4  1  0.97201000  0.41174000  0.16428000  1.0 0.1020944569
H  H5  1  0.02799000  0.91174000  0.66428000  1.0 0.1020944569
H  H6  1  0.97201000  0.08826000  0.33572000  1.0 0.1020944569
H  H7  1  0.47201000  0.91174000  0.33572000  1.0 0.1020944569
H  H8  1  0.52799000  0.08826000  0.66428000  1.0 0.1020944569
H  H9  1  0.37029000  0.48214000  0.18490000  1.0 0.1020944569
H  H10  1  0.62971000  0.51786000  0.81510000  1.0 0.1020944569
H  H11  1  0.12971000  0.48214000  0.81510000  1.0 0.1020944569
H  H12  1  0.87029000  0.51786000  0.18490000  1.0 0.1020944569
H  H13  1  0.12971000  0.01786000  0.68490000  1.0 0.1020944569
H  H14  1  0.87029000  0.98214000  0.31510000  1.0 0.1055532198
H  H15  1  0.37029000  0.01786000  0.31510000  1.0 0.1020944569
H  H16  1  0.62971000  0.98214000  0.68490000  1.0 0.1020944569
H  H17  1  0.40792000  0.40822000  0.01536000  1.0 0.0704155181
H  H18  1  0.59208000  0.59178000  0.98464000  1.0 0.0704155181
H  H19  1  0.09208000  0.40822000  0.98464000  1.0 0.0704155181
H  H20  1  0.90792000  0.59178000  0.01536000  1.0 0.0704155181
H  H21  1  0.09208000  0.09178000  0.51536000  1.0 0.0704155181
H  H22  1  0.90792000  0.90822000  0.48464000  1.0 0.0704155181
H  H23  1  0.40792000  0.09178000  0.48464000  1.0 0.0704155181
H  H24  1  0.59208000  0.90822000  0.51536000  1.0 0.0704155181
H  H25  1  0.36648000  0.54111000  0.00557000  1.0 0.087216134
H  H26  1  0.63352000  0.45889000  0.99443000  1.0 0.087216134
H  H27  1  0.13352000  0.54111000  0.99443000  1.0 0.087216134
H  H28  1  0.86648000  0.45889000  0.00557000  1.0 0.087216134
H  H29  1  0.13352000  0.95889000  0.50557000  1.0 0.087216134
H  H30  1  0.86648000  0.04111000  0.49443000  1.0 0.087216134
H  H31  1  0.36648000  0.95889000  0.49443000  1.0 0.087216134
H  H32  1  0.63352000  0.04111000  0.50557000  1.0 0.087216134
H  H33  1  0.09646000  0.29616000  0.51483000  1.0 0.087216134
H  H34  1  0.90354000  0.70384000  0.48517000  1.0 0.087216134
H  H35  1  0.40354000  0.29616000  0.48517000  1.0 0.087216134
H  H36  1  0.59646000  0.70384000  0.51483000  1.0 0.087216134
H  H37  1  0.40354000  0.20384000  0.01483000  1.0 0.087216134
H  H38  1  0.59646000  0.79616000  0.98517000  1.0 0.087216134
H  H39  1  0.09646000  0.20384000  0.98517000  1.0 0.087216134
H  H40  1  0.90354000  0.79616000  0.01483000  1.0 0.087216134
H  H41  1  0.97816000  0.34336000  0.59734000  1.0 0.1020944569
H  H42  1  0.02184000  0.65664000  0.40266000  1.0 0.1020944569
H  H43  1  0.52184000  0.34336000  0.40266000  1.0 0.1020944569
H  H44  1  0.47816000  0.65664000  0.59734000  1.0 0.1020944569
H  H45  1  0.52184000  0.15664000  0.09734000  1.0 0.1020944569
H  H46  1  0.47816000  0.84336000  0.90266000  1.0 0.1020944569
H  H47  1  0.97816000  0.15664000  0.90266000  1.0 0.1020944569
H  H48  1  0.02184000  0.84336000  0.09734000  1.0 0.1020944569
H  H49  1  0.09381000  0.46466000  0.41890000  1.0 0.0704155181
H  H50  1  0.90619000  0.53534000  0.58110000  1.0 0.0704155181
H  H51  1  0.40619000  0.46466000  0.58110000  1.0 0.0704155181
H  H52  1  0.59381000  0.53534000  0.41890000  1.0 0.0704155181
H  H53  1  0.40619000  0.03534000  0.91890000  1.0 0.0704155181
H  H54  1  0.59381000  0.96466000  0.08110000  1.0 0.0704155181
H  H55  1  0.09381000  0.03534000  0.08110000  1.0 0.0704155181
H  H56  1  0.90619000  0.96466000  0.91890000  1.0 0.0704155181
H  H57  1  0.12807000  0.48365000  0.54845000  1.0 0.0762408476
H  H58  1  0.87193000  0.51635000  0.45155000  1.0 0.0762408476
H  H59  1  0.37193000  0.48365000  0.45155000  1.0 0.0762408476
H  H60  1  0.62807000  0.51635000  0.54845000  1.0 0.0762408476
H  H61  1  0.37193000  0.01635000  0.04845000  1.0 0.0762408476
H  H62  1  0.62807000  0.98365000  0.95155000  1.0 0.0762408476
H  H63  1  0.12807000  0.01635000  0.95155000  1.0 0.0762408476
H  H64  1  0.87193000  0.98365000  0.04845000  1.0 0.0762408476
C  C1  1  0.55332000  0.44085000  0.18542000  1.0 0.3142342146
C  C2  1  0.44668000  0.55915000  0.81458000  1.0 0.3142342146
C  C3  1  0.94668000  0.44085000  0.81458000  1.0 0.3142342146
C  C4  1  0.05332000  0.55915000  0.18542000  1.0 0.3142342146
C  C5  1  0.94668000  0.05915000  0.68542000  1.0 0.3142342146
C  C6  1  0.05332000  0.94085000  0.31458000  1.0 0.3142342146
C  C7  1  0.55332000  0.05915000  0.31458000  1.0 0.3142342146
C  C8  1  0.44668000  0.94085000  0.68542000  1.0 0.3142342146
C  C9  1  0.45582000  0.50456000  0.14454000  1.0 -0.2010985792
C  C10  1  0.54418000  0.49544000  0.85546000  1.0 -0.2010985792
C  C11  1  0.04418000  0.50456000  0.85546000  1.0 -0.2010985792
C  C12  1  0.95582000  0.49544000  0.14454000  1.0 -0.2010985792
C  C13  1  0.04418000  0.99544000  0.64454000  1.0 -0.2010985792
C  C14  1  0.95582000  0.00456000  0.35546000  1.0 -0.2010985792
C  C15  1  0.45582000  0.99544000  0.35546000  1.0 -0.2010985792
C  C16  1  0.54418000  0.00456000  0.64454000  1.0 -0.2010985792
C  C17  1  0.44124000  0.48867000  0.03000000  1.0 -0.1496714188
C  C18  1  0.55876000  0.51133000  0.97000000  1.0 -0.1496714188
C  C19  1  0.05876000  0.48867000  0.97000000  1.0 -0.1496714188
C  C20  1  0.94124000  0.51133000  0.03000000  1.0 -0.1496714188
C  C21  1  0.05876000  0.01133000  0.53000000  1.0 -0.1496714188
C  C22  1  0.94124000  0.98867000  0.47000000  1.0 -0.1496714188
C  C23  1  0.44124000  0.01133000  0.47000000  1.0 -0.1496714188
C  C24  1  0.55876000  0.98867000  0.53000000  1.0 -0.1496714188
C  C25  1  0.92295000  0.31266000  0.44912000  1.0 0.3226648819
C  C26  1  0.07705000  0.68734000  0.55088000  1.0 0.3226648819
C  C27  1  0.57705000  0.31266000  0.55088000  1.0 0.3226648819
C  C28  1  0.42295000  0.68734000  0.44912000  1.0 0.3226648819
C  C29  1  0.57705000  0.18734000  0.94912000  1.0 0.3226648819
C  C30  1  0.42295000  0.81266000  0.05088000  1.0 0.3226648819
C  C31  1  0.92295000  0.18734000  0.05088000  1.0 0.3226648819
C  C32  1  0.07705000  0.81266000  0.94912000  1.0 0.3226648819
C  C33  1  0.01496000  0.34961000  0.51957000  1.0 -0.2010985792
C  C34  1  0.98504000  0.65039000  0.48043000  1.0 -0.2010985792
C  C35  1  0.48504000  0.34961000  0.48043000  1.0 -0.2010985792
C  C36  1  0.51496000  0.65039000  0.51957000  1.0 -0.2010985792
C  C37  1  0.48504000  0.15039000  0.01957000  1.0 -0.2010985792
C  C38  1  0.51496000  0.84961000  0.98043000  1.0 -0.2010985792
C  C39  1  0.01496000  0.15039000  0.98043000  1.0 -0.2010985792
C  C40  1  0.98504000  0.84961000  0.01957000  1.0 -0.2010985792
C  C41  1  0.05359000  0.46190000  0.49556000  1.0 -0.1496714188
C  C42  1  0.94641000  0.53810000  0.50444000  1.0 -0.1496714188
C  C43  1  0.44641000  0.46190000  0.50444000  1.0 -0.1496714188
C  C44  1  0.55359000  0.53810000  0.49556000  1.0 -0.1496714188
C  C45  1  0.44641000  0.03810000  0.99556000  1.0 -0.1496714188
C  C46  1  0.55359000  0.96190000  0.00444000  1.0 -0.1496714188
C  C47  1  0.05359000  0.03810000  0.00444000  1.0 -0.1496714188
C  C48  1  0.94641000  0.96190000  0.99556000  1.0 -0.1496714188
N  N1  1  0.63101000  0.38878000  0.21822000  1.0 -0.4487639435
N  N2  1  0.36899000  0.61122000  0.78178000  1.0 -0.4487639435
N  N3  1  0.86899000  0.38878000  0.78178000  1.0 -0.4487639435
N  N4  1  0.13101000  0.61122000  0.21822000  1.0 -0.4487639435
N  N5  1  0.86899000  0.11122000  0.71822000  1.0 -0.4487639435
N  N6  1  0.13101000  0.88878000  0.28178000  1.0 -0.4487639435
N  N7  1  0.63101000  0.11122000  0.28178000  1.0 -0.4487639435
N  N8  1  0.36899000  0.88878000  0.71822000  1.0 -0.4487639435
N  N9  1  0.85467000  0.27766000  0.39006000  1.0 -0.4487639435
N  N10  1  0.14533000  0.72234000  0.60994000  1.0 -0.4487639435
N  N11  1  0.64533000  0.27766000  0.60994000  1.0 -0.4487639435
N  N12  1  0.35467000  0.72234000  0.39006000  1.0 -0.4487639435
N  N13  1  0.64533000  0.22234000  0.89006000  1.0 -0.4487639435
N  N14  1  0.35467000  0.77766000  0.10994000  1.0 -0.4487639435
N  N15  1  0.85467000  0.22234000  0.10994000  1.0 -0.4487639435
N  N16  1  0.14533000  0.77766000  0.89006000  1.0 -0.4487639435
