# DDEC6 charges by PACMAN v1.1 (https://github.com/mtap-research/PACMAN-charge/)
data_VABMER_FSR_pacman
_symmetry_space_group_name_H-M   'P 1'
_cell_length_a   11.19500000
_cell_length_b   12.75700000
_cell_length_c   13.50800000
_cell_angle_alpha   90.00000000
_cell_angle_beta   90.00000000
_cell_angle_gamma   90.00000000
_symmetry_Int_Tables_number   1
_chemical_formula_structural   AgH24(C4N)4
_chemical_formula_sum   'Ag4 H96 C64 N16'
_cell_volume   1929.13981942
_cell_formula_units_Z   4
loop_
 _symmetry_equiv_pos_site_id
 _symmetry_equiv_pos_as_xyz
  1  'x, y, z'
loop_
 _atom_site_type_symbol
 _atom_site_label
 _atom_site_symmetry_multiplicity
 _atom_site_fract_x
 _atom_site_fract_y
 _atom_site_fract_z
 _atom_site_occupancy
 _atom_site_charge
Ag  Ag1  1  0.25139000  0.75000000  0.75000000  1.0 0.4761520172
Ag  Ag2  1  0.74861000  0.25000000  0.25000000  1.0 0.4761520172
Ag  Ag3  1  0.75139000  0.25000000  0.75000000  1.0 0.4761520172
Ag  Ag4  1  0.24861000  0.75000000  0.25000000  1.0 0.4761520172
H  H1  1  0.97980000  0.07850000  0.68240000  1.0 0.0999034601
H  H2  1  0.97980000  0.42150000  0.81760000  1.0 0.0999034601
H  H3  1  0.02020000  0.92150000  0.31760000  1.0 0.0999034601
H  H4  1  0.02020000  0.57850000  0.18240000  1.0 0.0999034601
H  H5  1  0.89950000  0.98550000  0.64560000  1.0 0.0999034601
H  H6  1  0.89950000  0.51450000  0.85440000  1.0 0.0999034601
H  H7  1  0.10050000  0.01450000  0.35440000  1.0 0.0999034601
H  H8  1  0.10050000  0.48550000  0.14560000  1.0 0.0999034601
H  H9  1  0.90860000  0.93140000  0.52850000  1.0 0.060078405
H  H10  1  0.90860000  0.56860000  0.97150000  1.0 0.060078405
H  H11  1  0.09140000  0.06860000  0.47150000  1.0 0.060078405
H  H12  1  0.09140000  0.43140000  0.02850000  1.0 0.060078405
H  H13  1  0.89140000  0.05220000  0.51460000  1.0 0.0697032523
H  H14  1  0.89140000  0.44780000  0.98540000  1.0 0.0697032523
H  H15  1  0.10860000  0.94780000  0.48540000  1.0 0.0697032523
H  H16  1  0.10860000  0.55220000  0.01460000  1.0 0.0697032523
H  H17  1  0.54890000  0.80250000  0.03540000  1.0 0.0999034601
H  H18  1  0.54890000  0.69750000  0.46460000  1.0 0.0999034601
H  H19  1  0.45110000  0.19750000  0.96460000  1.0 0.0999034601
H  H20  1  0.45110000  0.30250000  0.53540000  1.0 0.0999034601
H  H21  1  0.43840000  0.85510000  0.08580000  1.0 0.0999034601
H  H22  1  0.43840000  0.64490000  0.41420000  1.0 0.0999034601
H  H23  1  0.56160000  0.14490000  0.91420000  1.0 0.0999034601
H  H24  1  0.56160000  0.35510000  0.58580000  1.0 0.0999034601
H  H25  1  0.38700000  0.98840000  0.04600000  1.0 0.060078405
H  H26  1  0.38700000  0.51160000  0.45400000  1.0 0.060078405
H  H27  1  0.61300000  0.01160000  0.95400000  1.0 0.060078405
H  H28  1  0.61300000  0.48840000  0.54600000  1.0 0.060078405
H  H29  1  0.50850000  0.99140000  0.10440000  1.0 0.0697032523
H  H30  1  0.50850000  0.50860000  0.39560000  1.0 0.0697032523
H  H31  1  0.49150000  0.00860000  0.89560000  1.0 0.0697032523
H  H32  1  0.49150000  0.49140000  0.60440000  1.0 0.0697032523
H  H33  1  0.95110000  0.10030000  0.51460000  1.0 0.0697032523
H  H34  1  0.95110000  0.39970000  0.98540000  1.0 0.0697032523
H  H35  1  0.04890000  0.89970000  0.48540000  1.0 0.0697032523
H  H36  1  0.04890000  0.60030000  0.01460000  1.0 0.0697032523
H  H37  1  0.08610000  0.07300000  0.53130000  1.0 0.0697032523
H  H38  1  0.08610000  0.42700000  0.96870000  1.0 0.0697032523
H  H39  1  0.91390000  0.92700000  0.46870000  1.0 0.0697032523
H  H40  1  0.91390000  0.57300000  0.03130000  1.0 0.0697032523
H  H41  1  0.60820000  0.95520000  0.96730000  1.0 0.060078405
H  H42  1  0.60820000  0.54480000  0.53270000  1.0 0.060078405
H  H43  1  0.39180000  0.04480000  0.03270000  1.0 0.060078405
H  H44  1  0.39180000  0.45520000  0.46730000  1.0 0.060078405
H  H45  1  0.57940000  0.97960000  0.07870000  1.0 0.0697032523
H  H46  1  0.57940000  0.52040000  0.42130000  1.0 0.0697032523
H  H47  1  0.42060000  0.02040000  0.92130000  1.0 0.0697032523
H  H48  1  0.42060000  0.47960000  0.57870000  1.0 0.0697032523
H  H49  1  0.47980000  0.57850000  0.81760000  1.0 0.0999034601
H  H50  1  0.52020000  0.07850000  0.31760000  1.0 0.0999034601
H  H51  1  0.52020000  0.42150000  0.18240000  1.0 0.0999034601
H  H52  1  0.47980000  0.92150000  0.68240000  1.0 0.0999034601
H  H53  1  0.39950000  0.48550000  0.85440000  1.0 0.0999034601
H  H54  1  0.60050000  0.98550000  0.35440000  1.0 0.0999034601
H  H55  1  0.60050000  0.51450000  0.14560000  1.0 0.0999034601
H  H56  1  0.39950000  0.01450000  0.64560000  1.0 0.0999034601
H  H57  1  0.40860000  0.43140000  0.97150000  1.0 0.060078405
H  H58  1  0.59140000  0.93140000  0.47150000  1.0 0.060078405
H  H59  1  0.59140000  0.56860000  0.02850000  1.0 0.060078405
H  H60  1  0.40860000  0.06860000  0.52850000  1.0 0.060078405
H  H61  1  0.39140000  0.55220000  0.98540000  1.0 0.0697032523
H  H62  1  0.60860000  0.05220000  0.48540000  1.0 0.0697032523
H  H63  1  0.60860000  0.44780000  0.01460000  1.0 0.0697032523
H  H64  1  0.39140000  0.94780000  0.51460000  1.0 0.0697032523
H  H65  1  0.04890000  0.30250000  0.46460000  1.0 0.0999034601
H  H66  1  0.95110000  0.80250000  0.96460000  1.0 0.0999034601
H  H67  1  0.95110000  0.69750000  0.53540000  1.0 0.0999034601
H  H68  1  0.04890000  0.19750000  0.03540000  1.0 0.0999034601
H  H69  1  0.93840000  0.35510000  0.41420000  1.0 0.0999034601
H  H70  1  0.06160000  0.85510000  0.91420000  1.0 0.0999034601
H  H71  1  0.06160000  0.64490000  0.58580000  1.0 0.0999034601
H  H72  1  0.93840000  0.14490000  0.08580000  1.0 0.0999034601
H  H73  1  0.88700000  0.48840000  0.45400000  1.0 0.060078405
H  H74  1  0.11300000  0.98840000  0.95400000  1.0 0.060078405
H  H75  1  0.11300000  0.51160000  0.54600000  1.0 0.060078405
H  H76  1  0.88700000  0.01160000  0.04600000  1.0 0.060078405
H  H77  1  0.00850000  0.49140000  0.39560000  1.0 0.0697032523
H  H78  1  0.99150000  0.99140000  0.89560000  1.0 0.0697032523
H  H79  1  0.99150000  0.50860000  0.60440000  1.0 0.0697032523
H  H80  1  0.00850000  0.00860000  0.10440000  1.0 0.0697032523
H  H81  1  0.45110000  0.60030000  0.98540000  1.0 0.0697032523
H  H82  1  0.54890000  0.10030000  0.48540000  1.0 0.0697032523
H  H83  1  0.54890000  0.39970000  0.01460000  1.0 0.0697032523
H  H84  1  0.45110000  0.89970000  0.51460000  1.0 0.0697032523
H  H85  1  0.58610000  0.57300000  0.96870000  1.0 0.0697032523
H  H86  1  0.41390000  0.07300000  0.46870000  1.0 0.0697032523
H  H87  1  0.41390000  0.42700000  0.03130000  1.0 0.0697032523
H  H88  1  0.58610000  0.92700000  0.53130000  1.0 0.0697032523
H  H89  1  0.10820000  0.45520000  0.53270000  1.0 0.060078405
H  H90  1  0.89180000  0.95520000  0.03270000  1.0 0.060078405
H  H91  1  0.89180000  0.54480000  0.46730000  1.0 0.060078405
H  H92  1  0.10820000  0.04480000  0.96730000  1.0 0.060078405
H  H93  1  0.07940000  0.47960000  0.42130000  1.0 0.0697032523
H  H94  1  0.92060000  0.97960000  0.92130000  1.0 0.0697032523
H  H95  1  0.92060000  0.52040000  0.57870000  1.0 0.0697032523
H  H96  1  0.07940000  0.02040000  0.07870000  1.0 0.0697032523
C  C1  1  0.06450000  0.94270000  0.67820000  1.0 0.060078405
C  C2  1  0.06450000  0.55730000  0.82180000  1.0 0.060078405
C  C3  1  0.93550000  0.05730000  0.32180000  1.0 0.060078405
C  C4  1  0.93550000  0.44270000  0.17820000  1.0 0.060078405
C  C5  1  0.97870000  0.01600000  0.64160000  1.0 -0.1422897843
C  C6  1  0.97870000  0.48400000  0.85840000  1.0 -0.1422897843
C  C7  1  0.02130000  0.98400000  0.35840000  1.0 -0.1422897843
C  C8  1  0.02130000  0.51600000  0.14160000  1.0 -0.1422897843
C  C9  1  0.94810000  0.99880000  0.53480000  1.0 -0.0790301125
C  C10  1  0.94810000  0.50120000  0.96520000  1.0 -0.0790301125
C  C11  1  0.05190000  0.00120000  0.46520000  1.0 -0.0790301125
C  C12  1  0.05190000  0.49880000  0.03480000  1.0 -0.0790301125
C  C13  1  0.41290000  0.82050000  0.94650000  1.0 0.0463242402
C  C14  1  0.41290000  0.67950000  0.55350000  1.0 0.0463242402
C  C15  1  0.58710000  0.17950000  0.05350000  1.0 0.0463242402
C  C16  1  0.58710000  0.32050000  0.44650000  1.0 0.0463242402
C  C17  1  0.48650000  0.85440000  0.02600000  1.0 -0.1422897843
C  C18  1  0.48650000  0.64560000  0.47400000  1.0 -0.1422897843
C  C19  1  0.51350000  0.14560000  0.97400000  1.0 -0.1422897843
C  C20  1  0.51350000  0.35440000  0.52600000  1.0 -0.1422897843
C  C21  1  0.47130000  0.97110000  0.04250000  1.0 -0.0790301125
C  C22  1  0.47130000  0.52890000  0.45750000  1.0 -0.0790301125
C  C23  1  0.52870000  0.02890000  0.95750000  1.0 -0.0790301125
C  C24  1  0.52870000  0.47110000  0.54250000  1.0 -0.0790301125
C  C25  1  0.00600000  0.04530000  0.53510000  1.0 -0.0790301125
C  C26  1  0.00600000  0.45470000  0.96490000  1.0 -0.0790301125
C  C27  1  0.99400000  0.95470000  0.46490000  1.0 -0.0744471406
C  C28  1  0.99400000  0.54530000  0.03510000  1.0 -0.0744471406
C  C29  1  0.54450000  0.95930000  0.01580000  1.0 -0.0790301125
C  C30  1  0.54450000  0.54070000  0.48420000  1.0 -0.0790301125
C  C31  1  0.45550000  0.04070000  0.98420000  1.0 -0.0790301125
C  C32  1  0.45550000  0.45930000  0.51580000  1.0 -0.0790301125
C  C33  1  0.56450000  0.44270000  0.82180000  1.0 0.060078405
C  C34  1  0.43550000  0.94270000  0.32180000  1.0 0.060078405
C  C35  1  0.43550000  0.55730000  0.17820000  1.0 0.060078405
C  C36  1  0.56450000  0.05730000  0.67820000  1.0 0.060078405
C  C37  1  0.47870000  0.51600000  0.85840000  1.0 -0.1422897843
C  C38  1  0.52130000  0.01600000  0.35840000  1.0 -0.1422897843
C  C39  1  0.52130000  0.48400000  0.14160000  1.0 -0.1422897843
C  C40  1  0.47870000  0.98400000  0.64160000  1.0 -0.1422897843
C  C41  1  0.44810000  0.49880000  0.96520000  1.0 -0.0790301125
C  C42  1  0.55190000  0.99880000  0.46520000  1.0 -0.0790301125
C  C43  1  0.55190000  0.50120000  0.03480000  1.0 -0.0790301125
C  C44  1  0.44810000  0.00120000  0.53480000  1.0 -0.0790301125
C  C45  1  0.91290000  0.32050000  0.55350000  1.0 0.0463242402
C  C46  1  0.08710000  0.82050000  0.05350000  1.0 0.044912144
C  C47  1  0.08710000  0.67950000  0.44650000  1.0 0.044912144
C  C48  1  0.91290000  0.17950000  0.94650000  1.0 0.0463242402
C  C49  1  0.98650000  0.35440000  0.47400000  1.0 -0.1422897843
C  C50  1  0.01350000  0.85440000  0.97400000  1.0 -0.1422897843
C  C51  1  0.01350000  0.64560000  0.52600000  1.0 -0.1422897843
C  C52  1  0.98650000  0.14560000  0.02600000  1.0 -0.1422897843
C  C53  1  0.97130000  0.47110000  0.45750000  1.0 -0.0790301125
C  C54  1  0.02870000  0.97110000  0.95750000  1.0 -0.0790301125
C  C55  1  0.02870000  0.52890000  0.54250000  1.0 -0.0790301125
C  C56  1  0.97130000  0.02890000  0.04250000  1.0 -0.0790301125
C  C57  1  0.50600000  0.54530000  0.96490000  1.0 -0.0790301125
C  C58  1  0.49400000  0.04530000  0.46490000  1.0 -0.0744471406
C  C59  1  0.49400000  0.45470000  0.03510000  1.0 -0.0744471406
C  C60  1  0.50600000  0.95470000  0.53510000  1.0 -0.0790301125
C  C61  1  0.04450000  0.45930000  0.48420000  1.0 -0.0790301125
C  C62  1  0.95550000  0.95930000  0.98420000  1.0 -0.0790301125
C  C63  1  0.95550000  0.54070000  0.51580000  1.0 -0.0790301125
C  C64  1  0.04450000  0.04070000  0.01580000  1.0 -0.0790301125
N  N1  1  0.13540000  0.88620000  0.70490000  1.0 -0.3536125129
N  N2  1  0.13540000  0.61380000  0.79510000  1.0 -0.3536125129
N  N3  1  0.86460000  0.11380000  0.29510000  1.0 -0.3536125129
N  N4  1  0.86460000  0.38620000  0.20490000  1.0 -0.3536125129
N  N5  1  0.35490000  0.79370000  0.88480000  1.0 -0.3204699015
N  N6  1  0.35490000  0.70630000  0.61520000  1.0 -0.3204699015
N  N7  1  0.64510000  0.20630000  0.11520000  1.0 -0.3204699015
N  N8  1  0.64510000  0.29370000  0.38480000  1.0 -0.3204699015
N  N9  1  0.63540000  0.38620000  0.79510000  1.0 -0.3536125129
N  N10  1  0.36460000  0.88620000  0.29510000  1.0 -0.3536125129
N  N11  1  0.36460000  0.61380000  0.20490000  1.0 -0.3536125129
N  N12  1  0.63540000  0.11380000  0.70490000  1.0 -0.3536125129
N  N13  1  0.85490000  0.29370000  0.61520000  1.0 -0.3204699015
N  N14  1  0.14510000  0.79370000  0.11520000  1.0 -0.3204699015
N  N15  1  0.14510000  0.70630000  0.38480000  1.0 -0.3204699015
N  N16  1  0.85490000  0.20630000  0.88480000  1.0 -0.3204699015
