# DDEC6 charges by PACMAN v1.1 (https://github.com/mtap-research/PACMAN-charge/)
data_VABMAN_ASR_pacman
_symmetry_space_group_name_H-M   'P 1'
_cell_length_a   11.13600000
_cell_length_b   12.85200000
_cell_length_c   13.45900000
_cell_angle_alpha   90.00000000
_cell_angle_beta   90.00000000
_cell_angle_gamma   90.00000000
_symmetry_Int_Tables_number   1
_chemical_formula_structural   AgH16(C3N)4
_chemical_formula_sum   'Ag4 H64 C48 N16'
_cell_volume   1926.25035725
_cell_formula_units_Z   4
loop_
 _symmetry_equiv_pos_site_id
 _symmetry_equiv_pos_as_xyz
  1  'x, y, z'
loop_
 _atom_site_type_symbol
 _atom_site_label
 _atom_site_symmetry_multiplicity
 _atom_site_fract_x
 _atom_site_fract_y
 _atom_site_fract_z
 _atom_site_occupancy
 _atom_site_charge
Ag  Ag1  1  0.74619000  0.25000000  0.25000000  1.0 0.528118932
Ag  Ag2  1  0.25381000  0.75000000  0.75000000  1.0 0.528118932
Ag  Ag3  1  0.75381000  0.25000000  0.75000000  1.0 0.528118932
Ag  Ag4  1  0.24619000  0.75000000  0.25000000  1.0 0.528118932
H  H1  1  0.47015000  0.58734000  0.16842000  1.0 0.1063061891
H  H2  1  0.52985000  0.41266000  0.83158000  1.0 0.1063061891
H  H3  1  0.02985000  0.58734000  0.83158000  1.0 0.1063061891
H  H4  1  0.97015000  0.41266000  0.16842000  1.0 0.1063061891
H  H5  1  0.02985000  0.91266000  0.66842000  1.0 0.1063061891
H  H6  1  0.97015000  0.08734000  0.33158000  1.0 0.1063061891
H  H7  1  0.47015000  0.91266000  0.33158000  1.0 0.1063061891
H  H8  1  0.52985000  0.08734000  0.66842000  1.0 0.1063061891
H  H9  1  0.37798000  0.47590000  0.18482000  1.0 0.1063061891
H  H10  1  0.62202000  0.52410000  0.81518000  1.0 0.1063061891
H  H11  1  0.12202000  0.47590000  0.81518000  1.0 0.1063061891
H  H12  1  0.87798000  0.52410000  0.18482000  1.0 0.1063061891
H  H13  1  0.12202000  0.02410000  0.68482000  1.0 0.1063061891
H  H14  1  0.87798000  0.97590000  0.31518000  1.0 0.1063061891
H  H15  1  0.37798000  0.02410000  0.31518000  1.0 0.1063061891
H  H16  1  0.62202000  0.97590000  0.68482000  1.0 0.1063061891
H  H17  1  0.40515000  0.41245000  0.01936000  1.0 0.0645003155
H  H18  1  0.59485000  0.58755000  0.98064000  1.0 0.0645003155
H  H19  1  0.09485000  0.41245000  0.98064000  1.0 0.0645003155
H  H20  1  0.90515000  0.58755000  0.01936000  1.0 0.0645003155
H  H21  1  0.09485000  0.08755000  0.51936000  1.0 0.0645003155
H  H22  1  0.90515000  0.91245000  0.48064000  1.0 0.0645003155
H  H23  1  0.40515000  0.08755000  0.48064000  1.0 0.0645003155
H  H24  1  0.59485000  0.91245000  0.51936000  1.0 0.0645003155
H  H25  1  0.37231000  0.54753000  0.00860000  1.0 0.0785504394
H  H26  1  0.62769000  0.45247000  0.99140000  1.0 0.0785504394
H  H27  1  0.12769000  0.54753000  0.99140000  1.0 0.0785504394
H  H28  1  0.87231000  0.45247000  0.00860000  1.0 0.0785504394
H  H29  1  0.12769000  0.95247000  0.50860000  1.0 0.0785504394
H  H30  1  0.87231000  0.04753000  0.49140000  1.0 0.0785504394
H  H31  1  0.37231000  0.95247000  0.49140000  1.0 0.0785504394
H  H32  1  0.62769000  0.04753000  0.50860000  1.0 0.0785504394
H  H33  1  0.07577000  0.31671000  0.52864000  1.0 0.0984911559
H  H34  1  0.92423000  0.68329000  0.47136000  1.0 0.0984911559
H  H35  1  0.42423000  0.31671000  0.47136000  1.0 0.0984911559
H  H36  1  0.57577000  0.68329000  0.52864000  1.0 0.0984911559
H  H37  1  0.42423000  0.18329000  0.02864000  1.0 0.0984911559
H  H38  1  0.57577000  0.81671000  0.97136000  1.0 0.0984911559
H  H39  1  0.07577000  0.18329000  0.97136000  1.0 0.0984911559
H  H40  1  0.92423000  0.81671000  0.02864000  1.0 0.0984911559
H  H41  1  0.94412000  0.31210000  0.60233000  1.0 0.0984911559
H  H42  1  0.05588000  0.68790000  0.39767000  1.0 0.0984911559
H  H43  1  0.55588000  0.31210000  0.39767000  1.0 0.0984911559
H  H44  1  0.44412000  0.68790000  0.60233000  1.0 0.0984911559
H  H45  1  0.55588000  0.18790000  0.10233000  1.0 0.0984911559
H  H46  1  0.44412000  0.81210000  0.89767000  1.0 0.0984911559
H  H47  1  0.94412000  0.18790000  0.89767000  1.0 0.0984911559
H  H48  1  0.05588000  0.81210000  0.10233000  1.0 0.0984911559
H  H49  1  0.04274000  0.48781000  0.60933000  1.0 0.0785504394
H  H50  1  0.95726000  0.51219000  0.39067000  1.0 0.0785504394
H  H51  1  0.45726000  0.48781000  0.39067000  1.0 0.0785504394
H  H52  1  0.54274000  0.51219000  0.60933000  1.0 0.0785504394
H  H53  1  0.45726000  0.01219000  0.10933000  1.0 0.0785504394
H  H54  1  0.54274000  0.98781000  0.89067000  1.0 0.0785504394
H  H55  1  0.04274000  0.01219000  0.89067000  1.0 0.0785504394
H  H56  1  0.95726000  0.98781000  0.10933000  1.0 0.0785504394
H  H57  1  0.88911000  0.49084000  0.57071000  1.0 0.0785504394
H  H58  1  0.11089000  0.50916000  0.42929000  1.0 0.0785504394
H  H59  1  0.61089000  0.49084000  0.42929000  1.0 0.0785504394
H  H60  1  0.38911000  0.50916000  0.57071000  1.0 0.0785504394
H  H61  1  0.61089000  0.00916000  0.07071000  1.0 0.0785504394
H  H62  1  0.38911000  0.99084000  0.92929000  1.0 0.0785504394
H  H63  1  0.88911000  0.00916000  0.92929000  1.0 0.0785504394
H  H64  1  0.11089000  0.99084000  0.07071000  1.0 0.0785504394
C  C1  1  0.55959000  0.44469000  0.18196000  1.0 0.3195704011
C  C2  1  0.44041000  0.55531000  0.81804000  1.0 0.3195704011
C  C3  1  0.94041000  0.44469000  0.81804000  1.0 0.3195704011
C  C4  1  0.05959000  0.55531000  0.18196000  1.0 0.3195704011
C  C5  1  0.94041000  0.05531000  0.68196000  1.0 0.3195704011
C  C6  1  0.05959000  0.94469000  0.31804000  1.0 0.3195704011
C  C7  1  0.55959000  0.05531000  0.31804000  1.0 0.3195704011
C  C8  1  0.44041000  0.94469000  0.68196000  1.0 0.3195704011
C  C9  1  0.45928000  0.50491000  0.14487000  1.0 -0.2054162758
C  C10  1  0.54072000  0.49509000  0.85513000  1.0 -0.2054162758
C  C11  1  0.04072000  0.50491000  0.85513000  1.0 -0.2054162758
C  C12  1  0.95928000  0.49509000  0.14487000  1.0 -0.2054162758
C  C13  1  0.04072000  0.99509000  0.64487000  1.0 -0.2054162758
C  C14  1  0.95928000  0.00491000  0.35513000  1.0 -0.2054162758
C  C15  1  0.45928000  0.99509000  0.35513000  1.0 -0.2054162758
C  C16  1  0.54072000  0.00491000  0.64487000  1.0 -0.2054162758
C  C17  1  0.44286000  0.49161000  0.03122000  1.0 -0.1465103576
C  C18  1  0.55714000  0.50839000  0.96878000  1.0 -0.1465103576
C  C19  1  0.05714000  0.49161000  0.96878000  1.0 -0.1465103576
C  C20  1  0.94286000  0.50839000  0.03122000  1.0 -0.1465103576
C  C21  1  0.05714000  0.00839000  0.53122000  1.0 -0.1465103576
C  C22  1  0.94286000  0.99161000  0.46878000  1.0 -0.1465103576
C  C23  1  0.44286000  0.00839000  0.46878000  1.0 -0.1465103576
C  C24  1  0.55714000  0.99161000  0.53122000  1.0 -0.1465103576
C  C25  1  0.91312000  0.31564000  0.45111000  1.0 0.3195704011
C  C26  1  0.08688000  0.68436000  0.54889000  1.0 0.3195704011
C  C27  1  0.58688000  0.31564000  0.54889000  1.0 0.3195704011
C  C28  1  0.41312000  0.68436000  0.45111000  1.0 0.3195704011
C  C29  1  0.58688000  0.18436000  0.95111000  1.0 0.3195704011
C  C30  1  0.41312000  0.81564000  0.04889000  1.0 0.3195704011
C  C31  1  0.91312000  0.18436000  0.04889000  1.0 0.3195704011
C  C32  1  0.08688000  0.81564000  0.95111000  1.0 0.3195704011
C  C33  1  0.98341000  0.34972000  0.53527000  1.0 -0.2028262677
C  C34  1  0.01659000  0.65028000  0.46473000  1.0 -0.2028262677
C  C35  1  0.51659000  0.34972000  0.46473000  1.0 -0.2028262677
C  C36  1  0.48341000  0.65028000  0.53527000  1.0 -0.2028262677
C  C37  1  0.51659000  0.15028000  0.03527000  1.0 -0.2028262677
C  C38  1  0.48341000  0.84972000  0.96473000  1.0 -0.2028262677
C  C39  1  0.98341000  0.15028000  0.96473000  1.0 -0.2028262677
C  C40  1  0.01659000  0.84972000  0.03527000  1.0 -0.2028262677
C  C41  1  0.98135000  0.46948000  0.54673000  1.0 -0.1465103576
C  C42  1  0.01865000  0.53052000  0.45327000  1.0 -0.1465103576
C  C43  1  0.51865000  0.46948000  0.45327000  1.0 -0.1465103576
C  C44  1  0.48135000  0.53052000  0.54673000  1.0 -0.1465103576
C  C45  1  0.51865000  0.03052000  0.04673000  1.0 -0.1465103576
C  C46  1  0.48135000  0.96948000  0.95327000  1.0 -0.1465103576
C  C47  1  0.98135000  0.03052000  0.95327000  1.0 -0.1465103576
C  C48  1  0.01865000  0.96948000  0.04673000  1.0 -0.1465103576
N  N1  1  0.63545000  0.38857000  0.21050000  1.0 -0.4578994574
N  N2  1  0.36455000  0.61143000  0.78950000  1.0 -0.4578994574
N  N3  1  0.86455000  0.38857000  0.78950000  1.0 -0.4578994574
N  N4  1  0.13545000  0.61143000  0.21050000  1.0 -0.4578994574
N  N5  1  0.86455000  0.11143000  0.71050000  1.0 -0.4578994574
N  N6  1  0.13545000  0.88857000  0.28950000  1.0 -0.4578994574
N  N7  1  0.63545000  0.11143000  0.28950000  1.0 -0.4578994574
N  N8  1  0.36455000  0.88857000  0.71050000  1.0 -0.4578994574
N  N9  1  0.85545000  0.29080000  0.38230000  1.0 -0.4537838759
N  N10  1  0.14455000  0.70920000  0.61770000  1.0 -0.4537838759
N  N11  1  0.64455000  0.29080000  0.61770000  1.0 -0.4537838759
N  N12  1  0.35545000  0.70920000  0.38230000  1.0 -0.4537838759
N  N13  1  0.64455000  0.20920000  0.88230000  1.0 -0.4537838759
N  N14  1  0.35545000  0.79080000  0.11770000  1.0 -0.4537838759
N  N15  1  0.85545000  0.20920000  0.11770000  1.0 -0.4537838759
N  N16  1  0.14455000  0.79080000  0.88230000  1.0 -0.4537838759
