# DDEC6 charges by PACMAN v1.1 (https://github.com/mtap-research/PACMAN-charge/)
data_VABNAR_ASR_pacman
_symmetry_space_group_name_H-M   'P 1'
_cell_length_a   13.61180000
_cell_length_b   13.61180000
_cell_length_c   13.61180000
_cell_angle_alpha   113.15200000
_cell_angle_beta   113.15200000
_cell_angle_gamma   113.15200000
_symmetry_Int_Tables_number   1
_chemical_formula_structural   CuH6C12(N3O2)2
_chemical_formula_sum   'Cu3 H18 C36 N18 O12'
_cell_volume   1624.08732827
_cell_formula_units_Z   3
loop_
 _symmetry_equiv_pos_site_id
 _symmetry_equiv_pos_as_xyz
  1  'x, y, z'
loop_
 _atom_site_type_symbol
 _atom_site_label
 _atom_site_symmetry_multiplicity
 _atom_site_fract_x
 _atom_site_fract_y
 _atom_site_fract_z
 _atom_site_occupancy
 _atom_site_charge
Cu  Cu1  1  0.50000000  0.00000000  0.00000000  1.0 0.7845862485
Cu  Cu2  1  0.00000000  0.00000000  0.50000000  1.0 0.7845862485
Cu  Cu3  1  0.00000000  0.50000000  0.00000000  1.0 0.7845862485
H  H1  1  0.16400000  0.67930000  0.52580000  1.0 0.1378255923
H  H2  1  0.75090000  0.41430000  0.00030000  1.0 0.118520659
H  H3  1  0.10460000  0.51780000  0.27060000  1.0 0.1378255923
H  H4  1  0.67930000  0.52580000  0.16400000  1.0 0.1378255923
H  H5  1  0.41430000  0.00030000  0.75090000  1.0 0.118520659
H  H6  1  0.51780000  0.27060000  0.10460000  1.0 0.1378255923
H  H7  1  0.52580000  0.16400000  0.67930000  1.0 0.1378255923
H  H8  1  0.00030000  0.75090000  0.41430000  1.0 0.118520659
H  H9  1  0.27060000  0.10460000  0.51780000  1.0 0.1378255923
H  H10  1  0.83600000  0.32070000  0.47420000  1.0 0.1378255923
H  H11  1  0.24910000  0.58570000  0.99970000  1.0 0.118520659
H  H12  1  0.89540000  0.48220000  0.72940000  1.0 0.1378255923
H  H13  1  0.32070000  0.47420000  0.83600000  1.0 0.1378255923
H  H14  1  0.58570000  0.99970000  0.24910000  1.0 0.118520659
H  H15  1  0.48220000  0.72940000  0.89540000  1.0 0.1378255923
H  H16  1  0.47420000  0.83600000  0.32070000  1.0 0.1378255923
H  H17  1  0.99970000  0.24910000  0.58570000  1.0 0.118520659
H  H18  1  0.72940000  0.89540000  0.48220000  1.0 0.1378255923
C  C1  1  0.74580000  0.23300000  0.22030000  1.0 0.5521050867
C  C2  1  0.87320000  0.37460000  0.36470000  1.0 -0.0390749286
C  C3  1  0.97230000  0.48450000  0.38460000  1.0 0.118520659
C  C4  1  0.09780000  0.60750000  0.51650000  1.0 -0.1990192506
C  C5  1  0.82340000  0.43630000  0.07950000  1.0 0.1632383791
C  C6  1  0.01440000  0.49170000  0.22310000  1.0 0.118520659
C  C7  1  0.23300000  0.22030000  0.74580000  1.0 0.5521050867
C  C8  1  0.37460000  0.36470000  0.87320000  1.0 -0.0390749286
C  C9  1  0.48450000  0.38460000  0.97230000  1.0 0.118520659
C  C10  1  0.60750000  0.51650000  0.09780000  1.0 -0.1990192506
C  C11  1  0.43630000  0.07950000  0.82340000  1.0 0.1632383791
C  C12  1  0.49170000  0.22310000  0.01440000  1.0 0.118520659
C  C13  1  0.22030000  0.74580000  0.23300000  1.0 0.5521050867
C  C14  1  0.36470000  0.87320000  0.37460000  1.0 -0.0390749286
C  C15  1  0.38460000  0.97230000  0.48450000  1.0 0.118520659
C  C16  1  0.51650000  0.09780000  0.60750000  1.0 -0.1990192506
C  C17  1  0.07950000  0.82340000  0.43630000  1.0 0.1632383791
C  C18  1  0.22310000  0.01440000  0.49170000  1.0 0.118520659
C  C19  1  0.25420000  0.76700000  0.77970000  1.0 0.5521050867
C  C20  1  0.12680000  0.62540000  0.63530000  1.0 -0.0390749286
C  C21  1  0.02770000  0.51550000  0.61540000  1.0 0.118520659
C  C22  1  0.90220000  0.39250000  0.48350000  1.0 -0.1990192506
C  C23  1  0.17660000  0.56370000  0.92050000  1.0 0.1632383791
C  C24  1  0.98560000  0.50830000  0.77690000  1.0 0.118520659
C  C25  1  0.76700000  0.77970000  0.25420000  1.0 0.5521050867
C  C26  1  0.62540000  0.63530000  0.12680000  1.0 -0.0390749286
C  C27  1  0.51550000  0.61540000  0.02770000  1.0 0.118520659
C  C28  1  0.39250000  0.48350000  0.90220000  1.0 -0.1990192506
C  C29  1  0.56370000  0.92050000  0.17660000  1.0 0.1632383791
C  C30  1  0.50830000  0.77690000  0.98560000  1.0 0.118520659
C  C31  1  0.77970000  0.25420000  0.76700000  1.0 0.5521050867
C  C32  1  0.63530000  0.12680000  0.62540000  1.0 -0.0390749286
C  C33  1  0.61540000  0.02770000  0.51550000  1.0 0.118520659
C  C34  1  0.48350000  0.90220000  0.39250000  1.0 -0.1990192506
C  C35  1  0.92050000  0.17660000  0.56370000  1.0 0.1632383791
C  C36  1  0.77690000  0.98560000  0.50830000  1.0 0.118520659
N  N1  1  0.93950000  0.47270000  0.26450000  1.0 0.1343620794
N  N2  1  0.81620000  0.43840000  0.17370000  1.0 -0.2462906787
N  N3  1  0.94210000  0.46810000  0.10450000  1.0 -0.3133734289
N  N4  1  0.47270000  0.26450000  0.93950000  1.0 0.1343620794
N  N5  1  0.43840000  0.17370000  0.81620000  1.0 -0.2462906787
N  N6  1  0.46810000  0.10450000  0.94210000  1.0 -0.3133734289
N  N7  1  0.26450000  0.93950000  0.47270000  1.0 0.1343620794
N  N8  1  0.17370000  0.81620000  0.43840000  1.0 -0.2462906787
N  N9  1  0.10450000  0.94210000  0.46810000  1.0 -0.3133734289
N  N10  1  0.06050000  0.52730000  0.73550000  1.0 0.1343620794
N  N11  1  0.18380000  0.56160000  0.82630000  1.0 -0.2462906787
N  N12  1  0.05790000  0.53190000  0.89550000  1.0 -0.3133734289
N  N13  1  0.52730000  0.73550000  0.06050000  1.0 0.1343620794
N  N14  1  0.56160000  0.82630000  0.18380000  1.0 -0.2462906787
N  N15  1  0.53190000  0.89550000  0.05790000  1.0 -0.3133734289
N  N16  1  0.73550000  0.06050000  0.52730000  1.0 0.1343620794
N  N17  1  0.82630000  0.18380000  0.56160000  1.0 -0.2462906787
N  N18  1  0.89550000  0.05790000  0.53190000  1.0 -0.3133734289
O  O1  1  0.63410000  0.17260000  0.20160000  1.0 -0.5283300701
O  O2  1  0.75810000  0.18420000  0.13260000  1.0 -0.5471234742
O  O3  1  0.17260000  0.20160000  0.63410000  1.0 -0.5283300701
O  O4  1  0.18420000  0.13260000  0.75810000  1.0 -0.5471234742
O  O5  1  0.20160000  0.63410000  0.17260000  1.0 -0.5283300701
O  O6  1  0.13260000  0.75810000  0.18420000  1.0 -0.5471234742
O  O7  1  0.36590000  0.82740000  0.79840000  1.0 -0.5283300701
O  O8  1  0.24190000  0.81580000  0.86740000  1.0 -0.5471234742
O  O9  1  0.82740000  0.79840000  0.36590000  1.0 -0.5283300701
O  O10  1  0.81580000  0.86740000  0.24190000  1.0 -0.5471234742
O  O11  1  0.79840000  0.36590000  0.82740000  1.0 -0.5283300701
O  O12  1  0.86740000  0.24190000  0.81580000  1.0 -0.5471234742
