# DDEC6 charges by PACMAN v1.1 (https://github.com/mtap-research/PACMAN-charge/)
data_VACFUB_FSR_pacman
_symmetry_space_group_name_H-M   'P 1'
_cell_length_a   15.52600000
_cell_length_b   15.52600000
_cell_length_c   6.25800000
_cell_angle_alpha   90.00000000
_cell_angle_beta   90.00000000
_cell_angle_gamma   120.00000000
_symmetry_Int_Tables_number   1
_chemical_formula_structural   ZnC12(NO2)2
_chemical_formula_sum   'Zn3 C36 N6 O12'
_cell_volume   1306.42762194
_cell_formula_units_Z   3
loop_
 _symmetry_equiv_pos_site_id
 _symmetry_equiv_pos_as_xyz
  1  'x, y, z'
loop_
 _atom_site_type_symbol
 _atom_site_label
 _atom_site_symmetry_multiplicity
 _atom_site_fract_x
 _atom_site_fract_y
 _atom_site_fract_z
 _atom_site_occupancy
 _atom_site_charge
Zn  Zn1  1  0.83327000  0.16661000  0.04845000  1.0 0.8061878256
Zn  Zn2  1  0.83339000  0.66666667  0.38178000  1.0 0.8061878256
Zn  Zn3  1  0.33333333  0.16673000  0.71512000  1.0 0.8061878256
C  C1  1  0.01880000  0.20770000  0.14990000  1.0 0.5960637204
C  C2  1  0.79230000  0.81110000  0.48323000  1.0 0.5960637204
C  C3  1  0.18890000  0.98120000  0.81657000  1.0 0.5960637204
C  C4  1  0.64830000  0.12600000  0.15130000  1.0 0.5960637204
C  C5  1  0.87400000  0.52230000  0.48463000  1.0 0.5960637204
C  C6  1  0.47770000  0.35170000  0.81797000  1.0 0.5960637204
C  C7  1  0.09750000  0.20470000  0.29210000  1.0 0.0523519575
C  C8  1  0.79530000  0.89280000  0.62543000  1.0 0.0523519575
C  C9  1  0.10720000  0.90250000  0.95877000  1.0 0.0523519575
C  C10  1  0.14730000  0.15820000  0.60950000  1.0 0.2217313148
C  C11  1  0.84180000  0.98910000  0.94283000  1.0 0.2217313148
C  C12  1  0.01090000  0.85270000  0.27617000  1.0 0.2217313148
C  C13  1  0.56910000  0.12750000  0.29070000  1.0 0.0523519575
C  C14  1  0.87250000  0.44160000  0.62403000  1.0 0.0523519575
C  C15  1  0.55840000  0.43090000  0.95737000  1.0 0.0523519575
C  C16  1  0.47220000  0.09190000  0.21200000  1.0 -0.0795270989
C  C17  1  0.90810000  0.38030000  0.54533000  1.0 -0.0795270989
C  C18  1  0.61970000  0.52780000  0.87867000  1.0 -0.0795270989
C  C19  1  0.07210000  0.16350000  0.49240000  1.0 -0.068679076
C  C20  1  0.83650000  0.90860000  0.82573000  1.0 -0.068679076
C  C21  1  0.09140000  0.92790000  0.15907000  1.0 -0.068679076
C  C22  1  0.59340000  0.16930000  0.49220000  1.0 -0.0634182061
C  C23  1  0.83070000  0.42410000  0.82553000  1.0 -0.0634182061
C  C24  1  0.57590000  0.40660000  0.15887000  1.0 -0.0634182061
C  C25  1  0.19430000  0.24090000  0.21260000  1.0 -0.0795270989
C  C26  1  0.75910000  0.95340000  0.54593000  1.0 -0.0795270989
C  C27  1  0.04660000  0.80570000  0.87927000  1.0 -0.0795270989
C  C28  1  0.51980000  0.17400000  0.61040000  1.0 0.2217313148
C  C29  1  0.82600000  0.34580000  0.94373000  1.0 0.2217313148
C  C30  1  0.65420000  0.48020000  0.27707000  1.0 0.2217313148
C  C31  1  0.26330000  0.23200000  0.34050000  1.0 0.1896514468
C  C32  1  0.76800000  0.03130000  0.67383000  1.0 0.1896514468
C  C33  1  0.96870000  0.73670000  0.00717000  1.0 0.1896514468
C  C34  1  0.40540000  0.10210000  0.33920000  1.0 0.1806714358
C  C35  1  0.89790000  0.30330000  0.67253000  1.0 0.1806714358
C  C36  1  0.69670000  0.59460000  0.00587000  1.0 0.1806714358
N  N1  1  0.23820000  0.19100000  0.53540000  1.0 -0.1860801903
N  N2  1  0.80900000  0.04720000  0.86873000  1.0 -0.1860801903
N  N3  1  0.95280000  0.76180000  0.20207000  1.0 -0.1860801903
N  N4  1  0.42780000  0.14190000  0.53500000  1.0 -0.1835848518
N  N5  1  0.85810000  0.28590000  0.86833000  1.0 -0.1835848518
N  N6  1  0.71410000  0.57220000  0.20167000  1.0 -0.1835848518
O  O1  1  0.72880000  0.14800000  0.24810000  1.0 -0.5621458121
O  O2  1  0.85200000  0.58080000  0.58143000  1.0 -0.5621458121
O  O3  1  0.41920000  0.27120000  0.91477000  1.0 -0.5621458121
O  O4  1  0.93850000  0.18630000  0.24850000  1.0 -0.5621458121
O  O5  1  0.81370000  0.75220000  0.58183000  1.0 -0.5621458121
O  O6  1  0.24780000  0.06150000  0.91517000  1.0 -0.5621458121
O  O7  1  0.63190000  0.10780000  0.96000000  1.0 -0.5695507355
O  O8  1  0.89220000  0.52410000  0.29333000  1.0 -0.5695507355
O  O9  1  0.47590000  0.36810000  0.62667000  1.0 -0.5695507355
O  O10  1  0.03440000  0.22500000  0.95980000  1.0 -0.5621458121
O  O11  1  0.77500000  0.80940000  0.29313000  1.0 -0.5621458121
O  O12  1  0.19060000  0.96560000  0.62647000  1.0 -0.5621458121
