# DDEC6 charges by PACMAN v1.1 (https://github.com/mtap-research/PACMAN-charge/)
data_VAHSIH_ASR_pacman
_symmetry_space_group_name_H-M   'P 1'
_cell_length_a   10.37380000
_cell_length_b   14.80600000
_cell_length_c   13.44940000
_cell_angle_alpha   90.00000000
_cell_angle_beta   90.27500000
_cell_angle_gamma   90.00000000
_symmetry_Int_Tables_number   1
_chemical_formula_structural   Al4P4O16F
_chemical_formula_sum   'Al16 P16 O64 F4'
_cell_volume   2065.72984295
_cell_formula_units_Z   4
loop_
 _symmetry_equiv_pos_site_id
 _symmetry_equiv_pos_as_xyz
  1  'x, y, z'
loop_
 _atom_site_type_symbol
 _atom_site_label
 _atom_site_symmetry_multiplicity
 _atom_site_fract_x
 _atom_site_fract_y
 _atom_site_fract_z
 _atom_site_occupancy
 _atom_site_charge
Al  Al1  1  0.76500000  0.10556000  0.34495000  1.0 1.7874933171
Al  Al2  1  0.23500000  0.89444000  0.65505000  1.0 1.7874933171
Al  Al3  1  0.73500000  0.60556000  0.15505000  1.0 1.7874933171
Al  Al4  1  0.26500000  0.39444000  0.84495000  1.0 1.7874933171
Al  Al5  1  0.77068000  0.89824000  0.61464000  1.0 1.7371412802
Al  Al6  1  0.22932000  0.10176000  0.38536000  1.0 1.7371412802
Al  Al7  1  0.72932000  0.39824000  0.88536000  1.0 1.7371412802
Al  Al8  1  0.27068000  0.60176000  0.11464000  1.0 1.7371412802
Al  Al9  1  0.49185000  0.89655000  0.27104000  1.0 1.7185253191
Al  Al10  1  0.50815000  0.10345000  0.72896000  1.0 1.7185253191
Al  Al11  1  0.00815000  0.39655000  0.22896000  1.0 1.7185253191
Al  Al12  1  0.99185000  0.60345000  0.77104000  1.0 1.7185253191
Al  Al13  1  0.99784000  0.23356000  0.61645000  1.0 1.7281599331
Al  Al14  1  0.00216000  0.76644000  0.38355000  1.0 1.7281599331
Al  Al15  1  0.50216000  0.73356000  0.88355000  1.0 1.7281599331
Al  Al16  1  0.49784000  0.26644000  0.11645000  1.0 1.7281599331
P  P1  1  0.76671000  0.89347000  0.37924000  1.0 1.532617842
P  P2  1  0.23329000  0.10653000  0.62076000  1.0 1.5357989259
P  P3  1  0.73329000  0.39347000  0.12076000  1.0 1.5357989259
P  P4  1  0.26671000  0.60653000  0.87924000  1.0 1.5357989259
P  P5  1  0.75875000  0.10833000  0.59838000  1.0 1.532617842
P  P6  1  0.24125000  0.89167000  0.40162000  1.0 1.532617842
P  P7  1  0.74125000  0.60833000  0.90162000  1.0 1.532617842
P  P8  1  0.25875000  0.39167000  0.09838000  1.0 1.532617842
P  P9  1  0.48543000  0.10567000  0.26430000  1.0 1.5108941526
P  P10  1  0.51457000  0.89433000  0.73570000  1.0 1.5108941526
P  P11  1  0.01457000  0.60567000  0.23570000  1.0 1.5170554507
P  P12  1  0.98543000  0.39433000  0.76430000  1.0 1.5108941526
P  P13  1  0.00005000  0.23582000  0.37809000  1.0 1.5108941526
P  P14  1  0.99995000  0.76418000  0.62191000  1.0 1.5108941526
P  P15  1  0.49995000  0.73582000  0.12191000  1.0 1.5108941526
P  P16  1  0.50005000  0.26418000  0.87809000  1.0 1.5108941526
O  O1  1  0.85445000  0.17662000  0.64293000  1.0 -0.7918459711
O  O2  1  0.14555000  0.82338000  0.35707000  1.0 -0.7952538145
O  O3  1  0.64555000  0.67662000  0.85707000  1.0 -0.7918459711
O  O4  1  0.35445000  0.32338000  0.14293000  1.0 -0.7918459711
O  O5  1  0.80525000  0.01318000  0.62893000  1.0 -0.8180915129
O  O6  1  0.19475000  0.98682000  0.37107000  1.0 -0.8180915129
O  O7  1  0.69475000  0.51318000  0.87107000  1.0 -0.8180915129
O  O8  1  0.30525000  0.48682000  0.12893000  1.0 -0.8180915129
O  O9  1  0.75506000  0.11559000  0.48531000  1.0 -0.7306353462
O  O10  1  0.24494000  0.88441000  0.51469000  1.0 -0.7306353462
O  O11  1  0.74494000  0.61559000  0.01469000  1.0 -0.7306353462
O  O12  1  0.25506000  0.38441000  0.98531000  1.0 -0.7306353462
O  O13  1  0.59537000  0.12268000  0.33806000  1.0 -0.7792328608
O  O14  1  0.40463000  0.87732000  0.66194000  1.0 -0.7792328608
O  O15  1  0.90463000  0.62268000  0.16194000  1.0 -0.7792328608
O  O16  1  0.09537000  0.37732000  0.83806000  1.0 -0.7792328608
O  O17  1  0.49914000  0.16166000  0.16979000  1.0 -0.7306353462
O  O18  1  0.50086000  0.83834000  0.83021000  1.0 -0.7306353462
O  O19  1  0.00086000  0.66166000  0.33021000  1.0 -0.7306353462
O  O20  1  0.99914000  0.33834000  0.66979000  1.0 -0.7306353462
O  O21  1  0.47751000  0.00681000  0.23067000  1.0 -0.8084635796
O  O22  1  0.52249000  0.99319000  0.76933000  1.0 -0.8084635796
O  O23  1  0.02249000  0.50681000  0.26933000  1.0 -0.8084635796
O  O24  1  0.97751000  0.49319000  0.73067000  1.0 -0.8084635796
O  O25  1  0.35998000  0.13405000  0.31622000  1.0 -0.7688647123
O  O26  1  0.64002000  0.86595000  0.68378000  1.0 -0.764965595
O  O27  1  0.14002000  0.63405000  0.18378000  1.0 -0.7688647123
O  O28  1  0.85998000  0.36595000  0.81622000  1.0 -0.764965595
O  O29  1  0.09672000  0.16322000  0.34518000  1.0 -0.7792328608
O  O30  1  0.90328000  0.83678000  0.65482000  1.0 -0.7792328608
O  O31  1  0.40328000  0.66322000  0.15482000  1.0 -0.7792328608
O  O32  1  0.59672000  0.33678000  0.84518000  1.0 -0.7792328608
O  O33  1  0.00921000  0.25048000  0.49028000  1.0 -0.8084635796
O  O34  1  0.99079000  0.74952000  0.50972000  1.0 -0.8084635796
O  O35  1  0.49079000  0.75048000  0.00972000  1.0 -0.8084635796
O  O36  1  0.50921000  0.24952000  0.99028000  1.0 -0.8084635796
O  O37  1  0.03278000  0.32543000  0.32884000  1.0 -0.7441035521
O  O38  1  0.96722000  0.67457000  0.67116000  1.0 -0.7441035521
O  O39  1  0.46722000  0.82543000  0.17116000  1.0 -0.7441035521
O  O40  1  0.53278000  0.17457000  0.82884000  1.0 -0.7441035521
O  O41  1  0.86313000  0.20573000  0.35079000  1.0 -0.7688647123
O  O42  1  0.13687000  0.79427000  0.64921000  1.0 -0.7688647123
O  O43  1  0.63687000  0.70573000  0.14921000  1.0 -0.7688647123
O  O44  1  0.36313000  0.29427000  0.85079000  1.0 -0.7688647123
O  O45  1  0.73698000  0.87677000  0.48991000  1.0 -0.8084635796
O  O46  1  0.26302000  0.12323000  0.51009000  1.0 -0.8084635796
O  O47  1  0.76302000  0.37677000  0.01009000  1.0 -0.8084635796
O  O48  1  0.23698000  0.62323000  0.98991000  1.0 -0.8084635796
O  O49  1  0.81848000  0.99043000  0.36935000  1.0 -0.7918459711
O  O50  1  0.18152000  0.00957000  0.63065000  1.0 -0.7918459711
O  O51  1  0.68152000  0.49043000  0.13065000  1.0 -0.7918459711
O  O52  1  0.31848000  0.50957000  0.86935000  1.0 -0.7918459711
O  O53  1  0.86953000  0.82786000  0.34150000  1.0 -0.7792328608
O  O54  1  0.13047000  0.17214000  0.65850000  1.0 -0.7792328608
O  O55  1  0.63047000  0.32786000  0.15850000  1.0 -0.7792328608
O  O56  1  0.36953000  0.67214000  0.84150000  1.0 -0.7792328608
O  O57  1  0.64413000  0.87739000  0.31951000  1.0 -0.7792328608
O  O58  1  0.35587000  0.12261000  0.68049000  1.0 -0.7792328608
O  O59  1  0.85587000  0.37739000  0.18049000  1.0 -0.7792328608
O  O60  1  0.14413000  0.62261000  0.81951000  1.0 -0.7792328608
O  O61  1  0.62434000  0.12728000  0.63969000  1.0 -0.7952538145
O  O62  1  0.37566000  0.87272000  0.36031000  1.0 -0.7952538145
O  O63  1  0.87566000  0.62728000  0.86031000  1.0 -0.7918459711
O  O64  1  0.12434000  0.37272000  0.13969000  1.0 -0.7952538145
F  F1  1  0.79050000  0.09270000  0.21910000  1.0 -0.5817564142
F  F2  1  0.20950000  0.90730000  0.78090000  1.0 -0.5817564142
F  F3  1  0.70950000  0.59270000  0.28090000  1.0 -0.5817564142
F  F4  1  0.29050000  0.40730000  0.71910000  1.0 -0.5817564142
