# DDEC6 charges by PACMAN v1.1 (https://github.com/mtap-research/PACMAN-charge/)
data_VAHVOR_ASR_pacman
_symmetry_space_group_name_H-M   'P 1'
_cell_length_a   15.98980000
_cell_length_b   15.98980000
_cell_length_c   13.47660000
_cell_angle_alpha   83.23360000
_cell_angle_beta   96.76640000
_cell_angle_gamma   126.43500000
_symmetry_Int_Tables_number   1
_chemical_formula_structural   DyH7C15(NO3)2
_chemical_formula_sum   'Dy4 H28 C60 N8 O24'
_cell_volume   2747.85307327
_cell_formula_units_Z   4
loop_
 _symmetry_equiv_pos_site_id
 _symmetry_equiv_pos_as_xyz
  1  'x, y, z'
loop_
 _atom_site_type_symbol
 _atom_site_label
 _atom_site_symmetry_multiplicity
 _atom_site_fract_x
 _atom_site_fract_y
 _atom_site_fract_z
 _atom_site_occupancy
 _atom_site_charge
Dy  Dy1  1  0.11015000  0.47671000  0.03673000  1.0 2.0415832804
Dy  Dy2  1  0.47671000  0.11015000  0.46327000  1.0 2.0415832804
Dy  Dy3  1  0.88985000  0.52329000  0.96327000  1.0 2.0415832804
Dy  Dy4  1  0.52329000  0.88985000  0.53673000  1.0 2.0415832804
H  H1  1  0.23110000  0.70190000  0.28340000  1.0 0.1290848808
H  H2  1  0.70190000  0.23110000  0.21660000  1.0 0.1290848808
H  H3  1  0.76890000  0.29810000  0.71660000  1.0 0.1290848808
H  H4  1  0.29810000  0.76890000  0.78340000  1.0 0.1290848808
H  H5  1  0.20000000  0.88800000  0.42430000  1.0 0.1421487239
H  H6  1  0.88800000  0.20000000  0.07570000  1.0 0.1421487239
H  H7  1  0.80000000  0.11200000  0.57570000  1.0 0.1421487239
H  H8  1  0.11200000  0.80000000  0.92430000  1.0 0.1421487239
H  H9  1  0.97410000  0.69050000  0.23060000  1.0 0.1290848808
H  H10  1  0.69050000  0.97410000  0.26940000  1.0 0.1290848808
H  H11  1  0.02590000  0.30950000  0.76940000  1.0 0.1290848808
H  H12  1  0.30950000  0.02590000  0.73060000  1.0 0.1290848808
H  H13  1  0.97620000  0.94560000  0.40830000  1.0 0.1109271752
H  H14  1  0.94560000  0.97620000  0.09170000  1.0 0.1109271752
H  H15  1  0.02380000  0.05440000  0.59170000  1.0 0.1109271752
H  H16  1  0.05440000  0.02380000  0.90830000  1.0 0.1109271752
H  H17  1  0.86330000  0.97690000  0.45790000  1.0 0.1206656651
H  H18  1  0.97690000  0.86330000  0.04210000  1.0 0.1206656651
H  H19  1  0.13670000  0.02310000  0.54210000  1.0 0.1206656651
H  H20  1  0.02310000  0.13670000  0.95790000  1.0 0.1206656651
H  H21  1  0.62060000  0.68640000  0.40320000  1.0 0.1206656651
H  H22  1  0.68640000  0.62060000  0.09680000  1.0 0.1206656651
H  H23  1  0.37940000  0.31360000  0.59680000  1.0 0.1206656651
H  H24  1  0.31360000  0.37940000  0.90320000  1.0 0.1206656651
H  H25  1  0.73330000  0.65990000  0.34340000  1.0 0.1206656651
H  H26  1  0.65990000  0.73330000  0.15660000  1.0 0.1206656651
H  H27  1  0.26670000  0.34010000  0.65660000  1.0 0.1206656651
H  H28  1  0.34010000  0.26670000  0.84340000  1.0 0.1206656651
C  C1  1  0.09790000  0.68650000  0.24070000  1.0 -0.0243988176
C  C2  1  0.68650000  0.09790000  0.25930000  1.0 -0.0243988176
C  C3  1  0.90210000  0.31350000  0.75930000  1.0 -0.0243988176
C  C4  1  0.31350000  0.90210000  0.74070000  1.0 -0.0243988176
C  C5  1  0.19300000  0.72660000  0.29340000  1.0 -0.0918783806
C  C6  1  0.72660000  0.19300000  0.20660000  1.0 -0.0918783806
C  C7  1  0.80700000  0.27340000  0.70660000  1.0 -0.0918783806
C  C8  1  0.27340000  0.80700000  0.79340000  1.0 -0.0918783806
C  C9  1  0.23250000  0.80310000  0.36090000  1.0 -0.0118906917
C  C10  1  0.80310000  0.23250000  0.13910000  1.0 -0.0118906917
C  C11  1  0.76750000  0.19690000  0.63910000  1.0 -0.0118906917
C  C12  1  0.19690000  0.76750000  0.86090000  1.0 -0.0118906917
C  C13  1  0.17410000  0.83710000  0.37880000  1.0 -0.1414595587
C  C14  1  0.83710000  0.17410000  0.12120000  1.0 -0.1414595587
C  C15  1  0.82590000  0.16290000  0.62120000  1.0 -0.1414595587
C  C16  1  0.16290000  0.82590000  0.87880000  1.0 -0.1414595587
C  C17  1  0.07990000  0.79730000  0.33090000  1.0 0.1421487239
C  C18  1  0.79730000  0.07990000  0.16910000  1.0 0.1421487239
C  C19  1  0.92010000  0.20270000  0.66910000  1.0 0.1421487239
C  C20  1  0.20270000  0.92010000  0.83090000  1.0 0.1421487239
C  C21  1  0.04000000  0.71960000  0.26190000  1.0 -0.1414595587
C  C22  1  0.71960000  0.04000000  0.23810000  1.0 -0.1414595587
C  C23  1  0.96000000  0.28040000  0.73810000  1.0 -0.1414595587
C  C24  1  0.28040000  0.96000000  0.76190000  1.0 -0.1414595587
C  C25  1  0.33740000  0.84360000  0.41600000  1.0 0.622430663
C  C26  1  0.84360000  0.33740000  0.08400000  1.0 0.622430663
C  C27  1  0.66260000  0.15640000  0.58400000  1.0 0.622430663
C  C28  1  0.15640000  0.66260000  0.91600000  1.0 0.622430663
C  C29  1  0.05680000  0.60700000  0.16530000  1.0 0.6439621257
C  C30  1  0.60700000  0.05680000  0.33470000  1.0 0.6439621257
C  C31  1  0.94320000  0.39300000  0.83470000  1.0 0.6439621257
C  C32  1  0.39300000  0.94320000  0.66530000  1.0 0.6439621257
C  C33  1  0.86520000  0.79600000  0.37570000  1.0 0.1421487239
C  C34  1  0.79600000  0.86520000  0.12430000  1.0 0.1421487239
C  C35  1  0.13480000  0.20400000  0.62430000  1.0 0.1421487239
C  C36  1  0.20400000  0.13480000  0.87570000  1.0 0.1421487239
C  C37  1  0.90490000  0.89310000  0.40740000  1.0 -0.1706446005
C  C38  1  0.89310000  0.90490000  0.09260000  1.0 -0.1706446005
C  C39  1  0.09510000  0.10690000  0.59260000  1.0 -0.1706446005
C  C40  1  0.10690000  0.09510000  0.90740000  1.0 -0.1706446005
C  C41  1  0.83700000  0.91120000  0.43820000  1.0 -0.0950468673
C  C42  1  0.91120000  0.83700000  0.06180000  1.0 -0.0950468673
C  C43  1  0.16300000  0.08880000  0.56180000  1.0 -0.0950468673
C  C44  1  0.08880000  0.16300000  0.93820000  1.0 -0.0950468673
C  C45  1  0.73290000  0.83470000  0.43980000  1.0 -0.0118906917
C  C46  1  0.83470000  0.73290000  0.06020000  1.0 -0.0118906917
C  C47  1  0.26710000  0.16530000  0.56020000  1.0 -0.0118906917
C  C48  1  0.16530000  0.26710000  0.93980000  1.0 -0.0118906917
C  C49  1  0.69190000  0.73870000  0.40440000  1.0 -0.0918783806
C  C50  1  0.73870000  0.69190000  0.09560000  1.0 -0.0918783806
C  C51  1  0.30810000  0.26130000  0.59560000  1.0 -0.0918783806
C  C52  1  0.26130000  0.30810000  0.90440000  1.0 -0.0918783806
C  C53  1  0.76040000  0.72280000  0.37050000  1.0 -0.1557249619
C  C54  1  0.72280000  0.76040000  0.12950000  1.0 -0.1557249619
C  C55  1  0.23960000  0.27720000  0.62950000  1.0 -0.1557249619
C  C56  1  0.27720000  0.23960000  0.87050000  1.0 -0.1557249619
C  C57  1  0.65860000  0.85220000  0.47860000  1.0 0.5503570841
C  C58  1  0.85220000  0.65860000  0.02140000  1.0 0.5503570841
C  C59  1  0.34140000  0.14780000  0.52140000  1.0 0.5503570841
C  C60  1  0.14780000  0.34140000  0.97860000  1.0 0.5503570841
N  N1  1  0.01950000  0.82950000  0.35850000  1.0 -0.0918783806
N  N2  1  0.82950000  0.01950000  0.14150000  1.0 -0.0918783806
N  N3  1  0.98050000  0.17050000  0.64150000  1.0 -0.0918783806
N  N4  1  0.17050000  0.98050000  0.85850000  1.0 -0.0918783806
N  N5  1  0.92530000  0.76610000  0.34510000  1.0 -0.1179963095
N  N6  1  0.76610000  0.92530000  0.15490000  1.0 -0.1179963095
N  N7  1  0.07470000  0.23390000  0.65490000  1.0 -0.1179963095
N  N8  1  0.23390000  0.07470000  0.84510000  1.0 -0.1179963095
O  O1  1  0.96840000  0.56960000  0.12500000  1.0 -0.6233720599
O  O2  1  0.56960000  0.96840000  0.37500000  1.0 -0.6233720599
O  O3  1  0.03160000  0.43040000  0.87500000  1.0 -0.6233720599
O  O4  1  0.43040000  0.03160000  0.62500000  1.0 -0.6233720599
O  O5  1  0.11561000  0.58259000  0.14890000  1.0 -0.6746109916
O  O6  1  0.58259000  0.11561000  0.35110000  1.0 -0.6746109916
O  O7  1  0.88439000  0.41741000  0.85110000  1.0 -0.6746109916
O  O8  1  0.41741000  0.88439000  0.64890000  1.0 -0.6746109916
O  O9  1  0.36708000  0.78732000  0.43360000  1.0 -0.5911940677
O  O10  1  0.78732000  0.36708000  0.06640000  1.0 -0.5911940677
O  O11  1  0.63292000  0.21268000  0.56640000  1.0 -0.5911940677
O  O12  1  0.21268000  0.63292000  0.93360000  1.0 -0.5911940677
O  O13  1  0.38988000  0.93452000  0.44670000  1.0 -0.752287407
O  O14  1  0.93452000  0.38988000  0.05330000  1.0 -0.752287407
O  O15  1  0.61012000  0.06548000  0.55330000  1.0 -0.752287407
O  O16  1  0.06548000  0.61012000  0.94670000  1.0 -0.752287407
O  O17  1  0.69830000  0.93610000  0.51670000  1.0 -0.6233720599
O  O18  1  0.93610000  0.69830000  0.98330000  1.0 -0.6233720599
O  O19  1  0.30170000  0.06390000  0.48330000  1.0 -0.6233720599
O  O20  1  0.06390000  0.30170000  0.01670000  1.0 -0.6233720599
O  O21  1  0.56460000  0.78580000  0.46800000  1.0 -0.6048894717
O  O22  1  0.78580000  0.56460000  0.03200000  1.0 -0.6048894717
O  O23  1  0.43540000  0.21420000  0.53200000  1.0 -0.6048894717
O  O24  1  0.21420000  0.43540000  0.96800000  1.0 -0.6048894717
