# DDEC6 charges by PACMAN v1.1 (https://github.com/mtap-research/PACMAN-charge/)
data_VAHVOQ_ASR_pacman
_symmetry_space_group_name_H-M   'P 1'
_cell_length_a   10.37900000
_cell_length_b   10.37900000
_cell_length_c   20.05890000
_cell_angle_alpha   75.95830000
_cell_angle_beta   104.04200000
_cell_angle_gamma   122.32200000
_symmetry_Int_Tables_number   1
_chemical_formula_structural   Fe3P3O13F3
_chemical_formula_sum   'Fe12 P12 O52 F12'
_cell_volume   1754.57055120
_cell_formula_units_Z   4
loop_
 _symmetry_equiv_pos_site_id
 _symmetry_equiv_pos_as_xyz
  1  'x, y, z'
loop_
 _atom_site_type_symbol
 _atom_site_label
 _atom_site_symmetry_multiplicity
 _atom_site_fract_x
 _atom_site_fract_y
 _atom_site_fract_z
 _atom_site_occupancy
 _atom_site_charge
Fe  Fe1  1  0.23490000  0.60970000  0.83880000  1.0 1.4154178994
Fe  Fe2  1  0.60970000  0.23490000  0.66120000  1.0 1.4154178994
Fe  Fe3  1  0.76510000  0.39030000  0.16120000  1.0 1.4154178994
Fe  Fe4  1  0.39030000  0.76510000  0.33880000  1.0 1.4154178994
Fe  Fe5  1  0.37430000  0.99570000  0.76000000  1.0 1.4319070178
Fe  Fe6  1  0.99570000  0.37430000  0.74000000  1.0 1.4319070178
Fe  Fe7  1  0.62570000  0.00430000  0.24000000  1.0 1.4319070178
Fe  Fe8  1  0.00430000  0.62570000  0.26000000  1.0 1.4319070178
Fe  Fe9  1  0.14640000  0.99500000  0.00220000  1.0 1.4319070178
Fe  Fe10  1  0.99500000  0.14640000  0.49780000  1.0 1.4319070178
Fe  Fe11  1  0.85360000  0.00500000  0.99780000  1.0 1.4319070178
Fe  Fe12  1  0.00500000  0.85360000  0.50220000  1.0 1.4319070178
P  P1  1  0.09370000  0.25170000  0.89310000  1.0 1.498713811
P  P2  1  0.25170000  0.09370000  0.60690000  1.0 1.498713811
P  P3  1  0.90630000  0.74830000  0.10690000  1.0 1.498713811
P  P4  1  0.74830000  0.90630000  0.39310000  1.0 1.498713811
P  P5  1  0.58790000  0.87050000  0.86800000  1.0 1.498713811
P  P6  1  0.87050000  0.58790000  0.63200000  1.0 1.498713811
P  P7  1  0.41210000  0.12950000  0.13200000  1.0 1.498713811
P  P8  1  0.12950000  0.41210000  0.36800000  1.0 1.498713811
P  P9  1  0.18230000  0.84970000  0.88540000  1.0 1.4790443974
P  P10  1  0.84970000  0.18230000  0.61460000  1.0 1.4790443974
P  P11  1  0.81770000  0.15030000  0.11460000  1.0 1.4790443974
P  P12  1  0.15030000  0.81770000  0.38540000  1.0 1.4790443974
O  O1  1  0.21090000  0.71450000  0.89900000  1.0 -0.6785522726
O  O2  1  0.71450000  0.21090000  0.60100000  1.0 -0.6785522726
O  O3  1  0.78910000  0.28550000  0.10100000  1.0 -0.6785522726
O  O4  1  0.28550000  0.78910000  0.39900000  1.0 -0.6785522726
O  O5  1  0.20380000  0.42360000  0.90030000  1.0 -0.6383174362
O  O6  1  0.42360000  0.20380000  0.59970000  1.0 -0.6383174362
O  O7  1  0.79620000  0.57640000  0.09970000  1.0 -0.6383174362
O  O8  1  0.57640000  0.79620000  0.40030000  1.0 -0.6383174362
O  O9  1  0.45840000  0.70480000  0.86120000  1.0 -0.6785522726
O  O10  1  0.70480000  0.45840000  0.63880000  1.0 -0.6785522726
O  O11  1  0.54160000  0.29520000  0.13880000  1.0 -0.6785522726
O  O12  1  0.29520000  0.54160000  0.36120000  1.0 -0.6785522726
O  O13  1  0.24970000  0.77610000  0.76110000  1.0 -0.4701331956
O  O14  1  0.77610000  0.24970000  0.73890000  1.0 -0.4701331956
O  O15  1  0.75030000  0.22390000  0.23890000  1.0 -0.4701331956
O  O16  1  0.22390000  0.75030000  0.26110000  1.0 -0.4701331956
O  O17  1  0.27820000  0.98840000  0.83410000  1.0 -0.6285300803
O  O18  1  0.98840000  0.27820000  0.66590000  1.0 -0.6285300803
O  O19  1  0.72180000  0.01160000  0.16590000  1.0 -0.6285300803
O  O20  1  0.01160000  0.72180000  0.33410000  1.0 -0.6285300803
O  O21  1  0.53760000  0.98580000  0.83190000  1.0 -0.6285300803
O  O22  1  0.98580000  0.53760000  0.66810000  1.0 -0.6285300803
O  O23  1  0.46240000  0.01420000  0.16810000  1.0 -0.6285300803
O  O24  1  0.01420000  0.46240000  0.33190000  1.0 -0.6285300803
O  O25  1  0.03630000  0.22990000  0.81570000  1.0 -0.6035638106
O  O26  1  0.22990000  0.03630000  0.68430000  1.0 -0.6035638106
O  O27  1  0.96370000  0.77010000  0.18430000  1.0 -0.6035638106
O  O28  1  0.77010000  0.96370000  0.31570000  1.0 -0.6035638106
O  O29  1  0.20700000  0.89800000  0.95460000  1.0 -0.6285300803
O  O30  1  0.89800000  0.20700000  0.54540000  1.0 -0.6285300803
O  O31  1  0.79300000  0.10200000  0.04540000  1.0 -0.6285300803
O  O32  1  0.10200000  0.79300000  0.45460000  1.0 -0.6285300803
O  O33  1  0.95250000  0.18630000  0.92920000  1.0 -0.6285300803
O  O34  1  0.18630000  0.95250000  0.57080000  1.0 -0.6285300803
O  O35  1  0.04750000  0.81370000  0.07080000  1.0 -0.6285300803
O  O36  1  0.81370000  0.04750000  0.42920000  1.0 -0.6285300803
O  O37  1  0.65070000  0.89250000  0.94400000  1.0 -0.6383174362
O  O38  1  0.89250000  0.65070000  0.55600000  1.0 -0.6383174362
O  O39  1  0.34930000  0.10750000  0.05600000  1.0 -0.6383174362
O  O40  1  0.10750000  0.34930000  0.44400000  1.0 -0.6383174362
O  O41  1  0.18940000  0.17140000  0.92520000  1.0 -0.6450538737
O  O42  1  0.17140000  0.18940000  0.57480000  1.0 -0.6450538737
O  O43  1  0.81060000  0.82860000  0.07480000  1.0 -0.6383174362
O  O44  1  0.82860000  0.81060000  0.42520000  1.0 -0.6450538737
O  O45  1  0.71710000  0.89290000  0.83030000  1.0 -0.4289278043
O  O46  1  0.89290000  0.71710000  0.66970000  1.0 -0.4289278043
O  O47  1  0.28290000  0.10710000  0.16970000  1.0 -0.4289278043
O  O48  1  0.10710000  0.28290000  0.33030000  1.0 -0.4289278043
O  O49  1  0.00870000  0.78570000  0.85190000  1.0 -0.4149462682
O  O50  1  0.78570000  0.00870000  0.64810000  1.0 -0.4149462682
O  O51  1  0.99130000  0.21430000  0.14810000  1.0 -0.4149462682
O  O52  1  0.21430000  0.99130000  0.35190000  1.0 -0.4149462682
F  F1  1  0.22220000  0.51280000  0.75880000  1.0 -0.3458992344
F  F2  1  0.51280000  0.22220000  0.74120000  1.0 -0.339975844
F  F3  1  0.77780000  0.48720000  0.24120000  1.0 -0.339975844
F  F4  1  0.48720000  0.77780000  0.25880000  1.0 -0.3458992344
F  F5  1  0.00480000  0.49200000  0.80920000  1.0 -0.339975844
F  F6  1  0.49200000  0.00480000  0.69080000  1.0 -0.339975844
F  F7  1  0.99520000  0.50800000  0.19080000  1.0 -0.339975844
F  F8  1  0.50800000  0.99520000  0.30920000  1.0 -0.339975844
F  F9  1  0.92970000  0.90950000  0.95190000  1.0 -0.3620489341
F  F10  1  0.90950000  0.92970000  0.54810000  1.0 -0.3620489341
F  F11  1  0.07030000  0.09050000  0.04810000  1.0 -0.3659310442
F  F12  1  0.09050000  0.07030000  0.45190000  1.0 -0.3659310442
