# DDEC6 charges by PACMAN v1.1 (https://github.com/mtap-research/PACMAN-charge/)
data_VAJVEJ_FSR_pacman
_symmetry_space_group_name_H-M   'P 1'
_cell_length_a   13.94080000
_cell_length_b   13.94080000
_cell_length_c   16.77200000
_cell_angle_alpha   76.04970000
_cell_angle_beta   103.95000000
_cell_angle_gamma   71.05580000
_symmetry_Int_Tables_number   1
_chemical_formula_structural   CdH22C30S2(NO)4
_chemical_formula_sum   'Cd4 H88 C120 S8 N16 O16'
_cell_volume   2805.18378731
_cell_formula_units_Z   4
loop_
 _symmetry_equiv_pos_site_id
 _symmetry_equiv_pos_as_xyz
  1  'x, y, z'
loop_
 _atom_site_type_symbol
 _atom_site_label
 _atom_site_symmetry_multiplicity
 _atom_site_fract_x
 _atom_site_fract_y
 _atom_site_fract_z
 _atom_site_occupancy
 _atom_site_charge
Cd  Cd1  1  0.45556000  0.01414000  0.37628000  1.0 0.8236899664
Cd  Cd2  1  0.01414000  0.45556000  0.12372000  1.0 0.8236899664
Cd  Cd3  1  0.54444000  0.98586000  0.62372000  1.0 0.8236899664
Cd  Cd4  1  0.98586000  0.54444000  0.87628000  1.0 0.8236899664
H  H1  1  0.43480000  0.72660000  0.80050000  1.0 0.1185898235
H  H2  1  0.72660000  0.43480000  0.69950000  1.0 0.1185898235
H  H3  1  0.56520000  0.27340000  0.19950000  1.0 0.1185898235
H  H4  1  0.27340000  0.56520000  0.30050000  1.0 0.1185898235
H  H5  1  0.42000000  0.72680000  0.28710000  1.0 0.1185898235
H  H6  1  0.72680000  0.42000000  0.21290000  1.0 0.1185898235
H  H7  1  0.58000000  0.27320000  0.71290000  1.0 0.1185898235
H  H8  1  0.27320000  0.58000000  0.78710000  1.0 0.1185898235
H  H9  1  0.39010000  0.62690000  0.20350000  1.0 0.1279049208
H  H10  1  0.62690000  0.39010000  0.29650000  1.0 0.1279049208
H  H11  1  0.60990000  0.37310000  0.79650000  1.0 0.1279049208
H  H12  1  0.37310000  0.60990000  0.70350000  1.0 0.1279049208
H  H13  1  0.36410000  0.95950000  0.07240000  1.0 0.108528926
H  H14  1  0.95950000  0.36410000  0.42760000  1.0 0.108528926
H  H15  1  0.63590000  0.04050000  0.92760000  1.0 0.108528926
H  H16  1  0.04050000  0.63590000  0.57240000  1.0 0.108528926
H  H17  1  0.73040000  0.54980000  0.05200000  1.0 0.1185898235
H  H18  1  0.54980000  0.73040000  0.44800000  1.0 0.1185898235
H  H19  1  0.26960000  0.45020000  0.94800000  1.0 0.1185898235
H  H20  1  0.45020000  0.26960000  0.55200000  1.0 0.1185898235
H  H21  1  0.60190000  0.68730000  0.79470000  1.0 0.1279049208
H  H22  1  0.68730000  0.60190000  0.70530000  1.0 0.1279049208
H  H23  1  0.39810000  0.31270000  0.20530000  1.0 0.1279049208
H  H24  1  0.31270000  0.39810000  0.29470000  1.0 0.1279049208
H  H25  1  0.32300000  0.87620000  0.41520000  1.0 0.108528926
H  H26  1  0.87620000  0.32300000  0.08480000  1.0 0.108528926
H  H27  1  0.67700000  0.12380000  0.58480000  1.0 0.108528926
H  H28  1  0.12380000  0.67700000  0.91520000  1.0 0.108528926
H  H29  1  0.15540000  0.88040000  0.40810000  1.0 0.108528926
H  H30  1  0.88040000  0.15540000  0.09190000  1.0 0.108528926
H  H31  1  0.84460000  0.11960000  0.59190000  1.0 0.108528926
H  H32  1  0.11960000  0.84460000  0.90810000  1.0 0.108528926
H  H33  1  0.04860000  0.19840000  0.34300000  1.0 0.1185898235
H  H34  1  0.19840000  0.04860000  0.15700000  1.0 0.1185898235
H  H35  1  0.95140000  0.80160000  0.65700000  1.0 0.1185898235
H  H36  1  0.80160000  0.95140000  0.84300000  1.0 0.1185898235
H  H37  1  0.21580000  0.18580000  0.35030000  1.0 0.1185898235
H  H38  1  0.18580000  0.21580000  0.14970000  1.0 0.1185898235
H  H39  1  0.78420000  0.81420000  0.64970000  1.0 0.1185898235
H  H40  1  0.81420000  0.78420000  0.85030000  1.0 0.1185898235
H  H41  1  0.90920000  0.10980000  0.30630000  1.0 0.100806136
H  H42  1  0.10980000  0.90920000  0.19370000  1.0 0.100806136
H  H43  1  0.09080000  0.89020000  0.69370000  1.0 0.100806136
H  H44  1  0.89020000  0.09080000  0.80630000  1.0 0.100806136
H  H45  1  0.87730000  0.82610000  0.45740000  1.0 0.0884505952
H  H46  1  0.82610000  0.87730000  0.04260000  1.0 0.0884505952
H  H47  1  0.12270000  0.17390000  0.54260000  1.0 0.0884505952
H  H48  1  0.17390000  0.12270000  0.95740000  1.0 0.0884505952
H  H49  1  0.57760000  0.15120000  0.30350000  1.0 0.0693209841
H  H50  1  0.15120000  0.57760000  0.19650000  1.0 0.0693209841
H  H51  1  0.42240000  0.84880000  0.69650000  1.0 0.0693209841
H  H52  1  0.84880000  0.42240000  0.80350000  1.0 0.0693209841
H  H53  1  0.70040000  0.84260000  0.44180000  1.0 0.0884505952
H  H54  1  0.84260000  0.70040000  0.05820000  1.0 0.0884505952
H  H55  1  0.29960000  0.15740000  0.55820000  1.0 0.0884505952
H  H56  1  0.15740000  0.29960000  0.94180000  1.0 0.0884505952
H  H57  1  0.74600000  0.14540000  0.30330000  1.0 0.0575362388
H  H58  1  0.14540000  0.74600000  0.19670000  1.0 0.0575362388
H  H59  1  0.25400000  0.85460000  0.69670000  1.0 0.0575362388
H  H60  1  0.85460000  0.25400000  0.80330000  1.0 0.0575362388
H  H61  1  0.99870000  0.91490000  0.45130000  1.0 0.0884505952
H  H62  1  0.91490000  0.99870000  0.04870000  1.0 0.0884505952
H  H63  1  0.00130000  0.08510000  0.54870000  1.0 0.0884505952
H  H64  1  0.08510000  0.00130000  0.95130000  1.0 0.0884505952
H  H65  1  0.94520000  0.09620000  0.41380000  1.0 0.0884505952
H  H66  1  0.09620000  0.94520000  0.08620000  1.0 0.0884505952
H  H67  1  0.05480000  0.90380000  0.58620000  1.0 0.0884505952
H  H68  1  0.90380000  0.05480000  0.91380000  1.0 0.0884505952
H  H69  1  0.59840000  0.15320000  0.37010000  1.0 0.0693209841
H  H70  1  0.15320000  0.59840000  0.12990000  1.0 0.0693209841
H  H71  1  0.40160000  0.84680000  0.62990000  1.0 0.0693209841
H  H72  1  0.84680000  0.40160000  0.87010000  1.0 0.0693209841
H  H73  1  0.77120000  0.13900000  0.37580000  1.0 0.0693209841
H  H74  1  0.13900000  0.77120000  0.12420000  1.0 0.0693209841
H  H75  1  0.22880000  0.86100000  0.62420000  1.0 0.0693209841
H  H76  1  0.86100000  0.22880000  0.87580000  1.0 0.0693209841
H  H77  1  0.85040000  0.83560000  0.38520000  1.0 0.0788014186
H  H78  1  0.83560000  0.85040000  0.11480000  1.0 0.0788014186
H  H79  1  0.14960000  0.16440000  0.61480000  1.0 0.0788014186
H  H80  1  0.16440000  0.14960000  0.88520000  1.0 0.0788014186
H  H81  1  0.67670000  0.85190000  0.37800000  1.0 0.0788014186
H  H82  1  0.85190000  0.67670000  0.12200000  1.0 0.0788014186
H  H83  1  0.32330000  0.14810000  0.62200000  1.0 0.0788014186
H  H84  1  0.14810000  0.32330000  0.87800000  1.0 0.0788014186
H  H85  1  0.97070000  0.92810000  0.34360000  1.0 0.100806136
H  H86  1  0.92810000  0.97070000  0.15640000  1.0 0.100806136
H  H87  1  0.02930000  0.07190000  0.65640000  1.0 0.100806136
H  H88  1  0.07190000  0.02930000  0.84360000  1.0 0.100806136
C  C1  1  0.49480000  0.69080000  0.85180000  1.0 -0.1828347435
C  C2  1  0.69080000  0.49480000  0.64820000  1.0 -0.1828347435
C  C3  1  0.50520000  0.30920000  0.14820000  1.0 -0.1828347435
C  C4  1  0.30920000  0.50520000  0.35180000  1.0 -0.1828347435
C  C5  1  0.42390000  0.92170000  0.24970000  1.0 0.5389572447
C  C6  1  0.92170000  0.42390000  0.25030000  1.0 0.5389572447
C  C7  1  0.57610000  0.07830000  0.75030000  1.0 0.5389572447
C  C8  1  0.07830000  0.57610000  0.74970000  1.0 0.5389572447
C  C9  1  0.79650000  0.58190000  0.91770000  1.0 0.5389572447
C  C10  1  0.58190000  0.79650000  0.58230000  1.0 0.5389572447
C  C11  1  0.20350000  0.41810000  0.08230000  1.0 0.5389572447
C  C12  1  0.41810000  0.20350000  0.41770000  1.0 0.5389572447
C  C13  1  0.40160000  0.85580000  0.19000000  1.0 -0.0478333985
C  C14  1  0.85580000  0.40160000  0.31000000  1.0 -0.0478333985
C  C15  1  0.59840000  0.14420000  0.81000000  1.0 -0.0478333985
C  C16  1  0.14420000  0.59840000  0.69000000  1.0 -0.0478333985
C  C17  1  0.40510000  0.75450000  0.22710000  1.0 -0.0876007984
C  C18  1  0.75450000  0.40510000  0.27290000  1.0 -0.0876007984
C  C19  1  0.59490000  0.24550000  0.77290000  1.0 -0.0876007984
C  C20  1  0.24550000  0.59490000  0.72710000  1.0 -0.0876007984
C  C21  1  0.38700000  0.69500000  0.17680000  1.0 -0.1828347435
C  C22  1  0.69500000  0.38700000  0.32320000  1.0 -0.1828347435
C  C23  1  0.61300000  0.30500000  0.82320000  1.0 -0.1828347435
C  C24  1  0.30500000  0.61300000  0.67680000  1.0 -0.1828347435
C  C25  1  0.36660000  0.72760000  0.09750000  1.0 0.1674705957
C  C26  1  0.72760000  0.36660000  0.40250000  1.0 0.1674705957
C  C27  1  0.63340000  0.27240000  0.90250000  1.0 0.1674705957
C  C28  1  0.27240000  0.63340000  0.59750000  1.0 0.1674705957
C  C29  1  0.37280000  0.88980000  0.10180000  1.0 0.0200830118
C  C30  1  0.88980000  0.37280000  0.39820000  1.0 0.0200830118
C  C31  1  0.62720000  0.11020000  0.89820000  1.0 0.0200830118
C  C32  1  0.11020000  0.62720000  0.60180000  1.0 0.0200830118
C  C33  1  0.68560000  0.61220000  0.92310000  1.0 -0.0713472874
C  C34  1  0.61220000  0.68560000  0.57690000  1.0 -0.0713472874
C  C35  1  0.31440000  0.38780000  0.07690000  1.0 -0.0713472874
C  C36  1  0.38780000  0.31440000  0.42310000  1.0 -0.0713472874
C  C37  1  0.67050000  0.58610000  0.00060000  1.0 0.0090662962
C  C38  1  0.58610000  0.67050000  0.49940000  1.0 0.0090662962
C  C39  1  0.32950000  0.41390000  0.99940000  1.0 0.0090662962
C  C40  1  0.41390000  0.32950000  0.50060000  1.0 0.0090662962
C  C41  1  0.48300000  0.66320000  0.92900000  1.0 0.1958064539
C  C42  1  0.66320000  0.48300000  0.57100000  1.0 0.1958064539
C  C43  1  0.51700000  0.33680000  0.07100000  1.0 0.1958064539
C  C44  1  0.33680000  0.51700000  0.42900000  1.0 0.1958064539
C  C45  1  0.59390000  0.66666667  0.84890000  1.0 -0.0713472874
C  C46  1  0.66666667  0.59390000  0.65110000  1.0 -0.0713472874
C  C47  1  0.40610000  0.33333333  0.15110000  1.0 -0.0713472874
C  C48  1  0.33333333  0.40610000  0.34890000  1.0 -0.0713472874
C  C49  1  0.26580000  0.94280000  0.39930000  1.0 0.0090662962
C  C50  1  0.94280000  0.26580000  0.10070000  1.0 0.0090662962
C  C51  1  0.73420000  0.05720000  0.60070000  1.0 0.0090662962
C  C52  1  0.05720000  0.73420000  0.89930000  1.0 0.0090662962
C  C53  1  0.16550000  0.94430000  0.39620000  1.0 -0.3444624628
C  C54  1  0.94430000  0.16550000  0.10380000  1.0 -0.3444624628
C  C55  1  0.83450000  0.05570000  0.60380000  1.0 -0.3444624628
C  C56  1  0.05570000  0.83450000  0.89620000  1.0 -0.3444624628
C  C57  1  0.08200000  0.04060000  0.37540000  1.0 0.100806136
C  C58  1  0.04060000  0.08200000  0.12460000  1.0 0.100806136
C  C59  1  0.91800000  0.95940000  0.62460000  1.0 0.100806136
C  C60  1  0.95940000  0.91800000  0.87540000  1.0 0.100806136
C  C61  1  0.10370000  0.13070000  0.35780000  1.0 -0.2498710575
C  C62  1  0.13070000  0.10370000  0.14220000  1.0 -0.2498710575
C  C63  1  0.89630000  0.86930000  0.64220000  1.0 -0.2498710575
C  C64  1  0.86930000  0.89630000  0.85780000  1.0 -0.2498710575
C  C65  1  0.20370000  0.12290000  0.36180000  1.0 0.0693209841
C  C66  1  0.12290000  0.20370000  0.13820000  1.0 0.0693209841
C  C67  1  0.79630000  0.87710000  0.63820000  1.0 0.0693209841
C  C68  1  0.87710000  0.79630000  0.86180000  1.0 0.0693209841
C  C69  1  0.96470000  0.05170000  0.35310000  1.0 -0.0167541271
C  C70  1  0.05170000  0.96470000  0.14690000  1.0 -0.0167541271
C  C71  1  0.03530000  0.94830000  0.64690000  1.0 -0.0167541271
C  C72  1  0.94830000  0.03530000  0.85310000  1.0 -0.0167541271
C  C73  1  0.83010000  0.98470000  0.38110000  1.0 0.0345409819
C  C74  1  0.98470000  0.83010000  0.11890000  1.0 0.0345409819
C  C75  1  0.16990000  0.01530000  0.61890000  1.0 0.0345409819
C  C76  1  0.01530000  0.16990000  0.88110000  1.0 0.0345409819
C  C77  1  0.81810000  0.89170000  0.42500000  1.0 -0.0610900922
C  C78  1  0.89170000  0.81810000  0.07500000  1.0 -0.0610900922
C  C79  1  0.18190000  0.10830000  0.57500000  1.0 -0.0610900922
C  C80  1  0.10830000  0.18190000  0.92500000  1.0 -0.0610900922
C  C81  1  0.63790000  0.08610000  0.33380000  1.0 0.0403898162
C  C82  1  0.08610000  0.63790000  0.16620000  1.0 0.0403898162
C  C83  1  0.36210000  0.91390000  0.66620000  1.0 0.0403898162
C  C84  1  0.91390000  0.36210000  0.83380000  1.0 0.0403898162
C  C85  1  0.71170000  0.90350000  0.41710000  1.0 0.0090662962
C  C86  1  0.90350000  0.71170000  0.08290000  1.0 0.0090662962
C  C87  1  0.28830000  0.09650000  0.58290000  1.0 0.0090662962
C  C88  1  0.09650000  0.28830000  0.91710000  1.0 0.0090662962
C  C89  1  0.73900000  0.08400000  0.33350000  1.0 -0.0713472874
C  C90  1  0.08400000  0.73900000  0.16650000  1.0 -0.0713472874
C  C91  1  0.26100000  0.91600000  0.66650000  1.0 -0.0713472874
C  C92  1  0.91600000  0.26100000  0.83350000  1.0 -0.0713472874
C  C93  1  0.94370000  0.97310000  0.40420000  1.0 -0.0610900922
C  C94  1  0.97310000  0.94370000  0.09580000  1.0 -0.0610900922
C  C95  1  0.05630000  0.02690000  0.59580000  1.0 -0.0610900922
C  C96  1  0.02690000  0.05630000  0.90420000  1.0 -0.0610900922
C  C97  1  0.97920000  0.04700000  0.39000000  1.0 -0.0362658082
C  C98  1  0.04700000  0.97920000  0.11000000  1.0 -0.0362658082
C  C99  1  0.02080000  0.95300000  0.61000000  1.0 -0.0362658082
C  C100  1  0.95300000  0.02080000  0.89000000  1.0 -0.0362658082
C  C101  1  0.64940000  0.08860000  0.37310000  1.0 0.0090662962
C  C102  1  0.08860000  0.64940000  0.12690000  1.0 0.0090662962
C  C103  1  0.35060000  0.91140000  0.62690000  1.0 0.0090662962
C  C104  1  0.91140000  0.35060000  0.87310000  1.0 0.0090662962
C  C105  1  0.75360000  0.08000000  0.37660000  1.0 -0.0713472874
C  C106  1  0.08000000  0.75360000  0.12340000  1.0 -0.0713472874
C  C107  1  0.24640000  0.92000000  0.62340000  1.0 -0.0713472874
C  C108  1  0.92000000  0.24640000  0.87660000  1.0 -0.0713472874
C  C109  1  0.80020000  0.90100000  0.38190000  1.0 -0.0770634869
C  C110  1  0.90100000  0.80020000  0.11810000  1.0 -0.0770634869
C  C111  1  0.19980000  0.09900000  0.61810000  1.0 -0.0770634869
C  C112  1  0.09900000  0.19980000  0.88190000  1.0 -0.0770634869
C  C113  1  0.69510000  0.91030000  0.37790000  1.0 0.0403898162
C  C114  1  0.91030000  0.69510000  0.12210000  1.0 0.0403898162
C  C115  1  0.30490000  0.08970000  0.62210000  1.0 0.0403898162
C  C116  1  0.08970000  0.30490000  0.87790000  1.0 0.0403898162
C  C117  1  0.93640000  0.97760000  0.36700000  1.0 -0.0478333985
C  C118  1  0.97760000  0.93640000  0.13300000  1.0 -0.0478333985
C  C119  1  0.06360000  0.02240000  0.63300000  1.0 -0.0478333985
C  C120  1  0.02240000  0.06360000  0.86700000  1.0 -0.0478333985
S  S1  1  0.34581000  0.70153000  0.92109000  1.0 -0.0344317826
S  S2  1  0.70153000  0.34581000  0.57891000  1.0 -0.0344317826
S  S3  1  0.65419000  0.29847000  0.07891000  1.0 -0.0344317826
S  S4  1  0.29847000  0.65419000  0.42109000  1.0 -0.0344317826
S  S5  1  0.34932000  0.63822000  0.04309000  1.0 0.0200830118
S  S6  1  0.63822000  0.34932000  0.45691000  1.0 0.0200830118
S  S7  1  0.65068000  0.36178000  0.95691000  1.0 0.0200830118
S  S8  1  0.36178000  0.65068000  0.54309000  1.0 0.0200830118
N  N1  1  0.28490000  0.03030000  0.38110000  1.0 -0.2142714719
N  N2  1  0.03030000  0.28490000  0.11890000  1.0 -0.2142714719
N  N3  1  0.71510000  0.96970000  0.61890000  1.0 -0.2142714719
N  N4  1  0.96970000  0.71510000  0.88110000  1.0 -0.2142714719
N  N5  1  0.62290000  0.00190000  0.37410000  1.0 -0.1699267188
N  N6  1  0.00190000  0.62290000  0.12590000  1.0 -0.1699267188
N  N7  1  0.37710000  0.99810000  0.62590000  1.0 -0.1699267188
N  N8  1  0.99810000  0.37710000  0.87410000  1.0 -0.1699267188
N  N9  1  0.35590000  0.82690000  0.05380000  1.0 -0.306385682
N  N10  1  0.82690000  0.35590000  0.44620000  1.0 -0.306385682
N  N11  1  0.64410000  0.17310000  0.94620000  1.0 -0.306385682
N  N12  1  0.17310000  0.64410000  0.55380000  1.0 -0.306385682
N  N13  1  0.56720000  0.61240000  0.00540000  1.0 -0.2748955498
N  N14  1  0.61240000  0.56720000  0.49460000  1.0 -0.2748955498
N  N15  1  0.43280000  0.38760000  0.99460000  1.0 -0.2748955498
N  N16  1  0.38760000  0.43280000  0.50540000  1.0 -0.2755040834
O  O1  1  0.46060000  0.87680000  0.32840000  1.0 -0.5059454972
O  O2  1  0.87680000  0.46060000  0.17160000  1.0 -0.5059454972
O  O3  1  0.53940000  0.12320000  0.67160000  1.0 -0.5059454972
O  O4  1  0.12320000  0.53940000  0.82840000  1.0 -0.5059454972
O  O5  1  0.39820000  0.02100000  0.20810000  1.0 -0.5625271062
O  O6  1  0.02100000  0.39820000  0.29190000  1.0 -0.5625271062
O  O7  1  0.60180000  0.97900000  0.79190000  1.0 -0.5625271062
O  O8  1  0.97900000  0.60180000  0.70810000  1.0 -0.5625271062
O  O9  1  0.80130000  0.60350000  0.84140000  1.0 -0.5059454972
O  O10  1  0.60350000  0.80130000  0.65860000  1.0 -0.5059454972
O  O11  1  0.19870000  0.39650000  0.15860000  1.0 -0.5059454972
O  O12  1  0.39650000  0.19870000  0.34140000  1.0 -0.5059454972
O  O13  1  0.87830000  0.53810000  0.98390000  1.0 -0.5242180685
O  O14  1  0.53810000  0.87830000  0.51610000  1.0 -0.5242180685
O  O15  1  0.12170000  0.46190000  0.01610000  1.0 -0.5242180685
O  O16  1  0.46190000  0.12170000  0.48390000  1.0 -0.5242180685
