# DDEC6 charges by PACMAN v1.1 (https://github.com/mtap-research/PACMAN-charge/)
data_VAKLIF_ASR_pacman
_symmetry_space_group_name_H-M   'P 1'
_cell_length_a   16.97540000
_cell_length_b   16.97540000
_cell_length_c   20.57200000
_cell_angle_alpha   80.47110000
_cell_angle_beta   99.52890000
_cell_angle_gamma   64.77280000
_symmetry_Int_Tables_number   1
_chemical_formula_structural   CdH24C23(NO3)2
_chemical_formula_sum   'Cd4 H96 C92 N8 O24'
_cell_volume   5100.15973369
_cell_formula_units_Z   4
loop_
 _symmetry_equiv_pos_site_id
 _symmetry_equiv_pos_as_xyz
  1  'x, y, z'
loop_
 _atom_site_type_symbol
 _atom_site_label
 _atom_site_symmetry_multiplicity
 _atom_site_fract_x
 _atom_site_fract_y
 _atom_site_fract_z
 _atom_site_occupancy
 _atom_site_charge
Cd  Cd1  1  0.31821000  0.51811000  0.49328000  1.0 0.8875220502
Cd  Cd2  1  0.51811000  0.31821000  0.00672000  1.0 0.8875220502
Cd  Cd3  1  0.68179000  0.48189000  0.50672000  1.0 0.8875220502
Cd  Cd4  1  0.48189000  0.68179000  0.99328000  1.0 0.8875220502
H  H1  1  0.38140000  0.68660000  0.63580000  1.0 0.1016123016
H  H2  1  0.68660000  0.38140000  0.86420000  1.0 0.1016123016
H  H3  1  0.61860000  0.31340000  0.36420000  1.0 0.1016123016
H  H4  1  0.31340000  0.61860000  0.13580000  1.0 0.1016123016
H  H5  1  0.42110000  0.72770000  0.73210000  1.0 0.1282487298
H  H6  1  0.72770000  0.42110000  0.76790000  1.0 0.1282487298
H  H7  1  0.57890000  0.27230000  0.26790000  1.0 0.1282487298
H  H8  1  0.27230000  0.57890000  0.23210000  1.0 0.1282487298
H  H9  1  0.37300000  0.54780000  0.84340000  1.0 0.1087384123
H  H10  1  0.54780000  0.37300000  0.65660000  1.0 0.1087384123
H  H11  1  0.62700000  0.45220000  0.15660000  1.0 0.1087384123
H  H12  1  0.45220000  0.62700000  0.34340000  1.0 0.1087384123
H  H13  1  0.34020000  0.50040000  0.74960000  1.0 0.1184342576
H  H14  1  0.50040000  0.34020000  0.75040000  1.0 0.1184342576
H  H15  1  0.65980000  0.49960000  0.25040000  1.0 0.1184342576
H  H16  1  0.49960000  0.65980000  0.24960000  1.0 0.1184342576
H  H17  1  0.98540000  0.63300000  0.43820000  1.0 0.1184342576
H  H18  1  0.63300000  0.98540000  0.06180000  1.0 0.1184342576
H  H19  1  0.01460000  0.36700000  0.56180000  1.0 0.1184342576
H  H20  1  0.36700000  0.01460000  0.93820000  1.0 0.1184342576
H  H21  1  0.14290000  0.37990000  0.55100000  1.0 0.1184342576
H  H22  1  0.37990000  0.14290000  0.94900000  1.0 0.1184342576
H  H23  1  0.85710000  0.62010000  0.44900000  1.0 0.1184342576
H  H24  1  0.62010000  0.85710000  0.05100000  1.0 0.1184342576
H  H25  1  0.37550000  0.31810000  0.56080000  1.0 0.1184342576
H  H26  1  0.31810000  0.37550000  0.93920000  1.0 0.1184342576
H  H27  1  0.62450000  0.68190000  0.43920000  1.0 0.1184342576
H  H28  1  0.68190000  0.62450000  0.06080000  1.0 0.1184342576
H  H29  1  0.47080000  0.17140000  0.56490000  1.0 0.1407293948
H  H30  1  0.17140000  0.47080000  0.93510000  1.0 0.1407293948
H  H31  1  0.52920000  0.82860000  0.43510000  1.0 0.1407293948
H  H32  1  0.82860000  0.52920000  0.06490000  1.0 0.1407293948
H  H33  1  0.61950000  0.26110000  0.47640000  1.0 0.1478640075
H  H34  1  0.26110000  0.61950000  0.02360000  1.0 0.1478640075
H  H35  1  0.38050000  0.73890000  0.52360000  1.0 0.1478640075
H  H36  1  0.73890000  0.38050000  0.97640000  1.0 0.1478640075
H  H37  1  0.51750000  0.40050000  0.47290000  1.0 0.1184342576
H  H38  1  0.40050000  0.51750000  0.02710000  1.0 0.1184342576
H  H39  1  0.48250000  0.59950000  0.52710000  1.0 0.1184342576
H  H40  1  0.59950000  0.48250000  0.97290000  1.0 0.1184342576
H  H41  1  0.67090000  0.10850000  0.50370000  1.0 0.1087384123
H  H42  1  0.10850000  0.67090000  0.99630000  1.0 0.1087384123
H  H43  1  0.32910000  0.89150000  0.49630000  1.0 0.1087384123
H  H44  1  0.89150000  0.32910000  0.00370000  1.0 0.1087384123
H  H45  1  0.59480000  0.07900000  0.49820000  1.0 0.1087384123
H  H46  1  0.07900000  0.59480000  0.00180000  1.0 0.1087384123
H  H47  1  0.40520000  0.92100000  0.50180000  1.0 0.1087384123
H  H48  1  0.92100000  0.40520000  0.99820000  1.0 0.1087384123
H  H49  1  0.71510000  0.91970000  0.58140000  1.0 0.0593007065
H  H50  1  0.91970000  0.71510000  0.91860000  1.0 0.0593007065
H  H51  1  0.28490000  0.08030000  0.41860000  1.0 0.0593007065
H  H52  1  0.08030000  0.28490000  0.08140000  1.0 0.0593007065
H  H53  1  0.78750000  0.95510000  0.58360000  1.0 0.0721636077
H  H54  1  0.95510000  0.78750000  0.91640000  1.0 0.0721636077
H  H55  1  0.21250000  0.04490000  0.41640000  1.0 0.0721636077
H  H56  1  0.04490000  0.21250000  0.08360000  1.0 0.0721636077
H  H57  1  0.73580000  0.88960000  0.69600000  1.0 0.0593007065
H  H58  1  0.88960000  0.73580000  0.80400000  1.0 0.0593007065
H  H59  1  0.26420000  0.11040000  0.30400000  1.0 0.0593007065
H  H60  1  0.11040000  0.26420000  0.19600000  1.0 0.0593007065
H  H61  1  0.76390000  0.96550000  0.70200000  1.0 0.0593007065
H  H62  1  0.96550000  0.76390000  0.79800000  1.0 0.0593007065
H  H63  1  0.23610000  0.03450000  0.29800000  1.0 0.0593007065
H  H64  1  0.03450000  0.23610000  0.20200000  1.0 0.0593007065
H  H65  1  0.90870000  0.87050000  0.69050000  1.0 0.0593007065
H  H66  1  0.87050000  0.90870000  0.80950000  1.0 0.0593007065
H  H67  1  0.09130000  0.12950000  0.30950000  1.0 0.0593007065
H  H68  1  0.12950000  0.09130000  0.19050000  1.0 0.0593007065
H  H69  1  0.87590000  0.79810000  0.68350000  1.0 0.0721636077
H  H70  1  0.79810000  0.87590000  0.81650000  1.0 0.0721636077
H  H71  1  0.12410000  0.20190000  0.31650000  1.0 0.0721636077
H  H72  1  0.20190000  0.12410000  0.18350000  1.0 0.0721636077
H  H73  1  0.85900000  0.92740000  0.67010000  1.0 0.0593007065
H  H74  1  0.92740000  0.85900000  0.82990000  1.0 0.0593007065
H  H75  1  0.14100000  0.07260000  0.32990000  1.0 0.0593007065
H  H76  1  0.07260000  0.14100000  0.17010000  1.0 0.0593007065
H  H77  1  0.85030000  0.83910000  0.66760000  1.0 0.0593007065
H  H78  1  0.83910000  0.85030000  0.83240000  1.0 0.0593007065
H  H79  1  0.14970000  0.16090000  0.33240000  1.0 0.0593007065
H  H80  1  0.16090000  0.14970000  0.16760000  1.0 0.0593007065
H  H81  1  0.73240000  0.88660000  0.72340000  1.0 0.0593007065
H  H82  1  0.88660000  0.73240000  0.77660000  1.0 0.0593007065
H  H83  1  0.26760000  0.11340000  0.27660000  1.0 0.0593007065
H  H84  1  0.11340000  0.26760000  0.22340000  1.0 0.0593007065
H  H85  1  0.74290000  0.97390000  0.72420000  1.0 0.0500144671
H  H86  1  0.97390000  0.74290000  0.77580000  1.0 0.0500144671
H  H87  1  0.25710000  0.02610000  0.27580000  1.0 0.0500144671
H  H88  1  0.02610000  0.25710000  0.22420000  1.0 0.0500144671
H  H89  1  0.69110000  0.07410000  0.61840000  1.0 0.2312879926
H  H90  1  0.07410000  0.69110000  0.88160000  1.0 0.2312879926
H  H91  1  0.30890000  0.92590000  0.38160000  1.0 0.2312879926
H  H92  1  0.92590000  0.30890000  0.11840000  1.0 0.2312879926
H  H93  1  0.62507000  0.04167000  0.61090000  1.0 0.2312879926
H  H94  1  0.04167000  0.62507000  0.88910000  1.0 0.2312879926
H  H95  1  0.37493000  0.95833000  0.38910000  1.0 0.2312879926
H  H96  1  0.95833000  0.37493000  0.11090000  1.0 0.2312879926
C  C1  1  0.34060000  0.55640000  0.62080000  1.0 0.5394745673
C  C2  1  0.55640000  0.34060000  0.87920000  1.0 0.5394745673
C  C3  1  0.65940000  0.44360000  0.37920000  1.0 0.5394745673
C  C4  1  0.44360000  0.65940000  0.12080000  1.0 0.5394745673
C  C5  1  0.35730000  0.58830000  0.68190000  1.0 -0.0233358103
C  C6  1  0.58830000  0.35730000  0.81810000  1.0 -0.0233358103
C  C7  1  0.64270000  0.41170000  0.31810000  1.0 -0.0233358103
C  C8  1  0.41170000  0.64270000  0.18190000  1.0 -0.0233358103
C  C9  1  0.38080000  0.65700000  0.67790000  1.0 -0.1103910048
C  C10  1  0.65700000  0.38080000  0.82210000  1.0 -0.1103910048
C  C11  1  0.61920000  0.34300000  0.32210000  1.0 -0.1103910048
C  C12  1  0.34300000  0.61920000  0.17790000  1.0 -0.1103910048
C  C13  1  0.40350000  0.68270000  0.73570000  1.0 -0.1197948677
C  C14  1  0.68270000  0.40350000  0.76430000  1.0 -0.1197948677
C  C15  1  0.59650000  0.31730000  0.26430000  1.0 -0.1197948677
C  C16  1  0.31730000  0.59650000  0.23570000  1.0 -0.1197948677
C  C17  1  0.40010000  0.64270000  0.79890000  1.0 -0.0067755596
C  C18  1  0.64270000  0.40010000  0.70110000  1.0 -0.0067755596
C  C19  1  0.59990000  0.35730000  0.20110000  1.0 -0.0067755596
C  C20  1  0.35730000  0.59990000  0.29890000  1.0 -0.0067755596
C  C21  1  0.37580000  0.57560000  0.80160000  1.0 -0.1103910048
C  C22  1  0.57560000  0.37580000  0.69840000  1.0 -0.1103910048
C  C23  1  0.62420000  0.42440000  0.19840000  1.0 -0.1103910048
C  C24  1  0.42440000  0.62420000  0.30160000  1.0 -0.1103910048
C  C25  1  0.35540000  0.54720000  0.74520000  1.0 -0.0990072166
C  C26  1  0.54720000  0.35540000  0.75480000  1.0 -0.0990072166
C  C27  1  0.64460000  0.45280000  0.25480000  1.0 -0.0990072166
C  C28  1  0.45280000  0.64460000  0.24520000  1.0 -0.0990072166
C  C29  1  0.42700000  0.67240000  0.86030000  1.0 0.5394745673
C  C30  1  0.67240000  0.42700000  0.63970000  1.0 0.5394745673
C  C31  1  0.57300000  0.32760000  0.13970000  1.0 0.5394745673
C  C32  1  0.32760000  0.57300000  0.36030000  1.0 0.5394745673
C  C33  1  0.15900000  0.51720000  0.48850000  1.0 0.5475481237
C  C34  1  0.51720000  0.15900000  0.01150000  1.0 0.5394745673
C  C35  1  0.84100000  0.48280000  0.51150000  1.0 0.5394745673
C  C36  1  0.48280000  0.84100000  0.98850000  1.0 0.5475481237
C  C37  1  0.07660000  0.50860000  0.49390000  1.0 -0.0233358103
C  C38  1  0.50860000  0.07660000  0.00610000  1.0 -0.0233358103
C  C39  1  0.92340000  0.49140000  0.50610000  1.0 -0.0233358103
C  C40  1  0.49140000  0.92340000  0.99390000  1.0 -0.0233358103
C  C41  1  0.99150000  0.57890000  0.46350000  1.0 -0.090042211
C  C42  1  0.57890000  0.99150000  0.03650000  1.0 -0.090042211
C  C43  1  0.00850000  0.42110000  0.53650000  1.0 -0.090042211
C  C44  1  0.42110000  0.00850000  0.96350000  1.0 -0.090042211
C  C45  1  0.08590000  0.42850000  0.53050000  1.0 -0.0990072166
C  C46  1  0.42850000  0.08590000  0.96950000  1.0 -0.0990072166
C  C47  1  0.91410000  0.57150000  0.46950000  1.0 -0.0990072166
C  C48  1  0.57150000  0.91410000  0.03050000  1.0 -0.0990072166
C  C49  1  0.42440000  0.30660000  0.54220000  1.0 0.1016123016
C  C50  1  0.30660000  0.42440000  0.95780000  1.0 0.1016123016
C  C51  1  0.57560000  0.69340000  0.45780000  1.0 0.1016123016
C  C52  1  0.69340000  0.57560000  0.04220000  1.0 0.1016123016
C  C53  1  0.48220000  0.21800000  0.54620000  1.0 -0.2189018754
C  C54  1  0.21800000  0.48220000  0.95380000  1.0 -0.2189018754
C  C55  1  0.51780000  0.78200000  0.45380000  1.0 -0.2189018754
C  C56  1  0.78200000  0.51780000  0.04620000  1.0 -0.2189018754
C  C57  1  0.55590000  0.20090000  0.52220000  1.0 0.1184342576
C  C58  1  0.20090000  0.55590000  0.97780000  1.0 0.1184342576
C  C59  1  0.44410000  0.79910000  0.47780000  1.0 0.1184342576
C  C60  1  0.79910000  0.44410000  0.02220000  1.0 0.1184342576
C  C61  1  0.56980000  0.27040000  0.49370000  1.0 -0.1948705827
C  C62  1  0.27040000  0.56980000  0.00630000  1.0 -0.1948705827
C  C63  1  0.43020000  0.72960000  0.50630000  1.0 -0.1948705827
C  C64  1  0.72960000  0.43020000  0.99370000  1.0 -0.1948705827
C  C65  1  0.50780000  0.35280000  0.49190000  1.0 0.0721636077
C  C66  1  0.35280000  0.50780000  0.00810000  1.0 0.0721636077
C  C67  1  0.49220000  0.64720000  0.50810000  1.0 0.0721636077
C  C68  1  0.64720000  0.49220000  0.99190000  1.0 0.0721636077
C  C69  1  0.62490000  0.10510000  0.52480000  1.0 -0.1197948677
C  C70  1  0.10510000  0.62490000  0.97520000  1.0 -0.1197948677
C  C71  1  0.37510000  0.89490000  0.47520000  1.0 -0.1197948677
C  C72  1  0.89490000  0.37510000  0.02480000  1.0 -0.1197948677
C  C73  1  0.73910000  0.95470000  0.60260000  1.0 -0.0617609228
C  C74  1  0.95470000  0.73910000  0.89740000  1.0 -0.0617609228
C  C75  1  0.26090000  0.04530000  0.39740000  1.0 -0.0617609228
C  C76  1  0.04530000  0.26090000  0.10260000  1.0 -0.0617609228
C  C77  1  0.77220000  0.91640000  0.68090000  1.0 -0.090042211
C  C78  1  0.91640000  0.77220000  0.81910000  1.0 -0.090042211
C  C79  1  0.22780000  0.08360000  0.31910000  1.0 -0.090042211
C  C80  1  0.08360000  0.22780000  0.18090000  1.0 -0.090042211
C  C81  1  0.87130000  0.84550000  0.70490000  1.0 -0.0990072166
C  C82  1  0.84550000  0.87130000  0.79510000  1.0 -0.1103910048
C  C83  1  0.12870000  0.15450000  0.29510000  1.0 -0.1103910048
C  C84  1  0.15450000  0.12870000  0.20490000  1.0 -0.0990072166
C  C85  1  0.81760000  0.90200000  0.66730000  1.0 -0.0788751402
C  C86  1  0.90200000  0.81760000  0.83270000  1.0 -0.0788751402
C  C87  1  0.18240000  0.09800000  0.33270000  1.0 -0.0788751402
C  C88  1  0.09800000  0.18240000  0.16730000  1.0 -0.0788751402
C  C89  1  0.77440000  0.91080000  0.72660000  1.0 -0.1277419244
C  C90  1  0.91080000  0.77440000  0.77340000  1.0 -0.1277419244
C  C91  1  0.22560000  0.08920000  0.27340000  1.0 -0.1197948677
C  C92  1  0.08920000  0.22560000  0.22660000  1.0 -0.1277419244
N  N1  1  0.43450000  0.37470000  0.51400000  1.0 -0.2297477116
N  N2  1  0.37470000  0.43450000  0.98600000  1.0 -0.2297477116
N  N3  1  0.56550000  0.62530000  0.48600000  1.0 -0.2297477116
N  N4  1  0.62530000  0.56550000  0.01400000  1.0 -0.2297477116
N  N5  1  0.66820000  0.04640000  0.59310000  1.0 -0.304508618
N  N6  1  0.04640000  0.66820000  0.90690000  1.0 -0.3056924656
N  N7  1  0.33180000  0.95360000  0.40690000  1.0 -0.3056924656
N  N8  1  0.95360000  0.33180000  0.09310000  1.0 -0.3056924656
O  O1  1  0.34070000  0.59910000  0.56460000  1.0 -0.5301649287
O  O2  1  0.59910000  0.34070000  0.93540000  1.0 -0.5301649287
O  O3  1  0.65930000  0.40090000  0.43540000  1.0 -0.5301649287
O  O4  1  0.40090000  0.65930000  0.06460000  1.0 -0.5301649287
O  O5  1  0.32560000  0.49120000  0.62530000  1.0 -0.5114529384
O  O6  1  0.49120000  0.32560000  0.87470000  1.0 -0.5114529384
O  O7  1  0.67440000  0.50880000  0.37470000  1.0 -0.5114529384
O  O8  1  0.50880000  0.67440000  0.12530000  1.0 -0.5114529384
O  O9  1  0.42240000  0.63280000  0.91460000  1.0 -0.5301649287
O  O10  1  0.63280000  0.42240000  0.58540000  1.0 -0.5301649287
O  O11  1  0.57760000  0.36720000  0.08540000  1.0 -0.5301649287
O  O12  1  0.36720000  0.57760000  0.41460000  1.0 -0.5301649287
O  O13  1  0.45770000  0.72670000  0.85650000  1.0 -0.5114529384
O  O14  1  0.72670000  0.45770000  0.64350000  1.0 -0.5114529384
O  O15  1  0.54230000  0.27330000  0.14350000  1.0 -0.5114529384
O  O16  1  0.27330000  0.54230000  0.35650000  1.0 -0.5114529384
O  O17  1  0.15530000  0.59370000  0.47910000  1.0 -0.4862284675
O  O18  1  0.59370000  0.15530000  0.02090000  1.0 -0.484237871
O  O19  1  0.84470000  0.40630000  0.52090000  1.0 -0.4862284675
O  O20  1  0.40630000  0.84470000  0.97910000  1.0 -0.4862284675
O  O21  1  0.22990000  0.44670000  0.49560000  1.0 -0.5301649287
O  O22  1  0.44670000  0.22990000  0.00440000  1.0 -0.5301649287
O  O23  1  0.77010000  0.55330000  0.50440000  1.0 -0.5301649287
O  O24  1  0.55330000  0.77010000  0.99560000  1.0 -0.5301649287
