# DDEC6 charges by PACMAN v1.1 (https://github.com/mtap-research/PACMAN-charge/)
data_VAKNED_ASR_pacman
_symmetry_space_group_name_H-M   'P 1'
_cell_length_a   15.48200000
_cell_length_b   16.21200000
_cell_length_c   19.63100000
_cell_angle_alpha   93.93100000
_cell_angle_beta   103.83600000
_cell_angle_gamma   106.40600000
_symmetry_Int_Tables_number   1
_chemical_formula_structural   Cd5H92C80(NO3)8
_chemical_formula_sum   'Cd5 H92 C80 N8 O24'
_cell_volume   4540.24609455
_cell_formula_units_Z   1
loop_
 _symmetry_equiv_pos_site_id
 _symmetry_equiv_pos_as_xyz
  1  'x, y, z'
loop_
 _atom_site_type_symbol
 _atom_site_label
 _atom_site_symmetry_multiplicity
 _atom_site_fract_x
 _atom_site_fract_y
 _atom_site_fract_z
 _atom_site_occupancy
 _atom_site_charge
Cd  Cd1  1  0.50000000  0.00000000  0.00000000  1.0 0.8559481732
Cd  Cd2  1  0.07736000  0.08852000  0.19578000  1.0 0.8400413625
Cd  Cd3  1  0.92264000  0.91148000  0.80422000  1.0 0.8400413625
Cd  Cd4  1  0.67644000  0.55165000  0.34865000  1.0 1.023323559
Cd  Cd5  1  0.32356000  0.44835000  0.65135000  1.0 1.023323559
H  H1  1  0.76360000  0.96400000  0.14980000  1.0 0.1097185124
H  H2  1  0.23640000  0.03600000  0.85020000  1.0 0.1097185124
H  H3  1  0.58320000  0.74300000  0.17440000  1.0 0.1300497551
H  H4  1  0.41680000  0.25700000  0.82560000  1.0 0.1300497551
H  H5  1  0.85310000  0.81650000  0.28760000  1.0 0.1213225208
H  H6  1  0.14690000  0.18350000  0.71240000  1.0 0.1213225208
H  H7  1  0.18770000  0.30930000  0.39730000  1.0 0.1300497551
H  H8  1  0.81230000  0.69070000  0.60270000  1.0 0.1300497551
H  H9  1  0.41410000  0.51430000  0.44670000  1.0 0.1300497551
H  H10  1  0.58590000  0.48570000  0.55330000  1.0 0.1300497551
H  H11  1  0.36100000  0.34270000  0.27000000  1.0 0.1097185124
H  H12  1  0.63900000  0.65730000  0.73000000  1.0 0.1097185124
H  H13  1  0.57250000  0.84400000  0.94510000  1.0 0.1097185124
H  H14  1  0.42750000  0.15600000  0.05490000  1.0 0.1097185124
H  H15  1  0.65100000  0.81050000  0.86840000  1.0 0.1300497551
H  H16  1  0.34900000  0.18950000  0.13160000  1.0 0.1300497551
H  H17  1  0.69320000  0.90350000  0.79150000  1.0 0.1300497551
H  H18  1  0.30680000  0.09650000  0.20850000  1.0 0.1300497551
H  H19  1  0.58350000  0.06610000  0.87110000  1.0 0.1097185124
H  H20  1  0.41650000  0.93390000  0.12890000  1.0 0.1213225208
H  H21  1  0.66210000  0.11370000  0.78990000  1.0 0.0993405021
H  H22  1  0.33790000  0.88630000  0.21010000  1.0 0.0993405021
H  H23  1  0.73670000  0.07030000  0.77710000  1.0 0.0893715287
H  H24  1  0.26330000  0.92970000  0.22290000  1.0 0.0993405021
H  H25  1  0.69820000  0.06780000  0.63870000  1.0 0.0893715287
H  H26  1  0.30180000  0.93220000  0.36130000  1.0 0.0893715287
H  H27  1  0.64600000  0.13410000  0.65700000  1.0 0.0600523317
H  H28  1  0.35400000  0.86590000  0.34300000  1.0 0.0600523317
H  H29  1  0.54970000  0.96460000  0.57560000  1.0 0.0229699246
H  H30  1  0.45030000  0.03540000  0.42440000  1.0 0.0229699246
H  H31  1  0.49810000  0.03060000  0.59230000  1.0 0.0482623626
H  H32  1  0.50190000  0.96940000  0.40770000  1.0 0.0482623626
H  H33  1  0.10730000  0.13850000  0.05350000  1.0 0.0993405021
H  H34  1  0.89270000  0.86150000  0.94650000  1.0 0.0993405021
H  H35  1  0.14400000  0.09540000  0.95440000  1.0 0.1300497551
H  H36  1  0.85600000  0.90460000  0.04560000  1.0 0.1300497551
H  H37  1  0.17430000  0.96420000  0.93940000  1.0 0.1300497551
H  H38  1  0.82570000  0.03580000  0.06060000  1.0 0.1300497551
H  H39  1  0.11000000  0.91990000  0.12090000  1.0 0.1097185124
H  H40  1  0.89000000  0.08010000  0.87910000  1.0 0.1097185124
H  H41  1  0.20050000  0.84330000  0.98740000  1.0 0.1097185124
H  H42  1  0.79950000  0.15670000  0.01260000  1.0 0.1097185124
H  H43  1  0.20920000  0.83870000  0.06810000  1.0 0.0893715287
H  H44  1  0.79080000  0.16130000  0.93190000  1.0 0.0893715287
H  H45  1  0.16100000  0.68330000  0.01130000  1.0 0.0600523317
H  H46  1  0.83900000  0.31670000  0.98870000  1.0 0.0600523317
H  H47  1  0.09970000  0.67880000  0.93370000  1.0 0.0893715287
H  H48  1  0.90030000  0.32120000  0.06630000  1.0 0.0893715287
H  H49  1  0.01560000  0.61610000  0.04420000  1.0 0.0600523317
H  H50  1  0.98440000  0.38390000  0.95580000  1.0 0.0600523317
H  H51  1  0.96120000  0.60180000  0.96310000  1.0 0.0802302876
H  H52  1  0.03880000  0.39820000  0.03690000  1.0 0.0802302876
H  H53  1  0.05950000  0.75970000  0.04240000  1.0 0.2082297486
H  H54  1  0.94050000  0.24030000  0.95760000  1.0 0.2082297486
H  H55  1  0.04010000  0.77520000  0.96990000  1.0 0.2190613768
H  H56  1  0.95990000  0.22480000  0.03010000  1.0 0.2082297486
H  H57  1  0.61470000  0.96950000  0.69220000  1.0 0.2190613768
H  H58  1  0.38530000  0.03050000  0.30780000  1.0 0.2190613768
H  H59  1  0.55400000  0.01980000  0.70020000  1.0 0.2190613768
H  H60  1  0.44600000  0.98020000  0.29980000  1.0 0.2190613768
H  H61  1  0.56940000  0.12280000  0.51720000  1.0 0.0482623626
H  H62  1  0.43060000  0.87720000  0.48280000  1.0 0.0482623626
H  H63  1  0.61740000  0.05270000  0.50260000  1.0 0.0600523317
H  H64  1  0.38260000  0.94730000  0.49740000  1.0 0.0600523317
H  H65  1  0.05600000  0.52110000  0.93480000  1.0 0.0600523317
H  H66  1  0.94400000  0.47890000  0.06520000  1.0 0.0600523317
H  H67  1  0.11360000  0.53260000  0.01410000  1.0 0.0482623626
H  H68  1  0.88640000  0.46740000  0.98590000  1.0 0.0482623626
H  H69  1  0.47150000  0.96760000  0.58270000  1.0 0.0381389692
H  H70  1  0.52850000  0.03240000  0.41730000  1.0 0.0381389692
H  H71  1  0.47190000  0.06010000  0.56380000  1.0 0.0802302876
H  H72  1  0.52810000  0.93990000  0.43620000  1.0 0.0802302876
H  H73  1  0.61700000  0.07750000  0.53840000  1.0 0.0482623626
H  H74  1  0.38300000  0.92250000  0.46160000  1.0 0.0482623626
H  H75  1  0.61660000  0.98390000  0.55580000  1.0 0.0600523317
H  H76  1  0.38340000  0.01610000  0.44420000  1.0 0.0600523317
H  H77  1  0.08440000  0.55580000  0.05600000  1.0 0.0317479953
H  H78  1  0.91560000  0.44420000  0.94400000  1.0 0.0381389692
H  H79  1  0.01360000  0.60490000  0.06660000  1.0 0.0482623626
H  H80  1  0.98640000  0.39510000  0.93340000  1.0 0.0482623626
H  H81  1  0.96590000  0.60060000  0.94300000  1.0 0.0687270395
H  H82  1  0.03410000  0.39940000  0.05700000  1.0 0.0687270395
H  H83  1  0.03900000  0.55390000  0.93100000  1.0 0.0381389692
H  H84  1  0.96100000  0.44610000  0.06900000  1.0 0.0381389692
H  H85  1  0.12550000  0.69360000  0.94280000  1.0 0.0482623626
H  H86  1  0.87450000  0.30640000  0.05720000  1.0 0.0482623626
H  H87  1  0.15080000  0.67890000  0.02150000  1.0 0.0802302876
H  H88  1  0.84920000  0.32110000  0.97850000  1.0 0.0802302876
H  H89  1  0.70760000  0.08710000  0.65540000  1.0 0.0600523317
H  H90  1  0.29240000  0.91290000  0.34460000  1.0 0.0600523317
H  H91  1  0.62700000  0.12770000  0.65260000  1.0 0.0893715287
H  H92  1  0.37300000  0.87230000  0.34740000  1.0 0.0893715287
C  C1  1  0.92260000  0.95510000  0.22820000  1.0 0.5588145785
C  C2  1  0.07740000  0.04490000  0.77180000  1.0 0.5588145785
C  C3  1  0.82230000  0.89990000  0.21960000  1.0 -0.0288148082
C  C4  1  0.17770000  0.10010000  0.78040000  1.0 -0.0288148082
C  C5  1  0.75120000  0.91520000  0.17250000  1.0 -0.1257458074
C  C6  1  0.24880000  0.08480000  0.82750000  1.0 -0.1194342934
C  C7  1  0.65980000  0.85970000  0.15720000  1.0 -0.0288148082
C  C8  1  0.34020000  0.14030000  0.84280000  1.0 -0.0288148082
C  C9  1  0.64270000  0.78330000  0.18700000  1.0 -0.1027609085
C  C10  1  0.35730000  0.21670000  0.81300000  1.0 -0.1088743766
C  C11  1  0.71540000  0.76790000  0.23560000  1.0 -0.0197383922
C  C12  1  0.28460000  0.23210000  0.76440000  1.0 -0.0119274275
C  C13  1  0.80520000  0.82620000  0.25360000  1.0 -0.0918772393
C  C14  1  0.19480000  0.17380000  0.74640000  1.0 -0.0918772393
C  C15  1  0.58230000  0.87680000  0.10210000  1.0 0.5389518968
C  C16  1  0.41770000  0.12320000  0.89790000  1.0 0.5389518968
C  C17  1  0.69940000  0.68560000  0.26970000  1.0 0.5091049902
C  C18  1  0.30060000  0.31440000  0.73030000  1.0 0.5091049902
C  C19  1  0.19330000  0.23420000  0.27550000  1.0 0.5238061778
C  C20  1  0.80670000  0.76580000  0.72450000  1.0 0.5238061778
C  C21  1  0.25720000  0.31670000  0.32390000  1.0 -0.0288148082
C  C22  1  0.74280000  0.68330000  0.67610000  1.0 -0.0197383922
C  C23  1  0.24090000  0.34210000  0.38610000  1.0 -0.0918772393
C  C24  1  0.75910000  0.65790000  0.61390000  1.0 -0.1027609085
C  C25  1  0.30020000  0.41430000  0.43310000  1.0 0.0019321722
C  C26  1  0.69980000  0.58570000  0.56690000  1.0 0.0070257007
C  C27  1  0.37660000  0.46340000  0.41660000  1.0 -0.1088743766
C  C28  1  0.62340000  0.53660000  0.58340000  1.0 -0.1088743766
C  C29  1  0.40100000  0.43990000  0.35530000  1.0 0.0019321722
C  C30  1  0.59900000  0.56010000  0.64470000  1.0 0.0019321722
C  C31  1  0.34370000  0.36270000  0.30860000  1.0 -0.1027609085
C  C32  1  0.65630000  0.63730000  0.69140000  1.0 -0.1088743766
C  C33  1  0.49040000  0.48860000  0.34170000  1.0 0.5238061778
C  C34  1  0.50960000  0.51140000  0.65830000  1.0 0.5304210019
C  C35  1  0.29100000  0.43290000  0.50880000  1.0 0.5304210019
C  C36  1  0.70900000  0.56710000  0.49120000  1.0 0.5304210019
C  C37  1  0.59120000  0.88340000  0.91510000  1.0 0.0482623626
C  C38  1  0.40880000  0.11660000  0.08490000  1.0 0.0482623626
C  C39  1  0.63730000  0.86280000  0.86900000  1.0 -0.1088743766
C  C40  1  0.36270000  0.13720000  0.13100000  1.0 -0.1088743766
C  C41  1  0.66310000  0.91800000  0.82400000  1.0 -0.1194342934
C  C42  1  0.33690000  0.08200000  0.17600000  1.0 -0.1194342934
C  C43  1  0.64480000  0.99470000  0.82650000  1.0 0.0317479953
C  C44  1  0.35520000  0.00530000  0.17350000  1.0 0.0317479953
C  C45  1  0.59820000  0.01430000  0.87180000  1.0 -0.0288148082
C  C46  1  0.40180000  0.98570000  0.12820000  1.0 -0.0288148082
C  C47  1  0.67130000  0.05910000  0.77540000  1.0 -0.1512346969
C  C48  1  0.32870000  0.94090000  0.22460000  1.0 -0.1512346969
C  C49  1  0.64030000  0.07310000  0.64630000  1.0 -0.1735360392
C  C50  1  0.35970000  0.92690000  0.35370000  1.0 -0.1735360392
C  C51  1  0.55480000  0.02580000  0.58200000  1.0 -0.0608202771
C  C52  1  0.44520000  0.97420000  0.41800000  1.0 -0.0608202771
C  C53  1  0.11530000  0.08400000  0.04760000  1.0 0.0482623626
C  C54  1  0.88470000  0.91600000  0.95240000  1.0 0.0482623626
C  C55  1  0.13930000  0.05880000  0.98870000  1.0 -0.1421474472
C  C56  1  0.86070000  0.94120000  0.01130000  1.0 -0.1421474472
C  C57  1  0.15650000  0.98100000  0.97890000  1.0 -0.1088743766
C  C58  1  0.84350000  0.01900000  0.02110000  1.0 -0.1027609085
C  C59  1  0.14580000  0.92890000  0.03140000  1.0 0.0317479953
C  C60  1  0.85420000  0.07110000  0.96860000  1.0 0.0317479953
C  C61  1  0.11860000  0.95650000  0.08700000  1.0 -0.0369826343
C  C62  1  0.88140000  0.04350000  0.91300000  1.0 -0.0369826343
C  C63  1  0.16780000  0.84320000  0.02380000  1.0 -0.1512346969
C  C64  1  0.83220000  0.15680000  0.97620000  1.0 -0.1512346969
C  C65  1  0.10050000  0.68400000  0.98340000  1.0 -0.1601178937
C  C66  1  0.89950000  0.31600000  0.01660000  1.0 -0.1601178937
C  C67  1  0.02090000  0.60760000  0.99620000  1.0 -0.0804941945
C  C68  1  0.97910000  0.39240000  0.00380000  1.0 -0.0804941945
C  C69  1  0.56300000  0.06180000  0.51270000  1.0 -0.1421474472
C  C70  1  0.43700000  0.93820000  0.48730000  1.0 -0.1421474472
C  C71  1  0.05320000  0.52660000  0.98320000  1.0 -0.1088743766
C  C72  1  0.94680000  0.47340000  0.01680000  1.0 -0.1088743766
C  C73  1  0.48970000  0.00980000  0.55260000  1.0 -0.1194342934
C  C74  1  0.51030000  0.99020000  0.44740000  1.0 -0.1194342934
C  C75  1  0.59680000  0.03360000  0.56730000  1.0 -0.0804941945
C  C76  1  0.40320000  0.96640000  0.43270000  1.0 -0.0804941945
C  C77  1  0.02400000  0.56260000  0.03570000  1.0 -0.1257458074
C  C78  1  0.97600000  0.43740000  0.96430000  1.0 -0.1257458074
C  C79  1  0.02640000  0.59350000  0.96380000  1.0 -0.0918772393
C  C80  1  0.97360000  0.40650000  0.03620000  1.0 -0.0918772393
N  N1  1  0.10330000  0.03280000  0.09620000  1.0 -0.2403977208
N  N2  1  0.89670000  0.96720000  0.90380000  1.0 -0.2403977208
N  N3  1  0.08290000  0.76590000  0.00510000  1.0 -0.3252999552
N  N4  1  0.91710000  0.23410000  0.99490000  1.0 -0.3246575662
N  N5  1  0.57160000  0.96010000  0.91890000  1.0 -0.2403977208
N  N6  1  0.42840000  0.03990000  0.08110000  1.0 -0.2403977208
N  N7  1  0.61290000  0.02330000  0.70200000  1.0 -0.3246575662
N  N8  1  0.38710000  0.97670000  0.29800000  1.0 -0.3252999552
O  O1  1  0.93650000  0.01650000  0.19460000  1.0 -0.5597822585
O  O2  1  0.06350000  0.98350000  0.80540000  1.0 -0.5597822585
O  O3  1  0.98850000  0.93860000  0.27210000  1.0 -0.5597822585
O  O4  1  0.01150000  0.06140000  0.72790000  1.0 -0.5597822585
O  O5  1  0.12600000  0.19170000  0.29500000  1.0 -0.5131567784
O  O6  1  0.87400000  0.80830000  0.70500000  1.0 -0.5131567784
O  O7  1  0.21300000  0.21280000  0.21960000  1.0 -0.6003061154
O  O8  1  0.78700000  0.78720000  0.78040000  1.0 -0.6003061154
O  O9  1  0.59520000  0.95400000  0.08910000  1.0 -0.6003061154
O  O10  1  0.40480000  0.04600000  0.91090000  1.0 -0.6003061154
O  O11  1  0.51050000  0.81410000  0.07630000  1.0 -0.5810777314
O  O12  1  0.48950000  0.18590000  0.92370000  1.0 -0.5810777314
O  O13  1  0.52680000  0.45140000  0.30520000  1.0 -0.4707399227
O  O14  1  0.47320000  0.54860000  0.69480000  1.0 -0.4707399227
O  O15  1  0.32880000  0.50820000  0.54180000  1.0 -0.4765355357
O  O16  1  0.67120000  0.49180000  0.45820000  1.0 -0.4765355357
O  O17  1  0.25120000  0.36930000  0.53500000  1.0 -0.4482692846
O  O18  1  0.74880000  0.63070000  0.46500000  1.0 -0.4482692846
O  O19  1  0.75710000  0.67960000  0.32010000  1.0 -0.4482692846
O  O20  1  0.24290000  0.32040000  0.67990000  1.0 -0.4482692846
O  O21  1  0.62600000  0.62640000  0.24420000  1.0 -0.4280022152
O  O22  1  0.37400000  0.37360000  0.75580000  1.0 -0.4280022152
O  O23  1  0.53180000  0.56640000  0.37460000  1.0 -0.4707399227
O  O24  1  0.46820000  0.43360000  0.62540000  1.0 -0.4707399227
