# DDEC6 charges by PACMAN v1.1 (https://github.com/mtap-research/PACMAN-charge/)
data_VAKQAC_FSR_pacman
_symmetry_space_group_name_H-M   'P 1'
_cell_length_a   18.90270000
_cell_length_b   18.90270000
_cell_length_c   31.21520000
_cell_angle_alpha   78.42510000
_cell_angle_beta   101.57500000
_cell_angle_gamma   133.77300000
_symmetry_Int_Tables_number   1
_chemical_formula_structural   ZnH8C12I3N4
_chemical_formula_sum   'Zn12 H96 C144 I36 N48'
_cell_volume   7859.84283362
_cell_formula_units_Z   12
loop_
 _symmetry_equiv_pos_site_id
 _symmetry_equiv_pos_as_xyz
  1  'x, y, z'
loop_
 _atom_site_type_symbol
 _atom_site_label
 _atom_site_symmetry_multiplicity
 _atom_site_fract_x
 _atom_site_fract_y
 _atom_site_fract_z
 _atom_site_occupancy
 _atom_site_charge
Zn  Zn1  1  0.77104000  0.43966000  0.01727000  1.0 0.453001425
Zn  Zn2  1  0.70207000  0.95613000  0.19601000  1.0 0.4680857811
Zn  Zn3  1  0.19597000  0.03487000  0.34414000  1.0 0.2942213569
Zn  Zn4  1  0.45086000  0.28986000  0.84012000  1.0 0.4413520846
Zn  Zn5  1  0.05605000  0.71387000  0.51827000  1.0 0.3688630167
Zn  Zn6  1  0.52013000  0.76681000  0.68993000  1.0 0.453001425
Zn  Zn7  1  0.43966000  0.77104000  0.98273000  1.0 0.453001425
Zn  Zn8  1  0.95613000  0.70207000  0.80399000  1.0 0.4680857811
Zn  Zn9  1  0.03487000  0.19597000  0.65586000  1.0 0.2942213569
Zn  Zn10  1  0.28986000  0.45086000  0.15988000  1.0 0.4413520846
Zn  Zn11  1  0.71387000  0.05605000  0.48173000  1.0 0.3688630167
Zn  Zn12  1  0.76681000  0.52013000  0.31007000  1.0 0.453001425
H  H1  1  0.55890000  0.25250000  0.91220000  1.0 0.1089114553
H  H2  1  0.52240000  0.14000000  0.97160000  1.0 0.1383374294
H  H3  1  0.24160000  0.95460000  0.91900000  1.0 0.1308798057
H  H4  1  0.28710000  0.08070000  0.86420000  1.0 0.0992182305
H  H5  1  0.48800000  0.83180000  0.18170000  1.0 0.1089114553
H  H6  1  0.36550000  0.80050000  0.12870000  1.0 0.1383374294
H  H7  1  0.57840000  0.03640000  0.05460000  1.0 0.1308798057
H  H8  1  0.69430000  0.05110000  0.10590000  1.0 0.1089114553
H  H9  1  0.90690000  0.65090000  0.98580000  1.0 0.0992182305
H  H10  1  0.07200000  0.79100000  0.98670000  1.0 0.1308798057
H  H11  1  0.12910000  0.63590000  0.06770000  1.0 0.1383374294
H  H12  1  0.96320000  0.50500000  0.06720000  1.0 0.1089114553
H  H13  1  0.68490000  0.33570000  0.10650000  1.0 0.1089114553
H  H14  1  0.62820000  0.34920000  0.15900000  1.0 0.1224117382
H  H15  1  0.65920000  0.56560000  0.08310000  1.0 0.1308798057
H  H16  1  0.72550000  0.55490000  0.03130000  1.0 0.1089114553
H  H17  1  0.67350000  0.84030000  0.13220000  1.0 0.1089114553
H  H18  1  0.63900000  0.69860000  0.12790000  1.0 0.1383374294
H  H19  1  0.60910000  0.63830000  0.25900000  1.0 0.1308798057
H  H20  1  0.64290000  0.77990000  0.25910000  1.0 0.1089114553
H  H21  1  0.28550000  0.24730000  0.31610000  1.0 0.0801217501
H  H22  1  0.39890000  0.37930000  0.27070000  1.0 0.1383374294
H  H23  1  0.42050000  0.21150000  0.22450000  1.0 0.1383374294
H  H24  1  0.30390000  0.08070000  0.27040000  1.0 0.0801217501
H  H25  1  0.38650000  0.20510000  0.38100000  1.0 0.0891548575
H  H26  1  0.50770000  0.25290000  0.43740000  1.0 0.1308798057
H  H27  1  0.35440000  0.96480000  0.47270000  1.0 0.1224117382
H  H28  1  0.24090000  0.92750000  0.41480000  1.0 0.0992182305
H  H29  1  0.99090000  0.51910000  0.56620000  1.0 0.0992182305
H  H30  1  0.84990000  0.35550000  0.57640000  1.0 0.1383374294
H  H31  1  0.69880000  0.41720000  0.49460000  1.0 0.1308798057
H  H32  1  0.84530000  0.57970000  0.48880000  1.0 0.0891548575
H  H33  1  0.43600000  0.79020000  0.60060000  1.0 0.0992182305
H  H34  1  0.45480000  0.91060000  0.55180000  1.0 0.1224117382
H  H35  1  0.67820000  0.11240000  0.63540000  1.0 0.1308798057
H  H36  1  0.65190000  0.98390000  0.68210000  1.0 0.0801217501
H  H37  1  0.23880000  0.19380000  0.81770000  1.0 0.1089114553
H  H38  1  0.10000000  0.07140000  0.77460000  1.0 0.1383374294
H  H39  1  0.27910000  0.09010000  0.71020000  1.0 0.1383374294
H  H40  1  0.40850000  0.20130000  0.75850000  1.0 0.1089114553
H  H41  1  0.18270000  0.84590000  0.59450000  1.0 0.0992182305
H  H42  1  0.17090000  0.90570000  0.64600000  1.0 0.1308798057
H  H43  1  0.89880000  0.77880000  0.59010000  1.0 0.1383374294
H  H44  1  0.91340000  0.70400000  0.54920000  1.0 0.1089114553
H  H45  1  0.63070000  0.77990000  0.63020000  1.0 0.1089114553
H  H46  1  0.77930000  0.82370000  0.62740000  1.0 0.1383374294
H  H47  1  0.85400000  0.89280000  0.75220000  1.0 0.1383374294
H  H48  1  0.69820000  0.83580000  0.75180000  1.0 0.0992182305
H  H49  1  0.25250000  0.55890000  0.08780000  1.0 0.1089114553
H  H50  1  0.14000000  0.52240000  0.02840000  1.0 0.1383374294
H  H51  1  0.95460000  0.24160000  0.08100000  1.0 0.1308798057
H  H52  1  0.08070000  0.28710000  0.13580000  1.0 0.0992182305
H  H53  1  0.83180000  0.48800000  0.81830000  1.0 0.1089114553
H  H54  1  0.80050000  0.36550000  0.87130000  1.0 0.1383374294
H  H55  1  0.03640000  0.57840000  0.94540000  1.0 0.1308798057
H  H56  1  0.05110000  0.69430000  0.89410000  1.0 0.1089114553
H  H57  1  0.65090000  0.90690000  0.01420000  1.0 0.0992182305
H  H58  1  0.79100000  0.07200000  0.01330000  1.0 0.1308798057
H  H59  1  0.63590000  0.12910000  0.93230000  1.0 0.1383374294
H  H60  1  0.50500000  0.96320000  0.93280000  1.0 0.1089114553
H  H61  1  0.33570000  0.68490000  0.89350000  1.0 0.1089114553
H  H62  1  0.34920000  0.62820000  0.84100000  1.0 0.1224117382
H  H63  1  0.56560000  0.65920000  0.91690000  1.0 0.1308798057
H  H64  1  0.55490000  0.72550000  0.96870000  1.0 0.1089114553
H  H65  1  0.84030000  0.67350000  0.86780000  1.0 0.1089114553
H  H66  1  0.69860000  0.63900000  0.87210000  1.0 0.1383374294
H  H67  1  0.63830000  0.60910000  0.74100000  1.0 0.1308798057
H  H68  1  0.77990000  0.64290000  0.74090000  1.0 0.1089114553
H  H69  1  0.24730000  0.28550000  0.68390000  1.0 0.0801217501
H  H70  1  0.37930000  0.39890000  0.72930000  1.0 0.1383374294
H  H71  1  0.21150000  0.42050000  0.77550000  1.0 0.1383374294
H  H72  1  0.08070000  0.30390000  0.72960000  1.0 0.0891548575
H  H73  1  0.20510000  0.38650000  0.61900000  1.0 0.0891548575
H  H74  1  0.25290000  0.50770000  0.56260000  1.0 0.1308798057
H  H75  1  0.96480000  0.35440000  0.52730000  1.0 0.1224117382
H  H76  1  0.92750000  0.24090000  0.58520000  1.0 0.0992182305
H  H77  1  0.51910000  0.99090000  0.43380000  1.0 0.0992182305
H  H78  1  0.35550000  0.84990000  0.42360000  1.0 0.1383374294
H  H79  1  0.41720000  0.69880000  0.50540000  1.0 0.1308798057
H  H80  1  0.57970000  0.84530000  0.51120000  1.0 0.0891548575
H  H81  1  0.79020000  0.43600000  0.39940000  1.0 0.0992182305
H  H82  1  0.91060000  0.45480000  0.44820000  1.0 0.1224117382
H  H83  1  0.11240000  0.67820000  0.36460000  1.0 0.1308798057
H  H84  1  0.98390000  0.65190000  0.31790000  1.0 0.0801217501
H  H85  1  0.19380000  0.23880000  0.18230000  1.0 0.1089114553
H  H86  1  0.07140000  0.10000000  0.22540000  1.0 0.1383374294
H  H87  1  0.09010000  0.27910000  0.28980000  1.0 0.1383374294
H  H88  1  0.20130000  0.40850000  0.24150000  1.0 0.1089114553
H  H89  1  0.84590000  0.18270000  0.40550000  1.0 0.0992182305
H  H90  1  0.90570000  0.17090000  0.35400000  1.0 0.1308798057
H  H91  1  0.77880000  0.89880000  0.40990000  1.0 0.1383374294
H  H92  1  0.70400000  0.91340000  0.45080000  1.0 0.1089114553
H  H93  1  0.77990000  0.63070000  0.36980000  1.0 0.1089114553
H  H94  1  0.82370000  0.77930000  0.37260000  1.0 0.1383374294
H  H95  1  0.89280000  0.85400000  0.24780000  1.0 0.1383374294
H  H96  1  0.83580000  0.69820000  0.24820000  1.0 0.0992182305
C  C1  1  0.49260000  0.19220000  0.91450000  1.0 0.0891548575
C  C2  1  0.47170000  0.12470000  0.94970000  1.0 -0.1284022253
C  C3  1  0.37920000  0.03720000  0.95270000  1.0 0.0706091676
C  C4  1  0.30710000  0.01690000  0.91930000  1.0 -0.140043689
C  C5  1  0.33600000  0.09240000  0.88630000  1.0 0.0891548575
C  C6  1  0.34700000  0.96100000  0.99060000  1.0 0.3604770281
C  C7  1  0.38120000  0.90240000  0.05180000  1.0 0.3604770281
C  C8  1  0.22680000  0.81960000  0.02640000  1.0 0.3495095922
C  C9  1  0.50650000  0.87190000  0.15470000  1.0 0.1089114553
C  C10  1  0.43270000  0.85450000  0.12360000  1.0 -0.1223639553
C  C11  1  0.45700000  0.91420000  0.08640000  1.0 0.0801217501
C  C12  1  0.55800000  0.99140000  0.08010000  1.0 -0.1223639553
C  C13  1  0.62670000  0.00110000  0.11090000  1.0 0.0706091676
C  C14  1  0.95330000  0.64830000  0.00230000  1.0 0.0706091676
C  C15  1  0.05090000  0.73190000  0.00300000  1.0 -0.140043689
C  C16  1  0.11970000  0.72930000  0.02820000  1.0 0.0801217501
C  C17  1  0.08510000  0.64150000  0.05110000  1.0 -0.1497606989
C  C18  1  0.98640000  0.56320000  0.04920000  1.0 0.0801217501
C  C19  1  0.68250000  0.38530000  0.10190000  1.0 0.0801217501
C  C20  1  0.64660000  0.39120000  0.13260000  1.0 -0.1284022253
C  C21  1  0.63640000  0.45760000  0.12610000  1.0 0.0508546065
C  C22  1  0.66540000  0.51860000  0.08850000  1.0 -0.1223639553
C  C23  1  0.70560000  0.51240000  0.05760000  1.0 0.0891548575
C  C24  1  0.59490000  0.46410000  0.15850000  1.0 0.3604770281
C  C25  1  0.50280000  0.39980000  0.21480000  1.0 0.3688630167
C  C26  1  0.59050000  0.55750000  0.19070000  1.0 0.3604770281
C  C27  1  0.66120000  0.79840000  0.15820000  1.0 0.0891548575
C  C28  1  0.63900000  0.71360000  0.15510000  1.0 -0.1284022253
C  C29  1  0.61620000  0.64960000  0.19290000  1.0 0.0508546065
C  C30  1  0.62130000  0.67850000  0.23240000  1.0 -0.140043689
C  C31  1  0.64340000  0.76320000  0.23250000  1.0 0.0608462769
C  C32  1  0.31320000  0.23980000  0.29720000  1.0 0.0508546065
C  C33  1  0.38140000  0.31860000  0.27060000  1.0 -0.140043689
C  C34  1  0.42490000  0.31210000  0.24370000  1.0 0.0706091676
C  C35  1  0.39380000  0.22020000  0.24340000  1.0 -0.1284022253
C  C36  1  0.32430000  0.14270000  0.27070000  1.0 0.0608462769
C  C37  1  0.38120000  0.15540000  0.39960000  1.0 0.0891548575
C  C38  1  0.45350000  0.18510000  0.43350000  1.0 -0.140043689
C  C39  1  0.44500000  0.11500000  0.46110000  1.0 0.0508546065
C  C40  1  0.36310000  0.01590000  0.45380000  1.0 -0.1497606989
C  C41  1  0.29680000  0.99460000  0.41940000  1.0 0.0508546065
C  C42  1  0.52010000  0.14190000  0.49790000  1.0 0.3604770281
C  C43  1  0.66730000  0.26110000  0.53330000  1.0 0.3495095922
C  C44  1  0.58110000  0.10110000  0.55740000  1.0 0.3688630167
C  C45  1  0.93020000  0.49780000  0.55220000  1.0 0.0706091676
C  C46  1  0.84780000  0.40020000  0.55740000  1.0 -0.1601548117
C  C47  1  0.75760000  0.36740000  0.53330000  1.0 0.0508546065
C  C48  1  0.75800000  0.43580000  0.50940000  1.0 -0.140043689
C  C49  1  0.84560000  0.53300000  0.50690000  1.0 0.0801217501
C  C50  1  0.48550000  0.85650000  0.60770000  1.0 0.0801217501
C  C51  1  0.49610000  0.92770000  0.57840000  1.0 -0.140043689
C  C52  1  0.56780000  0.02400000  0.58840000  1.0 0.0508546065
C  C53  1  0.62780000  0.04660000  0.62780000  1.0 -0.1284022253
C  C54  1  0.61160000  0.96960000  0.65540000  1.0 0.0801217501
C  C55  1  0.24590000  0.16970000  0.79650000  1.0 0.0706091676
C  C56  1  0.16290000  0.09730000  0.77050000  1.0 -0.140043689
C  C57  1  0.17280000  0.06380000  0.73900000  1.0 0.0608462769
C  C58  1  0.26810000  0.10710000  0.73300000  1.0 -0.1601548117
C  C59  1  0.34480000  0.17500000  0.76140000  1.0 0.0891548575
C  C60  1  0.08590000  0.98410000  0.71250000  1.0 0.3495095922
C  C61  1  0.92700000  0.88980000  0.68860000  1.0 0.3604770281
C  C62  1  0.02210000  0.88750000  0.65840000  1.0 0.3688630167
C  C63  1  0.12270000  0.82970000  0.59470000  1.0 0.0508546065
C  C64  1  0.11700000  0.86720000  0.62490000  1.0 -0.140043689
C  C65  1  0.03440000  0.85020000  0.62520000  1.0 0.0706091676
C  C66  1  0.95730000  0.79070000  0.59330000  1.0 -0.1497606989
C  C67  1  0.96890000  0.75110000  0.56760000  1.0 0.0706091676
C  C68  1  0.67630000  0.80170000  0.65560000  1.0 0.0891548575
C  C69  1  0.76430000  0.82710000  0.65370000  1.0 -0.140043689
C  C70  1  0.82810000  0.85650000  0.68980000  1.0 0.0608462769
C  C71  1  0.80810000  0.86650000  0.72710000  1.0 -0.1497606989
C  C72  1  0.71660000  0.83580000  0.72570000  1.0 0.0706091676
C  C73  1  0.19220000  0.49260000  0.08550000  1.0 0.0891548575
C  C74  1  0.12470000  0.47170000  0.05030000  1.0 -0.1284022253
C  C75  1  0.03720000  0.37920000  0.04730000  1.0 0.0706091676
C  C76  1  0.01690000  0.30710000  0.08070000  1.0 -0.140043689
C  C77  1  0.09240000  0.33600000  0.11370000  1.0 0.0891548575
C  C78  1  0.96100000  0.34700000  0.00940000  1.0 0.3604770281
C  C79  1  0.90240000  0.38120000  0.94820000  1.0 0.3604770281
C  C80  1  0.81960000  0.22680000  0.97360000  1.0 0.3495095922
C  C81  1  0.87190000  0.50650000  0.84530000  1.0 0.1089114553
C  C82  1  0.85450000  0.43270000  0.87640000  1.0 -0.1223639553
C  C83  1  0.91420000  0.45700000  0.91360000  1.0 0.0801217501
C  C84  1  0.99140000  0.55800000  0.91990000  1.0 -0.1223639553
C  C85  1  0.00110000  0.62670000  0.88910000  1.0 0.0706091676
C  C86  1  0.64830000  0.95330000  0.99770000  1.0 0.0706091676
C  C87  1  0.73190000  0.05090000  0.99700000  1.0 -0.140043689
C  C88  1  0.72930000  0.11970000  0.97180000  1.0 0.0801217501
C  C89  1  0.64150000  0.08510000  0.94890000  1.0 -0.1497606989
C  C90  1  0.56320000  0.98640000  0.95080000  1.0 0.0801217501
C  C91  1  0.38530000  0.68250000  0.89810000  1.0 0.0801217501
C  C92  1  0.39120000  0.64660000  0.86740000  1.0 -0.1284022253
C  C93  1  0.45760000  0.63640000  0.87390000  1.0 0.0508546065
C  C94  1  0.51860000  0.66540000  0.91150000  1.0 -0.1223639553
C  C95  1  0.51240000  0.70560000  0.94240000  1.0 0.0891548575
C  C96  1  0.46410000  0.59490000  0.84150000  1.0 0.3604770281
C  C97  1  0.39980000  0.50280000  0.78520000  1.0 0.3688630167
C  C98  1  0.55750000  0.59050000  0.80930000  1.0 0.3604770281
C  C99  1  0.79840000  0.66120000  0.84180000  1.0 0.0891548575
C  C100  1  0.71360000  0.63900000  0.84490000  1.0 -0.1284022253
C  C101  1  0.64960000  0.61620000  0.80710000  1.0 0.0508546065
C  C102  1  0.67850000  0.62130000  0.76760000  1.0 -0.140043689
C  C103  1  0.76320000  0.64340000  0.76750000  1.0 0.0608462769
C  C104  1  0.23980000  0.31320000  0.70280000  1.0 0.0508546065
C  C105  1  0.31860000  0.38140000  0.72940000  1.0 -0.140043689
C  C106  1  0.31210000  0.42490000  0.75630000  1.0 0.0706091676
C  C107  1  0.22020000  0.39380000  0.75660000  1.0 -0.1284022253
C  C108  1  0.14270000  0.32430000  0.72930000  1.0 0.0608462769
C  C109  1  0.15540000  0.38120000  0.60040000  1.0 0.0891548575
C  C110  1  0.18510000  0.45350000  0.56650000  1.0 -0.140043689
C  C111  1  0.11500000  0.44500000  0.53890000  1.0 0.0508546065
C  C112  1  0.01590000  0.36310000  0.54620000  1.0 -0.1497606989
C  C113  1  0.99460000  0.29680000  0.58060000  1.0 0.0508546065
C  C114  1  0.14190000  0.52010000  0.50210000  1.0 0.3604770281
C  C115  1  0.26110000  0.66730000  0.46670000  1.0 0.3495095922
C  C116  1  0.10110000  0.58110000  0.44260000  1.0 0.3688630167
C  C117  1  0.49780000  0.93020000  0.44780000  1.0 0.0706091676
C  C118  1  0.40020000  0.84780000  0.44260000  1.0 -0.1601548117
C  C119  1  0.36740000  0.75760000  0.46670000  1.0 0.0508546065
C  C120  1  0.43580000  0.75800000  0.49060000  1.0 -0.140043689
C  C121  1  0.53300000  0.84560000  0.49310000  1.0 0.0801217501
C  C122  1  0.85650000  0.48550000  0.39230000  1.0 0.0801217501
C  C123  1  0.92770000  0.49610000  0.42160000  1.0 -0.140043689
C  C124  1  0.02400000  0.56780000  0.41160000  1.0 0.0508546065
C  C125  1  0.04660000  0.62780000  0.37220000  1.0 -0.1284022253
C  C126  1  0.96960000  0.61160000  0.34460000  1.0 0.0801217501
C  C127  1  0.16970000  0.24590000  0.20350000  1.0 0.0706091676
C  C128  1  0.09730000  0.16290000  0.22950000  1.0 -0.140043689
C  C129  1  0.06380000  0.17280000  0.26100000  1.0 0.0608462769
C  C130  1  0.10710000  0.26810000  0.26700000  1.0 -0.1601548117
C  C131  1  0.17500000  0.34480000  0.23860000  1.0 0.0891548575
C  C132  1  0.98410000  0.08590000  0.28750000  1.0 0.3495095922
C  C133  1  0.88980000  0.92700000  0.31140000  1.0 0.3604770281
C  C134  1  0.88750000  0.02210000  0.34160000  1.0 0.3688630167
C  C135  1  0.82970000  0.12270000  0.40530000  1.0 0.0508546065
C  C136  1  0.86720000  0.11700000  0.37510000  1.0 -0.140043689
C  C137  1  0.85020000  0.03440000  0.37480000  1.0 0.0706091676
C  C138  1  0.79070000  0.95730000  0.40670000  1.0 -0.1497606989
C  C139  1  0.75110000  0.96890000  0.43240000  1.0 0.0706091676
C  C140  1  0.80170000  0.67630000  0.34440000  1.0 0.0891548575
C  C141  1  0.82710000  0.76430000  0.34630000  1.0 -0.140043689
C  C142  1  0.85650000  0.82810000  0.31020000  1.0 0.0608462769
C  C143  1  0.86650000  0.80810000  0.27290000  1.0 -0.1497606989
C  C144  1  0.83580000  0.71660000  0.27430000  1.0 0.0706091676
I  I1  1  0.12445000  0.07795000  0.38261000  1.0 0.0608462769
I  I2  1  0.10930000  0.88210000  0.30870000  1.0 0.0431793187
I  I3  1  0.21330000  0.74730000  0.53724000  1.0 -0.0926484015
I  I4  1  0.02000000  0.77180000  0.44268000  1.0 -0.4612002965
I  I5  1  0.71000000  0.46720000  0.94260000  1.0 -0.3990858094
I  I6  1  0.72959000  0.27841000  0.03810000  1.0 -0.409832065
I  I7  1  0.66369000  0.95023000  0.27067000  1.0 -0.43934188
I  I8  1  0.86738000  0.08648000  0.16529000  1.0 -0.4487679448
I  I9  1  0.60421000  0.37907000  0.80528000  1.0 -0.3990858094
I  I10  1  0.40795000  0.35717000  0.88108000  1.0 -0.409832065
I  I11  1  0.50999000  0.79161000  0.76400000  1.0 -0.4174574014
I  I12  1  0.39081000  0.60735000  0.65426000  1.0 -0.43934188
I  I13  1  0.70470000  0.47190000  0.94260000  1.0 -0.409832065
I  I14  1  0.74050000  0.28350000  0.04090000  1.0 -0.4174574014
I  I15  1  0.11960000  0.06840000  0.37170000  1.0 0.0508546065
I  I16  1  0.12830000  0.87970000  0.30840000  1.0 0.0508546065
I  I17  1  0.20170000  0.73030000  0.54370000  1.0 -0.1223639553
I  I18  1  0.03040000  0.76940000  0.44380000  1.0 -0.4297191348
I  I19  1  0.07795000  0.12445000  0.61739000  1.0 0.0608462769
I  I20  1  0.88210000  0.10930000  0.69130000  1.0 0.0431793187
I  I21  1  0.74730000  0.21330000  0.46276000  1.0 -0.0926484015
I  I22  1  0.77180000  0.02000000  0.55732000  1.0 -0.4612002965
I  I23  1  0.46720000  0.71000000  0.05740000  1.0 -0.3990858094
I  I24  1  0.27841000  0.72959000  0.96190000  1.0 -0.409832065
I  I25  1  0.95023000  0.66369000  0.72933000  1.0 -0.43934188
I  I26  1  0.08648000  0.86738000  0.83471000  1.0 -0.4487679448
I  I27  1  0.37907000  0.60421000  0.19472000  1.0 -0.3990858094
I  I28  1  0.35717000  0.40795000  0.11892000  1.0 -0.409832065
I  I29  1  0.79161000  0.50999000  0.23600000  1.0 -0.4174574014
I  I30  1  0.60735000  0.39081000  0.34574000  1.0 -0.43934188
I  I31  1  0.47190000  0.70470000  0.05740000  1.0 -0.409832065
I  I32  1  0.28350000  0.74050000  0.95910000  1.0 -0.4174574014
I  I33  1  0.06840000  0.11960000  0.62830000  1.0 0.0508546065
I  I34  1  0.87970000  0.12830000  0.69160000  1.0 0.0508546065
I  I35  1  0.73030000  0.20170000  0.45630000  1.0 -0.1223639553
I  I36  1  0.76940000  0.03040000  0.55620000  1.0 -0.4297191348
N  N1  1  0.42470000  0.17690000  0.88390000  1.0 -0.170800123
N  N2  1  0.41840000  0.97360000  0.01890000  1.0 -0.3490893912
N  N3  1  0.28750000  0.82350000  0.05840000  1.0 -0.3490893912
N  N4  1  0.25060000  0.88500000  0.99260000  1.0 -0.3556182083
N  N5  1  0.59950000  0.94070000  0.14830000  1.0 -0.170800123
N  N6  1  0.92000000  0.56180000  0.02410000  1.0 -0.1601548117
N  N7  1  0.71580000  0.44720000  0.06440000  1.0 -0.1497606989
N  N8  1  0.53150000  0.38430000  0.18510000  1.0 -0.3808184769
N  N9  1  0.53140000  0.48400000  0.22050000  1.0 -0.3919726755
N  N10  1  0.62410000  0.55250000  0.15910000  1.0 -0.3720554259
N  N11  1  0.66650000  0.82550000  0.19580000  1.0 -0.1807821141
N  N12  1  0.28410000  0.15150000  0.29770000  1.0 -0.1890998777
N  N13  1  0.30650000  0.06510000  0.39100000  1.0 -0.1807821141
N  N14  1  0.59780000  0.23840000  0.50200000  1.0 -0.3808184769
N  N15  1  0.66070000  0.19470000  0.56390000  1.0 -0.3808184769
N  N16  1  0.51010000  0.07150000  0.52540000  1.0 -0.3808184769
N  N17  1  0.93060000  0.56520000  0.52850000  1.0 -0.170800123
N  N18  1  0.54070000  0.87550000  0.64540000  1.0 -0.170800123
N  N19  1  0.33530000  0.20570000  0.79210000  1.0 -0.1890998777
N  N20  1  0.99950000  0.95170000  0.71730000  1.0 -0.3919726755
N  N21  1  0.93460000  0.85560000  0.65850000  1.0 -0.3808184769
N  N22  1  0.10170000  0.95370000  0.68350000  1.0 -0.3990858094
N  N23  1  0.04950000  0.77170000  0.56530000  1.0 -0.1601548117
N  N24  1  0.65420000  0.80700000  0.69100000  1.0 -0.1807821141
N  N25  1  0.17690000  0.42470000  0.11610000  1.0 -0.170800123
N  N26  1  0.97360000  0.41840000  0.98110000  1.0 -0.3490893912
N  N27  1  0.82350000  0.28750000  0.94160000  1.0 -0.3490893912
N  N28  1  0.88500000  0.25060000  0.00740000  1.0 -0.3556182083
N  N29  1  0.94070000  0.59950000  0.85170000  1.0 -0.170800123
N  N30  1  0.56180000  0.92000000  0.97590000  1.0 -0.1601548117
N  N31  1  0.44720000  0.71580000  0.93560000  1.0 -0.1497606989
N  N32  1  0.38430000  0.53150000  0.81490000  1.0 -0.3808184769
N  N33  1  0.48400000  0.53140000  0.77950000  1.0 -0.3919726755
N  N34  1  0.55250000  0.62410000  0.84090000  1.0 -0.3720554259
N  N35  1  0.82550000  0.66650000  0.80420000  1.0 -0.1807821141
N  N36  1  0.15150000  0.28410000  0.70230000  1.0 -0.1890998777
N  N37  1  0.06510000  0.30650000  0.60900000  1.0 -0.1807821141
N  N38  1  0.23840000  0.59780000  0.49800000  1.0 -0.3808184769
N  N39  1  0.19470000  0.66070000  0.43610000  1.0 -0.3808184769
N  N40  1  0.07150000  0.51010000  0.47460000  1.0 -0.3808184769
N  N41  1  0.56520000  0.93060000  0.47150000  1.0 -0.170800123
N  N42  1  0.87550000  0.54070000  0.35460000  1.0 -0.170800123
N  N43  1  0.20570000  0.33530000  0.20790000  1.0 -0.1890998777
N  N44  1  0.95170000  0.99950000  0.28270000  1.0 -0.3919726755
N  N45  1  0.85560000  0.93460000  0.34150000  1.0 -0.3808184769
N  N46  1  0.95370000  0.10170000  0.31650000  1.0 -0.3990858094
N  N47  1  0.77170000  0.04950000  0.43470000  1.0 -0.1601548117
N  N48  1  0.80700000  0.65420000  0.30900000  1.0 -0.1807821141
