# DDEC6 charges by PACMAN v1.1 (https://github.com/mtap-research/PACMAN-charge/)
data_VANJAZ_ASR_pacman
_symmetry_space_group_name_H-M   'P 1'
_cell_length_a   9.92730000
_cell_length_b   9.92730000
_cell_length_c   7.87820000
_cell_angle_alpha   90.00000000
_cell_angle_beta   90.00000000
_cell_angle_gamma   90.00000000
_symmetry_Int_Tables_number   1
_chemical_formula_structural   TaNiH8C8N4(OF8)2
_chemical_formula_sum   'Ta2 Ni2 H16 C16 N8 O4 F32'
_cell_volume   776.40673577
_cell_formula_units_Z   2
loop_
 _symmetry_equiv_pos_site_id
 _symmetry_equiv_pos_as_xyz
  1  'x, y, z'
loop_
 _atom_site_type_symbol
 _atom_site_label
 _atom_site_symmetry_multiplicity
 _atom_site_fract_x
 _atom_site_fract_y
 _atom_site_fract_z
 _atom_site_occupancy
 _atom_site_charge
Ta  Ta1  1  0.50000000  0.00000000  0.00000000  1.0 0.7433058599
Ta  Ta2  1  0.00000000  0.50000000  0.00000000  1.0 0.7484054545
Ni  Ni1  1  0.50000000  0.00000000  0.50000000  1.0 0.6015440802
Ni  Ni2  1  0.00000000  0.50000000  0.50000000  1.0 0.6015440802
H  H1  1  0.73327000  0.89780000  0.28292000  1.0 0.0382745069
H  H2  1  0.59882000  0.76297000  0.72005000  1.0 0.0382745069
H  H3  1  0.26673000  0.10220000  0.28292000  1.0 0.0382745069
H  H4  1  0.40118000  0.23703000  0.72005000  1.0 0.0382745069
H  H5  1  0.10220000  0.73327000  0.71708000  1.0 0.0382745069
H  H6  1  0.23703000  0.59882000  0.27995000  1.0 0.0382745069
H  H7  1  0.89780000  0.26673000  0.71708000  1.0 0.0382745069
H  H8  1  0.76297000  0.40118000  0.27995000  1.0 0.0382745069
H  H9  1  0.26673000  0.89780000  0.71708000  1.0 0.0382745069
H  H10  1  0.40118000  0.76297000  0.27995000  1.0 0.0382745069
H  H11  1  0.73327000  0.10220000  0.71708000  1.0 0.0382745069
H  H12  1  0.59882000  0.23703000  0.27995000  1.0 0.0382745069
H  H13  1  0.89780000  0.73327000  0.28292000  1.0 0.0382745069
H  H14  1  0.76297000  0.59882000  0.72005000  1.0 0.0382745069
H  H15  1  0.10220000  0.26673000  0.28292000  1.0 0.0382745069
H  H16  1  0.23703000  0.40118000  0.72005000  1.0 0.0382745069
C  C1  1  0.73840000  0.83730000  0.37610000  1.0 -0.0092381236
C  C2  1  0.66110000  0.75910000  0.62860000  1.0 -0.0374072838
C  C3  1  0.26160000  0.16270000  0.37610000  1.0 -0.0092381236
C  C4  1  0.33890000  0.24090000  0.62860000  1.0 -0.0374072838
C  C5  1  0.16270000  0.73840000  0.62390000  1.0 -0.0092381236
C  C6  1  0.24090000  0.66110000  0.37140000  1.0 -0.0374072838
C  C7  1  0.83730000  0.26160000  0.62390000  1.0 -0.0092381236
C  C8  1  0.75910000  0.33890000  0.37140000  1.0 -0.0374072838
C  C9  1  0.26160000  0.83730000  0.62390000  1.0 -0.0092381236
C  C10  1  0.33890000  0.75910000  0.37140000  1.0 -0.0374072838
C  C11  1  0.73840000  0.16270000  0.62390000  1.0 -0.0092381236
C  C12  1  0.66110000  0.24090000  0.37140000  1.0 -0.0374072838
C  C13  1  0.83730000  0.73840000  0.37610000  1.0 -0.0092381236
C  C14  1  0.75910000  0.66110000  0.62860000  1.0 -0.0374072838
C  C15  1  0.16270000  0.26160000  0.37610000  1.0 -0.0092381236
C  C16  1  0.24090000  0.33890000  0.62860000  1.0 -0.0374072838
N  N1  1  0.65134000  0.84987000  0.50158000  1.0 -0.2777154019
N  N2  1  0.34866000  0.15013000  0.50158000  1.0 -0.2777154019
N  N3  1  0.15013000  0.65134000  0.49842000  1.0 -0.2777154019
N  N4  1  0.84987000  0.34866000  0.49842000  1.0 -0.2777154019
N  N5  1  0.34866000  0.84987000  0.49842000  1.0 -0.2777154019
N  N6  1  0.65134000  0.15013000  0.49842000  1.0 -0.2777154019
N  N7  1  0.84987000  0.65134000  0.50158000  1.0 -0.2777154019
N  N8  1  0.15013000  0.34866000  0.50158000  1.0 -0.2777154019
O  O1  1  0.50000000  0.00000000  0.24680000  1.0 -0.6645819267
O  O2  1  0.00000000  0.50000000  0.75320000  1.0 -0.6645819267
O  O3  1  0.50000000  0.00000000  0.75320000  1.0 -0.6645819267
O  O4  1  0.00000000  0.50000000  0.24680000  1.0 -0.6645819267
F  F1  1  0.68830000  0.03650000  0.00360000  1.0 0.0616859144
F  F2  1  0.46320000  0.18960000  0.01870000  1.0 0.05383452
F  F3  1  0.60200000  0.16500000  0.98120000  1.0 0.0709535971
F  F4  1  0.66500000  0.10100000  0.00300000  1.0 0.0616859144
F  F5  1  0.31170000  0.96350000  0.00360000  1.0 0.05383452
F  F6  1  0.53680000  0.81040000  0.01870000  1.0 0.05383452
F  F7  1  0.39800000  0.83500000  0.98120000  1.0 0.0709535971
F  F8  1  0.33500000  0.89900000  0.00300000  1.0 0.0616859144
F  F9  1  0.96350000  0.68830000  0.99640000  1.0 0.05383452
F  F10  1  0.81040000  0.46320000  0.98130000  1.0 0.05383452
F  F11  1  0.83500000  0.60200000  0.01880000  1.0 0.0709535971
F  F12  1  0.89900000  0.66500000  0.99700000  1.0 0.0616859144
F  F13  1  0.03650000  0.31170000  0.99640000  1.0 0.0616859144
F  F14  1  0.18960000  0.53680000  0.98130000  1.0 0.05383452
F  F15  1  0.16500000  0.39800000  0.01880000  1.0 0.0709535971
F  F16  1  0.10100000  0.33500000  0.99700000  1.0 0.0616859144
F  F17  1  0.31170000  0.03650000  0.99640000  1.0 0.0616859144
F  F18  1  0.53680000  0.18960000  0.98130000  1.0 0.05383452
F  F19  1  0.39800000  0.16500000  0.01880000  1.0 0.0709535971
F  F20  1  0.33500000  0.10100000  0.99700000  1.0 0.0616859144
F  F21  1  0.68830000  0.96350000  0.99640000  1.0 0.05383452
F  F22  1  0.46320000  0.81040000  0.98130000  1.0 0.05383452
F  F23  1  0.60200000  0.83500000  0.01880000  1.0 0.0709535971
F  F24  1  0.66500000  0.89900000  0.99700000  1.0 0.0616859144
F  F25  1  0.03650000  0.68830000  0.00360000  1.0 0.05383452
F  F26  1  0.18960000  0.46320000  0.01870000  1.0 0.05383452
F  F27  1  0.16500000  0.60200000  0.98120000  1.0 0.0709535971
F  F28  1  0.10100000  0.66500000  0.00300000  1.0 0.0616859144
F  F29  1  0.96350000  0.31170000  0.00360000  1.0 0.05383452
F  F30  1  0.81040000  0.53680000  0.01870000  1.0 0.05383452
F  F31  1  0.83500000  0.39800000  0.98120000  1.0 0.0709535971
F  F32  1  0.89900000  0.33500000  0.00300000  1.0 0.0616859144
