# DDEC6 charges by PACMAN v1.1 (https://github.com/mtap-research/PACMAN-charge/)
data_VANNEG_ASR_pacman
_symmetry_space_group_name_H-M   'P 1'
_cell_length_a   20.69630000
_cell_length_b   20.69630000
_cell_length_c   20.69630000
_cell_angle_alpha   89.53810000
_cell_angle_beta   89.53810000
_cell_angle_gamma   89.53810000
_symmetry_Int_Tables_number   1
_chemical_formula_structural   U4H48(C29O8)3
_chemical_formula_sum   'U8 H96 C174 O48'
_cell_volume   8864.12802114
_cell_formula_units_Z   2
loop_
 _symmetry_equiv_pos_site_id
 _symmetry_equiv_pos_as_xyz
  1  'x, y, z'
loop_
 _atom_site_type_symbol
 _atom_site_label
 _atom_site_symmetry_multiplicity
 _atom_site_fract_x
 _atom_site_fract_y
 _atom_site_fract_z
 _atom_site_occupancy
 _atom_site_charge
U  U1  1  0.66457000  0.66457000  0.09415000  1.0 2.097983076
U  U2  1  0.66457000  0.09415000  0.66457000  1.0 2.097983076
U  U3  1  0.09415000  0.66457000  0.66457000  1.0 2.097983076
U  U4  1  0.06816000  0.06816000  0.06816000  1.0 2.0571814714
U  U5  1  0.64468000  0.64468000  0.64468000  1.0 2.1114853559
U  U6  1  0.68874000  0.27301000  0.27301000  1.0 2.1280347047
U  U7  1  0.27301000  0.27301000  0.68874000  1.0 2.1280347047
U  U8  1  0.27301000  0.68874000  0.27301000  1.0 2.1280347047
H  H1  1  0.51510000  0.70190000  0.91940000  1.0 0.1125561927
H  H2  1  0.70190000  0.91940000  0.51510000  1.0 0.1125561927
H  H3  1  0.91940000  0.51510000  0.70190000  1.0 0.1125561927
H  H4  1  0.51510000  0.91940000  0.70190000  1.0 0.1125561927
H  H5  1  0.70190000  0.51510000  0.91940000  1.0 0.1125561927
H  H6  1  0.91940000  0.70190000  0.51510000  1.0 0.1125561927
H  H7  1  0.44460000  0.76490000  0.85190000  1.0 0.1125561927
H  H8  1  0.76490000  0.85190000  0.44460000  1.0 0.1125561927
H  H9  1  0.85190000  0.44460000  0.76490000  1.0 0.1125561927
H  H10  1  0.44460000  0.85190000  0.76490000  1.0 0.1125561927
H  H11  1  0.76490000  0.44460000  0.85190000  1.0 0.1125561927
H  H12  1  0.85190000  0.76490000  0.44460000  1.0 0.1125561927
H  H13  1  0.43080000  0.89840000  0.99080000  1.0 0.1125561927
H  H14  1  0.89840000  0.99080000  0.43080000  1.0 0.1125561927
H  H15  1  0.99080000  0.43080000  0.89840000  1.0 0.1125561927
H  H16  1  0.43080000  0.99080000  0.89840000  1.0 0.1125561927
H  H17  1  0.89840000  0.43080000  0.99080000  1.0 0.1125561927
H  H18  1  0.99080000  0.89840000  0.43080000  1.0 0.1125561927
H  H19  1  0.23280000  0.90050000  0.03550000  1.0 0.1278001766
H  H20  1  0.90050000  0.03550000  0.23280000  1.0 0.1278001766
H  H21  1  0.03550000  0.23280000  0.90050000  1.0 0.1278001766
H  H22  1  0.23280000  0.03550000  0.90050000  1.0 0.1278001766
H  H23  1  0.90050000  0.23280000  0.03550000  1.0 0.1278001766
H  H24  1  0.03550000  0.90050000  0.23280000  1.0 0.1278001766
H  H25  1  0.32450000  0.85330000  0.99220000  1.0 0.1208796694
H  H26  1  0.85330000  0.99220000  0.32450000  1.0 0.1125561927
H  H27  1  0.99220000  0.32450000  0.85330000  1.0 0.1208796694
H  H28  1  0.32450000  0.99220000  0.85330000  1.0 0.1208796694
H  H29  1  0.85330000  0.32450000  0.99220000  1.0 0.1208796694
H  H30  1  0.99220000  0.85330000  0.32450000  1.0 0.1125561927
H  H31  1  0.50090000  0.83930000  0.05450000  1.0 0.1208796694
H  H32  1  0.83930000  0.05450000  0.50090000  1.0 0.1208796694
H  H33  1  0.05450000  0.50090000  0.83930000  1.0 0.1208796694
H  H34  1  0.50090000  0.05450000  0.83930000  1.0 0.1208796694
H  H35  1  0.83930000  0.50090000  0.05450000  1.0 0.1208796694
H  H36  1  0.05450000  0.83930000  0.50090000  1.0 0.1208796694
H  H37  1  0.33260000  0.75470000  0.89340000  1.0 0.1125561927
H  H38  1  0.75470000  0.89340000  0.33260000  1.0 0.1125561927
H  H39  1  0.89340000  0.33260000  0.75470000  1.0 0.1125561927
H  H40  1  0.33260000  0.89340000  0.75470000  1.0 0.1125561927
H  H41  1  0.75470000  0.33260000  0.89340000  1.0 0.1125561927
H  H42  1  0.89340000  0.75470000  0.33260000  1.0 0.1125561927
H  H43  1  0.24870000  0.70420000  0.84030000  1.0 0.1278001766
H  H44  1  0.70420000  0.84030000  0.24870000  1.0 0.1278001766
H  H45  1  0.84030000  0.24870000  0.70420000  1.0 0.1278001766
H  H46  1  0.24870000  0.84030000  0.70420000  1.0 0.1278001766
H  H47  1  0.70420000  0.24870000  0.84030000  1.0 0.1278001766
H  H48  1  0.84030000  0.70420000  0.24870000  1.0 0.1278001766
H  H49  1  0.45500000  0.04550000  0.35560000  1.0 0.1125561927
H  H50  1  0.04550000  0.35560000  0.45500000  1.0 0.1125561927
H  H51  1  0.35560000  0.45500000  0.04550000  1.0 0.1125561927
H  H52  1  0.45500000  0.35560000  0.04550000  1.0 0.1125561927
H  H53  1  0.04550000  0.45500000  0.35560000  1.0 0.1125561927
H  H54  1  0.35560000  0.04550000  0.45500000  1.0 0.1125561927
H  H55  1  0.58170000  0.03210000  0.50090000  1.0 0.1208796694
H  H56  1  0.03210000  0.50090000  0.58170000  1.0 0.1208796694
H  H57  1  0.50090000  0.58170000  0.03210000  1.0 0.1208796694
H  H58  1  0.58170000  0.50090000  0.03210000  1.0 0.1208796694
H  H59  1  0.03210000  0.58170000  0.50090000  1.0 0.1208796694
H  H60  1  0.50090000  0.03210000  0.58170000  1.0 0.1208796694
H  H61  1  0.65220000  0.09950000  0.44190000  1.0 0.1208796694
H  H62  1  0.09950000  0.44190000  0.65220000  1.0 0.1208796694
H  H63  1  0.44190000  0.65220000  0.09950000  1.0 0.1208796694
H  H64  1  0.65220000  0.44190000  0.09950000  1.0 0.1208796694
H  H65  1  0.09950000  0.65220000  0.44190000  1.0 0.1208796694
H  H66  1  0.44190000  0.09950000  0.65220000  1.0 0.1208796694
H  H67  1  0.51010000  0.13120000  0.31410000  1.0 0.1208796694
H  H68  1  0.13120000  0.31410000  0.51010000  1.0 0.1208796694
H  H69  1  0.31410000  0.51010000  0.13120000  1.0 0.1208796694
H  H70  1  0.51010000  0.31410000  0.13120000  1.0 0.1208796694
H  H71  1  0.13120000  0.51010000  0.31410000  1.0 0.1208796694
H  H72  1  0.31410000  0.13120000  0.51010000  1.0 0.1208796694
H  H73  1  0.43280000  0.86330000  0.29060000  1.0 0.1208796694
H  H74  1  0.86330000  0.29060000  0.43280000  1.0 0.1208796694
H  H75  1  0.29060000  0.43280000  0.86330000  1.0 0.1208796694
H  H76  1  0.43280000  0.29060000  0.86330000  1.0 0.1208796694
H  H77  1  0.86330000  0.43280000  0.29060000  1.0 0.1208796694
H  H78  1  0.29060000  0.86330000  0.43280000  1.0 0.1208796694
H  H79  1  0.48840000  0.93620000  0.35020000  1.0 0.1125561927
H  H80  1  0.93620000  0.35020000  0.48840000  1.0 0.1125561927
H  H81  1  0.35020000  0.48840000  0.93620000  1.0 0.1125561927
H  H82  1  0.48840000  0.35020000  0.93620000  1.0 0.1125561927
H  H83  1  0.93620000  0.48840000  0.35020000  1.0 0.1125561927
H  H84  1  0.35020000  0.93620000  0.48840000  1.0 0.1125561927
H  H85  1  0.48710000  0.82480000  0.62520000  1.0 0.1125561927
H  H86  1  0.82480000  0.62520000  0.48710000  1.0 0.1125561927
H  H87  1  0.62520000  0.48710000  0.82480000  1.0 0.1125561927
H  H88  1  0.48710000  0.62520000  0.82480000  1.0 0.1125561927
H  H89  1  0.82480000  0.48710000  0.62520000  1.0 0.1125561927
H  H90  1  0.62520000  0.82480000  0.48710000  1.0 0.1125561927
H  H91  1  0.43730000  0.91680000  0.57940000  1.0 0.1125561927
H  H92  1  0.91680000  0.57940000  0.43730000  1.0 0.1125561927
H  H93  1  0.57940000  0.43730000  0.91680000  1.0 0.1125561927
H  H94  1  0.43730000  0.57940000  0.91680000  1.0 0.1125561927
H  H95  1  0.91680000  0.43730000  0.57940000  1.0 0.1125561927
H  H96  1  0.57940000  0.91680000  0.43730000  1.0 0.1125561927
C  C1  1  0.56040000  0.72940000  0.03350000  1.0 0.5198423006
C  C2  1  0.72940000  0.03350000  0.56040000  1.0 0.5198423006
C  C3  1  0.03350000  0.56040000  0.72940000  1.0 0.5198423006
C  C4  1  0.56040000  0.03350000  0.72940000  1.0 0.5198423006
C  C5  1  0.72940000  0.56040000  0.03350000  1.0 0.5198423006
C  C6  1  0.03350000  0.72940000  0.56040000  1.0 0.5198423006
C  C7  1  0.51600000  0.76630000  0.99330000  1.0 -0.0435105289
C  C8  1  0.76630000  0.99330000  0.51600000  1.0 -0.0435105289
C  C9  1  0.99330000  0.51600000  0.76630000  1.0 -0.0435105289
C  C10  1  0.51600000  0.99330000  0.76630000  1.0 -0.0435105289
C  C11  1  0.76630000  0.51600000  0.99330000  1.0 -0.0435105289
C  C12  1  0.99330000  0.76630000  0.51600000  1.0 -0.0435105289
C  C13  1  0.49840000  0.74220000  0.93390000  1.0 -0.1019851275
C  C14  1  0.74220000  0.93390000  0.49840000  1.0 -0.1019851275
C  C15  1  0.93390000  0.49840000  0.74220000  1.0 -0.1019851275
C  C16  1  0.49840000  0.93390000  0.74220000  1.0 -0.1019851275
C  C17  1  0.74220000  0.49840000  0.93390000  1.0 -0.1019851275
C  C18  1  0.93390000  0.74220000  0.49840000  1.0 -0.1019851275
C  C19  1  0.42570000  0.83390000  0.91760000  1.0 0.0671915946
C  C20  1  0.83390000  0.91760000  0.42570000  1.0 0.0671915946
C  C21  1  0.91760000  0.42570000  0.83390000  1.0 0.0671915946
C  C22  1  0.42570000  0.91760000  0.83390000  1.0 0.0671915946
C  C23  1  0.83390000  0.42570000  0.91760000  1.0 0.0671915946
C  C24  1  0.91760000  0.83390000  0.42570000  1.0 0.0671915946
C  C25  1  0.45410000  0.77900000  0.89430000  1.0 -0.1703552839
C  C26  1  0.77900000  0.89430000  0.45410000  1.0 -0.1703552839
C  C27  1  0.89430000  0.45410000  0.77900000  1.0 -0.1703552839
C  C28  1  0.45410000  0.89430000  0.77900000  1.0 -0.1703552839
C  C29  1  0.77900000  0.45410000  0.89430000  1.0 -0.1703552839
C  C30  1  0.89430000  0.77900000  0.45410000  1.0 -0.1703552839
C  C31  1  0.44640000  0.85780000  0.97620000  1.0 -0.1703552839
C  C32  1  0.85780000  0.97620000  0.44640000  1.0 -0.1703552839
C  C33  1  0.97620000  0.44640000  0.85780000  1.0 -0.1703552839
C  C34  1  0.44640000  0.97620000  0.85780000  1.0 -0.1703552839
C  C35  1  0.85780000  0.44640000  0.97620000  1.0 -0.1703552839
C  C36  1  0.97620000  0.85780000  0.44640000  1.0 -0.1703552839
C  C37  1  0.25410000  0.91980000  0.99940000  1.0 -0.0919526865
C  C38  1  0.91980000  0.99940000  0.25410000  1.0 -0.0919526865
C  C39  1  0.99940000  0.25410000  0.91980000  1.0 -0.0919526865
C  C40  1  0.25410000  0.99940000  0.91980000  1.0 -0.0919526865
C  C41  1  0.91980000  0.25410000  0.99940000  1.0 -0.0919526865
C  C42  1  0.99940000  0.91980000  0.25410000  1.0 -0.0919526865
C  C43  1  0.30520000  0.89000000  0.97210000  1.0 -0.1703552839
C  C44  1  0.89000000  0.97210000  0.30520000  1.0 -0.1703552839
C  C45  1  0.97210000  0.30520000  0.89000000  1.0 -0.1703552839
C  C46  1  0.30520000  0.97210000  0.89000000  1.0 -0.1703552839
C  C47  1  0.89000000  0.30520000  0.97210000  1.0 -0.1703552839
C  C48  1  0.97210000  0.89000000  0.30520000  1.0 -0.1703552839
C  C49  1  0.32910000  0.91430000  0.91430000  1.0 0.0492177712
C  C50  1  0.91430000  0.91430000  0.32910000  1.0 0.0492177712
C  C51  1  0.91430000  0.32910000  0.91430000  1.0 0.0492177712
C  C52  1  0.38170000  0.87420000  0.87420000  1.0 -0.0112071813
C  C53  1  0.87420000  0.87420000  0.38170000  1.0 -0.0112071813
C  C54  1  0.87420000  0.38170000  0.87420000  1.0 -0.0112071813
C  C55  1  0.48930000  0.82310000  0.01330000  1.0 -0.0919526865
C  C56  1  0.82310000  0.01330000  0.48930000  1.0 -0.0919526865
C  C57  1  0.01330000  0.48930000  0.82310000  1.0 -0.0919526865
C  C58  1  0.48930000  0.01330000  0.82310000  1.0 -0.0919526865
C  C59  1  0.82310000  0.48930000  0.01330000  1.0 -0.0919526865
C  C60  1  0.01330000  0.82310000  0.48930000  1.0 -0.0919526865
C  C61  1  0.23300000  0.97600000  0.97600000  1.0 -0.0267515638
C  C62  1  0.97600000  0.97600000  0.23300000  1.0 -0.019562053
C  C63  1  0.97600000  0.23300000  0.97600000  1.0 -0.0267515638
C  C64  1  0.17590000  0.01100000  0.01100000  1.0 0.5502704916
C  C65  1  0.01100000  0.01100000  0.17590000  1.0 0.5502704916
C  C66  1  0.01100000  0.17590000  0.01100000  1.0 0.5502704916
C  C67  1  0.33830000  0.83110000  0.83110000  1.0 0.0634339944
C  C68  1  0.83110000  0.83110000  0.33830000  1.0 0.0634339944
C  C69  1  0.83110000  0.33830000  0.83110000  1.0 0.0634339944
C  C70  1  0.31590000  0.77240000  0.85430000  1.0 -0.1703552839
C  C71  1  0.77240000  0.85430000  0.31590000  1.0 -0.1703552839
C  C72  1  0.85430000  0.31590000  0.77240000  1.0 -0.1703552839
C  C73  1  0.31590000  0.85430000  0.77240000  1.0 -0.1703552839
C  C74  1  0.77240000  0.31590000  0.85430000  1.0 -0.1703552839
C  C75  1  0.85430000  0.77240000  0.31590000  1.0 -0.1703552839
C  C76  1  0.26930000  0.74020000  0.82060000  1.0 -0.1068792193
C  C77  1  0.74020000  0.82060000  0.26930000  1.0 -0.1068792193
C  C78  1  0.82060000  0.26930000  0.74020000  1.0 -0.1068792193
C  C79  1  0.26930000  0.82060000  0.74020000  1.0 -0.1068792193
C  C80  1  0.74020000  0.26930000  0.82060000  1.0 -0.1068792193
C  C81  1  0.82060000  0.74020000  0.26930000  1.0 -0.1068792193
C  C82  1  0.25200000  0.75890000  0.75890000  1.0 -0.019562053
C  C83  1  0.75890000  0.75890000  0.25200000  1.0 -0.019562053
C  C84  1  0.75890000  0.25200000  0.75890000  1.0 -0.019562053
C  C85  1  0.20750000  0.71710000  0.71710000  1.0 0.4887549219
C  C86  1  0.71710000  0.71710000  0.20750000  1.0 0.4887549219
C  C87  1  0.71710000  0.20750000  0.71710000  1.0 0.4887549219
C  C88  1  0.49370000  0.05920000  0.37550000  1.0 -0.1615519519
C  C89  1  0.05920000  0.37550000  0.49370000  1.0 -0.1615519519
C  C90  1  0.37550000  0.49370000  0.05920000  1.0 -0.1615519519
C  C91  1  0.49370000  0.37550000  0.05920000  1.0 -0.1615519519
C  C92  1  0.05920000  0.49370000  0.37550000  1.0 -0.1615519519
C  C93  1  0.37550000  0.05920000  0.49370000  1.0 -0.1615519519
C  C94  1  0.51450000  0.02910000  0.43250000  1.0 0.0634339944
C  C95  1  0.02910000  0.43250000  0.51450000  1.0 0.0634339944
C  C96  1  0.43250000  0.51450000  0.02910000  1.0 0.0634339944
C  C97  1  0.51450000  0.43250000  0.02910000  1.0 0.0634339944
C  C98  1  0.02910000  0.51450000  0.43250000  1.0 0.0634339944
C  C99  1  0.43250000  0.02910000  0.51450000  1.0 0.0634339944
C  C100  1  0.47105000  0.98450000  0.47105000  1.0 -0.0112071813
C  C101  1  0.98450000  0.47105000  0.47105000  1.0 -0.0112071813
C  C102  1  0.47105000  0.47105000  0.98450000  1.0 -0.0112071813
C  C103  1  0.56980000  0.04800000  0.45940000  1.0 -0.1615519519
C  C104  1  0.04800000  0.45940000  0.56980000  1.0 -0.1615519519
C  C105  1  0.45940000  0.56980000  0.04800000  1.0 -0.1615519519
C  C106  1  0.56980000  0.45940000  0.04800000  1.0 -0.1615519519
C  C107  1  0.04800000  0.56980000  0.45940000  1.0 -0.1615519519
C  C108  1  0.45940000  0.04800000  0.56980000  1.0 -0.1615519519
C  C109  1  0.58870000  0.12170000  0.37070000  1.0 -0.0267515638
C  C110  1  0.12170000  0.37070000  0.58870000  1.0 -0.0267515638
C  C111  1  0.37070000  0.58870000  0.12170000  1.0 -0.0267515638
C  C112  1  0.58870000  0.37070000  0.12170000  1.0 -0.0267515638
C  C113  1  0.12170000  0.58870000  0.37070000  1.0 -0.0267515638
C  C114  1  0.37070000  0.12170000  0.58870000  1.0 -0.0267515638
C  C115  1  0.61000000  0.09110000  0.42620000  1.0 -0.1068792193
C  C116  1  0.09110000  0.42620000  0.61000000  1.0 -0.1068792193
C  C117  1  0.42620000  0.61000000  0.09110000  1.0 -0.1068792193
C  C118  1  0.61000000  0.42620000  0.09110000  1.0 -0.1068792193
C  C119  1  0.09110000  0.61000000  0.42620000  1.0 -0.1068792193
C  C120  1  0.42620000  0.09110000  0.61000000  1.0 -0.1068792193
C  C121  1  0.52800000  0.10680000  0.34880000  1.0 -0.0919526865
C  C122  1  0.10680000  0.34880000  0.52800000  1.0 -0.0919526865
C  C123  1  0.34880000  0.52800000  0.10680000  1.0 -0.0919526865
C  C124  1  0.52800000  0.34880000  0.10680000  1.0 -0.0919526865
C  C125  1  0.10680000  0.52800000  0.34880000  1.0 -0.0919526865
C  C126  1  0.34880000  0.10680000  0.52800000  1.0 -0.0919526865
C  C127  1  0.62600000  0.17240000  0.33850000  1.0 0.5305066643
C  C128  1  0.17240000  0.33850000  0.62600000  1.0 0.5305066643
C  C129  1  0.33850000  0.62600000  0.17240000  1.0 0.5305066643
C  C130  1  0.62600000  0.33850000  0.17240000  1.0 0.5305066643
C  C131  1  0.17240000  0.62600000  0.33850000  1.0 0.5305066643
C  C132  1  0.33850000  0.17240000  0.62600000  1.0 0.5305066643
C  C133  1  0.41560000  0.87840000  0.33050000  1.0 -0.0919526865
C  C134  1  0.87840000  0.33050000  0.41560000  1.0 -0.0919526865
C  C135  1  0.33050000  0.41560000  0.87840000  1.0 -0.0919526865
C  C136  1  0.41560000  0.33050000  0.87840000  1.0 -0.0919526865
C  C137  1  0.87840000  0.41560000  0.33050000  1.0 -0.0919526865
C  C138  1  0.33050000  0.87840000  0.41560000  1.0 -0.0919526865
C  C139  1  0.44830000  0.92050000  0.36610000  1.0 -0.1615519519
C  C140  1  0.92050000  0.36610000  0.44830000  1.0 -0.1615519519
C  C141  1  0.36610000  0.44830000  0.92050000  1.0 -0.1615519519
C  C142  1  0.44830000  0.36610000  0.92050000  1.0 -0.1615519519
C  C143  1  0.92050000  0.44830000  0.36610000  1.0 -0.1615519519
C  C144  1  0.36610000  0.92050000  0.44830000  1.0 -0.1615519519
C  C145  1  0.42555000  0.94170000  0.42555000  1.0 0.0492177712
C  C146  1  0.94170000  0.42555000  0.42555000  1.0 0.0492177712
C  C147  1  0.42555000  0.42555000  0.94170000  1.0 0.0492177712
C  C148  1  0.55930000  0.81550000  0.55930000  1.0 -0.0112071813
C  C149  1  0.81550000  0.55930000  0.55930000  1.0 -0.0112071813
C  C150  1  0.55930000  0.55930000  0.81550000  1.0 -0.0112071813
C  C151  1  0.59065000  0.75760000  0.59065000  1.0 0.5379961667
C  C152  1  0.75760000  0.59065000  0.59065000  1.0 0.5379961667
C  C153  1  0.59065000  0.59065000  0.75760000  1.0 0.5379961667
C  C154  1  0.50750000  0.92750000  0.50750000  1.0 0.0757077647
C  C155  1  0.92750000  0.50750000  0.50750000  1.0 0.0757077647
C  C156  1  0.50750000  0.50750000  0.92750000  1.0 0.0757077647
C  C157  1  0.50500000  0.84390000  0.58730000  1.0 -0.1019851275
C  C158  1  0.84390000  0.58730000  0.50500000  1.0 -0.1019851275
C  C159  1  0.58730000  0.50500000  0.84390000  1.0 -0.1019851275
C  C160  1  0.50500000  0.58730000  0.84390000  1.0 -0.1068792193
C  C161  1  0.84390000  0.50500000  0.58730000  1.0 -0.1019851275
C  C162  1  0.58730000  0.84390000  0.50500000  1.0 -0.1019851275
C  C163  1  0.47610000  0.89910000  0.56160000  1.0 -0.1793895277
C  C164  1  0.89910000  0.56160000  0.47610000  1.0 -0.1793895277
C  C165  1  0.56160000  0.47610000  0.89910000  1.0 -0.1793895277
C  C166  1  0.47610000  0.56160000  0.89910000  1.0 -0.1793895277
C  C167  1  0.89910000  0.47610000  0.56160000  1.0 -0.1793895277
C  C168  1  0.56160000  0.89910000  0.47610000  1.0 -0.1793895277
C  C169  1  0.35355000  0.85620000  0.35355000  1.0 -0.0473558095
C  C170  1  0.85620000  0.35355000  0.35355000  1.0 -0.0473558095
C  C171  1  0.35355000  0.35355000  0.85620000  1.0 -0.0473558095
C  C172  1  0.31985000  0.80780000  0.31985000  1.0 0.5089512207
C  C173  1  0.80780000  0.31985000  0.31985000  1.0 0.5089512207
C  C174  1  0.31985000  0.31985000  0.80780000  1.0 0.5089512207
O  O1  1  0.15320000  0.06140000  0.98480000  1.0 -0.6127523245
O  O2  1  0.06140000  0.98480000  0.15320000  1.0 -0.6127523245
O  O3  1  0.98480000  0.15320000  0.06140000  1.0 -0.6127523245
O  O4  1  0.15320000  0.98480000  0.06140000  1.0 -0.6127523245
O  O5  1  0.06140000  0.15320000  0.98480000  1.0 -0.6127523245
O  O6  1  0.98480000  0.06140000  0.15320000  1.0 -0.6127523245
O  O7  1  0.57860000  0.74870000  0.08690000  1.0 -0.5485736789
O  O8  1  0.74870000  0.08690000  0.57860000  1.0 -0.5485736789
O  O9  1  0.08690000  0.57860000  0.74870000  1.0 -0.5485736789
O  O10  1  0.57860000  0.08690000  0.74870000  1.0 -0.5485736789
O  O11  1  0.74870000  0.57860000  0.08690000  1.0 -0.5485736789
O  O12  1  0.08690000  0.74870000  0.57860000  1.0 -0.5485736789
O  O13  1  0.58330000  0.67560000  0.01160000  1.0 -0.5932424726
O  O14  1  0.67560000  0.01160000  0.58330000  1.0 -0.5932424726
O  O15  1  0.01160000  0.58330000  0.67560000  1.0 -0.5932424726
O  O16  1  0.58330000  0.01160000  0.67560000  1.0 -0.5932424726
O  O17  1  0.67560000  0.58330000  0.01160000  1.0 -0.5932424726
O  O18  1  0.01160000  0.67560000  0.58330000  1.0 -0.5932424726
O  O19  1  0.18360000  0.66860000  0.74210000  1.0 -0.5982685747
O  O20  1  0.66860000  0.74210000  0.18360000  1.0 -0.5982685747
O  O21  1  0.74210000  0.18360000  0.66860000  1.0 -0.5982685747
O  O22  1  0.18360000  0.74210000  0.66860000  1.0 -0.5982685747
O  O23  1  0.66860000  0.18360000  0.74210000  1.0 -0.5982685747
O  O24  1  0.74210000  0.66860000  0.18360000  1.0 -0.5982685747
O  O25  1  0.26770000  0.78230000  0.34440000  1.0 -0.6174117686
O  O26  1  0.78230000  0.34440000  0.26770000  1.0 -0.6174117686
O  O27  1  0.34440000  0.26770000  0.78230000  1.0 -0.6174117686
O  O28  1  0.26770000  0.34440000  0.78230000  1.0 -0.6174117686
O  O29  1  0.78230000  0.26770000  0.34440000  1.0 -0.6174117686
O  O30  1  0.34440000  0.78230000  0.26770000  1.0 -0.6174117686
O  O31  1  0.64150000  0.73350000  0.56540000  1.0 -0.5982685747
O  O32  1  0.73350000  0.56540000  0.64150000  1.0 -0.5982685747
O  O33  1  0.56540000  0.64150000  0.73350000  1.0 -0.5982685747
O  O34  1  0.64150000  0.56540000  0.73350000  1.0 -0.5982685747
O  O35  1  0.73350000  0.64150000  0.56540000  1.0 -0.5982685747
O  O36  1  0.56540000  0.73350000  0.64150000  1.0 -0.5982685747
O  O37  1  0.59850000  0.20020000  0.28960000  1.0 -0.6174117686
O  O38  1  0.20020000  0.28960000  0.59850000  1.0 -0.6174117686
O  O39  1  0.28960000  0.59850000  0.20020000  1.0 -0.6174117686
O  O40  1  0.59850000  0.28960000  0.20020000  1.0 -0.6174117686
O  O41  1  0.20020000  0.59850000  0.28960000  1.0 -0.6174117686
O  O42  1  0.28960000  0.20020000  0.59850000  1.0 -0.6174117686
O  O43  1  0.68080000  0.18890000  0.35810000  1.0 -0.5786295893
O  O44  1  0.18890000  0.35810000  0.68080000  1.0 -0.5786295893
O  O45  1  0.35810000  0.68080000  0.18890000  1.0 -0.5786295893
O  O46  1  0.68080000  0.35810000  0.18890000  1.0 -0.5786295893
O  O47  1  0.18890000  0.68080000  0.35810000  1.0 -0.5786295893
O  O48  1  0.35810000  0.18890000  0.68080000  1.0 -0.5786295893
