# DDEC6 charges by PACMAN v1.1 (https://github.com/mtap-research/PACMAN-charge/)
data_VANXUD_FSR_pacman
_symmetry_space_group_name_H-M   'P 1'
_cell_length_a   10.42360000
_cell_length_b   10.42360000
_cell_length_c   8.94870000
_cell_angle_alpha   90.00000000
_cell_angle_beta   90.00000000
_cell_angle_gamma   90.00000000
_symmetry_Int_Tables_number   1
_chemical_formula_structural   CoPO4
_chemical_formula_sum   'Co8 P8 O32'
_cell_volume   972.28911392
_cell_formula_units_Z   8
loop_
 _symmetry_equiv_pos_site_id
 _symmetry_equiv_pos_as_xyz
  1  'x, y, z'
loop_
 _atom_site_type_symbol
 _atom_site_label
 _atom_site_symmetry_multiplicity
 _atom_site_fract_x
 _atom_site_fract_y
 _atom_site_fract_z
 _atom_site_occupancy
 _atom_site_charge
Co  Co1  1  0.35960000  0.12150000  0.91000000  1.0 1.2810317948
Co  Co2  1  0.62150000  0.14040000  0.41000000  1.0 1.2810317948
Co  Co3  1  0.64040000  0.87850000  0.91000000  1.0 1.2810317948
Co  Co4  1  0.37850000  0.85960000  0.41000000  1.0 1.2810317948
Co  Co5  1  0.14040000  0.37850000  0.59000000  1.0 1.2810317948
Co  Co6  1  0.87850000  0.35960000  0.09000000  1.0 1.2810317948
Co  Co7  1  0.85960000  0.62150000  0.59000000  1.0 1.2810317948
Co  Co8  1  0.12150000  0.64040000  0.09000000  1.0 1.2810317948
P  P1  1  0.15660000  0.36010000  0.95160000  1.0 1.470322527
P  P2  1  0.86010000  0.34340000  0.45160000  1.0 1.470322527
P  P3  1  0.84340000  0.63990000  0.95160000  1.0 1.470322527
P  P4  1  0.13990000  0.65660000  0.45160000  1.0 1.470322527
P  P5  1  0.34340000  0.13990000  0.54840000  1.0 1.470322527
P  P6  1  0.63990000  0.15660000  0.04840000  1.0 1.470322527
P  P7  1  0.65660000  0.86010000  0.54840000  1.0 1.470322527
P  P8  1  0.36010000  0.84340000  0.04840000  1.0 1.470322527
O  O1  1  0.25010000  0.25400000  0.99650000  1.0 -0.6487961486
O  O2  1  0.75400000  0.24990000  0.49650000  1.0 -0.6487961486
O  O3  1  0.74990000  0.74600000  0.99650000  1.0 -0.6487961486
O  O4  1  0.24600000  0.75010000  0.49650000  1.0 -0.6487961486
O  O5  1  0.24990000  0.24600000  0.50350000  1.0 -0.6487961486
O  O6  1  0.74600000  0.25010000  0.00350000  1.0 -0.6487961486
O  O7  1  0.75010000  0.75400000  0.50350000  1.0 -0.6487961486
O  O8  1  0.25400000  0.74990000  0.00350000  1.0 -0.6487961486
O  O9  1  0.18740000  0.41020000  0.79560000  1.0 -0.7231193557
O  O10  1  0.91020000  0.31260000  0.29560000  1.0 -0.7231193557
O  O11  1  0.81260000  0.58980000  0.79560000  1.0 -0.7231193557
O  O12  1  0.08980000  0.68740000  0.29560000  1.0 -0.7231193557
O  O13  1  0.31260000  0.08980000  0.70440000  1.0 -0.7231193557
O  O14  1  0.58980000  0.18740000  0.20440000  1.0 -0.7231193557
O  O15  1  0.68740000  0.91020000  0.70440000  1.0 -0.7231193557
O  O16  1  0.41020000  0.81260000  0.20440000  1.0 -0.7231193557
O  O17  1  0.17630000  0.46590000  0.06710000  1.0 -0.6897194087
O  O18  1  0.96590000  0.32370000  0.56710000  1.0 -0.6897194087
O  O19  1  0.82370000  0.53410000  0.06710000  1.0 -0.6897194087
O  O20  1  0.03410000  0.67630000  0.56710000  1.0 -0.6897194087
O  O21  1  0.32370000  0.03410000  0.43290000  1.0 -0.6897194087
O  O22  1  0.53410000  0.17630000  0.93290000  1.0 -0.6897194087
O  O23  1  0.67630000  0.96590000  0.43290000  1.0 -0.6897194087
O  O24  1  0.46590000  0.82370000  0.93290000  1.0 -0.6897194087
O  O25  1  0.02110000  0.30730000  0.96160000  1.0 -0.6897194087
O  O26  1  0.80730000  0.47890000  0.46160000  1.0 -0.6897194087
O  O27  1  0.97890000  0.69270000  0.96160000  1.0 -0.6897194087
O  O28  1  0.19270000  0.52110000  0.46160000  1.0 -0.6897194087
O  O29  1  0.47890000  0.19270000  0.53840000  1.0 -0.6897194087
O  O30  1  0.69270000  0.02110000  0.03840000  1.0 -0.6897194087
O  O31  1  0.52110000  0.80730000  0.53840000  1.0 -0.6897194087
O  O32  1  0.30730000  0.97890000  0.03840000  1.0 -0.6897194087
