# DDEC6 charges by PACMAN v1.1 (https://github.com/mtap-research/PACMAN-charge/)
data_VAPFOJ_ASR_pacman
_symmetry_space_group_name_H-M   'P 1'
_cell_length_a   7.30680000
_cell_length_b   17.63400000
_cell_length_c   16.36960000
_cell_angle_alpha   90.00000000
_cell_angle_beta   111.97700000
_cell_angle_gamma   90.00000000
_symmetry_Int_Tables_number   1
_chemical_formula_structural   BaH6PtC14(NO)4
_chemical_formula_sum   'Ba4 H24 Pt4 C56 N16 O16'
_cell_volume   1955.92582250
_cell_formula_units_Z   4
loop_
 _symmetry_equiv_pos_site_id
 _symmetry_equiv_pos_as_xyz
  1  'x, y, z'
loop_
 _atom_site_type_symbol
 _atom_site_label
 _atom_site_symmetry_multiplicity
 _atom_site_fract_x
 _atom_site_fract_y
 _atom_site_fract_z
 _atom_site_occupancy
 _atom_site_charge
Ba  Ba1  1  0.32501000  0.95529000  0.07911000  1.0 1.4475545367
Ba  Ba2  1  0.67499000  0.45529000  0.42089000  1.0 1.4475545367
Ba  Ba3  1  0.67499000  0.04471000  0.92089000  1.0 1.4475545367
Ba  Ba4  1  0.32501000  0.54471000  0.57911000  1.0 1.4475545367
H  H1  1  0.76910000  0.13320000  0.62730000  1.0 0.1207469521
H  H2  1  0.23090000  0.63320000  0.87270000  1.0 0.1207469521
H  H3  1  0.23090000  0.86680000  0.37270000  1.0 0.1207469521
H  H4  1  0.76910000  0.36680000  0.12730000  1.0 0.1207469521
H  H5  1  0.93700000  0.12600000  0.77770000  1.0 0.1584194197
H  H6  1  0.06300000  0.62600000  0.72230000  1.0 0.1584194197
H  H7  1  0.06300000  0.87400000  0.22230000  1.0 0.1584194197
H  H8  1  0.93700000  0.37400000  0.27770000  1.0 0.1584194197
H  H9  1  0.11850000  0.91430000  0.74530000  1.0 0.14833583
H  H10  1  0.88150000  0.41430000  0.75470000  1.0 0.14833583
H  H11  1  0.88150000  0.08570000  0.25470000  1.0 0.14833583
H  H12  1  0.11850000  0.58570000  0.24530000  1.0 0.14833583
H  H13  1  0.09660000  0.82450000  0.65160000  1.0 0.1431409871
H  H14  1  0.90340000  0.32450000  0.84840000  1.0 0.1431409871
H  H15  1  0.90340000  0.17550000  0.34840000  1.0 0.1431409871
H  H16  1  0.09660000  0.67550000  0.15160000  1.0 0.1431409871
H  H17  1  0.85440000  0.76420000  0.39540000  1.0 0.1431409871
H  H18  1  0.14560000  0.26420000  0.10460000  1.0 0.1431409871
H  H19  1  0.14560000  0.23580000  0.60460000  1.0 0.1431409871
H  H20  1  0.85440000  0.73580000  0.89540000  1.0 0.1431409871
H  H21  1  0.69690000  0.87990000  0.36320000  1.0 0.1089112243
H  H22  1  0.30310000  0.37990000  0.13680000  1.0 0.1089112243
H  H23  1  0.30310000  0.12010000  0.63680000  1.0 0.1089112243
H  H24  1  0.69690000  0.62010000  0.86320000  1.0 0.1089112243
Pt  Pt1  1  0.67680000  0.02641000  0.46491000  1.0 0.14833583
Pt  Pt2  1  0.32320000  0.52641000  0.03509000  1.0 0.14833583
Pt  Pt3  1  0.32320000  0.97359000  0.53509000  1.0 0.14833583
Pt  Pt4  1  0.67680000  0.47359000  0.96491000  1.0 0.14833583
C  C1  1  0.83780000  0.08790000  0.65210000  1.0 0.0703110412
C  C2  1  0.16220000  0.58790000  0.84790000  1.0 0.0703110412
C  C3  1  0.16220000  0.91210000  0.34790000  1.0 0.0703110412
C  C4  1  0.83780000  0.41210000  0.15210000  1.0 0.0703110412
C  C5  1  0.93860000  0.08410000  0.74150000  1.0 -0.1348417433
C  C6  1  0.06140000  0.58410000  0.75850000  1.0 -0.1348417433
C  C7  1  0.06140000  0.91590000  0.25850000  1.0 -0.1348417433
C  C8  1  0.93860000  0.41590000  0.24150000  1.0 -0.1348417433
C  C9  1  0.04290000  0.01880000  0.77880000  1.0 0.0185322669
C  C10  1  0.95710000  0.51880000  0.72120000  1.0 0.0185322669
C  C11  1  0.95710000  0.98120000  0.22120000  1.0 0.0185322669
C  C12  1  0.04290000  0.48120000  0.27880000  1.0 0.0185322669
C  C13  1  0.04390000  0.95890000  0.72260000  1.0 -0.1587384058
C  C14  1  0.95610000  0.45890000  0.77740000  1.0 -0.1587384058
C  C15  1  0.95610000  0.04110000  0.27740000  1.0 -0.1587384058
C  C16  1  0.04390000  0.54110000  0.22260000  1.0 -0.1587384058
C  C17  1  0.93370000  0.96600000  0.63310000  1.0 0.1584194197
C  C18  1  0.06630000  0.46600000  0.86690000  1.0 0.1584194197
C  C19  1  0.06630000  0.03400000  0.36690000  1.0 0.1584194197
C  C20  1  0.93370000  0.53400000  0.13310000  1.0 0.1584194197
C  C21  1  0.92130000  0.90470000  0.56960000  1.0 0.1207469521
C  C22  1  0.07870000  0.40470000  0.93040000  1.0 0.1207469521
C  C23  1  0.07870000  0.09530000  0.43040000  1.0 0.1207469521
C  C24  1  0.92130000  0.59530000  0.06960000  1.0 0.1207469521
C  C25  1  0.01760000  0.83540000  0.59190000  1.0 -0.1587384058
C  C26  1  0.98240000  0.33540000  0.90810000  1.0 -0.1587384058
C  C27  1  0.98240000  0.16460000  0.40810000  1.0 -0.1587384058
C  C28  1  0.01760000  0.66460000  0.09190000  1.0 -0.1587384058
C  C29  1  0.99780000  0.78210000  0.52660000  1.0 0.0458227327
C  C30  1  0.00220000  0.28210000  0.97340000  1.0 0.0458227327
C  C31  1  0.00220000  0.21790000  0.47340000  1.0 0.0458227327
C  C32  1  0.99780000  0.71790000  0.02660000  1.0 0.0458227327
C  C33  1  0.87440000  0.80000000  0.44130000  1.0 -0.1427975925
C  C34  1  0.12560000  0.30000000  0.05870000  1.0 -0.1427975925
C  C35  1  0.12560000  0.20000000  0.55870000  1.0 -0.1427975925
C  C36  1  0.87440000  0.70000000  0.94130000  1.0 -0.1427975925
C  C37  1  0.78050000  0.86920000  0.42230000  1.0 0.0703110412
C  C38  1  0.21950000  0.36920000  0.07770000  1.0 0.0703110412
C  C39  1  0.21950000  0.13080000  0.57770000  1.0 0.0703110412
C  C40  1  0.78050000  0.63080000  0.92230000  1.0 0.0703110412
C  C41  1  0.14530000  0.00900000  0.87570000  1.0 0.601777338
C  C42  1  0.85470000  0.50900000  0.62430000  1.0 0.601777338
C  C43  1  0.85470000  0.99100000  0.12430000  1.0 0.601777338
C  C44  1  0.14530000  0.49100000  0.37570000  1.0 0.601777338
C  C45  1  0.10570000  0.70680000  0.54650000  1.0 0.5619407376
C  C46  1  0.89430000  0.20680000  0.95350000  1.0 0.5619407376
C  C47  1  0.89430000  0.29320000  0.45350000  1.0 0.5619407376
C  C48  1  0.10570000  0.79320000  0.04650000  1.0 0.5619407376
C  C49  1  0.56920000  0.12840000  0.45380000  1.0 -0.0117395618
C  C50  1  0.43080000  0.62840000  0.04620000  1.0 -0.0117395618
C  C51  1  0.43080000  0.87160000  0.54620000  1.0 -0.0117395618
C  C52  1  0.56920000  0.37160000  0.95380000  1.0 -0.0117395618
C  C53  1  0.54460000  0.01420000  0.33760000  1.0 0.0367616542
C  C54  1  0.45540000  0.51420000  0.16240000  1.0 0.0367616542
C  C55  1  0.45540000  0.98580000  0.66240000  1.0 0.0367616542
C  C56  1  0.54460000  0.48580000  0.83760000  1.0 0.0367616542
N  N1  1  0.83270000  0.02980000  0.59840000  1.0 -0.1535549493
N  N2  1  0.16730000  0.52980000  0.90160000  1.0 -0.1535549493
N  N3  1  0.16730000  0.97020000  0.40160000  1.0 -0.1535549493
N  N4  1  0.83270000  0.47020000  0.09840000  1.0 -0.1535549493
N  N5  1  0.80250000  0.92170000  0.48370000  1.0 -0.1427975925
N  N6  1  0.19750000  0.42170000  0.01630000  1.0 -0.1427975925
N  N7  1  0.19750000  0.07830000  0.51630000  1.0 -0.1427975925
N  N8  1  0.80250000  0.57830000  0.98370000  1.0 -0.1427975925
N  N9  1  0.50820000  0.18900000  0.44960000  1.0 -0.3194627831
N  N10  1  0.49180000  0.68900000  0.05040000  1.0 -0.3194627831
N  N11  1  0.49180000  0.81100000  0.55040000  1.0 -0.3194627831
N  N12  1  0.50820000  0.31100000  0.94960000  1.0 -0.3194627831
N  N13  1  0.47330000  0.00160000  0.26360000  1.0 -0.4135164986
N  N14  1  0.52670000  0.50160000  0.23640000  1.0 -0.4135164986
N  N15  1  0.52670000  0.99840000  0.73640000  1.0 -0.4135164986
N  N16  1  0.47330000  0.49840000  0.76360000  1.0 -0.4135164986
O  O1  1  0.05030000  0.02590000  0.92330000  1.0 -0.615602366
O  O2  1  0.94970000  0.52590000  0.57670000  1.0 -0.6148314793
O  O3  1  0.94970000  0.97410000  0.07670000  1.0 -0.6148314793
O  O4  1  0.05030000  0.47410000  0.42330000  1.0 -0.6148314793
O  O5  1  0.31870000  0.98290000  0.90490000  1.0 -0.657056562
O  O6  1  0.68130000  0.48290000  0.59510000  1.0 -0.657056562
O  O7  1  0.68130000  0.01710000  0.09510000  1.0 -0.657056562
O  O8  1  0.31870000  0.51710000  0.40490000  1.0 -0.657056562
O  O9  1  0.21050000  0.69160000  0.62510000  1.0 -0.6025598267
O  O10  1  0.78950000  0.19160000  0.87490000  1.0 -0.6025598267
O  O11  1  0.78950000  0.30840000  0.37490000  1.0 -0.6025598267
O  O12  1  0.21050000  0.80840000  0.12510000  1.0 -0.6025598267
O  O13  1  0.08760000  0.66430000  0.48230000  1.0 -0.5923808286
O  O14  1  0.91240000  0.16430000  0.01770000  1.0 -0.5923808286
O  O15  1  0.91240000  0.33570000  0.51770000  1.0 -0.5923808286
O  O16  1  0.08760000  0.83570000  0.98230000  1.0 -0.5923808286
