# DDEC6 charges by PACMAN v1.1 (https://github.com/mtap-research/PACMAN-charge/)
data_VAPFUP_ASR_pacman
_symmetry_space_group_name_H-M   'P 1'
_cell_length_a   7.07200000
_cell_length_b   10.38500000
_cell_length_c   12.84200000
_cell_angle_alpha   100.69500000
_cell_angle_beta   91.18100000
_cell_angle_gamma   94.61400000
_symmetry_Int_Tables_number   1
_chemical_formula_structural   SrH6PtC14(NO)4
_chemical_formula_sum   'Sr2 H12 Pt2 C28 N8 O8'
_cell_volume   923.15617577
_cell_formula_units_Z   2
loop_
 _symmetry_equiv_pos_site_id
 _symmetry_equiv_pos_as_xyz
  1  'x, y, z'
loop_
 _atom_site_type_symbol
 _atom_site_label
 _atom_site_symmetry_multiplicity
 _atom_site_fract_x
 _atom_site_fract_y
 _atom_site_fract_z
 _atom_site_occupancy
 _atom_site_charge
Sr  Sr1  1  0.75810000  0.53310000  0.60479000  1.0 1.3981648844
Sr  Sr2  1  0.24190000  0.46690000  0.39521000  1.0 1.3981648844
H  H1  1  0.18030000  0.71420000  0.97330000  1.0 0.1164929059
H  H2  1  0.81970000  0.28580000  0.02670000  1.0 0.1164929059
H  H3  1  0.19580000  0.57560000  0.81120000  1.0 0.1483180136
H  H4  1  0.80420000  0.42440000  0.18880000  1.0 0.1483180136
H  H5  1  0.34830000  0.88730000  0.67810000  1.0 0.1483180136
H  H6  1  0.65170000  0.11270000  0.32190000  1.0 0.1483180136
H  H7  1  0.43850000  0.10680000  0.71830000  1.0 0.1483180136
H  H8  1  0.56150000  0.89320000  0.28170000  1.0 0.1483180136
H  H9  1  0.41030000  0.43520000  0.93310000  1.0 0.1279921245
H  H10  1  0.58970000  0.56480000  0.06690000  1.0 0.1279921245
H  H11  1  0.30290000  0.31150000  0.05490000  1.0 0.1164929059
H  H12  1  0.69710000  0.68850000  0.94510000  1.0 0.1164929059
Pt  Pt1  1  0.21679000  0.01481000  0.06046000  1.0 0.1694266062
Pt  Pt2  1  0.78321000  0.98519000  0.93954000  1.0 0.1694266062
C  C1  1  0.21400000  0.75000000  0.91240000  1.0 0.0197809983
C  C2  1  0.78600000  0.25000000  0.08760000  1.0 0.0197809983
C  C3  1  0.22200000  0.66730000  0.81560000  1.0 -0.1413811012
C  C4  1  0.77800000  0.33270000  0.18440000  1.0 -0.1413811012
C  C5  1  0.27300000  0.72090000  0.72810000  1.0 0.0398425545
C  C6  1  0.72700000  0.27910000  0.27190000  1.0 0.0398425545
C  C7  1  0.31500000  0.85280000  0.73910000  1.0 -0.1650247861
C  C8  1  0.68500000  0.14720000  0.26090000  1.0 -0.1650247861
C  C9  1  0.30700000  0.93770000  0.83780000  1.0 0.144682565
C  C10  1  0.69300000  0.06230000  0.16220000  1.0 0.144682565
C  C11  1  0.33700000  0.07720000  0.85980000  1.0 0.1164929059
C  C12  1  0.66300000  0.92280000  0.14020000  1.0 0.1164929059
C  C13  1  0.41000000  0.14930000  0.78740000  1.0 -0.1413811012
C  C14  1  0.59000000  0.85070000  0.21260000  1.0 -0.1413811012
C  C15  1  0.44400000  0.28550000  0.81540000  1.0 0.0494003009
C  C16  1  0.55600000  0.71450000  0.18460000  1.0 0.0494003009
C  C17  1  0.39700000  0.34330000  0.91490000  1.0 -0.14815653
C  C18  1  0.60300000  0.65670000  0.08510000  1.0 -0.14815653
C  C19  1  0.32900000  0.26940000  0.98580000  1.0 0.0669545505
C  C20  1  0.67100000  0.73060000  0.01420000  1.0 0.0669545505
C  C21  1  0.26700000  0.63080000  0.61770000  1.0 0.6029968422
C  C22  1  0.73300000  0.36920000  0.38230000  1.0 0.6029968422
C  C23  1  0.54100000  0.36700000  0.73690000  1.0 0.5476435583
C  C24  1  0.45900000  0.63300000  0.26310000  1.0 0.5476435583
C  C25  1  0.14200000  0.88540000  0.14960000  1.0 -0.0052501192
C  C26  1  0.85800000  0.11460000  0.85040000  1.0 -0.0052501192
C  C27  1  0.20500000  0.15640000  0.18450000  1.0 0.0327622436
C  C28  1  0.79500000  0.84360000  0.81550000  1.0 0.0327622436
N  N1  1  0.25200000  0.88770000  0.92510000  1.0 -0.1750422705
N  N2  1  0.74800000  0.11230000  0.07490000  1.0 -0.1750422705
N  N3  1  0.30340000  0.13840000  0.96100000  1.0 -0.1413811012
N  N4  1  0.69660000  0.86160000  0.03900000  1.0 -0.1413811012
N  N5  1  0.09400000  0.81370000  0.19990000  1.0 -0.324142291
N  N6  1  0.90600000  0.18630000  0.80010000  1.0 -0.324142291
N  N7  1  0.20000000  0.23960000  0.25590000  1.0 -0.3887236554
N  N8  1  0.80000000  0.76040000  0.74410000  1.0 -0.3887236554
O  O1  1  0.41710000  0.59260000  0.58560000  1.0 -0.5711037356
O  O2  1  0.58290000  0.40740000  0.41440000  1.0 -0.5711037356
O  O3  1  0.11020000  0.60930000  0.57310000  1.0 -0.6126574118
O  O4  1  0.88980000  0.39070000  0.42690000  1.0 -0.6126574118
O  O5  1  0.55040000  0.31440000  0.64340000  1.0 -0.5629182894
O  O6  1  0.44960000  0.68560000  0.35660000  1.0 -0.5629182894
O  O7  1  0.60740000  0.48020000  0.78110000  1.0 -0.6169175942
O  O8  1  0.39260000  0.51980000  0.21890000  1.0 -0.6169175942
