# DDEC6 charges by PACMAN v1.1 (https://github.com/mtap-research/PACMAN-charge/)
data_VAPHOM_FSR_pacman
_symmetry_space_group_name_H-M   'P 1'
_cell_length_a   8.72689000
_cell_length_b   8.72689000
_cell_length_c   16.16750000
_cell_angle_alpha   74.34420000
_cell_angle_beta   105.65600000
_cell_angle_gamma   120.00000000
_symmetry_Int_Tables_number   1
_chemical_formula_structural   Zn3P4(HO3)4
_chemical_formula_sum   'Zn6 P8 H8 O24'
_cell_volume   1013.24069221
_cell_formula_units_Z   2
loop_
 _symmetry_equiv_pos_site_id
 _symmetry_equiv_pos_as_xyz
  1  'x, y, z'
loop_
 _atom_site_type_symbol
 _atom_site_label
 _atom_site_symmetry_multiplicity
 _atom_site_fract_x
 _atom_site_fract_y
 _atom_site_fract_z
 _atom_site_occupancy
 _atom_site_charge
Zn  Zn1  1  0.83435000  0.83435000  0.75000000  1.0 1.1201194145
Zn  Zn2  1  0.16565000  0.16565000  0.25000000  1.0 1.1201194145
Zn  Zn3  1  0.26357000  0.99497000  0.51516000  1.0 1.127810798
Zn  Zn4  1  0.99497000  0.26357000  0.98484000  1.0 1.127810798
Zn  Zn5  1  0.73643000  0.00503000  0.48484000  1.0 1.127810798
Zn  Zn6  1  0.00503000  0.73643000  0.01516000  1.0 1.127810798
P  P1  1  0.45706000  0.76594000  0.62183000  1.0 1.1977354803
P  P2  1  0.76594000  0.45706000  0.87817000  1.0 1.1977354803
P  P3  1  0.54294000  0.23406000  0.37817000  1.0 1.1977354803
P  P4  1  0.23406000  0.54294000  0.12183000  1.0 1.1977354803
P  P5  1  0.10767000  0.07573000  0.88253000  1.0 1.1712351956
P  P6  1  0.07573000  0.10767000  0.61747000  1.0 1.1712351956
P  P7  1  0.89233000  0.92427000  0.11747000  1.0 1.1712351956
P  P8  1  0.92427000  0.89233000  0.38253000  1.0 1.1712351956
H  H1  1  0.36050000  0.58990000  0.63380000  1.0 -0.1100078586
H  H2  1  0.58990000  0.36050000  0.86620000  1.0 -0.1100078586
H  H3  1  0.63950000  0.41010000  0.36620000  1.0 -0.1100078586
H  H4  1  0.41010000  0.63950000  0.13380000  1.0 -0.1100078586
H  H5  1  0.22230000  0.17170000  0.82720000  1.0 -0.1100078586
H  H6  1  0.17170000  0.22230000  0.67280000  1.0 -0.1100078586
H  H7  1  0.77770000  0.82830000  0.17280000  1.0 -0.1100078586
H  H8  1  0.82830000  0.77770000  0.32720000  1.0 -0.1100078586
O  O1  1  0.32910000  0.84050000  0.61420000  1.0 -0.5966520688
O  O2  1  0.84050000  0.32910000  0.88580000  1.0 -0.5966520688
O  O3  1  0.67090000  0.15950000  0.38580000  1.0 -0.5966520688
O  O4  1  0.15950000  0.67090000  0.11420000  1.0 -0.5966520688
O  O5  1  0.53610000  0.81470000  0.54080000  1.0 -0.6727008752
O  O6  1  0.81470000  0.53610000  0.95920000  1.0 -0.6727008752
O  O7  1  0.46390000  0.18530000  0.45920000  1.0 -0.6727008752
O  O8  1  0.18530000  0.46390000  0.04080000  1.0 -0.6727008752
O  O9  1  0.59440000  0.81060000  0.70520000  1.0 -0.6189324564
O  O10  1  0.81060000  0.59440000  0.79480000  1.0 -0.6189324564
O  O11  1  0.40560000  0.18940000  0.29480000  1.0 -0.6189324564
O  O12  1  0.18940000  0.40560000  0.20520000  1.0 -0.6189324564
O  O13  1  0.92100000  0.00660000  0.82720000  1.0 -0.6727008752
O  O14  1  0.00660000  0.92100000  0.67280000  1.0 -0.6727008752
O  O15  1  0.07900000  0.99340000  0.17280000  1.0 -0.6727008752
O  O16  1  0.99340000  0.07900000  0.32720000  1.0 -0.6727008752
O  O17  1  0.13690000  0.20110000  0.93960000  1.0 -0.6189324564
O  O18  1  0.20110000  0.13690000  0.56040000  1.0 -0.6189324564
O  O19  1  0.86310000  0.79890000  0.06040000  1.0 -0.6189324564
O  O20  1  0.79890000  0.86310000  0.43960000  1.0 -0.6189324564
O  O21  1  0.15180000  0.92400000  0.93160000  1.0 -0.6569067321
O  O22  1  0.92400000  0.15180000  0.56840000  1.0 -0.6569067321
O  O23  1  0.84820000  0.07600000  0.06840000  1.0 -0.6569067321
O  O24  1  0.07600000  0.84820000  0.43160000  1.0 -0.6569067321
