# DDEC6 charges by PACMAN v1.1 (https://github.com/mtap-research/PACMAN-charge/)
data_VAPRIQ_FSR_pacman
_symmetry_space_group_name_H-M   'P 1'
_cell_length_a   11.84010000
_cell_length_b   6.82400000
_cell_length_c   17.46190000
_cell_angle_alpha   90.00000000
_cell_angle_beta   93.81600000
_cell_angle_gamma   90.00000000
_symmetry_Int_Tables_number   1
_chemical_formula_structural   ZnH48C52(N3O4)2
_chemical_formula_sum   'Zn2 H96 C104 N12 O16'
_cell_volume   1407.73838180
_cell_formula_units_Z   2
loop_
 _symmetry_equiv_pos_site_id
 _symmetry_equiv_pos_as_xyz
  1  'x, y, z'
loop_
 _atom_site_type_symbol
 _atom_site_label
 _atom_site_symmetry_multiplicity
 _atom_site_fract_x
 _atom_site_fract_y
 _atom_site_fract_z
 _atom_site_occupancy
 _atom_site_charge
Zn  Zn1  1  0.50000000  0.75010000  0.75000000  1.0 0.5596128435
Zn  Zn2  1  0.50000000  0.24990000  0.25000000  1.0 0.5596128435
H  H1  1  0.28780000  0.20030000  0.69420000  1.0 0.0878198513
H  H2  1  0.16500000  0.98890000  0.62650000  1.0 0.0833893077
H  H3  1  0.06520000  0.42640000  0.48530000  1.0 0.0594107168
H  H4  1  0.18590000  0.63610000  0.55290000  1.0 0.0385366808
H  H5  1  0.99450000  0.14240000  0.45480000  1.0 0.0833893077
H  H6  1  0.52290000  0.17540000  0.82450000  1.0 0.0385366808
H  H7  1  0.28420000  0.76840000  0.85470000  1.0 0.0385366808
H  H8  1  0.24010000  0.06490000  0.93240000  1.0 0.0984167274
H  H9  1  0.33310000  0.42950000  0.94610000  1.0 0.0713231163
H  H10  1  0.41250000  0.47990000  0.88080000  1.0 0.0503277853
H  H11  1  0.48990000  0.30410000  0.01360000  1.0 0.0984167274
H  H12  1  0.56210000  0.39500000  0.95130000  1.0 0.0713231163
H  H13  1  0.57440000  0.04370000  0.87020000  1.0 0.0503277853
H  H14  1  0.24950000  0.87950000  0.81980000  1.0 0.0713231163
H  H15  1  0.25650000  0.08520000  0.93980000  1.0 0.107763532
H  H16  1  0.55970000  0.19960000  0.99940000  1.0 0.0713231163
H  H17  1  0.44410000  0.19880000  0.03800000  1.0 0.0713231163
H  H18  1  0.48470000  0.40350000  0.92720000  1.0 0.0984167274
H  H19  1  0.39100000  0.41280000  0.98400000  1.0 0.0833893077
H  H20  1  0.05500000  0.84650000  0.54260000  1.0 0.0503277853
H  H21  1  0.10710000  0.33720000  0.48260000  1.0 0.0833893077
H  H22  1  0.22270000  0.56420000  0.54910000  1.0 0.0878198513
H  H23  1  0.14440000  0.97110000  0.66240000  1.0 0.0594107168
H  H24  1  0.25860000  0.19810000  0.72830000  1.0 0.0594107168
H  H25  1  0.71220000  0.20030000  0.80580000  1.0 0.0878198513
H  H26  1  0.83500000  0.98890000  0.87350000  1.0 0.0833893077
H  H27  1  0.93480000  0.42640000  0.01470000  1.0 0.0594107168
H  H28  1  0.81410000  0.63610000  0.94710000  1.0 0.0385366808
H  H29  1  0.00550000  0.14240000  0.04520000  1.0 0.0833893077
H  H30  1  0.47710000  0.17540000  0.67550000  1.0 0.0385366808
H  H31  1  0.71580000  0.76840000  0.64530000  1.0 0.0385366808
H  H32  1  0.75990000  0.06490000  0.56760000  1.0 0.0984167274
H  H33  1  0.66690000  0.42950000  0.55390000  1.0 0.0713231163
H  H34  1  0.58750000  0.47990000  0.61920000  1.0 0.0503277853
H  H35  1  0.51010000  0.30410000  0.48640000  1.0 0.0984167274
H  H36  1  0.43790000  0.39500000  0.54870000  1.0 0.0713231163
H  H37  1  0.42560000  0.04370000  0.62980000  1.0 0.0503277853
H  H38  1  0.75050000  0.87950000  0.68020000  1.0 0.0713231163
H  H39  1  0.74350000  0.08520000  0.56020000  1.0 0.107763532
H  H40  1  0.44030000  0.19960000  0.50060000  1.0 0.0713231163
H  H41  1  0.55590000  0.19880000  0.46200000  1.0 0.0713231163
H  H42  1  0.51530000  0.40350000  0.57280000  1.0 0.0984167274
H  H43  1  0.60900000  0.41280000  0.51600000  1.0 0.0833893077
H  H44  1  0.94500000  0.84650000  0.95740000  1.0 0.0503277853
H  H45  1  0.89290000  0.33720000  0.01740000  1.0 0.0833893077
H  H46  1  0.77730000  0.56420000  0.95090000  1.0 0.0878198513
H  H47  1  0.85560000  0.97110000  0.83760000  1.0 0.0503277853
H  H48  1  0.74140000  0.19810000  0.77170000  1.0 0.0594107168
H  H49  1  0.71220000  0.79970000  0.30580000  1.0 0.0878198513
H  H50  1  0.83500000  0.01110000  0.37350000  1.0 0.0833893077
H  H51  1  0.93480000  0.57360000  0.51470000  1.0 0.0594107168
H  H52  1  0.81410000  0.36390000  0.44710000  1.0 0.0385366808
H  H53  1  0.00550000  0.85760000  0.54520000  1.0 0.0833893077
H  H54  1  0.47710000  0.82460000  0.17550000  1.0 0.0385366808
H  H55  1  0.71580000  0.23160000  0.14530000  1.0 0.0385366808
H  H56  1  0.75990000  0.93510000  0.06760000  1.0 0.0984167274
H  H57  1  0.66690000  0.57050000  0.05390000  1.0 0.0713231163
H  H58  1  0.58750000  0.52010000  0.11920000  1.0 0.0503277853
H  H59  1  0.51010000  0.69590000  0.98640000  1.0 0.0984167274
H  H60  1  0.43790000  0.60500000  0.04870000  1.0 0.0713231163
H  H61  1  0.42560000  0.95630000  0.12980000  1.0 0.0503277853
H  H62  1  0.75050000  0.12050000  0.18020000  1.0 0.0713231163
H  H63  1  0.74350000  0.91480000  0.06020000  1.0 0.107763532
H  H64  1  0.44030000  0.80040000  0.00060000  1.0 0.0713231163
H  H65  1  0.55590000  0.80120000  0.96200000  1.0 0.0713231163
H  H66  1  0.51530000  0.59650000  0.07280000  1.0 0.0984167274
H  H67  1  0.60900000  0.58720000  0.01600000  1.0 0.0833893077
H  H68  1  0.94500000  0.15350000  0.45740000  1.0 0.0503277853
H  H69  1  0.89290000  0.66280000  0.51740000  1.0 0.0833893077
H  H70  1  0.77730000  0.43580000  0.45090000  1.0 0.0878198513
H  H71  1  0.85560000  0.02890000  0.33760000  1.0 0.0503277853
H  H72  1  0.74140000  0.80190000  0.27170000  1.0 0.0594107168
H  H73  1  0.28780000  0.79970000  0.19420000  1.0 0.0878198513
H  H74  1  0.16500000  0.01110000  0.12650000  1.0 0.0833893077
H  H75  1  0.06520000  0.57360000  0.98530000  1.0 0.0594107168
H  H76  1  0.18590000  0.36390000  0.05290000  1.0 0.0385366808
H  H77  1  0.99450000  0.85760000  0.95480000  1.0 0.0833893077
H  H78  1  0.52290000  0.82460000  0.32450000  1.0 0.0385366808
H  H79  1  0.28420000  0.23160000  0.35470000  1.0 0.0385366808
H  H80  1  0.24010000  0.93510000  0.43240000  1.0 0.0984167274
H  H81  1  0.33310000  0.57050000  0.44610000  1.0 0.0713231163
H  H82  1  0.41250000  0.52010000  0.38080000  1.0 0.0503277853
H  H83  1  0.48990000  0.69590000  0.51360000  1.0 0.0984167274
H  H84  1  0.56210000  0.60500000  0.45130000  1.0 0.0713231163
H  H85  1  0.57440000  0.95630000  0.37020000  1.0 0.0503277853
H  H86  1  0.24950000  0.12050000  0.31980000  1.0 0.0713231163
H  H87  1  0.25650000  0.91480000  0.43980000  1.0 0.107763532
H  H88  1  0.55970000  0.80040000  0.49940000  1.0 0.0713231163
H  H89  1  0.44410000  0.80120000  0.53800000  1.0 0.0713231163
H  H90  1  0.48470000  0.59650000  0.42720000  1.0 0.0984167274
H  H91  1  0.39100000  0.58720000  0.48400000  1.0 0.0833893077
H  H92  1  0.05500000  0.15350000  0.04260000  1.0 0.0503277853
H  H93  1  0.10710000  0.66280000  0.98260000  1.0 0.0833893077
H  H94  1  0.22270000  0.43580000  0.04910000  1.0 0.0878198513
H  H95  1  0.14440000  0.02890000  0.16240000  1.0 0.0503277853
H  H96  1  0.25860000  0.80190000  0.22830000  1.0 0.0594107168
C  C1  1  0.32300000  0.59700000  0.66700000  1.0 0.2512194769
C  C2  1  0.25000000  0.44000000  0.63000000  1.0 -0.0287079426
C  C3  1  0.24300000  0.25000000  0.65200000  1.0 -0.0287079426
C  C4  1  0.17000000  0.11900000  0.61200000  1.0 -0.0386720459
C  C5  1  0.10000000  0.19000000  0.54900000  1.0 0.0503277853
C  C6  1  0.11000000  0.38100000  0.52700000  1.0 -0.0998042865
C  C7  1  0.18200000  0.50500000  0.56800000  1.0 -0.129138243
C  C8  1  0.01900000  0.07300000  0.49900000  1.0 -0.0623512007
C  C9  1  0.45900000  0.11300000  0.84150000  1.0 0.0172588433
C  C10  1  0.32600000  0.88400000  0.85800000  1.0 -0.0386720459
C  C11  1  0.30000000  0.05000000  0.90000000  1.0 -0.239218895
C  C12  1  0.40200000  0.39000000  0.92290000  1.0 -0.1386676027
C  C13  1  0.49300000  0.41200000  0.97800000  1.0 -0.1386676027
C  C14  1  0.32700000  0.52700000  0.69900000  1.0 0.2577630015
C  C15  1  0.49700000  0.02900000  0.87300000  1.0 -0.1216873718
C  C16  1  0.31000000  0.94000000  0.84400000  1.0 -0.0212326696
C  C17  1  0.32000000  0.05000000  0.91000000  1.0 -0.1824625773
C  C18  1  0.48000000  0.23200000  0.99100000  1.0 -0.0895977818
C  C19  1  0.47000000  0.39000000  0.98100000  1.0 -0.129138243
C  C20  1  0.04300000  0.98000000  0.52900000  1.0 -0.0895977818
C  C21  1  0.13800000  0.31000000  0.53200000  1.0 -0.0287079426
C  C22  1  0.25000000  0.40000000  0.65000000  1.0 -0.0070113698
C  C23  1  0.12000000  0.13000000  0.56700000  1.0 0.0325574235
C  C24  1  0.20700000  0.45000000  0.57200000  1.0 -0.0651435746
C  C25  1  0.16000000  0.09000000  0.64000000  1.0 -0.0998042865
C  C26  1  0.22800000  0.23000000  0.67900000  1.0 -0.0805026522
C  C27  1  0.67700000  0.59700000  0.83300000  1.0 0.2512194769
C  C28  1  0.75000000  0.44000000  0.87000000  1.0 -0.0287079426
C  C29  1  0.75700000  0.25000000  0.84800000  1.0 -0.0287079426
C  C30  1  0.83000000  0.11900000  0.88800000  1.0 -0.0386720459
C  C31  1  0.90000000  0.19000000  0.95100000  1.0 0.0503277853
C  C32  1  0.89000000  0.38100000  0.97300000  1.0 -0.0998042865
C  C33  1  0.81800000  0.50500000  0.93200000  1.0 -0.129138243
C  C34  1  0.98100000  0.07300000  0.00100000  1.0 -0.0623512007
C  C35  1  0.54100000  0.11300000  0.65850000  1.0 0.0172588433
C  C36  1  0.67400000  0.88400000  0.64200000  1.0 -0.0386720459
C  C37  1  0.70000000  0.05000000  0.60000000  1.0 -0.239218895
C  C38  1  0.59800000  0.39000000  0.57710000  1.0 -0.1386676027
C  C39  1  0.50700000  0.41200000  0.52200000  1.0 -0.1386676027
C  C40  1  0.67300000  0.52700000  0.80100000  1.0 0.2577630015
C  C41  1  0.50300000  0.02900000  0.62700000  1.0 -0.1216873718
C  C42  1  0.69000000  0.94000000  0.65600000  1.0 -0.0212326696
C  C43  1  0.68000000  0.05000000  0.59000000  1.0 -0.1824625773
C  C44  1  0.52000000  0.23200000  0.50900000  1.0 -0.0895977818
C  C45  1  0.53000000  0.39000000  0.51900000  1.0 -0.129138243
C  C46  1  0.95700000  0.98000000  0.97100000  1.0 -0.0895977818
C  C47  1  0.86200000  0.31000000  0.96800000  1.0 -0.0287079426
C  C48  1  0.75000000  0.40000000  0.85000000  1.0 -0.0070113698
C  C49  1  0.88000000  0.13000000  0.93300000  1.0 0.0325574235
C  C50  1  0.79300000  0.45000000  0.92800000  1.0 -0.0623512007
C  C51  1  0.84000000  0.09000000  0.86000000  1.0 -0.0998042865
C  C52  1  0.77200000  0.23000000  0.82100000  1.0 -0.0805026522
C  C53  1  0.67700000  0.40300000  0.33300000  1.0 0.2512194769
C  C54  1  0.75000000  0.56000000  0.37000000  1.0 -0.0287079426
C  C55  1  0.75700000  0.75000000  0.34800000  1.0 -0.0287079426
C  C56  1  0.83000000  0.88100000  0.38800000  1.0 -0.0386720459
C  C57  1  0.90000000  0.81000000  0.45100000  1.0 0.0503277853
C  C58  1  0.89000000  0.61900000  0.47300000  1.0 -0.0998042865
C  C59  1  0.81800000  0.49500000  0.43200000  1.0 -0.129138243
C  C60  1  0.98100000  0.92700000  0.50100000  1.0 -0.0623512007
C  C61  1  0.54100000  0.88700000  0.15850000  1.0 0.0172588433
C  C62  1  0.67400000  0.11600000  0.14200000  1.0 -0.0386720459
C  C63  1  0.70000000  0.95000000  0.10000000  1.0 -0.239218895
C  C64  1  0.59800000  0.61000000  0.07710000  1.0 -0.1386676027
C  C65  1  0.50700000  0.58800000  0.02200000  1.0 -0.1386676027
C  C66  1  0.67300000  0.47300000  0.30100000  1.0 0.2577630015
C  C67  1  0.50300000  0.97100000  0.12700000  1.0 -0.1216873718
C  C68  1  0.69000000  0.06000000  0.15600000  1.0 -0.0212326696
C  C69  1  0.68000000  0.95000000  0.09000000  1.0 -0.1824625773
C  C70  1  0.52000000  0.76800000  0.00900000  1.0 -0.0895977818
C  C71  1  0.53000000  0.61000000  0.01900000  1.0 -0.129138243
C  C72  1  0.95700000  0.02000000  0.47100000  1.0 -0.0895977818
C  C73  1  0.86200000  0.69000000  0.46800000  1.0 -0.0287079426
C  C74  1  0.75000000  0.60000000  0.35000000  1.0 -0.0070113698
C  C75  1  0.88000000  0.87000000  0.43300000  1.0 0.0325574235
C  C76  1  0.79300000  0.55000000  0.42800000  1.0 -0.0623512007
C  C77  1  0.84000000  0.91000000  0.36000000  1.0 -0.0998042865
C  C78  1  0.77200000  0.77000000  0.32100000  1.0 -0.0805026522
C  C79  1  0.32300000  0.40300000  0.16700000  1.0 0.2512194769
C  C80  1  0.25000000  0.56000000  0.13000000  1.0 -0.0287079426
C  C81  1  0.24300000  0.75000000  0.15200000  1.0 -0.0287079426
C  C82  1  0.17000000  0.88100000  0.11200000  1.0 -0.0386720459
C  C83  1  0.10000000  0.81000000  0.04900000  1.0 0.0503277853
C  C84  1  0.11000000  0.61900000  0.02700000  1.0 -0.0998042865
C  C85  1  0.18200000  0.49500000  0.06800000  1.0 -0.129138243
C  C86  1  0.01900000  0.92700000  0.99900000  1.0 -0.0623512007
C  C87  1  0.45900000  0.88700000  0.34150000  1.0 0.0172588433
C  C88  1  0.32600000  0.11600000  0.35800000  1.0 -0.0386720459
C  C89  1  0.30000000  0.95000000  0.40000000  1.0 -0.239218895
C  C90  1  0.40200000  0.61000000  0.42290000  1.0 -0.1386676027
C  C91  1  0.49300000  0.58800000  0.47800000  1.0 -0.1386676027
C  C92  1  0.32700000  0.47300000  0.19900000  1.0 0.2577630015
C  C93  1  0.49700000  0.97100000  0.37300000  1.0 -0.1216873718
C  C94  1  0.31000000  0.06000000  0.34400000  1.0 -0.0212326696
C  C95  1  0.32000000  0.95000000  0.41000000  1.0 -0.1824625773
C  C96  1  0.48000000  0.76800000  0.49100000  1.0 -0.0895977818
C  C97  1  0.47000000  0.61000000  0.48100000  1.0 -0.129138243
C  C98  1  0.04300000  0.02000000  0.02900000  1.0 -0.0895977818
C  C99  1  0.13800000  0.69000000  0.03200000  1.0 -0.0287079426
C  C100  1  0.25000000  0.60000000  0.15000000  1.0 -0.0070113698
C  C101  1  0.12000000  0.87000000  0.06700000  1.0 0.0325574235
C  C102  1  0.20700000  0.55000000  0.07200000  1.0 -0.0651435746
C  C103  1  0.16000000  0.91000000  0.14000000  1.0 -0.0998042865
C  C104  1  0.22800000  0.77000000  0.17900000  1.0 -0.0805026522
N  N1  1  0.38500000  0.19200000  0.89120000  1.0 0.0984167274
N  N2  1  0.42410000  0.92360000  0.82110000  1.0 -0.3406911759
N  N3  1  0.43000000  0.11000000  0.92800000  1.0 0.0140511416
N  N4  1  0.61500000  0.19200000  0.60880000  1.0 0.0984167274
N  N5  1  0.57590000  0.92360000  0.67890000  1.0 -0.3406911759
N  N6  1  0.57000000  0.11000000  0.57200000  1.0 0.0140511416
N  N7  1  0.61500000  0.80800000  0.10880000  1.0 0.0984167274
N  N8  1  0.57590000  0.07640000  0.17890000  1.0 -0.3406911759
N  N9  1  0.57000000  0.89000000  0.07200000  1.0 0.0140511416
N  N10  1  0.38500000  0.80800000  0.39120000  1.0 0.0984167274
N  N11  1  0.42410000  0.07640000  0.32110000  1.0 -0.3406911759
N  N12  1  0.43000000  0.89000000  0.42800000  1.0 0.0140511416
O  O1  1  0.39900000  0.53800000  0.71570000  1.0 0.0016601005
O  O2  1  0.31200000  0.76800000  0.64520000  1.0 -0.2733745246
O  O3  1  0.38200000  0.66500000  0.67700000  1.0 0.0385366808
O  O4  1  0.34300000  0.47200000  0.76700000  1.0 -0.2782736091
O  O5  1  0.60100000  0.53800000  0.78430000  1.0 0.0016601005
O  O6  1  0.68800000  0.76800000  0.85480000  1.0 -0.2733745246
O  O7  1  0.61800000  0.66500000  0.82300000  1.0 0.0385366808
O  O8  1  0.65700000  0.47200000  0.73300000  1.0 -0.2782736091
O  O9  1  0.60100000  0.46200000  0.28430000  1.0 0.0016601005
O  O10  1  0.68800000  0.23200000  0.35480000  1.0 -0.2733745246
O  O11  1  0.61800000  0.33500000  0.32300000  1.0 0.0385366808
O  O12  1  0.65700000  0.52800000  0.23300000  1.0 -0.2782736091
O  O13  1  0.39900000  0.46200000  0.21570000  1.0 0.0016601005
O  O14  1  0.31200000  0.23200000  0.14520000  1.0 -0.2733745246
O  O15  1  0.38200000  0.33500000  0.17700000  1.0 0.0385366808
O  O16  1  0.34300000  0.52800000  0.26700000  1.0 -0.2782736091
