# DDEC6 charges by PACMAN v1.1 (https://github.com/mtap-research/PACMAN-charge/)
data_VAQLEG_FSR_pacman
_symmetry_space_group_name_H-M   'P 1'
_cell_length_a   19.34490000
_cell_length_b   19.34490000
_cell_length_c   19.34490000
_cell_angle_alpha   139.42500000
_cell_angle_beta   139.42500000
_cell_angle_gamma   58.72770000
_symmetry_Int_Tables_number   1
_chemical_formula_structural   CdH10C10N2O5
_chemical_formula_sum   'Cd8 H80 C80 N16 O40'
_cell_volume   3034.05820360
_cell_formula_units_Z   8
loop_
 _symmetry_equiv_pos_site_id
 _symmetry_equiv_pos_as_xyz
  1  'x, y, z'
loop_
 _atom_site_type_symbol
 _atom_site_label
 _atom_site_symmetry_multiplicity
 _atom_site_fract_x
 _atom_site_fract_y
 _atom_site_fract_z
 _atom_site_occupancy
 _atom_site_charge
Cd  Cd1  1  0.73192000  0.55539000  0.77695000  1.0 0.8524180745
Cd  Cd2  1  0.44461000  0.22156000  0.17653000  1.0 0.8524180745
Cd  Cd3  1  0.77844000  0.95497000  0.22305000  1.0 0.8524180745
Cd  Cd4  1  0.04503000  0.26808000  0.82347000  1.0 0.8524180745
Cd  Cd5  1  0.97156000  0.69461000  0.67653000  1.0 0.8524180745
Cd  Cd6  1  0.70497000  0.02844000  0.72305000  1.0 0.8524180745
Cd  Cd7  1  0.01808000  0.29503000  0.32347000  1.0 0.8524180745
Cd  Cd8  1  0.30539000  0.98192000  0.27695000  1.0 0.8524180745
H  H1  1  0.90200000  0.29230000  0.59310000  1.0 0.1403048024
H  H2  1  0.70770000  0.30080000  0.60970000  1.0 0.1403048024
H  H3  1  0.69920000  0.30890000  0.40690000  1.0 0.1403048024
H  H4  1  0.69110000  0.09800000  0.39030000  1.0 0.1403048024
H  H5  1  0.05080000  0.95770000  0.10970000  1.0 0.1403048024
H  H6  1  0.05890000  0.94920000  0.90690000  1.0 0.1403048024
H  H7  1  0.84800000  0.94110000  0.89030000  1.0 0.1403048024
H  H8  1  0.04230000  0.15200000  0.09310000  1.0 0.1403048024
H  H9  1  0.95730000  0.40070000  0.68180000  1.0 0.1299107075
H  H10  1  0.59930000  0.28110000  0.55660000  1.0 0.1299107075
H  H11  1  0.71890000  0.27550000  0.31820000  1.0 0.1299107075
H  H12  1  0.72450000  0.04270000  0.44340000  1.0 0.1299107075
H  H13  1  0.03110000  0.84930000  0.05660000  1.0 0.1299107075
H  H14  1  0.02550000  0.96890000  0.81820000  1.0 0.1299107075
H  H15  1  0.79270000  0.97450000  0.94340000  1.0 0.1299107075
H  H16  1  0.15070000  0.20730000  0.18180000  1.0 0.1299107075
H  H17  1  0.17730000  0.42290000  0.87440000  1.0 0.1403048024
H  H18  1  0.57710000  0.45150000  0.75440000  1.0 0.1403048024
H  H19  1  0.54850000  0.30290000  0.12560000  1.0 0.1403048024
H  H20  1  0.69710000  0.82270000  0.24560000  1.0 0.1403048024
H  H21  1  0.20150000  0.82710000  0.25440000  1.0 0.1403048024
H  H22  1  0.05290000  0.79850000  0.62560000  1.0 0.1403048024
H  H23  1  0.57270000  0.94710000  0.74560000  1.0 0.1403048024
H  H24  1  0.17290000  0.42730000  0.37440000  1.0 0.1403048024
H  H25  1  0.10710000  0.48380000  0.91930000  1.0 0.1403048024
H  H26  1  0.51620000  0.43550000  0.62330000  1.0 0.1403048024
H  H27  1  0.56450000  0.18780000  0.08070000  1.0 0.1403048024
H  H28  1  0.81220000  0.89290000  0.37670000  1.0 0.1403048024
H  H29  1  0.18550000  0.76620000  0.12330000  1.0 0.1403048024
H  H30  1  0.93780000  0.81450000  0.58070000  1.0 0.1403048024
H  H31  1  0.64290000  0.06220000  0.87670000  1.0 0.1403048024
H  H32  1  0.23380000  0.35710000  0.41930000  1.0 0.1403048024
H  H33  1  0.14600000  0.21190000  0.70250000  1.0 0.1498865207
H  H34  1  0.78810000  0.49060000  0.93410000  1.0 0.1498865207
H  H35  1  0.50940000  0.44350000  0.29750000  1.0 0.1498865207
H  H36  1  0.55650000  0.85400000  0.06590000  1.0 0.1498865207
H  H37  1  0.24060000  0.03810000  0.43410000  1.0 0.1498865207
H  H38  1  0.19350000  0.75940000  0.79750000  1.0 0.1498865207
H  H39  1  0.60400000  0.80650000  0.56590000  1.0 0.1498865207
H  H40  1  0.96190000  0.39600000  0.20250000  1.0 0.1498865207
H  H41  1  0.01960000  0.17510000  0.58310000  1.0 0.1299107075
H  H42  1  0.82490000  0.40800000  0.84450000  1.0 0.1299107075
H  H43  1  0.59200000  0.43650000  0.41690000  1.0 0.1299107075
H  H44  1  0.56350000  0.98040000  0.15550000  1.0 0.1299107075
H  H45  1  0.15800000  0.07490000  0.34450000  1.0 0.1299107075
H  H46  1  0.18650000  0.84200000  0.91690000  1.0 0.1299107075
H  H47  1  0.73040000  0.81350000  0.65550000  1.0 0.1299107075
H  H48  1  0.92510000  0.26960000  0.08310000  1.0 0.1299107075
H  H49  1  0.20100000  0.31780000  0.60000000  1.0 0.1299107075
H  H50  1  0.68220000  0.28220000  0.88320000  1.0 0.1299107075
H  H51  1  0.71780000  0.60100000  0.40000000  1.0 0.1299107075
H  H52  1  0.39900000  0.79900000  0.11680000  1.0 0.1299107075
H  H53  1  0.03220000  0.93220000  0.38320000  1.0 0.1299107075
H  H54  1  0.35100000  0.96780000  0.90000000  1.0 0.1299107075
H  H55  1  0.54900000  0.64900000  0.61680000  1.0 0.1299107075
H  H56  1  0.06780000  0.45100000  0.10000000  1.0 0.1299107075
H  H57  1  0.22190000  0.29510000  0.71540000  1.0 0.1567179207
H  H58  1  0.70490000  0.42030000  0.92680000  1.0 0.1567179207
H  H59  1  0.57970000  0.50650000  0.28460000  1.0 0.1567179207
H  H60  1  0.49350000  0.77810000  0.07320000  1.0 0.1567179207
H  H61  1  0.17030000  0.95490000  0.42680000  1.0 0.1567179207
H  H62  1  0.25650000  0.82970000  0.78460000  1.0 0.1567179207
H  H63  1  0.52810000  0.74350000  0.57320000  1.0 0.1567179207
H  H64  1  0.04510000  0.47190000  0.21540000  1.0 0.1567179207
H  H65  1  0.90590000  0.21850000  0.43440000  1.0 0.1403048024
H  H66  1  0.78150000  0.21590000  0.68740000  1.0 0.1403048024
H  H67  1  0.78410000  0.47150000  0.56560000  1.0 0.1403048024
H  H68  1  0.52850000  0.09410000  0.31260000  1.0 0.1403048024
H  H69  1  0.96590000  0.03150000  0.18740000  1.0 0.1403048024
H  H70  1  0.22150000  0.03410000  0.06560000  1.0 0.1403048024
H  H71  1  0.84410000  0.77850000  0.81260000  1.0 0.1403048024
H  H72  1  0.96850000  0.15590000  0.93440000  1.0 0.1403048024
H  H73  1  0.89030000  0.25740000  0.33470000  1.0 0.1035424341
H  H74  1  0.74260000  0.07730000  0.63290000  1.0 0.1035424341
H  H75  1  0.92270000  0.55560000  0.66530000  1.0 0.1035424341
H  H76  1  0.44440000  0.10970000  0.36710000  1.0 0.1035424341
H  H77  1  0.82730000  0.99260000  0.13290000  1.0 0.1035424341
H  H78  1  0.30560000  0.17270000  0.16530000  1.0 0.1035424341
H  H79  1  0.85970000  0.69440000  0.86710000  1.0 0.1035424341
H  H80  1  0.00740000  0.14030000  0.83470000  1.0 0.1035424341
C  C1  1  0.95380000  0.35790000  0.68970000  1.0 -0.2921359594
C  C2  1  0.64210000  0.33180000  0.59590000  1.0 -0.2921359594
C  C3  1  0.66820000  0.26410000  0.31030000  1.0 -0.2921359594
C  C4  1  0.73590000  0.04620000  0.40410000  1.0 -0.2921359594
C  C5  1  0.08180000  0.89210000  0.09590000  1.0 -0.2921359594
C  C6  1  0.01410000  0.91820000  0.81030000  1.0 -0.2921359594
C  C7  1  0.79620000  0.98590000  0.90410000  1.0 -0.2921359594
C  C8  1  0.10790000  0.20380000  0.18970000  1.0 -0.2921359594
C  C9  1  0.91457000  0.42197000  0.76640000  1.0 0.59709909
C  C10  1  0.57803000  0.34443000  0.49260000  1.0 0.59709909
C  C11  1  0.65557000  0.14817000  0.23360000  1.0 0.59709909
C  C12  1  0.85183000  0.08543000  0.50740000  1.0 0.59709909
C  C13  1  0.09443000  0.82803000  0.99260000  1.0 0.59709909
C  C14  1  0.89817000  0.90557000  0.73360000  1.0 0.59709909
C  C15  1  0.83543000  0.10183000  0.00740000  1.0 0.59709909
C  C16  1  0.17197000  0.16457000  0.26640000  1.0 0.59709909
C  C17  1  0.14290000  0.41910000  0.89140000  1.0 -0.2593293543
C  C18  1  0.58090000  0.47230000  0.72380000  1.0 -0.2593293543
C  C19  1  0.52770000  0.25150000  0.10860000  1.0 -0.2593293543
C  C20  1  0.74850000  0.85710000  0.27620000  1.0 -0.2593293543
C  C21  1  0.22230000  0.83090000  0.22380000  1.0 -0.2593293543
C  C22  1  0.00150000  0.77770000  0.60860000  1.0 -0.2593293543
C  C23  1  0.60710000  0.99850000  0.77620000  1.0 -0.2593293543
C  C24  1  0.16910000  0.39290000  0.39140000  1.0 -0.2593293543
C  C25  1  0.23267000  0.41767000  0.01680000  1.0 0.594749475
C  C26  1  0.58233000  0.59913000  0.81500000  1.0 0.594749475
C  C27  1  0.40087000  0.21587000  0.98320000  1.0 0.594749475
C  C28  1  0.78413000  0.76733000  0.18500000  1.0 0.594749475
C  C29  1  0.34913000  0.83233000  0.31500000  1.0 0.594749475
C  C30  1  0.96587000  0.65087000  0.48320000  1.0 0.594749475
C  C31  1  0.51733000  0.03413000  0.68500000  1.0 0.594749475
C  C32  1  0.16767000  0.48267000  0.51680000  1.0 0.594749475
C  C33  1  0.07515000  0.23545000  0.65830000  1.0 -0.1824784036
C  C34  1  0.76455000  0.42285000  0.83970000  1.0 -0.1824784036
C  C35  1  0.57715000  0.41685000  0.34170000  1.0 -0.1824784036
C  C36  1  0.58315000  0.92485000  0.16030000  1.0 -0.1824784036
C  C37  1  0.17285000  0.01455000  0.33970000  1.0 -0.1824784036
C  C38  1  0.16685000  0.82715000  0.84170000  1.0 -0.1824784036
C  C39  1  0.67485000  0.83315000  0.66030000  1.0 -0.1824784036
C  C40  1  0.98545000  0.32515000  0.15830000  1.0 -0.1824784036
C  C41  1  0.13861000  0.30101000  0.56760000  1.0 0.0822278429
C  C42  1  0.69899000  0.26659000  0.83760000  1.0 0.0822278429
C  C43  1  0.73341000  0.57101000  0.43240000  1.0 0.0822278429
C  C44  1  0.42899000  0.86139000  0.16240000  1.0 0.0822278429
C  C45  1  0.01659000  0.94899000  0.33760000  1.0 0.0822278429
C  C46  1  0.32101000  0.98341000  0.93240000  1.0 0.0822278429
C  C47  1  0.61139000  0.67899000  0.66240000  1.0 0.0822278429
C  C48  1  0.05101000  0.38861000  0.06760000  1.0 0.0822278429
C  C49  1  0.15165000  0.28595000  0.63590000  1.0 -0.1952305789
C  C50  1  0.71405000  0.34995000  0.86570000  1.0 -0.1952305789
C  C51  1  0.65005000  0.51575000  0.36410000  1.0 -0.1952305789
C  C52  1  0.48425000  0.84835000  0.13430000  1.0 -0.1952305789
C  C53  1  0.09995000  0.96405000  0.36570000  1.0 -0.1952305789
C  C54  1  0.26575000  0.90005000  0.86410000  1.0 -0.1952305789
C  C55  1  0.59835000  0.73425000  0.63430000  1.0 -0.1952305789
C  C56  1  0.03595000  0.40165000  0.13590000  1.0 -0.1949686463
C  C57  1  0.06480000  0.25790000  0.59070000  1.0 0.1403048024
C  C58  1  0.74210000  0.33280000  0.80690000  1.0 0.1403048024
C  C59  1  0.66720000  0.47410000  0.40930000  1.0 0.1403048024
C  C60  1  0.52590000  0.93520000  0.19310000  1.0 0.1403048024
C  C61  1  0.08280000  0.99210000  0.30690000  1.0 0.1403048024
C  C62  1  0.22410000  0.91720000  0.90930000  1.0 0.1403048024
C  C63  1  0.68520000  0.77590000  0.69310000  1.0 0.1403048024
C  C64  1  0.00790000  0.31480000  0.09070000  1.0 0.1403048024
C  C65  1  0.96845000  0.24325000  0.47480000  1.0 -0.2226660158
C  C66  1  0.75675000  0.23155000  0.72520000  1.0 -0.2226660158
C  C67  1  0.76845000  0.49365000  0.52520000  1.0 -0.2226660158
C  C68  1  0.50635000  0.03155000  0.27480000  1.0 -0.2226660158
C  C69  1  0.98155000  0.00675000  0.22520000  1.0 -0.2226660158
C  C70  1  0.24365000  0.01845000  0.02520000  1.0 -0.2226660158
C  C71  1  0.78155000  0.75635000  0.77480000  1.0 -0.2226660158
C  C72  1  0.99325000  0.21845000  0.97480000  1.0 -0.2226660158
C  C73  1  0.95966000  0.26436000  0.41290000  1.0 0.0745560695
C  C74  1  0.73564000  0.14854000  0.69530000  1.0 0.0745560695
C  C75  1  0.85146000  0.54676000  0.58710000  1.0 0.0745560695
C  C76  1  0.45324000  0.04034000  0.30470000  1.0 0.0745560695
C  C77  1  0.89854000  0.98564000  0.19530000  1.0 0.0745560695
C  C78  1  0.29676000  0.10146000  0.08710000  1.0 0.0745560695
C  C79  1  0.79034000  0.70324000  0.80470000  1.0 0.0745560695
C  C80  1  0.01436000  0.20966000  0.91290000  1.0 0.0745560695
N  N1  1  0.06457000  0.32607000  0.76470000  1.0 -0.0379821713
N  N2  1  0.67393000  0.43863000  0.73850000  1.0 -0.0379821713
N  N3  1  0.56137000  0.29987000  0.23530000  1.0 -0.0379821713
N  N4  1  0.70013000  0.93543000  0.26150000  1.0 -0.0379821713
N  N5  1  0.18863000  0.92393000  0.23850000  1.0 -0.0379821713
N  N6  1  0.04987000  0.81137000  0.73530000  1.0 -0.0379821713
N  N7  1  0.68543000  0.95013000  0.76150000  1.0 -0.0379821713
N  N8  1  0.07607000  0.31457000  0.26470000  1.0 -0.0379821713
N  N9  1  0.04354000  0.29324000  0.45890000  1.0 -0.2316184881
N  N10  1  0.70676000  0.16566000  0.75030000  1.0 -0.2316184881
N  N11  1  0.83434000  0.58464000  0.54110000  1.0 -0.2316184881
N  N12  1  0.41536000  0.95646000  0.24970000  1.0 -0.2316184881
N  N13  1  0.91566000  0.95676000  0.25030000  1.0 -0.2316184881
N  N14  1  0.33464000  0.08434000  0.04110000  1.0 -0.2316184881
N  N15  1  0.70646000  0.66536000  0.74970000  1.0 -0.2316184881
N  N16  1  0.04324000  0.29354000  0.95890000  1.0 -0.2316184881
O  O1  1  0.84429000  0.47659000  0.73610000  1.0 -0.5297485757
O  O2  1  0.52341000  0.25951000  0.36770000  1.0 -0.5297485757
O  O3  1  0.74049000  0.10819000  0.26390000  1.0 -0.5297485757
O  O4  1  0.89181000  0.15571000  0.63230000  1.0 -0.5297485757
O  O5  1  0.00951000  0.77341000  0.86770000  1.0 -0.5297485757
O  O6  1  0.85819000  0.99049000  0.76390000  1.0 -0.5297485757
O  O7  1  0.90571000  0.14181000  0.13230000  1.0 -0.5297485757
O  O8  1  0.22659000  0.09429000  0.23610000  1.0 -0.5297485757
O  O9  1  0.93839000  0.40429000  0.82970000  1.0 -0.4953362103
O  O10  1  0.59571000  0.42541000  0.53410000  1.0 -0.4953362103
O  O11  1  0.57459000  0.10869000  0.17030000  1.0 -0.4953362103
O  O12  1  0.89131000  0.06161000  0.46590000  1.0 -0.494888788
O  O13  1  0.17541000  0.84571000  0.03410000  1.0 -0.4953362103
O  O14  1  0.85869000  0.82459000  0.67030000  1.0 -0.4953362103
O  O15  1  0.81161000  0.14131000  0.96590000  1.0 -0.494888788
O  O16  1  0.15429000  0.18839000  0.32970000  1.0 -0.4953362103
O  O17  1  0.20497000  0.37617000  0.02000000  1.0 -0.4815112706
O  O18  1  0.62383000  0.64383000  0.82880000  1.0 -0.4815112706
O  O19  1  0.35617000  0.18497000  0.98000000  1.0 -0.4815112706
O  O20  1  0.81503000  0.79503000  0.17120000  1.0 -0.4815112706
O  O21  1  0.39383000  0.87383000  0.32880000  1.0 -0.4815112706
O  O22  1  0.93497000  0.60617000  0.48000000  1.0 -0.4815112706
O  O23  1  0.54503000  0.06503000  0.67120000  1.0 -0.4815112706
O  O24  1  0.12617000  0.45497000  0.52000000  1.0 -0.4815112706
O  O25  1  0.32284000  0.47454000  0.11870000  1.0 -0.5297485757
O  O26  1  0.52546000  0.64416000  0.84830000  1.0 -0.5297485757
O  O27  1  0.35584000  0.20414000  0.88130000  1.0 -0.5297485757
O  O28  1  0.79586000  0.67716000  0.15170000  1.0 -0.5297485757
O  O29  1  0.39416000  0.77546000  0.34830000  1.0 -0.5297485757
O  O30  1  0.95414000  0.60584000  0.38130000  1.0 -0.5297485757
O  O31  1  0.42716000  0.04586000  0.65170000  1.0 -0.5297485757
O  O32  1  0.22454000  0.57284000  0.61870000  1.0 -0.5297485757
O  O33  1  0.87058000  0.66058000  0.01320000  1.0 -0.2453758772
O  O34  1  0.33942000  0.35262000  0.21000000  1.0 -0.2453758772
O  O35  1  0.64738000  0.85738000  0.98680000  1.0 -0.2438736861
O  O36  1  0.14262000  0.12942000  0.79000000  1.0 -0.2453758772
O  O37  1  0.10262000  0.58942000  0.71000000  1.0 -0.2438736861
O  O38  1  0.60738000  0.89738000  0.48680000  1.0 -0.2453758772
O  O39  1  0.87942000  0.39262000  0.29000000  1.0 -0.2438736861
O  O40  1  0.41058000  0.12058000  0.51320000  1.0 -0.2453758772
