# DDEC6 charges by PACMAN v1.1 (https://github.com/mtap-research/PACMAN-charge/)
data_VAQTUF_ASR_pacman
_symmetry_space_group_name_H-M   'P 1'
_cell_length_a   26.33940000
_cell_length_b   26.33940000
_cell_length_c   26.33940000
_cell_angle_alpha   92.47060000
_cell_angle_beta   92.47060000
_cell_angle_gamma   156.03400000
_symmetry_Int_Tables_number   1
_chemical_formula_structural   AlC24N3O7
_chemical_formula_sum   'Al8 C192 N24 O56'
_cell_volume   7260.78141203
_cell_formula_units_Z   8
loop_
 _symmetry_equiv_pos_site_id
 _symmetry_equiv_pos_as_xyz
  1  'x, y, z'
loop_
 _atom_site_type_symbol
 _atom_site_label
 _atom_site_symmetry_multiplicity
 _atom_site_fract_x
 _atom_site_fract_y
 _atom_site_fract_z
 _atom_site_occupancy
 _atom_site_charge
Al  Al1  1  0.61741000  0.57186000  0.46107000  1.0 1.6236774717
Al  Al2  1  0.63259000  0.17814000  0.03893000  1.0 1.6253000889
Al  Al3  1  0.11079000  0.15634000  0.53893000  1.0 1.6253000889
Al  Al4  1  0.40634000  0.36741000  0.54555000  1.0 1.6253000889
Al  Al5  1  0.42814000  0.88921000  0.04555000  1.0 1.6253000889
Al  Al6  1  0.84366000  0.38259000  0.95445000  1.0 1.6236774717
Al  Al7  1  0.82186000  0.86079000  0.45445000  1.0 1.6236774717
Al  Al8  1  0.13921000  0.59366000  0.96107000  1.0 1.6236774717
C  C1  1  0.20950000  0.95267000  0.32593000  1.0 0.3711521669
C  C2  1  0.04050000  0.79733000  0.17407000  1.0 0.3711521669
C  C3  1  0.62674000  0.88357000  0.67407000  1.0 0.3813426669
C  C4  1  0.13357000  0.95950000  0.75683000  1.0 0.3711521669
C  C5  1  0.04733000  0.37326000  0.25683000  1.0 0.3813426669
C  C6  1  0.11643000  0.79050000  0.74317000  1.0 0.3711521669
C  C7  1  0.20267000  0.37674000  0.24317000  1.0 0.3813426669
C  C8  1  0.62326000  0.86643000  0.82593000  1.0 0.3813426669
C  C9  1  0.21385000  0.89216000  0.26013000  1.0 0.3711521669
C  C10  1  0.03615000  0.85784000  0.23987000  1.0 0.3711521669
C  C11  1  0.63203000  0.95372000  0.73987000  1.0 0.3711521669
C  C12  1  0.20372000  0.96385000  0.82169000  1.0 0.3711521669
C  C13  1  0.10784000  0.36797000  0.32169000  1.0 0.3711521669
C  C14  1  0.04628000  0.78615000  0.67831000  1.0 0.3711521669
C  C15  1  0.14216000  0.38203000  0.17831000  1.0 0.3711521669
C  C16  1  0.61797000  0.79628000  0.76013000  1.0 0.3711521669
C  C17  1  0.04630000  0.74002000  0.30742000  1.0 0.3813426669
C  C18  1  0.20370000  0.00998000  0.19258000  1.0 0.3813426669
C  C19  1  0.43260000  0.73888000  0.69258000  1.0 0.3813426669
C  C20  1  0.98888000  0.79630000  0.80628000  1.0 0.3813426669
C  C21  1  0.25998000  0.56740000  0.30628000  1.0 0.3813426669
C  C22  1  0.26112000  0.95370000  0.69372000  1.0 0.3813426669
C  C23  1  0.99002000  0.18260000  0.19372000  1.0 0.3813426669
C  C24  1  0.81740000  0.01112000  0.80742000  1.0 0.3879377041
C  C25  1  0.26301000  0.04469000  0.35434000  1.0 0.0284194677
C  C26  1  0.98699000  0.70531000  0.14566000  1.0 0.0284194677
C  C27  1  0.69035000  0.90867000  0.64566000  1.0 0.0284194677
C  C28  1  0.15867000  0.01301000  0.71832000  1.0 0.0284194677
C  C29  1  0.95531000  0.30965000  0.21832000  1.0 0.0284194677
C  C30  1  0.09133000  0.73699000  0.78168000  1.0 0.0284194677
C  C31  1  0.29469000  0.44035000  0.28168000  1.0 0.0284194677
C  C32  1  0.55965000  0.84133000  0.85434000  1.0 0.0284194677
C  C33  1  0.20157000  0.01222000  0.38957000  1.0 -0.0385687042
C  C34  1  0.04843000  0.73778000  0.11043000  1.0 -0.0385687042
C  C35  1  0.62265000  0.81200000  0.61043000  1.0 -0.0385687042
C  C36  1  0.06200000  0.95157000  0.68935000  1.0 -0.0385687042
C  C37  1  0.98778000  0.37735000  0.18935000  1.0 -0.0385687042
C  C38  1  0.18800000  0.79843000  0.81065000  1.0 -0.0385687042
C  C39  1  0.26222000  0.37265000  0.31065000  1.0 -0.0385687042
C  C40  1  0.62735000  0.93800000  0.88957000  1.0 -0.0385687042
C  C41  1  0.25437000  0.10302000  0.41759000  1.0 0.0200831946
C  C42  1  0.99563000  0.64698000  0.08241000  1.0 0.0200831946
C  C43  1  0.68543000  0.83678000  0.58241000  1.0 0.0200831946
C  C44  1  0.08678000  0.00437000  0.65135000  1.0 0.0200831946
C  C45  1  0.89698000  0.31457000  0.15135000  1.0 0.0200831946
C  C46  1  0.16322000  0.74563000  0.84865000  1.0 0.0200831946
C  C47  1  0.35302000  0.43543000  0.34865000  1.0 0.0200831946
C  C48  1  0.56457000  0.91322000  0.91759000  1.0 0.0200831946
C  C49  1  0.36862000  0.22631000  0.41039000  1.0 -0.0291560523
C  C50  1  0.88138000  0.52369000  0.08961000  1.0 -0.0291560523
C  C51  1  0.81592000  0.95823000  0.58961000  1.0 -0.0291560523
C  C52  1  0.20823000  0.11862000  0.64231000  1.0 -0.0291560523
C  C53  1  0.77369000  0.18408000  0.14231000  1.0 -0.0291560523
C  C54  1  0.04177000  0.63138000  0.85769000  1.0 -0.0291560523
C  C55  1  0.47631000  0.56592000  0.35769000  1.0 -0.0291560523
C  C56  1  0.43408000  0.79177000  0.91039000  1.0 -0.0291560523
C  C57  1  0.43005000  0.25878000  0.37515000  1.0 0.0200831946
C  C58  1  0.81995000  0.49122000  0.12485000  1.0 0.0200831946
C  C59  1  0.88363000  0.05490000  0.62485000  1.0 0.0200831946
C  C60  1  0.30490000  0.18005000  0.67127000  1.0 0.0200831946
C  C61  1  0.74122000  0.11637000  0.17127000  1.0 0.0200831946
C  C62  1  0.94510000  0.56995000  0.82873000  1.0 0.0200831946
C  C63  1  0.50878000  0.63363000  0.32873000  1.0 0.0200831946
C  C64  1  0.36637000  0.69510000  0.87515000  1.0 0.0200831946
C  C65  1  0.37725000  0.16798000  0.34713000  1.0 0.0505224504
C  C66  1  0.87275000  0.58202000  0.15287000  1.0 0.0505224504
C  C67  1  0.82085000  0.03012000  0.65287000  1.0 0.0505224504
C  C68  1  0.28012000  0.12725000  0.70927000  1.0 0.0505224504
C  C69  1  0.83202000  0.17915000  0.20927000  1.0 0.0505224504
C  C70  1  0.96988000  0.62275000  0.79073000  1.0 0.0505224504
C  C71  1  0.41798000  0.57085000  0.29073000  1.0 0.0505224504
C  C72  1  0.42915000  0.71988000  0.84713000  1.0 0.0505224504
C  C73  1  0.42638000  0.32565000  0.44105000  1.0 0.6691508525
C  C74  1  0.82362000  0.42435000  0.05895000  1.0 0.6691508525
C  C75  1  0.88460000  0.98533000  0.55895000  1.0 0.6691508525
C  C76  1  0.23533000  0.17638000  0.60073000  1.0 0.6691508525
C  C77  1  0.67435000  0.11540000  0.10073000  1.0 0.6691508525
C  C78  1  0.01467000  0.57362000  0.89927000  1.0 0.6691508525
C  C79  1  0.57565000  0.63460000  0.39927000  1.0 0.6691508525
C  C80  1  0.36540000  0.76467000  0.94105000  1.0 0.6691508525
C  C81  1  0.27178000  0.92304000  0.22204000  1.0 0.0284194677
C  C82  1  0.97822000  0.82696000  0.27796000  1.0 0.0284194677
C  C83  1  0.70100000  0.04974000  0.77796000  1.0 0.0284194677
C  C84  1  0.29974000  0.02178000  0.84874000  1.0 0.0284194677
C  C85  1  0.07696000  0.29900000  0.34874000  1.0 0.0284194677
C  C86  1  0.95026000  0.72822000  0.65126000  1.0 0.0284194677
C  C87  1  0.17304000  0.45100000  0.15126000  1.0 0.0284194677
C  C88  1  0.54900000  0.70026000  0.72204000  1.0 0.0284194677
C  C89  1  0.39482000  0.04850000  0.22022000  1.0 0.0284194677
C  C90  1  0.85518000  0.70150000  0.27978000  1.0 0.0284194677
C  C91  1  0.82828000  0.17460000  0.77978000  1.0 0.0284194677
C  C92  1  0.42460000  0.14482000  0.84632000  1.0 0.0284194677
C  C93  1  0.95150000  0.17172000  0.34632000  1.0 0.0284194677
C  C94  1  0.82540000  0.60518000  0.65368000  1.0 0.0284194677
C  C95  1  0.29850000  0.57828000  0.15368000  1.0 0.0284194677
C  C96  1  0.42172000  0.57540000  0.72022000  1.0 0.0284194677
C  C97  1  0.45197000  0.07897000  0.18263000  1.0 0.0070117851
C  C98  1  0.79802000  0.67103000  0.31738000  1.0 0.0070117851
C  C99  1  0.89634000  0.26935000  0.81737000  1.0 0.0070117851
C  C100  1  0.51935000  0.20197000  0.87300000  1.0 0.0070117851
C  C101  1  0.92103000  0.10366000  0.37300000  1.0 0.0070117851
C  C102  1  0.73065000  0.54802000  0.62699000  1.0 0.0070117851
C  C103  1  0.32897000  0.64635000  0.12699000  1.0 0.0070117851
C  C104  1  0.35365000  0.48065000  0.68262000  1.0 0.0070117851
C  C105  1  0.38609000  0.98398000  0.14685000  1.0 -0.0291560523
C  C106  1  0.86391000  0.76602000  0.35315000  1.0 -0.0291560523
C  C107  1  0.83713000  0.23924000  0.85315000  1.0 -0.0291560523
C  C108  1  0.48924000  0.13609000  0.90211000  1.0 -0.0291560523
C  C109  1  0.01602000  0.16287000  0.40211000  1.0 -0.0291560523
C  C110  1  0.76076000  0.61391000  0.59789000  1.0 -0.0291560523
C  C111  1  0.23398000  0.58713000  0.09789000  1.0 -0.0291560523
C  C112  1  0.41287000  0.51076000  0.64685000  1.0 -0.0291560523
C  C113  1  0.26305000  0.85852000  0.14867000  1.0 0.0284194677
C  C114  1  0.98695000  0.89148000  0.35132000  1.0 0.0284194677
C  C115  1  0.70985000  0.11438000  0.85132000  1.0 0.0284194677
C  C116  1  0.36438000  0.01305000  0.90453000  1.0 0.0284194677
C  C117  1  0.14147000  0.29015000  0.40452000  1.0 0.0284194677
C  C118  1  0.88562000  0.73695000  0.59547000  1.0 0.0284194677
C  C119  1  0.10853000  0.45985000  0.09548000  1.0 0.0284194677
C  C120  1  0.54015000  0.63562000  0.64868000  1.0 0.0284194677
C  C121  1  0.20590000  0.82805000  0.18627000  1.0 -0.0467280857
C  C122  1  0.04410000  0.92195000  0.31373000  1.0 -0.0385687042
C  C123  1  0.64178000  0.01963000  0.81373000  1.0 -0.0385687042
C  C124  1  0.26963000  0.95590000  0.87785000  1.0 -0.0467280857
C  C125  1  0.17195000  0.35822000  0.37785000  1.0 -0.0467280857
C  C126  1  0.98037000  0.79410000  0.62215000  1.0 -0.0467280857
C  C127  1  0.07805000  0.39178000  0.12215000  1.0 -0.0467280857
C  C128  1  0.60822000  0.73037000  0.68627000  1.0 -0.0467280857
C  C129  1  0.44862000  0.01731000  0.10573000  1.0 0.6831302438
C  C130  1  0.80138000  0.73269000  0.39427000  1.0 0.6831302438
C  C131  1  0.91158000  0.34289000  0.89427000  1.0 0.6831302438
C  C132  1  0.59289000  0.19862000  0.93131000  1.0 0.6831302438
C  C133  1  0.98269000  0.08842000  0.43131000  1.0 0.6831302438
C  C134  1  0.65711000  0.55138000  0.56869000  1.0 0.6831302438
C  C135  1  0.26731000  0.66158000  0.06869000  1.0 0.6831302438
C  C136  1  0.33842000  0.40711000  0.60573000  1.0 0.6831302438
C  C137  1  0.93487000  0.61712000  0.31711000  1.0 0.0284194677
C  C138  1  0.31513000  0.13288000  0.18289000  1.0 0.0200831946
C  C139  1  0.30001000  0.61776000  0.68289000  1.0 0.0200831946
C  C140  1  0.86776000  0.68487000  0.81775000  1.0 0.0284194677
C  C141  1  0.38288000  0.69999000  0.31775000  1.0 0.0200831946
C  C142  1  0.38224000  0.06513000  0.68225000  1.0 0.0200831946
C  C143  1  0.86712000  0.05001000  0.18225000  1.0 0.0200831946
C  C144  1  0.94999000  0.13224000  0.81711000  1.0 0.0284194677
C  C145  1  0.88953000  0.53021000  0.29314000  1.0 -0.0080653224
C  C146  1  0.36046000  0.21979000  0.20685000  1.0 -0.0080653224
C  C147  1  0.23706000  0.59639000  0.70685000  1.0 -0.0080653224
C  C148  1  0.84639000  0.63953000  0.85932000  1.0 -0.0080653224
C  C149  1  0.46979000  0.76294000  0.35933000  1.0 -0.0080653224
C  C150  1  0.40361000  0.11046000  0.64067000  1.0 -0.0080653224
C  C151  1  0.78021000  0.98707000  0.14067000  1.0 -0.0080653224
C  C152  1  0.01293000  0.15361000  0.79314000  1.0 -0.0080653224
C  C153  1  0.77958000  0.40893000  0.30271000  1.0 0.0200831946
C  C154  1  0.47042000  0.34107000  0.19729000  1.0 0.0200831946
C  C155  1  0.10623000  0.47687000  0.69729000  1.0 0.0200831946
C  C156  1  0.72687000  0.52957000  0.87064000  1.0 0.0200831946
C  C157  1  0.59107000  0.89378000  0.37065000  1.0 0.0200831946
C  C158  1  0.52313000  0.22043000  0.62935000  1.0 0.0200831946
C  C159  1  0.65893000  0.85623000  0.12935000  1.0 0.0200831946
C  C160  1  0.14377000  0.27313000  0.80271000  1.0 0.0200831946
C  C161  1  0.71495000  0.37457000  0.33624000  1.0 -0.0220879433
C  C162  1  0.53505000  0.37543000  0.16376000  1.0 -0.0220879433
C  C163  1  0.03833000  0.37871000  0.66376000  1.0 -0.0220879433
C  C164  1  0.62871000  0.46495000  0.84038000  1.0 -0.0220879433
C  C165  1  0.62543000  0.96167000  0.34038000  1.0 -0.0220879433
C  C166  1  0.62129000  0.28505000  0.65962000  1.0 -0.0220879433
C  C167  1  0.62457000  0.78833000  0.15962000  1.0 -0.0220879433
C  C168  1  0.21167000  0.37129000  0.83624000  1.0 -0.0220879433
C  C169  1  0.76029000  0.46148000  0.36021000  1.0 0.0440805778
C  C170  1  0.48971000  0.28852000  0.13979000  1.0 0.0440805778
C  C171  1  0.10127000  0.40008000  0.63979000  1.0 0.0440805778
C  C172  1  0.65008000  0.51029000  0.79881000  1.0 0.0440805778
C  C173  1  0.53852000  0.89873000  0.29881000  1.0 0.0440805778
C  C174  1  0.59992000  0.23971000  0.70119000  1.0 0.0440805778
C  C175  1  0.71148000  0.85127000  0.20119000  1.0 0.0440805778
C  C176  1  0.14873000  0.34992000  0.86021000  1.0 0.0440805778
C  C177  1  0.87025000  0.58276000  0.35065000  1.0 -0.0220879433
C  C178  1  0.37975000  0.16724000  0.14935000  1.0 -0.0220879433
C  C179  1  0.23211000  0.51960000  0.64935000  1.0 -0.0220879433
C  C180  1  0.76960000  0.62025000  0.78749000  1.0 -0.0220879433
C  C181  1  0.41724000  0.76789000  0.28749000  1.0 -0.0220879433
C  C182  1  0.48040000  0.12975000  0.71251000  1.0 -0.0220879433
C  C183  1  0.83276000  0.98211000  0.21251000  1.0 -0.0220879433
C  C184  1  0.01789000  0.23040000  0.85065000  1.0 -0.0220879433
C  C185  1  0.59465000  0.24189000  0.34670000  1.0 0.6897906456
C  C186  1  0.65535000  0.50811000  0.15330000  1.0 0.6691508525
C  C187  1  0.89519000  0.24795000  0.65330000  1.0 0.6691508525
C  C188  1  0.49795000  0.34465000  0.85276000  1.0 0.6691508525
C  C189  1  0.75811000  0.10481000  0.35276000  1.0 0.6691508525
C  C190  1  0.75205000  0.40535000  0.64724000  1.0 0.6691508525
C  C191  1  0.49189000  0.64519000  0.14724000  1.0 0.6691508525
C  C192  1  0.35481000  0.50205000  0.84670000  1.0 0.6691508525
N  N1  1  0.26680000  0.98322000  0.28824000  1.0 -0.3325523896
N  N2  1  0.98320000  0.76678000  0.21176000  1.0 -0.3403770235
N  N3  1  0.69498000  0.97856000  0.71176000  1.0 -0.3325523896
N  N4  1  0.22856000  0.01680000  0.78358000  1.0 -0.3325523896
N  N5  1  0.01678000  0.30502000  0.28358000  1.0 -0.3325523896
N  N6  1  0.02144000  0.73320000  0.71642000  1.0 -0.3325523896
N  N7  1  0.23322000  0.44498000  0.21642000  1.0 -0.3325523896
N  N8  1  0.55502000  0.77144000  0.78824000  1.0 -0.3325523896
N  N9  1  0.10360000  0.77057000  0.26972000  1.0 -0.3403770235
N  N10  1  0.14640000  0.97944000  0.23027000  1.0 -0.3470471905
N  N11  1  0.50084000  0.83388000  0.73027000  1.0 -0.3470471905
N  N12  1  0.08388000  0.85360000  0.83303000  1.0 -0.3470471905
N  N13  1  0.22944000  0.49916000  0.33304000  1.0 -0.3403770235
N  N14  1  0.16613000  0.89640000  0.66696000  1.0 -0.3470471905
N  N15  1  0.02056000  0.25084000  0.16697000  1.0 -0.3403770235
N  N16  1  0.74916000  0.91612000  0.76972000  1.0 -0.3470471905
N  N17  1  0.09925000  0.83107000  0.33552000  1.0 -0.3470471905
N  N18  1  0.15075000  0.91893000  0.16448000  1.0 -0.3403770235
N  N19  1  0.49555000  0.76373000  0.66448000  1.0 -0.3470471905
N  N20  1  0.01373000  0.84925000  0.76818000  1.0 -0.3470471905
N  N21  1  0.16893000  0.50445000  0.26818000  1.0 -0.3470471905
N  N22  1  0.23627000  0.90075000  0.73182000  1.0 -0.3470471905
N  N23  1  0.08107000  0.24555000  0.23182000  1.0 -0.3470471905
N  N24  1  0.75445000  0.98627000  0.83552000  1.0 -0.3470471905
O  O1  1  0.48168000  0.41017000  0.41901000  1.0 -0.551708715
O  O2  1  0.76832000  0.33983000  0.08099000  1.0 -0.551708715
O  O3  1  0.99116000  0.06267000  0.58099000  1.0 -0.551708715
O  O4  1  0.31267000  0.23168000  0.57151000  1.0 -0.551708715
O  O5  1  0.58983000  0.00884000  0.07151000  1.0 -0.551708715
O  O6  1  0.93733000  0.51832000  0.92849000  1.0 -0.551708715
O  O7  1  0.66017000  0.74116000  0.42849000  1.0 -0.551708715
O  O8  1  0.25884000  0.68733000  0.91901000  1.0 -0.551708715
O  O9  1  0.42090000  0.32680000  0.48954000  1.0 -0.5181412465
O  O10  1  0.82910000  0.42320000  0.01046000  1.0 -0.5181412465
O  O11  1  0.83726000  0.93136000  0.51046000  1.0 -0.5181412465
O  O12  1  0.18136000  0.17090000  0.59410000  1.0 -0.5181412465
O  O13  1  0.67320000  0.16274000  0.09410000  1.0 -0.5181412465
O  O14  1  0.06864000  0.57910000  0.90590000  1.0 -0.5181412465
O  O15  1  0.57680000  0.58726000  0.40590000  1.0 -0.5181412465
O  O16  1  0.41274000  0.81864000  0.98954000  1.0 -0.5181412465
O  O17  1  0.42399000  0.94795000  0.09018000  1.0 -0.5419154298
O  O18  1  0.82601000  0.80205000  0.40982000  1.0 -0.5419154298
O  O19  1  0.85777000  0.33381000  0.90982000  1.0 -0.5419154298
O  O20  1  0.58381000  0.17399000  0.97604000  1.0 -0.5419154298
O  O21  1  0.05205000  0.14223000  0.47604000  1.0 -0.5419154298
O  O22  1  0.66619000  0.57601000  0.52396000  1.0 -0.5419154298
O  O23  1  0.19795000  0.60777000  0.02396000  1.0 -0.5419154298
O  O24  1  0.39223000  0.41619000  0.59018000  1.0 -0.5419154298
O  O25  1  0.52717000  0.11542000  0.08581000  1.0 -0.551708715
O  O26  1  0.72283000  0.63458000  0.41419000  1.0 -0.551708715
O  O27  1  0.02961000  0.44136000  0.91419000  1.0 -0.551708715
O  O28  1  0.69136000  0.27717000  0.91175000  1.0 -0.551708715
O  O29  1  0.88458000  0.97039000  0.41175000  1.0 -0.551708715
O  O30  1  0.55864000  0.47283000  0.58825000  1.0 -0.551708715
O  O31  1  0.36542000  0.77961000  0.08825000  1.0 -0.551708715
O  O32  1  0.22039000  0.30864000  0.58581000  1.0 -0.551708715
O  O33  1  0.57490000  0.17532000  0.34032000  1.0 -0.4868545141
O  O34  1  0.67510000  0.57468000  0.15968000  1.0 -0.4868545141
O  O35  1  0.83500000  0.23458000  0.65968000  1.0 -0.4837146706
O  O36  1  0.48458000  0.32490000  0.89958000  1.0 -0.4837146706
O  O37  1  0.82468000  0.16500000  0.39958000  1.0 -0.4837146706
O  O38  1  0.76542000  0.42510000  0.60042000  1.0 -0.4837146706
O  O39  1  0.42532000  0.58500000  0.10042000  1.0 -0.4837146706
O  O40  1  0.41500000  0.51542000  0.84032000  1.0 -0.4837146706
O  O41  1  0.51066000  0.19404000  0.36212000  1.0 -0.5181412465
O  O42  1  0.73934000  0.55596000  0.13788000  1.0 -0.5136280861
O  O43  1  0.83192000  0.14854000  0.63788000  1.0 -0.5181412465
O  O44  1  0.39854000  0.26066000  0.81662000  1.0 -0.5181412465
O  O45  1  0.80596000  0.16808000  0.31662000  1.0 -0.5181412465
O  O46  1  0.85146000  0.48934000  0.68338000  1.0 -0.5181412465
O  O47  1  0.44404000  0.58192000  0.18338000  1.0 -0.5181412465
O  O48  1  0.41808000  0.60146000  0.86212000  1.0 -0.5181412465
O  O49  1  0.49792000  0.48398000  0.50350000  1.0 -0.6912581445
O  O50  1  0.75208000  0.26602000  0.99650000  1.0 -0.6912581445
O  O51  1  0.98048000  0.99442000  0.49650000  1.0 -0.6912581445
O  O52  1  0.24442000  0.24792000  0.51394000  1.0 -0.6912581445
O  O53  1  0.51602000  0.01952000  0.01394000  1.0 -0.6912581445
O  O54  1  0.00558000  0.50208000  0.98606000  1.0 -0.6912581445
O  O55  1  0.73398000  0.73048000  0.48606000  1.0 -0.6912581445
O  O56  1  0.26952000  0.75558000  0.00350000  1.0 -0.7065372672
