# DDEC6 charges by PACMAN v1.1 (https://github.com/mtap-research/PACMAN-charge/)
data_VARHIH_FSR_pacman
_symmetry_space_group_name_H-M   'P 1'
_cell_length_a   17.57100000
_cell_length_b   17.57100000
_cell_length_c   23.40400000
_cell_angle_alpha   90.00000000
_cell_angle_beta   90.00000000
_cell_angle_gamma   90.00000000
_symmetry_Int_Tables_number   1
_chemical_formula_structural   CdH16(C13N3)2
_chemical_formula_sum   'Cd8 H128 C208 N48'
_cell_volume   7225.75191956
_cell_formula_units_Z   8
loop_
 _symmetry_equiv_pos_site_id
 _symmetry_equiv_pos_as_xyz
  1  'x, y, z'
loop_
 _atom_site_type_symbol
 _atom_site_label
 _atom_site_symmetry_multiplicity
 _atom_site_fract_x
 _atom_site_fract_y
 _atom_site_fract_z
 _atom_site_occupancy
 _atom_site_charge
Cd  Cd1  1  0.00000000  0.50000000  0.43627000  1.0 0.8393528046
Cd  Cd2  1  0.50000000  0.00000000  0.06373000  1.0 0.8393528046
Cd  Cd3  1  0.50000000  0.00000000  0.56373000  1.0 0.8393528046
Cd  Cd4  1  0.00000000  0.50000000  0.93627000  1.0 0.8393528046
Cd  Cd5  1  0.50000000  0.50000000  0.50000000  1.0 0.8342279376
Cd  Cd6  1  0.00000000  0.00000000  0.50000000  1.0 0.8342279376
Cd  Cd7  1  0.00000000  0.00000000  0.00000000  1.0 0.8393528046
Cd  Cd8  1  0.50000000  0.50000000  0.00000000  1.0 0.8342279376
H  H1  1  0.85750000  0.30680000  0.46090000  1.0 0.1146208899
H  H2  1  0.19320000  0.35750000  0.46090000  1.0 0.1146208899
H  H3  1  0.14250000  0.69320000  0.46090000  1.0 0.1146208899
H  H4  1  0.80680000  0.64250000  0.46090000  1.0 0.1146208899
H  H5  1  0.35750000  0.19320000  0.03910000  1.0 0.1146208899
H  H6  1  0.69320000  0.14250000  0.03910000  1.0 0.1146208899
H  H7  1  0.64250000  0.80680000  0.03910000  1.0 0.1146208899
H  H8  1  0.30680000  0.85750000  0.03910000  1.0 0.1146208899
H  H9  1  0.64250000  0.19320000  0.53910000  1.0 0.1146208899
H  H10  1  0.30680000  0.14250000  0.53910000  1.0 0.1146208899
H  H11  1  0.35750000  0.80680000  0.53910000  1.0 0.1146208899
H  H12  1  0.69320000  0.85750000  0.53910000  1.0 0.1146208899
H  H13  1  0.14250000  0.30680000  0.96090000  1.0 0.1146208899
H  H14  1  0.80680000  0.35750000  0.96090000  1.0 0.1146208899
H  H15  1  0.85750000  0.69320000  0.96090000  1.0 0.1146208899
H  H16  1  0.19320000  0.64250000  0.96090000  1.0 0.1146208899
H  H17  1  0.64220000  0.32220000  0.52000000  1.0 0.1156800197
H  H18  1  0.17780000  0.14220000  0.52000000  1.0 0.1146208899
H  H19  1  0.35780000  0.67780000  0.52000000  1.0 0.1156800197
H  H20  1  0.82220000  0.85780000  0.52000000  1.0 0.1156800197
H  H21  1  0.14220000  0.17780000  0.98000000  1.0 0.1156800197
H  H22  1  0.67780000  0.35780000  0.98000000  1.0 0.1156800197
H  H23  1  0.85780000  0.82220000  0.98000000  1.0 0.1156800197
H  H24  1  0.32220000  0.64220000  0.98000000  1.0 0.1156800197
H  H25  1  0.85780000  0.17780000  0.48000000  1.0 0.1156800197
H  H26  1  0.32220000  0.35780000  0.48000000  1.0 0.1156800197
H  H27  1  0.14220000  0.82220000  0.48000000  1.0 0.1156800197
H  H28  1  0.67780000  0.64220000  0.48000000  1.0 0.1156800197
H  H29  1  0.35780000  0.32220000  0.02000000  1.0 0.1156800197
H  H30  1  0.82220000  0.14220000  0.02000000  1.0 0.1156800197
H  H31  1  0.64220000  0.67780000  0.02000000  1.0 0.1156800197
H  H32  1  0.17780000  0.85780000  0.02000000  1.0 0.1156800197
H  H33  1  0.90700000  0.55410000  0.54500000  1.0 0.0912502573
H  H34  1  0.94590000  0.40700000  0.54500000  1.0 0.0912502573
H  H35  1  0.09300000  0.44590000  0.54500000  1.0 0.0912502573
H  H36  1  0.05410000  0.59300000  0.54500000  1.0 0.0912502573
H  H37  1  0.40700000  0.94590000  0.95500000  1.0 0.0912502573
H  H38  1  0.44590000  0.09300000  0.95500000  1.0 0.0912502573
H  H39  1  0.59300000  0.05410000  0.95500000  1.0 0.0912502573
H  H40  1  0.55410000  0.90700000  0.95500000  1.0 0.0912502573
H  H41  1  0.59300000  0.94590000  0.45500000  1.0 0.0912502573
H  H42  1  0.55410000  0.09300000  0.45500000  1.0 0.0912502573
H  H43  1  0.40700000  0.05410000  0.45500000  1.0 0.0912502573
H  H44  1  0.44590000  0.90700000  0.45500000  1.0 0.0912502573
H  H45  1  0.09300000  0.55410000  0.04500000  1.0 0.0912502573
H  H46  1  0.05410000  0.40700000  0.04500000  1.0 0.0912502573
H  H47  1  0.90700000  0.44590000  0.04500000  1.0 0.0912502573
H  H48  1  0.94590000  0.59300000  0.04500000  1.0 0.0912502573
H  H49  1  0.90090000  0.55650000  0.64330000  1.0 0.0912502573
H  H50  1  0.94350000  0.40090000  0.64330000  1.0 0.0912502573
H  H51  1  0.09910000  0.44350000  0.64330000  1.0 0.0912502573
H  H52  1  0.05650000  0.59910000  0.64330000  1.0 0.0912502573
H  H53  1  0.40090000  0.94350000  0.85670000  1.0 0.0912502573
H  H54  1  0.44350000  0.09910000  0.85670000  1.0 0.0912502573
H  H55  1  0.59910000  0.05650000  0.85670000  1.0 0.0912502573
H  H56  1  0.55650000  0.90090000  0.85670000  1.0 0.0912502573
H  H57  1  0.59910000  0.94350000  0.35670000  1.0 0.0912502573
H  H58  1  0.55650000  0.09910000  0.35670000  1.0 0.0912502573
H  H59  1  0.40090000  0.05650000  0.35670000  1.0 0.0912502573
H  H60  1  0.44350000  0.90090000  0.35670000  1.0 0.0912502573
H  H61  1  0.09910000  0.55650000  0.14330000  1.0 0.0912502573
H  H62  1  0.05650000  0.40090000  0.14330000  1.0 0.0912502573
H  H63  1  0.90090000  0.44350000  0.14330000  1.0 0.0912502573
H  H64  1  0.94350000  0.59910000  0.14330000  1.0 0.0912502573
H  H65  1  0.05080000  0.40020000  0.73150000  1.0 0.0988317055
H  H66  1  0.09980000  0.55080000  0.73150000  1.0 0.0988317055
H  H67  1  0.94920000  0.59980000  0.73150000  1.0 0.0988317055
H  H68  1  0.90020000  0.44920000  0.73150000  1.0 0.0988317055
H  H69  1  0.55080000  0.09980000  0.76850000  1.0 0.0988317055
H  H70  1  0.59980000  0.94920000  0.76850000  1.0 0.0988317055
H  H71  1  0.44920000  0.90020000  0.76850000  1.0 0.0988317055
H  H72  1  0.40020000  0.05080000  0.76850000  1.0 0.0988317055
H  H73  1  0.44920000  0.09980000  0.26850000  1.0 0.0988317055
H  H74  1  0.40020000  0.94920000  0.26850000  1.0 0.0988317055
H  H75  1  0.55080000  0.90020000  0.26850000  1.0 0.0988317055
H  H76  1  0.59980000  0.05080000  0.26850000  1.0 0.0988317055
H  H77  1  0.94920000  0.40020000  0.23150000  1.0 0.0988317055
H  H78  1  0.90020000  0.55080000  0.23150000  1.0 0.0988317055
H  H79  1  0.05080000  0.59980000  0.23150000  1.0 0.0988317055
H  H80  1  0.09980000  0.44920000  0.23150000  1.0 0.0988317055
H  H81  1  0.05080000  0.40430000  0.82820000  1.0 0.0988317055
H  H82  1  0.09570000  0.55080000  0.82820000  1.0 0.0988317055
H  H83  1  0.94920000  0.59570000  0.82820000  1.0 0.0988317055
H  H84  1  0.90430000  0.44920000  0.82820000  1.0 0.0988317055
H  H85  1  0.55080000  0.09570000  0.67180000  1.0 0.0988317055
H  H86  1  0.59570000  0.94920000  0.67180000  1.0 0.0988317055
H  H87  1  0.44920000  0.90430000  0.67180000  1.0 0.0988317055
H  H88  1  0.40430000  0.05080000  0.67180000  1.0 0.0988317055
H  H89  1  0.44920000  0.09570000  0.17180000  1.0 0.0988317055
H  H90  1  0.40430000  0.94920000  0.17180000  1.0 0.0988317055
H  H91  1  0.55080000  0.90430000  0.17180000  1.0 0.0988317055
H  H92  1  0.59570000  0.05080000  0.17180000  1.0 0.0988317055
H  H93  1  0.94920000  0.40430000  0.32820000  1.0 0.0988317055
H  H94  1  0.90430000  0.55080000  0.32820000  1.0 0.0988317055
H  H95  1  0.05080000  0.59570000  0.32820000  1.0 0.0988317055
H  H96  1  0.09570000  0.44920000  0.32820000  1.0 0.0988317055
H  H97  1  0.44340000  0.59470000  0.39310000  1.0 0.0988317055
H  H98  1  0.90530000  0.94340000  0.39310000  1.0 0.0988317055
H  H99  1  0.55660000  0.40530000  0.39310000  1.0 0.0988317055
H  H100  1  0.09470000  0.05660000  0.39310000  1.0 0.0988317055
H  H101  1  0.94340000  0.90530000  0.10690000  1.0 0.0988317055
H  H102  1  0.40530000  0.55660000  0.10690000  1.0 0.0988317055
H  H103  1  0.05660000  0.09470000  0.10690000  1.0 0.0988317055
H  H104  1  0.59470000  0.44340000  0.10690000  1.0 0.0988317055
H  H105  1  0.05660000  0.90530000  0.60690000  1.0 0.0988317055
H  H106  1  0.59470000  0.55660000  0.60690000  1.0 0.0988317055
H  H107  1  0.94340000  0.09470000  0.60690000  1.0 0.0988317055
H  H108  1  0.40530000  0.44340000  0.60690000  1.0 0.0988317055
H  H109  1  0.55660000  0.59470000  0.89310000  1.0 0.0988317055
H  H110  1  0.09470000  0.94340000  0.89310000  1.0 0.0988317055
H  H111  1  0.44340000  0.40530000  0.89310000  1.0 0.0988317055
H  H112  1  0.90530000  0.05660000  0.89310000  1.0 0.0988317055
H  H113  1  0.44030000  0.59840000  0.29410000  1.0 0.1299043925
H  H114  1  0.90160000  0.94030000  0.29410000  1.0 0.1299043925
H  H115  1  0.55970000  0.40160000  0.29410000  1.0 0.1299043925
H  H116  1  0.09840000  0.05970000  0.29410000  1.0 0.1299043925
H  H117  1  0.94030000  0.90160000  0.20590000  1.0 0.1299043925
H  H118  1  0.40160000  0.55970000  0.20590000  1.0 0.1299043925
H  H119  1  0.05970000  0.09840000  0.20590000  1.0 0.1299043925
H  H120  1  0.59840000  0.44030000  0.20590000  1.0 0.1299043925
H  H121  1  0.05970000  0.90160000  0.70590000  1.0 0.1299043925
H  H122  1  0.59840000  0.55970000  0.70590000  1.0 0.1299043925
H  H123  1  0.94030000  0.09840000  0.70590000  1.0 0.1299043925
H  H124  1  0.40160000  0.44030000  0.70590000  1.0 0.1299043925
H  H125  1  0.55970000  0.59840000  0.79410000  1.0 0.1299043925
H  H126  1  0.09840000  0.94030000  0.79410000  1.0 0.1299043925
H  H127  1  0.44030000  0.40160000  0.79410000  1.0 0.1299043925
H  H128  1  0.90160000  0.05970000  0.79410000  1.0 0.1299043925
C  C1  1  0.81500000  0.44750000  0.45610000  1.0 0.2819869624
C  C2  1  0.05250000  0.31500000  0.45610000  1.0 0.2819869624
C  C3  1  0.18500000  0.55250000  0.45610000  1.0 0.2819869624
C  C4  1  0.94750000  0.68500000  0.45610000  1.0 0.2819869624
C  C5  1  0.31500000  0.05250000  0.04390000  1.0 0.2819869624
C  C6  1  0.55250000  0.18500000  0.04390000  1.0 0.2819869624
C  C7  1  0.68500000  0.94750000  0.04390000  1.0 0.2819869624
C  C8  1  0.44750000  0.81500000  0.04390000  1.0 0.2819869624
C  C9  1  0.68500000  0.05250000  0.54390000  1.0 0.2819869624
C  C10  1  0.44750000  0.18500000  0.54390000  1.0 0.2819869624
C  C11  1  0.31500000  0.94750000  0.54390000  1.0 0.2819869624
C  C12  1  0.55250000  0.81500000  0.54390000  1.0 0.2819869624
C  C13  1  0.18500000  0.44750000  0.95610000  1.0 0.2819869624
C  C14  1  0.94750000  0.31500000  0.95610000  1.0 0.2819869624
C  C15  1  0.81500000  0.55250000  0.95610000  1.0 0.2819869624
C  C16  1  0.05250000  0.68500000  0.95610000  1.0 0.2819869624
C  C17  1  0.75080000  0.41170000  0.47840000  1.0 -0.2074964139
C  C18  1  0.08830000  0.25080000  0.47840000  1.0 -0.2074964139
C  C19  1  0.24920000  0.58830000  0.47840000  1.0 -0.2074964139
C  C20  1  0.91170000  0.74920000  0.47840000  1.0 -0.2074964139
C  C21  1  0.25080000  0.08830000  0.02160000  1.0 -0.2074964139
C  C22  1  0.58830000  0.24920000  0.02160000  1.0 -0.2074964139
C  C23  1  0.74920000  0.91170000  0.02160000  1.0 -0.2074964139
C  C24  1  0.41170000  0.75080000  0.02160000  1.0 -0.2074964139
C  C25  1  0.74920000  0.08830000  0.52160000  1.0 -0.2074964139
C  C26  1  0.41170000  0.24920000  0.52160000  1.0 -0.2074964139
C  C27  1  0.25080000  0.91170000  0.52160000  1.0 -0.2074964139
C  C28  1  0.58830000  0.75080000  0.52160000  1.0 -0.2074964139
C  C29  1  0.24920000  0.41170000  0.97840000  1.0 -0.2074964139
C  C30  1  0.91170000  0.25080000  0.97840000  1.0 -0.2074964139
C  C31  1  0.75080000  0.58830000  0.97840000  1.0 -0.2074964139
C  C32  1  0.08830000  0.74920000  0.97840000  1.0 -0.2074964139
C  C33  1  0.68710000  0.45550000  0.49040000  1.0 0.2819869624
C  C34  1  0.04450000  0.18710000  0.49040000  1.0 0.2819869624
C  C35  1  0.31290000  0.54450000  0.49040000  1.0 0.2819869624
C  C36  1  0.95550000  0.81290000  0.49040000  1.0 0.2819869624
C  C37  1  0.18710000  0.04450000  0.00960000  1.0 0.2819869624
C  C38  1  0.54450000  0.31290000  0.00960000  1.0 0.2819869624
C  C39  1  0.81290000  0.95550000  0.00960000  1.0 0.2819869624
C  C40  1  0.45550000  0.68710000  0.00960000  1.0 0.2819869624
C  C41  1  0.81290000  0.04450000  0.50960000  1.0 0.2819869624
C  C42  1  0.45550000  0.31290000  0.50960000  1.0 0.2819869624
C  C43  1  0.18710000  0.95550000  0.50960000  1.0 0.2819869624
C  C44  1  0.54450000  0.68710000  0.50960000  1.0 0.2819869624
C  C45  1  0.31290000  0.45550000  0.99040000  1.0 0.2819869624
C  C46  1  0.95550000  0.18710000  0.99040000  1.0 0.2819869624
C  C47  1  0.68710000  0.54450000  0.99040000  1.0 0.2819869624
C  C48  1  0.04450000  0.81290000  0.99040000  1.0 0.2819869624
C  C49  1  0.75060000  0.32940000  0.48930000  1.0 0.0988317055
C  C50  1  0.17060000  0.25060000  0.48930000  1.0 0.0988317055
C  C51  1  0.24940000  0.67060000  0.48930000  1.0 0.0988317055
C  C52  1  0.82940000  0.74940000  0.48930000  1.0 0.0988317055
C  C53  1  0.25060000  0.17060000  0.01070000  1.0 0.0988317055
C  C54  1  0.67060000  0.24940000  0.01070000  1.0 0.0988317055
C  C55  1  0.74940000  0.82940000  0.01070000  1.0 0.0988317055
C  C56  1  0.32940000  0.75060000  0.01070000  1.0 0.0988317055
C  C57  1  0.74940000  0.17060000  0.51070000  1.0 0.0988317055
C  C58  1  0.32940000  0.24940000  0.51070000  1.0 0.0988317055
C  C59  1  0.25060000  0.82940000  0.51070000  1.0 0.0988317055
C  C60  1  0.67060000  0.75060000  0.51070000  1.0 0.0988317055
C  C61  1  0.24940000  0.32940000  0.98930000  1.0 0.0988317055
C  C62  1  0.82940000  0.25060000  0.98930000  1.0 0.0988317055
C  C63  1  0.75060000  0.67060000  0.98930000  1.0 0.0988317055
C  C64  1  0.17060000  0.74940000  0.98930000  1.0 0.0988317055
C  C65  1  0.81350000  0.28400000  0.47720000  1.0 -0.1624981659
C  C66  1  0.21600000  0.31350000  0.47720000  1.0 -0.1624981659
C  C67  1  0.18650000  0.71600000  0.47720000  1.0 -0.1624981659
C  C68  1  0.78400000  0.68650000  0.47720000  1.0 -0.1624981659
C  C69  1  0.31350000  0.21600000  0.02280000  1.0 -0.1624981659
C  C70  1  0.71600000  0.18650000  0.02280000  1.0 -0.1624981659
C  C71  1  0.68650000  0.78400000  0.02280000  1.0 -0.1624981659
C  C72  1  0.28400000  0.81350000  0.02280000  1.0 -0.1624981659
C  C73  1  0.68650000  0.21600000  0.52280000  1.0 -0.1624981659
C  C74  1  0.28400000  0.18650000  0.52280000  1.0 -0.1624981659
C  C75  1  0.31350000  0.78400000  0.52280000  1.0 -0.1624981659
C  C76  1  0.71600000  0.81350000  0.52280000  1.0 -0.1624981659
C  C77  1  0.18650000  0.28400000  0.97720000  1.0 -0.1624981659
C  C78  1  0.78400000  0.31350000  0.97720000  1.0 -0.1624981659
C  C79  1  0.81350000  0.71600000  0.97720000  1.0 -0.1624981659
C  C80  1  0.21600000  0.68650000  0.97720000  1.0 -0.1624981659
C  C81  1  0.68660000  0.29310000  0.51210000  1.0 -0.1624981659
C  C82  1  0.20690000  0.18660000  0.51210000  1.0 -0.1624981659
C  C83  1  0.31340000  0.70690000  0.51210000  1.0 -0.1624981659
C  C84  1  0.79310000  0.81340000  0.51210000  1.0 -0.1624981659
C  C85  1  0.18660000  0.20690000  0.98790000  1.0 -0.1624981659
C  C86  1  0.70690000  0.31340000  0.98790000  1.0 -0.1624981659
C  C87  1  0.81340000  0.79310000  0.98790000  1.0 -0.1624981659
C  C88  1  0.29310000  0.68660000  0.98790000  1.0 -0.1624981659
C  C89  1  0.81340000  0.20690000  0.48790000  1.0 -0.1624981659
C  C90  1  0.29310000  0.31340000  0.48790000  1.0 -0.1624981659
C  C91  1  0.18660000  0.79310000  0.48790000  1.0 -0.1624981659
C  C92  1  0.70690000  0.68660000  0.48790000  1.0 -0.1624981659
C  C93  1  0.31340000  0.29310000  0.01210000  1.0 -0.1624981659
C  C94  1  0.79310000  0.18660000  0.01210000  1.0 -0.1624981659
C  C95  1  0.68660000  0.70690000  0.01210000  1.0 -0.1624981659
C  C96  1  0.20690000  0.81340000  0.01210000  1.0 -0.1624981659
C  C97  1  0.94700000  0.53070000  0.56580000  1.0 0.005353418
C  C98  1  0.96930000  0.44700000  0.56580000  1.0 0.005353418
C  C99  1  0.05300000  0.46930000  0.56580000  1.0 0.005353418
C  C100  1  0.03070000  0.55300000  0.56580000  1.0 0.005353418
C  C101  1  0.44700000  0.96930000  0.93420000  1.0 0.005353418
C  C102  1  0.46930000  0.05300000  0.93420000  1.0 0.005353418
C  C103  1  0.55300000  0.03070000  0.93420000  1.0 0.005353418
C  C104  1  0.53070000  0.94700000  0.93420000  1.0 0.005353418
C  C105  1  0.55300000  0.96930000  0.43420000  1.0 0.005353418
C  C106  1  0.53070000  0.05300000  0.43420000  1.0 0.005353418
C  C107  1  0.44700000  0.03070000  0.43420000  1.0 0.005353418
C  C108  1  0.46930000  0.94700000  0.43420000  1.0 0.005353418
C  C109  1  0.05300000  0.53070000  0.06580000  1.0 0.005353418
C  C110  1  0.03070000  0.44700000  0.06580000  1.0 0.005353418
C  C111  1  0.94700000  0.46930000  0.06580000  1.0 0.005353418
C  C112  1  0.96930000  0.55300000  0.06580000  1.0 0.005353418
C  C113  1  0.94260000  0.53290000  0.62450000  1.0 -0.0994437171
C  C114  1  0.96710000  0.44260000  0.62450000  1.0 -0.0994437171
C  C115  1  0.05740000  0.46710000  0.62450000  1.0 -0.0994437171
C  C116  1  0.03290000  0.55740000  0.62450000  1.0 -0.0994437171
C  C117  1  0.44260000  0.96710000  0.87550000  1.0 -0.0994437171
C  C118  1  0.46710000  0.05740000  0.87550000  1.0 -0.0994437171
C  C119  1  0.55740000  0.03290000  0.87550000  1.0 -0.0994437171
C  C120  1  0.53290000  0.94260000  0.87550000  1.0 -0.0994437171
C  C121  1  0.55740000  0.96710000  0.37550000  1.0 -0.0994437171
C  C122  1  0.53290000  0.05740000  0.37550000  1.0 -0.0994437171
C  C123  1  0.44260000  0.03290000  0.37550000  1.0 -0.0994437171
C  C124  1  0.46710000  0.94260000  0.37550000  1.0 -0.0994437171
C  C125  1  0.05740000  0.53290000  0.12450000  1.0 -0.0994437171
C  C126  1  0.03290000  0.44260000  0.12450000  1.0 -0.0994437171
C  C127  1  0.94260000  0.46710000  0.12450000  1.0 -0.0994437171
C  C128  1  0.96710000  0.55740000  0.12450000  1.0 -0.0994437171
C  C129  1  0.00000000  0.50000000  0.65530000  1.0 0.0293835135
C  C130  1  0.50000000  0.00000000  0.84470000  1.0 0.0293835135
C  C131  1  0.50000000  0.00000000  0.34470000  1.0 0.0293835135
C  C132  1  0.00000000  0.50000000  0.15530000  1.0 0.0293835135
C  C133  1  0.00000000  0.50000000  0.71990000  1.0 -0.0129225037
C  C134  1  0.50000000  0.00000000  0.78010000  1.0 -0.0129225037
C  C135  1  0.50000000  0.00000000  0.28010000  1.0 -0.0129225037
C  C136  1  0.00000000  0.50000000  0.21990000  1.0 -0.0129225037
C  C137  1  0.02940000  0.44300000  0.75040000  1.0 -0.0928481926
C  C138  1  0.05700000  0.52940000  0.75040000  1.0 -0.0928481926
C  C139  1  0.97060000  0.55700000  0.75040000  1.0 -0.0928481926
C  C140  1  0.94300000  0.47060000  0.75040000  1.0 -0.0928481926
C  C141  1  0.52940000  0.05700000  0.74960000  1.0 -0.0928481926
C  C142  1  0.55700000  0.97060000  0.74960000  1.0 -0.0928481926
C  C143  1  0.47060000  0.94300000  0.74960000  1.0 -0.0928481926
C  C144  1  0.44300000  0.02940000  0.74960000  1.0 -0.0928481926
C  C145  1  0.47060000  0.05700000  0.24960000  1.0 -0.0928481926
C  C146  1  0.44300000  0.97060000  0.24960000  1.0 -0.0928481926
C  C147  1  0.52940000  0.94300000  0.24960000  1.0 -0.0928481926
C  C148  1  0.55700000  0.02940000  0.24960000  1.0 -0.0928481926
C  C149  1  0.97060000  0.44300000  0.25040000  1.0 -0.0928481926
C  C150  1  0.94300000  0.52940000  0.25040000  1.0 -0.0928481926
C  C151  1  0.02940000  0.55700000  0.25040000  1.0 -0.0928481926
C  C152  1  0.05700000  0.47060000  0.25040000  1.0 -0.0928481926
C  C153  1  0.02870000  0.44600000  0.80830000  1.0 -0.0022788878
C  C154  1  0.05400000  0.52870000  0.80830000  1.0 -0.0022788878
C  C155  1  0.97130000  0.55400000  0.80830000  1.0 -0.0022788878
C  C156  1  0.94600000  0.47130000  0.80830000  1.0 -0.0022788878
C  C157  1  0.52870000  0.05400000  0.69170000  1.0 -0.0022788878
C  C158  1  0.55400000  0.97130000  0.69170000  1.0 -0.0022788878
C  C159  1  0.47130000  0.94600000  0.69170000  1.0 -0.0022788878
C  C160  1  0.44600000  0.02870000  0.69170000  1.0 -0.0022788878
C  C161  1  0.47130000  0.05400000  0.19170000  1.0 -0.0022788878
C  C162  1  0.44600000  0.97130000  0.19170000  1.0 -0.0022788878
C  C163  1  0.52870000  0.94600000  0.19170000  1.0 -0.0022788878
C  C164  1  0.55400000  0.02870000  0.19170000  1.0 -0.0022788878
C  C165  1  0.97130000  0.44600000  0.30830000  1.0 -0.0022788878
C  C166  1  0.94600000  0.52870000  0.30830000  1.0 -0.0022788878
C  C167  1  0.02870000  0.55400000  0.30830000  1.0 -0.0022788878
C  C168  1  0.05400000  0.47130000  0.30830000  1.0 -0.0022788878
C  C169  1  0.46720000  0.55500000  0.37220000  1.0 0.0912502573
C  C170  1  0.94500000  0.96720000  0.37220000  1.0 0.0912502573
C  C171  1  0.53280000  0.44500000  0.37220000  1.0 0.0912502573
C  C172  1  0.05500000  0.03280000  0.37220000  1.0 0.0912502573
C  C173  1  0.96720000  0.94500000  0.12780000  1.0 0.0912502573
C  C174  1  0.44500000  0.53280000  0.12780000  1.0 0.0912502573
C  C175  1  0.03280000  0.05500000  0.12780000  1.0 0.0912502573
C  C176  1  0.55500000  0.46720000  0.12780000  1.0 0.0912502573
C  C177  1  0.03280000  0.94500000  0.62780000  1.0 0.0912502573
C  C178  1  0.55500000  0.53280000  0.62780000  1.0 0.0912502573
C  C179  1  0.96720000  0.05500000  0.62780000  1.0 0.0912502573
C  C180  1  0.44500000  0.46720000  0.62780000  1.0 0.0912502573
C  C181  1  0.53280000  0.55500000  0.87220000  1.0 0.0912502573
C  C182  1  0.05500000  0.96720000  0.87220000  1.0 0.0912502573
C  C183  1  0.46720000  0.44500000  0.87220000  1.0 0.0912502573
C  C184  1  0.94500000  0.03280000  0.87220000  1.0 0.0912502573
C  C185  1  0.46510000  0.55750000  0.31300000  1.0 -0.2074964139
C  C186  1  0.94250000  0.96510000  0.31300000  1.0 -0.2074964139
C  C187  1  0.53490000  0.44250000  0.31300000  1.0 -0.2074964139
C  C188  1  0.05750000  0.03490000  0.31300000  1.0 -0.2074964139
C  C189  1  0.96510000  0.94250000  0.18700000  1.0 -0.2074964139
C  C190  1  0.44250000  0.53490000  0.18700000  1.0 -0.2074964139
C  C191  1  0.03490000  0.05750000  0.18700000  1.0 -0.2074964139
C  C192  1  0.55750000  0.46510000  0.18700000  1.0 -0.2074964139
C  C193  1  0.03490000  0.94250000  0.68700000  1.0 -0.2074964139
C  C194  1  0.55750000  0.53490000  0.68700000  1.0 -0.2074964139
C  C195  1  0.96510000  0.05750000  0.68700000  1.0 -0.2074964139
C  C196  1  0.44250000  0.46510000  0.68700000  1.0 -0.2074964139
C  C197  1  0.53490000  0.55750000  0.81300000  1.0 -0.2074964139
C  C198  1  0.05750000  0.96510000  0.81300000  1.0 -0.2074964139
C  C199  1  0.46510000  0.44250000  0.81300000  1.0 -0.2074964139
C  C200  1  0.94250000  0.03490000  0.81300000  1.0 -0.2074964139
C  C201  1  0.50000000  0.50000000  0.28140000  1.0 0.0988317055
C  C202  1  0.00000000  0.00000000  0.28140000  1.0 0.0988317055
C  C203  1  0.00000000  0.00000000  0.21860000  1.0 0.0988317055
C  C204  1  0.50000000  0.50000000  0.21860000  1.0 0.0988317055
C  C205  1  0.00000000  0.00000000  0.71860000  1.0 0.0912502573
C  C206  1  0.50000000  0.50000000  0.71860000  1.0 0.0988317055
C  C207  1  0.50000000  0.50000000  0.78140000  1.0 0.0988317055
C  C208  1  0.00000000  0.00000000  0.78140000  1.0 0.0912502573
N  N1  1  0.87010000  0.47440000  0.43760000  1.0 -0.4633147939
N  N2  1  0.02560000  0.37010000  0.43760000  1.0 -0.4633147939
N  N3  1  0.12990000  0.52560000  0.43760000  1.0 -0.4633147939
N  N4  1  0.97440000  0.62990000  0.43760000  1.0 -0.4633147939
N  N5  1  0.37010000  0.02560000  0.06240000  1.0 -0.4633147939
N  N6  1  0.52560000  0.12990000  0.06240000  1.0 -0.4633147939
N  N7  1  0.62990000  0.97440000  0.06240000  1.0 -0.4633147939
N  N8  1  0.47440000  0.87010000  0.06240000  1.0 -0.4633147939
N  N9  1  0.62990000  0.02560000  0.56240000  1.0 -0.4633147939
N  N10  1  0.47440000  0.12990000  0.56240000  1.0 -0.4633147939
N  N11  1  0.37010000  0.97440000  0.56240000  1.0 -0.4633147939
N  N12  1  0.52560000  0.87010000  0.56240000  1.0 -0.4633147939
N  N13  1  0.12990000  0.47440000  0.93760000  1.0 -0.4633147939
N  N14  1  0.97440000  0.37010000  0.93760000  1.0 -0.4633147939
N  N15  1  0.87010000  0.52560000  0.93760000  1.0 -0.4633147939
N  N16  1  0.02560000  0.62990000  0.93760000  1.0 -0.4633147939
N  N17  1  0.63170000  0.48870000  0.50174000  1.0 -0.4667345522
N  N18  1  0.01130000  0.13170000  0.50174000  1.0 -0.4633147939
N  N19  1  0.36830000  0.51130000  0.50174000  1.0 -0.4667345522
N  N20  1  0.98870000  0.86830000  0.50174000  1.0 -0.4667345522
N  N21  1  0.13170000  0.01130000  0.99826000  1.0 -0.4667345522
N  N22  1  0.51130000  0.36830000  0.99826000  1.0 -0.4667345522
N  N23  1  0.86830000  0.98870000  0.99826000  1.0 -0.4667345522
N  N24  1  0.48870000  0.63170000  0.99826000  1.0 -0.4667345522
N  N25  1  0.86830000  0.01130000  0.49826000  1.0 -0.4667345522
N  N26  1  0.48870000  0.36830000  0.49826000  1.0 -0.4667345522
N  N27  1  0.13170000  0.98870000  0.49826000  1.0 -0.4667345522
N  N28  1  0.51130000  0.63170000  0.49826000  1.0 -0.4667345522
N  N29  1  0.36830000  0.48870000  0.00174000  1.0 -0.4667345522
N  N30  1  0.98870000  0.13170000  0.00174000  1.0 -0.4667345522
N  N31  1  0.63170000  0.51130000  0.00174000  1.0 -0.4667345522
N  N32  1  0.01130000  0.86830000  0.00174000  1.0 -0.4667345522
N  N33  1  0.00000000  0.50000000  0.53680000  1.0 -0.1624981659
N  N34  1  0.50000000  0.00000000  0.96320000  1.0 -0.1624981659
N  N35  1  0.50000000  0.00000000  0.46320000  1.0 -0.1624981659
N  N36  1  0.00000000  0.50000000  0.03680000  1.0 -0.1624981659
N  N37  1  0.00000000  0.50000000  0.83900000  1.0 -0.2074964139
N  N38  1  0.50000000  0.00000000  0.66100000  1.0 -0.2074964139
N  N39  1  0.50000000  0.00000000  0.16100000  1.0 -0.2074964139
N  N40  1  0.00000000  0.50000000  0.33900000  1.0 -0.2074964139
N  N41  1  0.50000000  0.50000000  0.40070000  1.0 -0.2258974878
N  N42  1  0.00000000  0.00000000  0.40070000  1.0 -0.2258974878
N  N43  1  0.00000000  0.00000000  0.09930000  1.0 -0.2258974878
N  N44  1  0.50000000  0.50000000  0.09930000  1.0 -0.2258974878
N  N45  1  0.00000000  0.00000000  0.59930000  1.0 -0.2258974878
N  N46  1  0.50000000  0.50000000  0.59930000  1.0 -0.2258974878
N  N47  1  0.50000000  0.50000000  0.90070000  1.0 -0.2258974878
N  N48  1  0.00000000  0.00000000  0.90070000  1.0 -0.2258974878
