# DDEC6 charges by PACMAN v1.1 (https://github.com/mtap-research/PACMAN-charge/)
data_VARHON_FSR_pacman
_symmetry_space_group_name_H-M   'P 1'
_cell_length_a   17.30200000
_cell_length_b   17.30200000
_cell_length_c   22.78900000
_cell_angle_alpha   90.00000000
_cell_angle_beta   90.00000000
_cell_angle_gamma   90.00000000
_symmetry_Int_Tables_number   1
_chemical_formula_structural   Co(C13N3)2
_chemical_formula_sum   'Co8 C208 N48'
_cell_volume   6822.09689996
_cell_formula_units_Z   8
loop_
 _symmetry_equiv_pos_site_id
 _symmetry_equiv_pos_as_xyz
  1  'x, y, z'
loop_
 _atom_site_type_symbol
 _atom_site_label
 _atom_site_symmetry_multiplicity
 _atom_site_fract_x
 _atom_site_fract_y
 _atom_site_fract_z
 _atom_site_occupancy
 _atom_site_charge
Co  Co1  1  0.50000000  0.00000000  0.46161000  1.0 0.7745385601
Co  Co2  1  0.00000000  0.50000000  0.03839000  1.0 0.7751152946
Co  Co3  1  0.00000000  0.50000000  0.53839000  1.0 0.7745385601
Co  Co4  1  0.50000000  0.00000000  0.96161000  1.0 0.7745385601
Co  Co5  1  0.50000000  0.50000000  0.50000000  1.0 0.8669358327
Co  Co6  1  0.00000000  0.00000000  0.50000000  1.0 0.8669358327
Co  Co7  1  0.00000000  0.00000000  0.00000000  1.0 0.8669358327
Co  Co8  1  0.50000000  0.50000000  0.00000000  1.0 0.8669358327
C  C1  1  0.54600000  0.81900000  0.47220000  1.0 0.3055427505
C  C2  1  0.68100000  0.04600000  0.47220000  1.0 0.3055427505
C  C3  1  0.45400000  0.18100000  0.47220000  1.0 0.3055427505
C  C4  1  0.31900000  0.95400000  0.47220000  1.0 0.3055427505
C  C5  1  0.04600000  0.68100000  0.02780000  1.0 0.3055427505
C  C6  1  0.18100000  0.45400000  0.02780000  1.0 0.3055427505
C  C7  1  0.95400000  0.31900000  0.02780000  1.0 0.3055427505
C  C8  1  0.81900000  0.54600000  0.02780000  1.0 0.3055427505
C  C9  1  0.95400000  0.68100000  0.52780000  1.0 0.3055427505
C  C10  1  0.81900000  0.45400000  0.52780000  1.0 0.3055427505
C  C11  1  0.04600000  0.31900000  0.52780000  1.0 0.3055427505
C  C12  1  0.18100000  0.54600000  0.52780000  1.0 0.3055427505
C  C13  1  0.45400000  0.81900000  0.97220000  1.0 0.3049674465
C  C14  1  0.31900000  0.04600000  0.97220000  1.0 0.3055427505
C  C15  1  0.54600000  0.18100000  0.97220000  1.0 0.3055427505
C  C16  1  0.68100000  0.95400000  0.97220000  1.0 0.3055427505
C  C17  1  0.58450000  0.75090000  0.48510000  1.0 -0.1643346471
C  C18  1  0.74910000  0.08450000  0.48510000  1.0 -0.1643346471
C  C19  1  0.41550000  0.24910000  0.48510000  1.0 -0.1656718158
C  C20  1  0.25090000  0.91550000  0.48510000  1.0 -0.1643346471
C  C21  1  0.08450000  0.74910000  0.01490000  1.0 -0.1643346471
C  C22  1  0.24910000  0.41550000  0.01490000  1.0 -0.1656718158
C  C23  1  0.91550000  0.25090000  0.01490000  1.0 -0.1643346471
C  C24  1  0.75090000  0.58450000  0.01490000  1.0 -0.1656718158
C  C25  1  0.91550000  0.74910000  0.51490000  1.0 -0.1656718158
C  C26  1  0.75090000  0.41550000  0.51490000  1.0 -0.1656718158
C  C27  1  0.08450000  0.25090000  0.51490000  1.0 -0.1643346471
C  C28  1  0.24910000  0.58450000  0.51490000  1.0 -0.1656718158
C  C29  1  0.41550000  0.75090000  0.98510000  1.0 -0.1656718158
C  C30  1  0.25090000  0.08450000  0.98510000  1.0 -0.1643346471
C  C31  1  0.58450000  0.24910000  0.98510000  1.0 -0.1656718158
C  C32  1  0.74910000  0.91550000  0.98510000  1.0 -0.1643346471
C  C33  1  0.54330000  0.68100000  0.49270000  1.0 0.3241293067
C  C34  1  0.81900000  0.04330000  0.49270000  1.0 0.3256406351
C  C35  1  0.45670000  0.31900000  0.49270000  1.0 0.3241293067
C  C36  1  0.18100000  0.95670000  0.49270000  1.0 0.3256406351
C  C37  1  0.04330000  0.81900000  0.00730000  1.0 0.3256406351
C  C38  1  0.31900000  0.45670000  0.00730000  1.0 0.3241293067
C  C39  1  0.95670000  0.18100000  0.00730000  1.0 0.3256406351
C  C40  1  0.68100000  0.54330000  0.00730000  1.0 0.3241293067
C  C41  1  0.95670000  0.81900000  0.50730000  1.0 0.3256406351
C  C42  1  0.68100000  0.45670000  0.50730000  1.0 0.3241293067
C  C43  1  0.04330000  0.18100000  0.50730000  1.0 0.3256406351
C  C44  1  0.31900000  0.54330000  0.50730000  1.0 0.3256406351
C  C45  1  0.45670000  0.68100000  0.99270000  1.0 0.3241293067
C  C46  1  0.18100000  0.04330000  0.99270000  1.0 0.3256406351
C  C47  1  0.54330000  0.31900000  0.99270000  1.0 0.3256406351
C  C48  1  0.81900000  0.95670000  0.99270000  1.0 0.3256406351
C  C49  1  0.66900000  0.74990000  0.49350000  1.0 0.109253159
C  C50  1  0.75010000  0.16900000  0.49350000  1.0 0.109253159
C  C51  1  0.33100000  0.25010000  0.49350000  1.0 0.109253159
C  C52  1  0.24990000  0.83100000  0.49350000  1.0 0.109253159
C  C53  1  0.16900000  0.75010000  0.00650000  1.0 0.109253159
C  C54  1  0.25010000  0.33100000  0.00650000  1.0 0.109253159
C  C55  1  0.83100000  0.24990000  0.00650000  1.0 0.109253159
C  C56  1  0.74990000  0.66900000  0.00650000  1.0 0.109253159
C  C57  1  0.83100000  0.75010000  0.50650000  1.0 0.109253159
C  C58  1  0.74990000  0.33100000  0.50650000  1.0 0.109253159
C  C59  1  0.16900000  0.24990000  0.50650000  1.0 0.109253159
C  C60  1  0.25010000  0.66900000  0.50650000  1.0 0.109253159
C  C61  1  0.33100000  0.74990000  0.99350000  1.0 0.109253159
C  C62  1  0.24990000  0.16900000  0.99350000  1.0 0.109253159
C  C63  1  0.66900000  0.25010000  0.99350000  1.0 0.109253159
C  C64  1  0.75010000  0.83100000  0.99350000  1.0 0.109253159
C  C65  1  0.71240000  0.81670000  0.48420000  1.0 -0.038714527
C  C66  1  0.68330000  0.21240000  0.48420000  1.0 -0.038714527
C  C67  1  0.28760000  0.18330000  0.48420000  1.0 -0.038714527
C  C68  1  0.31670000  0.78760000  0.48420000  1.0 -0.038714527
C  C69  1  0.21240000  0.68330000  0.01580000  1.0 -0.038714527
C  C70  1  0.18330000  0.28760000  0.01580000  1.0 -0.038714527
C  C71  1  0.78760000  0.31670000  0.01580000  1.0 -0.038714527
C  C72  1  0.81670000  0.71240000  0.01580000  1.0 -0.038714527
C  C73  1  0.78760000  0.68330000  0.51580000  1.0 -0.038714527
C  C74  1  0.81670000  0.28760000  0.51580000  1.0 -0.038714527
C  C75  1  0.21240000  0.31670000  0.51580000  1.0 -0.038714527
C  C76  1  0.18330000  0.71240000  0.51580000  1.0 -0.038714527
C  C77  1  0.28760000  0.81670000  0.98420000  1.0 -0.038714527
C  C78  1  0.31670000  0.21240000  0.98420000  1.0 -0.038714527
C  C79  1  0.71240000  0.18330000  0.98420000  1.0 -0.038714527
C  C80  1  0.68330000  0.78760000  0.98420000  1.0 -0.038714527
C  C81  1  0.70820000  0.68360000  0.50870000  1.0 -0.0591444268
C  C82  1  0.81640000  0.20820000  0.50870000  1.0 -0.0591444268
C  C83  1  0.29180000  0.31640000  0.50870000  1.0 -0.0591444268
C  C84  1  0.18360000  0.79180000  0.50870000  1.0 -0.0591444268
C  C85  1  0.20820000  0.81640000  0.99130000  1.0 -0.0591444268
C  C86  1  0.31640000  0.29180000  0.99130000  1.0 -0.0591444268
C  C87  1  0.79180000  0.18360000  0.99130000  1.0 -0.0591444268
C  C88  1  0.68360000  0.70820000  0.99130000  1.0 -0.0591444268
C  C89  1  0.79180000  0.81640000  0.49130000  1.0 -0.0591444268
C  C90  1  0.68360000  0.29180000  0.49130000  1.0 -0.0591444268
C  C91  1  0.20820000  0.18360000  0.49130000  1.0 -0.0591444268
C  C92  1  0.31640000  0.70820000  0.49130000  1.0 -0.0591444268
C  C93  1  0.29180000  0.68360000  0.00870000  1.0 -0.0591444268
C  C94  1  0.18360000  0.20820000  0.00870000  1.0 -0.0591444268
C  C95  1  0.70820000  0.31640000  0.00870000  1.0 -0.0591444268
C  C96  1  0.81640000  0.79180000  0.00870000  1.0 -0.0591444268
C  C97  1  0.44420000  0.03480000  0.58620000  1.0 0.0384238702
C  C98  1  0.46520000  0.94420000  0.58620000  1.0 0.0384238702
C  C99  1  0.55580000  0.96520000  0.58620000  1.0 0.0384238702
C  C100  1  0.53480000  0.05580000  0.58620000  1.0 0.0384238702
C  C101  1  0.94420000  0.46520000  0.91380000  1.0 0.0384238702
C  C102  1  0.96520000  0.55580000  0.91380000  1.0 0.0384238702
C  C103  1  0.05580000  0.53480000  0.91380000  1.0 0.0384238702
C  C104  1  0.03480000  0.44420000  0.91380000  1.0 0.0384238702
C  C105  1  0.05580000  0.46520000  0.41380000  1.0 0.0384238702
C  C106  1  0.03480000  0.55580000  0.41380000  1.0 0.0384238702
C  C107  1  0.94420000  0.53480000  0.41380000  1.0 0.0384238702
C  C108  1  0.96520000  0.44420000  0.41380000  1.0 0.0384238702
C  C109  1  0.55580000  0.03480000  0.08620000  1.0 0.0384238702
C  C110  1  0.53480000  0.94420000  0.08620000  1.0 0.0384238702
C  C111  1  0.44420000  0.96520000  0.08620000  1.0 0.0384238702
C  C112  1  0.46520000  0.05580000  0.08620000  1.0 0.0384238702
C  C113  1  0.44180000  0.03610000  0.64710000  1.0 -0.038714527
C  C114  1  0.46390000  0.94180000  0.64710000  1.0 -0.038714527
C  C115  1  0.55820000  0.96390000  0.64710000  1.0 -0.038714527
C  C116  1  0.53610000  0.05820000  0.64710000  1.0 -0.038714527
C  C117  1  0.94180000  0.46390000  0.85290000  1.0 -0.038714527
C  C118  1  0.96390000  0.55820000  0.85290000  1.0 -0.038714527
C  C119  1  0.05820000  0.53610000  0.85290000  1.0 -0.038714527
C  C120  1  0.03610000  0.44180000  0.85290000  1.0 -0.038714527
C  C121  1  0.05820000  0.46390000  0.35290000  1.0 -0.038714527
C  C122  1  0.03610000  0.55820000  0.35290000  1.0 -0.038714527
C  C123  1  0.94180000  0.53610000  0.35290000  1.0 -0.038714527
C  C124  1  0.96390000  0.44180000  0.35290000  1.0 -0.038714527
C  C125  1  0.55820000  0.03610000  0.14710000  1.0 -0.038714527
C  C126  1  0.53610000  0.94180000  0.14710000  1.0 -0.038714527
C  C127  1  0.44180000  0.96390000  0.14710000  1.0 -0.038714527
C  C128  1  0.46390000  0.05820000  0.14710000  1.0 -0.038714527
C  C129  1  0.50000000  0.00000000  0.68050000  1.0 0.0976903124
C  C130  1  0.00000000  0.50000000  0.81950000  1.0 0.0976903124
C  C131  1  0.00000000  0.50000000  0.31950000  1.0 0.0976903124
C  C132  1  0.50000000  0.00000000  0.18050000  1.0 0.0976903124
C  C133  1  0.50000000  0.00000000  0.74460000  1.0 0.0858759305
C  C134  1  0.00000000  0.50000000  0.75540000  1.0 0.0858759305
C  C135  1  0.00000000  0.50000000  0.25540000  1.0 0.0858759305
C  C136  1  0.50000000  0.00000000  0.24460000  1.0 0.0858759305
C  C137  1  0.53500000  0.94090000  0.77680000  1.0 -0.038714527
C  C138  1  0.55910000  0.03500000  0.77680000  1.0 -0.0332600174
C  C139  1  0.46500000  0.05910000  0.77680000  1.0 -0.0332600174
C  C140  1  0.44090000  0.96500000  0.77680000  1.0 -0.038714527
C  C141  1  0.03500000  0.55910000  0.72320000  1.0 -0.0332600174
C  C142  1  0.05910000  0.46500000  0.72320000  1.0 -0.0332600174
C  C143  1  0.96500000  0.44090000  0.72320000  1.0 -0.038714527
C  C144  1  0.94090000  0.53500000  0.72320000  1.0 -0.038714527
C  C145  1  0.96500000  0.55910000  0.22320000  1.0 -0.038714527
C  C146  1  0.94090000  0.46500000  0.22320000  1.0 -0.0332600174
C  C147  1  0.03500000  0.44090000  0.22320000  1.0 -0.038714527
C  C148  1  0.05910000  0.53500000  0.22320000  1.0 -0.038714527
C  C149  1  0.46500000  0.94090000  0.27680000  1.0 -0.0332600174
C  C150  1  0.44090000  0.03500000  0.27680000  1.0 -0.038714527
C  C151  1  0.53500000  0.05910000  0.27680000  1.0 -0.038714527
C  C152  1  0.55910000  0.96500000  0.27680000  1.0 -0.038714527
C  C153  1  0.53390000  0.94430000  0.83670000  1.0 0.0558335628
C  C154  1  0.55570000  0.03390000  0.83670000  1.0 0.0547141417
C  C155  1  0.46610000  0.05570000  0.83670000  1.0 0.0558335628
C  C156  1  0.44430000  0.96610000  0.83670000  1.0 0.0558335628
C  C157  1  0.03390000  0.55570000  0.66330000  1.0 0.0547141417
C  C158  1  0.05570000  0.46610000  0.66330000  1.0 0.0547141417
C  C159  1  0.96610000  0.44430000  0.66330000  1.0 0.0558335628
C  C160  1  0.94430000  0.53390000  0.66330000  1.0 0.0558335628
C  C161  1  0.96610000  0.55570000  0.16330000  1.0 0.0558335628
C  C162  1  0.94430000  0.46610000  0.16330000  1.0 0.0558335628
C  C163  1  0.03390000  0.44430000  0.16330000  1.0 0.0547141417
C  C164  1  0.05570000  0.53390000  0.16330000  1.0 0.0558335628
C  C165  1  0.46610000  0.94430000  0.33670000  1.0 0.0558335628
C  C166  1  0.44430000  0.03390000  0.33670000  1.0 0.0558335628
C  C167  1  0.53390000  0.05570000  0.33670000  1.0 0.0558335628
C  C168  1  0.55570000  0.96610000  0.33670000  1.0 0.0558335628
C  C169  1  0.46770000  0.55730000  0.62480000  1.0 0.1270516707
C  C170  1  0.94270000  0.96770000  0.62480000  1.0 0.1212307571
C  C171  1  0.53230000  0.44270000  0.62480000  1.0 0.1270516707
C  C172  1  0.05730000  0.03230000  0.62480000  1.0 0.1270516707
C  C173  1  0.96770000  0.94270000  0.87520000  1.0 0.1212307571
C  C174  1  0.44270000  0.53230000  0.87520000  1.0 0.1270516707
C  C175  1  0.03230000  0.05730000  0.87520000  1.0 0.1270516707
C  C176  1  0.55730000  0.46770000  0.87520000  1.0 0.1270516707
C  C177  1  0.03230000  0.94270000  0.37520000  1.0 0.1212307571
C  C178  1  0.55730000  0.53230000  0.37520000  1.0 0.1270516707
C  C179  1  0.96770000  0.05730000  0.37520000  1.0 0.1212307571
C  C180  1  0.44270000  0.46770000  0.37520000  1.0 0.1270516707
C  C181  1  0.53230000  0.55730000  0.12480000  1.0 0.1270516707
C  C182  1  0.05730000  0.96770000  0.12480000  1.0 0.1212307571
C  C183  1  0.46770000  0.44270000  0.12480000  1.0 0.1270516707
C  C184  1  0.94270000  0.03230000  0.12480000  1.0 0.1212307571
C  C185  1  0.46680000  0.55950000  0.68510000  1.0 -0.1288164821
C  C186  1  0.94050000  0.96680000  0.68510000  1.0 -0.1288164821
C  C187  1  0.53320000  0.44050000  0.68510000  1.0 -0.1288164821
C  C188  1  0.05950000  0.03320000  0.68510000  1.0 -0.1242296861
C  C189  1  0.96680000  0.94050000  0.81490000  1.0 -0.1288164821
C  C190  1  0.44050000  0.53320000  0.81490000  1.0 -0.1288164821
C  C191  1  0.03320000  0.05950000  0.81490000  1.0 -0.1242296861
C  C192  1  0.55950000  0.46680000  0.81490000  1.0 -0.1288164821
C  C193  1  0.03320000  0.94050000  0.31490000  1.0 -0.1242296861
C  C194  1  0.55950000  0.53320000  0.31490000  1.0 -0.1288164821
C  C195  1  0.96680000  0.05950000  0.31490000  1.0 -0.1288164821
C  C196  1  0.44050000  0.46680000  0.31490000  1.0 -0.1288164821
C  C197  1  0.53320000  0.55950000  0.18510000  1.0 -0.1288164821
C  C198  1  0.05950000  0.96680000  0.18510000  1.0 -0.1288164821
C  C199  1  0.46680000  0.44050000  0.18510000  1.0 -0.1288164821
C  C200  1  0.94050000  0.03320000  0.18510000  1.0 -0.1242296861
C  C201  1  0.50000000  0.50000000  0.71730000  1.0 0.1728399287
C  C202  1  0.00000000  0.00000000  0.71730000  1.0 0.1728399287
C  C203  1  0.00000000  0.00000000  0.78270000  1.0 0.1728399287
C  C204  1  0.50000000  0.50000000  0.78270000  1.0 0.1728399287
C  C205  1  0.00000000  0.00000000  0.28270000  1.0 0.1728399287
C  C206  1  0.50000000  0.50000000  0.28270000  1.0 0.1728399287
C  C207  1  0.50000000  0.50000000  0.21730000  1.0 0.1728399287
C  C208  1  0.00000000  0.00000000  0.21730000  1.0 0.1728399287
N  N1  1  0.52080000  0.87830000  0.46280000  1.0 -0.3969539633
N  N2  1  0.62170000  0.02080000  0.46280000  1.0 -0.3969539633
N  N3  1  0.47920000  0.12170000  0.46280000  1.0 -0.3969539633
N  N4  1  0.37830000  0.97920000  0.46280000  1.0 -0.3969539633
N  N5  1  0.02080000  0.62170000  0.03720000  1.0 -0.3969539633
N  N6  1  0.12170000  0.47920000  0.03720000  1.0 -0.3969539633
N  N7  1  0.97920000  0.37830000  0.03720000  1.0 -0.3969539633
N  N8  1  0.87830000  0.52080000  0.03720000  1.0 -0.3969539633
N  N9  1  0.97920000  0.62170000  0.53720000  1.0 -0.3945920931
N  N10  1  0.87830000  0.47920000  0.53720000  1.0 -0.3969539633
N  N11  1  0.02080000  0.37830000  0.53720000  1.0 -0.3969539633
N  N12  1  0.12170000  0.52080000  0.53720000  1.0 -0.3969539633
N  N13  1  0.47920000  0.87830000  0.96280000  1.0 -0.3969539633
N  N14  1  0.37830000  0.02080000  0.96280000  1.0 -0.3969539633
N  N15  1  0.52080000  0.12170000  0.96280000  1.0 -0.3969539633
N  N16  1  0.62170000  0.97920000  0.96280000  1.0 -0.3945920931
N  N17  1  0.51610000  0.62180000  0.49920000  1.0 -0.4199714379
N  N18  1  0.87820000  0.01610000  0.49920000  1.0 -0.4199714379
N  N19  1  0.48390000  0.37820000  0.49920000  1.0 -0.4199714379
N  N20  1  0.12180000  0.98390000  0.49920000  1.0 -0.4199714379
N  N21  1  0.01610000  0.87820000  0.00080000  1.0 -0.4199714379
N  N22  1  0.37820000  0.48390000  0.00080000  1.0 -0.4199714379
N  N23  1  0.98390000  0.12180000  0.00080000  1.0 -0.4199714379
N  N24  1  0.62180000  0.51610000  0.00080000  1.0 -0.4199714379
N  N25  1  0.98390000  0.87820000  0.50080000  1.0 -0.4199714379
N  N26  1  0.62180000  0.48390000  0.50080000  1.0 -0.4199714379
N  N27  1  0.01610000  0.12180000  0.50080000  1.0 -0.4199714379
N  N28  1  0.37820000  0.51610000  0.50080000  1.0 -0.4199714379
N  N29  1  0.48390000  0.62180000  0.99920000  1.0 -0.4199714379
N  N30  1  0.12180000  0.01610000  0.99920000  1.0 -0.4199714379
N  N31  1  0.51610000  0.37820000  0.99920000  1.0 -0.4199714379
N  N32  1  0.87820000  0.98390000  0.99920000  1.0 -0.4199714379
N  N33  1  0.50000000  0.00000000  0.55420000  1.0 -0.1411459536
N  N34  1  0.00000000  0.50000000  0.94580000  1.0 -0.1411459536
N  N35  1  0.00000000  0.50000000  0.44580000  1.0 -0.1411459536
N  N36  1  0.50000000  0.00000000  0.05420000  1.0 -0.1411459536
N  N37  1  0.50000000  0.00000000  0.86840000  1.0 -0.2135194854
N  N38  1  0.00000000  0.50000000  0.63160000  1.0 -0.2135194854
N  N39  1  0.00000000  0.50000000  0.13160000  1.0 -0.2155185209
N  N40  1  0.50000000  0.00000000  0.36840000  1.0 -0.2155185209
N  N41  1  0.50000000  0.50000000  0.59290000  1.0 -0.2598688544
N  N42  1  0.00000000  0.00000000  0.59290000  1.0 -0.2598688544
N  N43  1  0.00000000  0.00000000  0.90710000  1.0 -0.2598688544
N  N44  1  0.50000000  0.50000000  0.90710000  1.0 -0.2598688544
N  N45  1  0.00000000  0.00000000  0.40710000  1.0 -0.2598688544
N  N46  1  0.50000000  0.50000000  0.40710000  1.0 -0.2598688544
N  N47  1  0.50000000  0.50000000  0.09290000  1.0 -0.2598688544
N  N48  1  0.00000000  0.00000000  0.09290000  1.0 -0.2598688544
