# DDEC6 charges by PACMAN v1.1 (https://github.com/mtap-research/PACMAN-charge/)
data_VARJAB_FSR_pacman
_symmetry_space_group_name_H-M   'P 1'
_cell_length_a   14.47880000
_cell_length_b   14.47880000
_cell_length_c   14.47880000
_cell_angle_alpha   129.23500000
_cell_angle_beta   129.23500000
_cell_angle_gamma   74.63300000
_symmetry_Int_Tables_number   1
_chemical_formula_structural   FeH20(C5N)6
_chemical_formula_sum   'Fe2 H40 C60 N12'
_cell_volume   1774.24017503
_cell_formula_units_Z   2
loop_
 _symmetry_equiv_pos_site_id
 _symmetry_equiv_pos_as_xyz
  1  'x, y, z'
loop_
 _atom_site_type_symbol
 _atom_site_label
 _atom_site_symmetry_multiplicity
 _atom_site_fract_x
 _atom_site_fract_y
 _atom_site_fract_z
 _atom_site_occupancy
 _atom_site_charge
Fe  Fe1  1  0.00000000  0.00000000  0.00000000  1.0 0.7136551112
Fe  Fe2  1  0.50000000  0.50000000  0.00000000  1.0 0.7136551112
H  H1  1  0.67870000  0.95080000  0.62950000  1.0 0.1199241847
H  H2  1  0.95080000  0.32130000  0.27210000  1.0 0.1199241847
H  H3  1  0.32130000  0.04920000  0.37050000  1.0 0.1199241847
H  H4  1  0.04920000  0.67870000  0.72790000  1.0 0.1199241847
H  H5  1  0.82130000  0.45080000  0.27210000  1.0 0.1199241847
H  H6  1  0.54920000  0.82130000  0.37050000  1.0 0.1199241847
H  H7  1  0.17870000  0.54920000  0.72790000  1.0 0.1199241847
H  H8  1  0.45080000  0.17870000  0.62950000  1.0 0.1199241847
H  H9  1  0.84680000  0.04260000  0.10160000  1.0 0.0989614148
H  H10  1  0.04260000  0.94100000  0.19580000  1.0 0.0989614148
H  H11  1  0.94100000  0.74520000  0.89840000  1.0 0.0989614148
H  H12  1  0.74520000  0.84680000  0.80420000  1.0 0.0989614148
H  H13  1  0.65320000  0.75480000  0.19580000  1.0 0.0989614148
H  H14  1  0.45740000  0.65320000  0.89840000  1.0 0.0989614148
H  H15  1  0.55900000  0.45740000  0.80420000  1.0 0.0989614148
H  H16  1  0.75480000  0.55900000  0.10160000  1.0 0.0989614148
H  H17  1  0.15320000  0.95740000  0.89840000  1.0 0.0989614148
H  H18  1  0.95740000  0.05900000  0.80420000  1.0 0.0989614148
H  H19  1  0.05900000  0.25480000  0.10160000  1.0 0.0989614148
H  H20  1  0.25480000  0.15320000  0.19580000  1.0 0.0989614148
H  H21  1  0.34680000  0.24520000  0.80420000  1.0 0.0989614148
H  H22  1  0.54260000  0.34680000  0.10160000  1.0 0.0989614148
H  H23  1  0.44100000  0.54260000  0.19580000  1.0 0.0989614148
H  H24  1  0.24520000  0.44100000  0.89840000  1.0 0.0989614148
H  H25  1  0.74630000  0.94640000  0.10330000  1.0 0.0934390665
H  H26  1  0.94640000  0.84310000  0.20010000  1.0 0.0934390665
H  H27  1  0.84310000  0.64300000  0.89670000  1.0 0.0934390665
H  H28  1  0.64300000  0.74630000  0.79990000  1.0 0.0934390665
H  H29  1  0.75370000  0.85700000  0.20010000  1.0 0.0934390665
H  H30  1  0.55360000  0.75370000  0.89670000  1.0 0.0934390665
H  H31  1  0.65690000  0.55360000  0.79990000  1.0 0.0934390665
H  H32  1  0.85700000  0.65690000  0.10330000  1.0 0.0934390665
H  H33  1  0.25370000  0.05360000  0.89670000  1.0 0.0934390665
H  H34  1  0.05360000  0.15690000  0.79990000  1.0 0.0934390665
H  H35  1  0.15690000  0.35700000  0.10330000  1.0 0.0934390665
H  H36  1  0.35700000  0.25370000  0.20010000  1.0 0.0934390665
H  H37  1  0.24630000  0.14300000  0.79990000  1.0 0.0934390665
H  H38  1  0.44640000  0.24630000  0.10330000  1.0 0.0934390665
H  H39  1  0.34310000  0.44640000  0.20010000  1.0 0.0934390665
H  H40  1  0.14300000  0.34310000  0.89670000  1.0 0.0934390665
C  C1  1  0.77330000  0.13530000  0.90860000  1.0 0.2700469464
C  C2  1  0.13530000  0.22670000  0.36200000  1.0 0.2700469464
C  C3  1  0.22670000  0.86470000  0.09140000  1.0 0.2700469464
C  C4  1  0.86470000  0.77330000  0.63800000  1.0 0.2700469464
C  C5  1  0.72670000  0.63530000  0.36200000  1.0 0.2700469464
C  C6  1  0.36470000  0.72670000  0.09140000  1.0 0.2700469464
C  C7  1  0.27330000  0.36470000  0.63800000  1.0 0.2700469464
C  C8  1  0.63530000  0.27330000  0.90860000  1.0 0.2700469464
C  C9  1  0.66400000  0.16400000  0.82800000  1.0 -0.1745958954
C  C10  1  0.16400000  0.33600000  0.50000000  1.0 -0.1745958954
C  C11  1  0.33600000  0.83600000  0.17200000  1.0 -0.1751245588
C  C12  1  0.83600000  0.66400000  0.50000000  1.0 -0.1751245588
C  C13  1  0.58070000  0.08070000  0.66140000  1.0 0.0989614148
C  C14  1  0.08070000  0.41930000  0.50000000  1.0 0.0989614148
C  C15  1  0.41930000  0.91930000  0.33860000  1.0 0.0989614148
C  C16  1  0.91930000  0.58070000  0.50000000  1.0 0.0989614148
C  C17  1  0.60520000  0.97230000  0.57750000  1.0 -0.1631091863
C  C18  1  0.97230000  0.39480000  0.36710000  1.0 -0.1631091863
C  C19  1  0.39480000  0.02770000  0.42250000  1.0 -0.1631091863
C  C20  1  0.02770000  0.60520000  0.63290000  1.0 -0.1631091863
C  C21  1  0.89480000  0.47230000  0.36710000  1.0 -0.1631091863
C  C22  1  0.52770000  0.89480000  0.42250000  1.0 -0.1631091863
C  C23  1  0.10520000  0.52770000  0.63290000  1.0 -0.1631091863
C  C24  1  0.47230000  0.10520000  0.57750000  1.0 -0.1631091863
C  C25  1  0.84660000  0.95870000  0.05790000  1.0 0.0091680919
C  C26  1  0.95870000  0.90080000  0.11210000  1.0 0.0091680919
C  C27  1  0.90080000  0.78870000  0.94210000  1.0 0.0091680919
C  C28  1  0.78870000  0.84660000  0.88790000  1.0 0.0091680919
C  C29  1  0.65340000  0.71130000  0.11210000  1.0 0.0091680919
C  C30  1  0.54130000  0.65340000  0.94210000  1.0 0.0091680919
C  C31  1  0.59920000  0.54130000  0.88790000  1.0 0.0091680919
C  C32  1  0.71130000  0.59920000  0.05790000  1.0 0.0091680919
C  C33  1  0.15340000  0.04130000  0.94210000  1.0 0.0091680919
C  C34  1  0.04130000  0.09920000  0.88790000  1.0 0.0091680919
C  C35  1  0.09920000  0.21130000  0.05790000  1.0 0.0091680919
C  C36  1  0.21130000  0.15340000  0.11210000  1.0 0.0091680919
C  C37  1  0.34660000  0.28870000  0.88790000  1.0 0.0091680919
C  C38  1  0.45870000  0.34660000  0.05790000  1.0 0.0091680919
C  C39  1  0.40080000  0.45870000  0.11210000  1.0 0.0091680919
C  C40  1  0.28870000  0.40080000  0.94210000  1.0 0.0091680919
C  C41  1  0.78630000  0.90130000  0.05960000  1.0 -0.1017311264
C  C42  1  0.90130000  0.84170000  0.11500000  1.0 -0.1017311264
C  C43  1  0.84170000  0.72670000  0.94040000  1.0 -0.1017311264
C  C44  1  0.72670000  0.78630000  0.88500000  1.0 -0.1017311264
C  C45  1  0.71370000  0.77330000  0.11500000  1.0 -0.1017311264
C  C46  1  0.59870000  0.71370000  0.94040000  1.0 -0.1017311264
C  C47  1  0.65830000  0.59870000  0.88500000  1.0 -0.1017311264
C  C48  1  0.77330000  0.65830000  0.05960000  1.0 -0.1017311264
C  C49  1  0.21370000  0.09870000  0.94040000  1.0 -0.1017311264
C  C50  1  0.09870000  0.15830000  0.88500000  1.0 -0.1017311264
C  C51  1  0.15830000  0.27330000  0.05960000  1.0 -0.1017311264
C  C52  1  0.27330000  0.21370000  0.11500000  1.0 -0.1017311264
C  C53  1  0.28630000  0.22670000  0.88500000  1.0 -0.1017311264
C  C54  1  0.40130000  0.28630000  0.05960000  1.0 -0.1017311264
C  C55  1  0.34170000  0.40130000  0.11500000  1.0 -0.1017311264
C  C56  1  0.22670000  0.34170000  0.94040000  1.0 -0.1017311264
C  C57  1  0.78220000  0.78220000  0.00000000  1.0 -0.0038807777
C  C58  1  0.71780000  0.71780000  0.00000000  1.0 -0.0038807777
C  C59  1  0.21780000  0.21780000  0.00000000  1.0 -0.0038807777
C  C60  1  0.28220000  0.28220000  0.00000000  1.0 -0.0038807777
N  N1  1  0.86004000  0.10029000  0.96033000  1.0 -0.4587539166
N  N2  1  0.10029000  0.13996000  0.24025000  1.0 -0.4587539166
N  N3  1  0.13996000  0.89971000  0.03967000  1.0 -0.4587539166
N  N4  1  0.89971000  0.86004000  0.75975000  1.0 -0.4587539166
N  N5  1  0.63996000  0.60029000  0.24025000  1.0 -0.4587539166
N  N6  1  0.39971000  0.63996000  0.03967000  1.0 -0.4587539166
N  N7  1  0.36004000  0.39971000  0.75975000  1.0 -0.4587539166
N  N8  1  0.60029000  0.36004000  0.96033000  1.0 -0.4587539166
N  N9  1  0.90394000  0.90394000  0.00000000  1.0 -0.2126138092
N  N10  1  0.59606000  0.59606000  0.00000000  1.0 -0.2126138092
N  N11  1  0.09606000  0.09606000  0.00000000  1.0 -0.2126138092
N  N12  1  0.40394000  0.40394000  0.00000000  1.0 -0.2126138092
