# DDEC6 charges by PACMAN v1.1 (https://github.com/mtap-research/PACMAN-charge/)
data_VASGOP_FSR_pacman
_symmetry_space_group_name_H-M   'P 1'
_cell_length_a   10.03920000
_cell_length_b   15.84730000
_cell_length_c   18.45860000
_cell_angle_alpha   106.78800000
_cell_angle_beta   86.20700000
_cell_angle_gamma   107.84500000
_symmetry_Int_Tables_number   1
_chemical_formula_structural   Ca3H28C49(N2O11)2
_chemical_formula_sum   'Ca6 H56 C98 N8 O44'
_cell_volume   2675.42676313
_cell_formula_units_Z   2
loop_
 _symmetry_equiv_pos_site_id
 _symmetry_equiv_pos_as_xyz
  1  'x, y, z'
loop_
 _atom_site_type_symbol
 _atom_site_label
 _atom_site_symmetry_multiplicity
 _atom_site_fract_x
 _atom_site_fract_y
 _atom_site_fract_z
 _atom_site_occupancy
 _atom_site_charge
Ca  Ca1  1  0.29177000  0.42379000  0.99202000  1.0 1.3767569692
Ca  Ca2  1  0.17773000  0.16707000  0.87729000  1.0 1.3999875814
Ca  Ca3  1  0.95843000  0.48059000  0.10991000  1.0 1.2587496073
Ca  Ca4  1  0.70823000  0.57621000  0.00798000  1.0 1.3767569692
Ca  Ca5  1  0.82227000  0.83293000  0.12271000  1.0 1.3999875814
Ca  Ca6  1  0.04157000  0.51941000  0.89009000  1.0 1.2587496073
H  H1  1  0.06206000  0.11906000  0.73350000  1.0 0.3321701021
H  H2  1  0.19926000  0.15792000  0.72499000  1.0 0.3368839876
H  H3  1  0.36100000  0.04200000  0.83600000  1.0 0.3368839876
H  H4  1  0.23600000  0.98420000  0.81300000  1.0 0.3168203414
H  H5  1  0.75970000  0.37977000  0.97009000  1.0 0.1212010936
H  H6  1  0.49181000  0.19398000  0.80306000  1.0 0.1389450536
H  H7  1  0.46071000  0.48666000  0.13668000  1.0 0.1304054788
H  H8  1  0.32314000  0.34360000  0.19698000  1.0 0.1304054788
H  H9  1  0.14014000  0.07320000  0.08871000  1.0 0.1304054788
H  H10  1  0.88563000  0.18047000  0.81640000  1.0 0.146057281
H  H11  1  0.30104000  0.64531000  0.31172000  1.0 0.1389450536
H  H12  1  0.71294000  0.66666667  0.31358000  1.0 0.1389450536
H  H13  1  0.23029000  0.15258000  0.31341000  1.0 0.1304054788
H  H14  1  0.40558000  0.71479000  0.59807000  1.0 0.1212010936
H  H15  1  0.44877000  0.83496000  0.71173000  1.0 0.1304054788
H  H16  1  0.76593000  0.12762000  0.52605000  1.0 0.1304054788
H  H17  1  0.16830000  0.37367000  0.53504000  1.0 0.1304054788
H  H18  1  0.73187000  0.51071000  0.35404000  1.0 0.1304054788
H  H19  1  0.71777000  0.00729000  0.41211000  1.0 0.1304054788
H  H20  1  0.55050000  0.25196000  0.13436000  1.0 0.1595077769
H  H21  1  0.53543000  0.23099000  0.04463000  1.0 0.1595077769
H  H22  1  0.59859000  0.33504000  0.09628000  1.0 0.1793703169
H  H23  1  0.89930000  0.13027000  0.99484000  1.0 0.146057281
H  H24  1  0.90261000  0.12687000  0.08050000  1.0 0.1304054788
H  H25  1  0.96213000  0.22351000  0.06101000  1.0 0.1389450536
H  H26  1  0.55459000  0.10293000  0.07090000  1.0 0.1304054788
H  H27  1  0.66092000  0.04256000  0.05328000  1.0 0.1304054788
H  H28  1  0.61047000  0.07308000  0.98701000  1.0 0.1389450536
H  H29  1  0.93794000  0.88094000  0.26650000  1.0 0.3321701021
H  H30  1  0.80074000  0.84208000  0.27501000  1.0 0.3368839876
H  H31  1  0.63900000  0.95800000  0.16400000  1.0 0.3368839876
H  H32  1  0.76400000  0.01580000  0.18700000  1.0 0.3168203414
H  H33  1  0.24030000  0.62023000  0.02991000  1.0 0.1212010936
H  H34  1  0.50819000  0.80602000  0.19694000  1.0 0.1389450536
H  H35  1  0.53929000  0.51334000  0.86332000  1.0 0.1304054788
H  H36  1  0.67686000  0.65640000  0.80302000  1.0 0.1304054788
H  H37  1  0.85986000  0.92680000  0.91129000  1.0 0.1304054788
H  H38  1  0.11437000  0.81953000  0.18360000  1.0 0.146057281
H  H39  1  0.69896000  0.35469000  0.68828000  1.0 0.1389450536
H  H40  1  0.28706000  0.33333333  0.68642000  1.0 0.1389450536
H  H41  1  0.76971000  0.84742000  0.68659000  1.0 0.1304054788
H  H42  1  0.59442000  0.28521000  0.40193000  1.0 0.1212010936
H  H43  1  0.55123000  0.16504000  0.28827000  1.0 0.1304054788
H  H44  1  0.23407000  0.87238000  0.47395000  1.0 0.1304054788
H  H45  1  0.83170000  0.62633000  0.46496000  1.0 0.1304054788
H  H46  1  0.26813000  0.48929000  0.64596000  1.0 0.1304054788
H  H47  1  0.28223000  0.99271000  0.58789000  1.0 0.1304054788
H  H48  1  0.44950000  0.74804000  0.86564000  1.0 0.1595077769
H  H49  1  0.46457000  0.76901000  0.95537000  1.0 0.1595077769
H  H50  1  0.40141000  0.66496000  0.90372000  1.0 0.1793703169
H  H51  1  0.10070000  0.86973000  0.00516000  1.0 0.146057281
H  H52  1  0.09739000  0.87313000  0.91950000  1.0 0.1304054788
H  H53  1  0.03787000  0.77649000  0.93899000  1.0 0.1389450536
H  H54  1  0.44541000  0.89707000  0.92910000  1.0 0.1304054788
H  H55  1  0.33908000  0.95744000  0.94672000  1.0 0.1304054788
H  H56  1  0.38953000  0.92692000  0.01299000  1.0 0.1389450536
C  C1  1  0.49890000  0.33976000  0.92152000  1.0 0.5995652309
C  C2  1  0.60860000  0.29333000  0.89209000  1.0 -0.0101001988
C  C3  1  0.98940000  0.33042000  0.93369000  1.0 0.5995652309
C  C4  1  0.74050000  0.32767000  0.92664000  1.0 -0.152139452
C  C5  1  0.47630000  0.71677000  0.45851000  1.0 0.4477393062
C  C6  1  0.58100000  0.21751000  0.82791000  1.0 -0.1870599209
C  C7  1  0.57740000  0.88412000  0.52841000  1.0 0.0386681885
C  C8  1  0.50320000  0.79346000  0.53012000  1.0 -0.0611003334
C  C9  1  0.84520000  0.28704000  0.89869000  1.0 -0.0198267023
C  C10  1  0.60570000  0.57188000  0.21918000  1.0 0.017859367
C  C11  1  0.47330000  0.53249000  0.18417000  1.0 -0.1318933039
C  C12  1  0.35980000  0.55976000  0.21819000  1.0 -0.0198267023
C  C13  1  0.60390000  0.95662000  0.59683000  1.0 0.0386681885
C  C14  1  0.23620000  0.21124000  0.13141000  1.0 -0.0198267023
C  C15  1  0.70220000  0.12411000  0.66516000  1.0 0.4477393062
C  C16  1  0.24320000  0.23498000  0.05732000  1.0 0.5995652309
C  C17  1  0.55630000  0.93682000  0.66542000  1.0 -0.0538396917
C  C18  1  0.67560000  0.04748000  0.59443000  1.0 -0.0538396917
C  C19  1  0.59340000  0.82997000  0.38793000  1.0 0.4477393062
C  C20  1  0.09930000  0.00158000  0.20564000  1.0 0.5702710182
C  C21  1  0.72910000  0.54524000  0.18034000  1.0 0.5814758868
C  C22  1  0.17230000  0.09891000  0.20188000  1.0 -0.0028505898
C  C23  1  0.28800000  0.28096000  0.19769000  1.0 -0.170006734
C  C24  1  0.17720000  0.12054000  0.13376000  1.0 -0.1166627749
C  C25  1  0.46990000  0.46589000  0.46643000  1.0 0.0566508298
C  C26  1  0.68470000  0.17708000  0.80093000  1.0 0.2114754313
C  C27  1  0.58430000  0.01267000  0.73749000  1.0 0.4582695992
C  C28  1  0.81620000  0.21003000  0.83552000  1.0 -0.1573786407
C  C29  1  0.62070000  0.90509000  0.46005000  1.0 -0.0611003334
C  C30  1  0.28780000  0.25809000  0.26457000  1.0 0.1954354302
C  C31  1  0.37830000  0.62677000  0.28781000  1.0 -0.1993556439
C  C32  1  0.62350000  0.63934000  0.28894000  1.0 -0.1870599209
C  C33  1  0.50930000  0.66595000  0.32173000  1.0 0.2114754313
C  C34  1  0.23010000  0.16750000  0.26713000  1.0 -0.170006734
C  C35  1  0.21820000  0.52455000  0.17915000  1.0 0.4696719677
C  C36  1  0.33290000  0.40733000  0.46792000  1.0 -0.0690224289
C  C37  1  0.54800000  0.45742000  0.40003000  1.0 -0.0611003334
C  C38  1  0.45620000  0.77599000  0.59746000  1.0 -0.0827711334
C  C39  1  0.48900000  0.38269000  0.33052000  1.0 0.4339767129
C  C40  1  0.48230000  0.84781000  0.66552000  1.0 -0.0827711334
C  C41  1  0.26640000  0.33759000  0.39774000  1.0 0.4366318167
C  C42  1  0.71770000  0.06611000  0.52682000  1.0 -0.0827711334
C  C43  1  0.25950000  0.41494000  0.53427000  1.0 -0.0827711334
C  C44  1  0.68060000  0.51640000  0.39943000  1.0 -0.0690224289
C  C45  1  0.68940000  0.99428000  0.45886000  1.0 -0.0856879919
C  C46  1  0.73690000  0.26021000  0.08079000  1.0 0.5488798053
C  C47  1  0.59290000  0.27040000  0.08979000  1.0 -0.6155576675
C  C48  1  0.89030000  0.16310000  0.04790000  1.0 -0.3428390144
C  C49  1  0.63510000  0.09180000  0.04100000  1.0 -0.3428390144
C  C50  1  0.50110000  0.66024000  0.07848000  1.0 0.5995652309
C  C51  1  0.39140000  0.70667000  0.10791000  1.0 -0.0101001988
C  C52  1  0.01060000  0.66958000  0.06631000  1.0 0.5995652309
C  C53  1  0.25950000  0.67233000  0.07336000  1.0 -0.152139452
C  C54  1  0.52370000  0.28323000  0.54149000  1.0 0.4477393062
C  C55  1  0.41900000  0.78249000  0.17209000  1.0 -0.1870599209
C  C56  1  0.42260000  0.11588000  0.47159000  1.0 0.0386681885
C  C57  1  0.49680000  0.20654000  0.46988000  1.0 -0.0611003334
C  C58  1  0.15480000  0.71296000  0.10131000  1.0 -0.0198267023
C  C59  1  0.39430000  0.42812000  0.78082000  1.0 0.017859367
C  C60  1  0.52670000  0.46751000  0.81583000  1.0 -0.1318933039
C  C61  1  0.64020000  0.44024000  0.78181000  1.0 -0.0198267023
C  C62  1  0.39610000  0.04338000  0.40317000  1.0 0.0386681885
C  C63  1  0.76380000  0.78876000  0.86859000  1.0 -0.0198267023
C  C64  1  0.29780000  0.87589000  0.33484000  1.0 0.4477393062
C  C65  1  0.75680000  0.76502000  0.94268000  1.0 0.5995652309
C  C66  1  0.44370000  0.06318000  0.33458000  1.0 -0.0538396917
C  C67  1  0.32440000  0.95252000  0.40557000  1.0 -0.0538396917
C  C68  1  0.40660000  0.17003000  0.61207000  1.0 0.4477393062
C  C69  1  0.90070000  0.99842000  0.79436000  1.0 0.5702710182
C  C70  1  0.27090000  0.45476000  0.81966000  1.0 0.5814758868
C  C71  1  0.82770000  0.90109000  0.79812000  1.0 -0.0028505898
C  C72  1  0.71200000  0.71904000  0.80231000  1.0 -0.170006734
C  C73  1  0.82280000  0.87946000  0.86624000  1.0 -0.1166627749
C  C74  1  0.53010000  0.53411000  0.53357000  1.0 0.0566508298
C  C75  1  0.31530000  0.82292000  0.19907000  1.0 0.2114754313
C  C76  1  0.41570000  0.98733000  0.26251000  1.0 0.4582695992
C  C77  1  0.18380000  0.78997000  0.16448000  1.0 -0.1573786407
C  C78  1  0.37930000  0.09491000  0.53995000  1.0 -0.0611003334
C  C79  1  0.71220000  0.74191000  0.73543000  1.0 0.1954354302
C  C80  1  0.62170000  0.37323000  0.71219000  1.0 -0.1993556439
C  C81  1  0.37650000  0.36066000  0.71106000  1.0 -0.1870599209
C  C82  1  0.49070000  0.33405000  0.67827000  1.0 0.2114754313
C  C83  1  0.76990000  0.83250000  0.73287000  1.0 -0.170006734
C  C84  1  0.78180000  0.47545000  0.82085000  1.0 0.4696719677
C  C85  1  0.66710000  0.59267000  0.53208000  1.0 -0.0690224289
C  C86  1  0.45200000  0.54258000  0.59997000  1.0 -0.0611003334
C  C87  1  0.54380000  0.22401000  0.40254000  1.0 -0.0827711334
C  C88  1  0.51100000  0.61731000  0.66948000  1.0 0.4339767129
C  C89  1  0.51770000  0.15219000  0.33448000  1.0 -0.0827711334
C  C90  1  0.73360000  0.66241000  0.60226000  1.0 0.4366318167
C  C91  1  0.28230000  0.93389000  0.47318000  1.0 -0.0827711334
C  C92  1  0.74050000  0.58506000  0.46573000  1.0 -0.0827711334
C  C93  1  0.31940000  0.48360000  0.60057000  1.0 -0.0690224289
C  C94  1  0.31060000  0.00572000  0.54114000  1.0 -0.0856879919
C  C95  1  0.26310000  0.73979000  0.91921000  1.0 0.5488798053
C  C96  1  0.40710000  0.72960000  0.91021000  1.0 -0.6155576675
C  C97  1  0.10970000  0.83690000  0.95210000  1.0 -0.3428390144
C  C98  1  0.36490000  0.90820000  0.95900000  1.0 -0.3428390144
N  N1  1  0.53017000  0.74011000  0.39235000  1.0 -0.241637952
N  N2  1  0.65641000  0.10114000  0.73188000  1.0 -0.2324758514
N  N3  1  0.34840000  0.32962000  0.33275000  1.0 -0.2464332252
N  N4  1  0.75270000  0.17601000  0.05872000  1.0 0.0037655437
N  N5  1  0.46983000  0.25989000  0.60765000  1.0 -0.241637952
N  N6  1  0.34359000  0.89886000  0.26812000  1.0 -0.2324758514
N  N7  1  0.65160000  0.67038000  0.66725000  1.0 -0.241637952
N  N8  1  0.24730000  0.82399000  0.94128000  1.0 0.0037655437
O  O1  1  0.53347000  0.41828000  0.96961000  1.0 -0.6300476461
O  O2  1  0.07729000  0.28770000  0.92204000  1.0 -0.6112158268
O  O3  1  0.37433000  0.29915000  0.89709000  1.0 -0.6608885973
O  O4  1  0.72488000  0.51475000  0.10853000  1.0 -0.6608885973
O  O5  1  0.20703000  0.48704000  0.10851000  1.0 -0.6506639092
O  O6  1  0.10508000  0.98360000  0.26721000  1.0 -0.5712573498
O  O7  1  0.02005000  0.41522000  0.97299000  1.0 -0.6824235289
O  O8  1  0.03534000  0.94475000  0.14661000  1.0 -0.6608885973
O  O9  1  0.41110000  0.63765000  0.45599000  1.0 -0.4130966633
O  O10  1  0.62316000  0.84488000  0.32697000  1.0 -0.4296299288
O  O11  1  0.54547000  0.00061000  0.79825000  1.0 -0.4296299288
O  O12  1  0.13086000  0.16605000  0.75300000  1.0 -0.7478385537
O  O13  1  0.28225000  0.31856000  0.05981000  1.0 -0.6155576675
O  O14  1  0.75921000  0.20421000  0.66634000  1.0 -0.4296299288
O  O15  1  0.21080000  0.16828000  0.99830000  1.0 -0.6394395499
O  O16  1  0.55697000  0.36553000  0.27432000  1.0 -0.4162753566
O  O17  1  0.83330000  0.55391000  0.21817000  1.0 -0.5712573498
O  O18  1  0.14680000  0.28835000  0.39517000  1.0 -0.4162753566
O  O19  1  0.27870000  0.04671000  0.82722000  1.0 -0.7648916214
O  O20  1  0.84220000  0.33134000  0.09422000  1.0 -0.6300476461
O  O21  1  0.11040000  0.52530000  0.21890000  1.0 -0.0101001988
O  O22  1  0.12370000  0.55860000  0.21190000  1.0 -0.0198267023
O  O23  1  0.46653000  0.58172000  0.03039000  1.0 -0.6300476461
O  O24  1  0.92271000  0.71230000  0.07796000  1.0 -0.6112158268
O  O25  1  0.62567000  0.70085000  0.10291000  1.0 -0.6608885973
O  O26  1  0.27512000  0.48525000  0.89147000  1.0 -0.6608885973
O  O27  1  0.79297000  0.51296000  0.89149000  1.0 -0.6506639092
O  O28  1  0.89492000  0.01640000  0.73279000  1.0 -0.5712573498
O  O29  1  0.97995000  0.58478000  0.02701000  1.0 -0.6824235289
O  O30  1  0.96466000  0.05525000  0.85339000  1.0 -0.6506639092
O  O31  1  0.58890000  0.36235000  0.54401000  1.0 -0.4130966633
O  O32  1  0.37684000  0.15512000  0.67303000  1.0 -0.4296299288
O  O33  1  0.45453000  0.99939000  0.20175000  1.0 -0.4296299288
O  O34  1  0.86914000  0.83395000  0.24700000  1.0 -0.7478385537
O  O35  1  0.71775000  0.68144000  0.94019000  1.0 -0.6155576675
O  O36  1  0.24079000  0.79579000  0.33366000  1.0 -0.4296299288
O  O37  1  0.78920000  0.83172000  0.00170000  1.0 -0.6394395499
O  O38  1  0.44303000  0.63447000  0.72568000  1.0 -0.4162753566
O  O39  1  0.16670000  0.44609000  0.78183000  1.0 -0.5712573498
O  O40  1  0.85320000  0.71165000  0.60483000  1.0 -0.4162753566
O  O41  1  0.72130000  0.95329000  0.17278000  1.0 -0.7648916214
O  O42  1  0.15780000  0.66866000  0.90578000  1.0 -0.6300476461
O  O43  1  0.88960000  0.47470000  0.78110000  1.0 -0.0101001988
O  O44  1  0.87630000  0.44140000  0.78810000  1.0 -0.0198267023
