# DDEC6 charges by PACMAN v1.1 (https://github.com/mtap-research/PACMAN-charge/)
data_VATQAM_FSR_pacman
_symmetry_space_group_name_H-M   'P 1'
_cell_length_a   17.72840000
_cell_length_b   17.72840000
_cell_length_c   17.72840000
_cell_angle_alpha   92.11890000
_cell_angle_beta   92.11890000
_cell_angle_gamma   157.82800000
_symmetry_Int_Tables_number   1
_chemical_formula_structural   In5H20C60(NO9)4
_chemical_formula_sum   'In5 H20 C60 N4 O36'
_cell_volume   2063.55465709
_cell_formula_units_Z   1
loop_
 _symmetry_equiv_pos_site_id
 _symmetry_equiv_pos_as_xyz
  1  'x, y, z'
loop_
 _atom_site_type_symbol
 _atom_site_label
 _atom_site_symmetry_multiplicity
 _atom_site_fract_x
 _atom_site_fract_y
 _atom_site_fract_z
 _atom_site_occupancy
 _atom_site_charge
In  In1  1  0.80893000  0.33747000  0.12742000  1.0 1.3498149075
In  In2  1  0.21005000  0.68151000  0.87258000  1.0 1.3498149075
In  In3  1  0.31849000  0.19107000  0.52854000  1.0 1.3498149075
In  In4  1  0.66253000  0.78995000  0.47146000  1.0 1.3498149075
In  In5  1  0.00000000  0.00000000  0.00000000  1.0 1.3498149075
H  H1  1  0.61109000  0.41587000  0.96648000  1.0 0.1323244162
H  H2  1  0.69660000  0.43078000  0.75446000  1.0 0.1323244162
H  H3  1  0.19842000  0.09039000  0.78453000  1.0 0.1323244162
H  H4  1  0.99922000  0.79320000  0.96086000  1.0 0.1463609971
H  H5  1  0.30333000  0.02190000  0.01765000  1.0 0.1614521332
H  H6  1  0.44939000  0.64461000  0.03352000  1.0 0.1323244162
H  H7  1  0.67632000  0.94214000  0.24554000  1.0 0.1323244162
H  H8  1  0.30586000  0.41389000  0.21547000  1.0 0.1323244162
H  H9  1  0.83234000  0.03836000  0.03914000  1.0 0.1463609971
H  H10  1  0.00425000  0.28568000  0.98235000  1.0 0.1614521332
H  H11  1  0.35539000  0.38891000  0.80478000  1.0 0.1323244162
H  H12  1  0.05786000  0.30340000  0.73418000  1.0 0.1323244162
H  H13  1  0.58611000  0.80158000  0.89197000  1.0 0.1323244162
H  H14  1  0.96164000  0.00078000  0.79398000  1.0 0.1463609971
H  H15  1  0.71432000  0.69667000  0.71857000  1.0 0.1614521332
H  H16  1  0.58413000  0.55061000  0.19522000  1.0 0.1323244162
H  H17  1  0.56922000  0.32368000  0.26582000  1.0 0.1323244162
H  H18  1  0.90961000  0.69414000  0.10803000  1.0 0.1323244162
H  H19  1  0.20680000  0.16766000  0.20602000  1.0 0.1463609971
H  H20  1  0.97810000  0.99575000  0.28143000  1.0 0.1614521332
C  C1  1  0.56730000  0.37410000  0.91340000  1.0 -0.1075631194
C  C2  1  0.68450000  0.44460000  0.86710000  1.0 0.089530129
C  C3  1  0.62100000  0.38560000  0.78660000  1.0 -0.1177127398
C  C4  1  0.43830000  0.25470000  0.75500000  1.0 0.0167074502
C  C5  1  0.32130000  0.18150000  0.80480000  1.0 -0.1012708619
C  C6  1  0.38840000  0.24450000  0.88290000  1.0 -0.0234295185
C  C7  1  0.27300000  0.17800000  0.93300000  1.0 0.5515654124
C  C8  1  0.37710000  0.20500000  0.67010000  1.0 0.5173234977
C  C9  1  0.88490000  0.59600000  0.90090000  1.0 0.0536956229
C  C10  1  0.02570000  0.76760000  0.94930000  1.0 -0.0724954717
C  C11  1  0.20920000  0.90690000  0.98210000  1.0 -0.1012708619
C  C12  1  0.24970000  0.87100000  0.96070000  1.0 0.1323244162
C  C13  1  0.93290000  0.56370000  0.88260000  1.0 0.089530129
C  C14  1  0.80100000  0.38060000  0.83760000  1.0 0.5410071202
C  C15  1  0.44320000  0.01070000  0.98990000  1.0 0.5515654124
C  C16  1  0.46070000  0.65390000  0.08660000  1.0 -0.1075631194
C  C17  1  0.57750000  0.81740000  0.13290000  1.0 0.089530129
C  C18  1  0.59900000  0.83440000  0.21340000  1.0 -0.1177127398
C  C19  1  0.49970000  0.68330000  0.24500000  1.0 0.0167074502
C  C20  1  0.37670000  0.51650000  0.19520000  1.0 -0.1012708619
C  C21  1  0.36160000  0.50550000  0.11710000  1.0 -0.0234295185
C  C22  1  0.24500000  0.34000000  0.06700000  1.0 0.5515654124
C  C23  1  0.53490000  0.70700000  0.32990000  1.0 0.5173234977
C  C24  1  0.69510000  0.98400000  0.09910000  1.0 0.0536956229
C  C25  1  0.81830000  0.07640000  0.05070000  1.0 -0.0724954717
C  C26  1  0.92480000  0.22710000  0.01790000  1.0 -0.1012708619
C  C27  1  0.91030000  0.28900000  0.03930000  1.0 0.1323244162
C  C28  1  0.68110000  0.05030000  0.11740000  1.0 0.089530129
C  C29  1  0.54300000  0.96340000  0.16240000  1.0 0.5410071202
C  C30  1  0.02080000  0.45330000  0.01010000  1.0 0.5515654124
C  C31  1  0.34610000  0.43270000  0.80680000  1.0 -0.1075631194
C  C32  1  0.18260000  0.31550000  0.76010000  1.0 0.089530129
C  C33  1  0.16560000  0.37900000  0.76460000  1.0 -0.1177127398
C  C34  1  0.31670000  0.56170000  0.81640000  1.0 0.0167074502
C  C35  1  0.48350000  0.67870000  0.86020000  1.0 -0.1012708619
C  C36  1  0.49450000  0.61160000  0.85610000  1.0 -0.0234295185
C  C37  1  0.66000000  0.72700000  0.90500000  1.0 0.5515654124
C  C38  1  0.29300000  0.62290000  0.82790000  1.0 0.5173234977
C  C39  1  0.01600000  0.11510000  0.71110000  1.0 0.0536956229
C  C40  1  0.92360000  0.97430000  0.74190000  1.0 -0.0724954717
C  C41  1  0.77290000  0.79080000  0.69770000  1.0 -0.1012708619
C  C42  1  0.71100000  0.75030000  0.62130000  1.0 0.1323244162
C  C43  1  0.94970000  0.06710000  0.63080000  1.0 0.089530129
C  C44  1  0.03660000  0.19900000  0.57960000  1.0 0.5410071202
C  C45  1  0.54670000  0.55680000  0.56750000  1.0 0.5515654124
C  C46  1  0.62590000  0.53930000  0.19320000  1.0 -0.1075631194
C  C47  1  0.55540000  0.42250000  0.23990000  1.0 0.089530129
C  C48  1  0.61440000  0.40100000  0.23540000  1.0 -0.1177127398
C  C49  1  0.74530000  0.50030000  0.18360000  1.0 0.0167074502
C  C50  1  0.81850000  0.62330000  0.13980000  1.0 -0.1012708619
C  C51  1  0.75550000  0.63840000  0.14390000  1.0 -0.0234295185
C  C52  1  0.82200000  0.75500000  0.09500000  1.0 0.5515654124
C  C53  1  0.79500000  0.46510000  0.17210000  1.0 0.5173234977
C  C54  1  0.40400000  0.30490000  0.28890000  1.0 0.0536956229
C  C55  1  0.23240000  0.18170000  0.25810000  1.0 -0.0724954717
C  C56  1  0.09310000  0.07520000  0.30230000  1.0 -0.1012708619
C  C57  1  0.12900000  0.08970000  0.37870000  1.0 0.1323244162
C  C58  1  0.43630000  0.31890000  0.36920000  1.0 0.089530129
C  C59  1  0.61940000  0.45700000  0.42040000  1.0 0.5410071202
C  C60  1  0.98930000  0.97920000  0.43250000  1.0 0.5515654124
N  N1  1  0.11870000  0.71080000  0.91050000  1.0 -0.2598506249
N  N2  1  0.80030000  0.20820000  0.08950000  1.0 -0.2598506249
N  N3  1  0.79180000  0.88130000  0.59210000  1.0 -0.2598506249
N  N4  1  0.28920000  0.19970000  0.40790000  1.0 -0.2598506249
O  O1  1  0.32720000  0.23100000  0.00440000  1.0 -0.4893183323
O  O2  1  0.11040000  0.06000000  0.90240000  1.0 -0.5102114491
O  O3  1  0.49650000  0.29310000  0.62700000  1.0 -0.4625894241
O  O4  1  0.21940000  0.09140000  0.64220000  1.0 -0.4625894241
O  O5  1  0.60950000  0.21300000  0.82250000  1.0 -0.4344099723
O  O6  1  0.88720000  0.40200000  0.82060000  1.0 -0.4893183323
O  O7  1  0.56810000  0.15850000  0.04380000  1.0 -0.5102114491
O  O8  1  0.46590000  0.96670000  0.96120000  1.0 -0.4893183323
O  O9  1  0.06570000  0.55330000  0.21700000  1.0 -0.3032629452
O  O10  1  0.22660000  0.32280000  0.99560000  1.0 -0.4893183323
O  O11  1  0.15760000  0.20800000  0.09760000  1.0 -0.5102114491
O  O12  1  0.66610000  0.86950000  0.37300000  1.0 -0.4625894241
O  O13  1  0.44920000  0.57720000  0.35780000  1.0 -0.4625894241
O  O14  1  0.39050000  0.78700000  0.17750000  1.0 -0.4344099723
O  O15  1  0.58140000  0.06660000  0.17940000  1.0 -0.4893183323
O  O16  1  0.11470000  0.52430000  0.95620000  1.0 -0.5102114491
O  O17  1  0.00550000  0.50470000  0.03880000  1.0 -0.4893183323
O  O18  1  0.33630000  0.84870000  0.78300000  1.0 -0.3051883243
O  O19  1  0.67720000  0.67280000  0.90380000  1.0 -0.4893183323
O  O20  1  0.79200000  0.88960000  0.94960000  1.0 -0.5102114491
O  O21  1  0.13050000  0.50350000  0.79660000  1.0 -0.4625894241
O  O22  1  0.42280000  0.78060000  0.87200000  1.0 -0.4625894241
O  O23  1  0.21300000  0.39050000  0.60350000  1.0 -0.4344099723
O  O24  1  0.93340000  0.11280000  0.51480000  1.0 -0.4893183323
O  O25  1  0.47570000  0.43190000  0.59040000  1.0 -0.5102114491
O  O26  1  0.49530000  0.53410000  0.50080000  1.0 -0.4893183323
O  O27  1  0.15130000  0.93430000  0.48760000  1.0 -0.3032629452
O  O28  1  0.76900000  0.77340000  0.09620000  1.0 -0.4893183323
O  O29  1  0.94000000  0.84240000  0.05040000  1.0 -0.5102114491
O  O30  1  0.70690000  0.33390000  0.20340000  1.0 -0.4625894241
O  O31  1  0.90860000  0.55080000  0.12800000  1.0 -0.4625894241
O  O32  1  0.78700000  0.60950000  0.39650000  1.0 -0.4344099723
O  O33  1  0.59800000  0.41860000  0.48520000  1.0 -0.4893183323
O  O34  1  0.84150000  0.88530000  0.40960000  1.0 -0.5102114491
O  O35  1  0.03330000  0.99450000  0.49920000  1.0 -0.4893183323
O  O36  1  0.44670000  0.66370000  0.51240000  1.0 -0.3032629452
