# DDEC6 charges by PACMAN v1.1 (https://github.com/mtap-research/PACMAN-charge/)
data_VAXHOR01_ASR_pacman
_symmetry_space_group_name_H-M   'P 1'
_cell_length_a   6.85200000
_cell_length_b   9.56400000
_cell_length_c   18.26300000
_cell_angle_alpha   90.00000000
_cell_angle_beta   90.00000000
_cell_angle_gamma   90.00000000
_symmetry_Int_Tables_number   1
_chemical_formula_structural   CaC9NO6
_chemical_formula_sum   'Ca4 C36 N4 O24'
_cell_volume   1196.82055886
_cell_formula_units_Z   4
loop_
 _symmetry_equiv_pos_site_id
 _symmetry_equiv_pos_as_xyz
  1  'x, y, z'
loop_
 _atom_site_type_symbol
 _atom_site_label
 _atom_site_symmetry_multiplicity
 _atom_site_fract_x
 _atom_site_fract_y
 _atom_site_fract_z
 _atom_site_occupancy
 _atom_site_charge
Ca  Ca1  1  0.75000000  0.39420000  0.98050000  1.0 1.3242755943
Ca  Ca2  1  0.25000000  0.89420000  0.51950000  1.0 1.3242755943
Ca  Ca3  1  0.75000000  0.10580000  0.48050000  1.0 1.3242755943
Ca  Ca4  1  0.25000000  0.60580000  0.01950000  1.0 1.3242755943
C  C1  1  0.75000000  0.20900000  0.10500000  1.0 0.5841860586
C  C2  1  0.25000000  0.70900000  0.39500000  1.0 0.5841860586
C  C3  1  0.75000000  0.29100000  0.60500000  1.0 0.5841860586
C  C4  1  0.25000000  0.79100000  0.89500000  1.0 0.5841860586
C  C5  1  0.75000000  0.12700000  0.17400000  1.0 -0.2191418296
C  C6  1  0.25000000  0.62700000  0.32600000  1.0 -0.2191418296
C  C7  1  0.75000000  0.37300000  0.67400000  1.0 -0.2191418296
C  C8  1  0.25000000  0.87300000  0.82600000  1.0 -0.2191418296
C  C9  1  0.57450000  0.09300000  0.20750000  1.0 0.2097694503
C  C10  1  0.42550000  0.59300000  0.29250000  1.0 0.2097694503
C  C11  1  0.92550000  0.40700000  0.70750000  1.0 0.2097694503
C  C12  1  0.07450000  0.90700000  0.79250000  1.0 0.2097694503
C  C13  1  0.42550000  0.90700000  0.79250000  1.0 0.2097694503
C  C14  1  0.57450000  0.40700000  0.70750000  1.0 0.2097694503
C  C15  1  0.07450000  0.59300000  0.29250000  1.0 0.2097694503
C  C16  1  0.92550000  0.09300000  0.20750000  1.0 0.2097694503
C  C17  1  0.57100000  0.02200000  0.27500000  1.0 -0.0558854042
C  C18  1  0.42900000  0.52200000  0.22500000  1.0 -0.0558854042
C  C19  1  0.92900000  0.47800000  0.77500000  1.0 -0.0558854042
C  C20  1  0.07100000  0.97800000  0.72500000  1.0 -0.0558854042
C  C21  1  0.42900000  0.97800000  0.72500000  1.0 -0.0558854042
C  C22  1  0.57100000  0.47800000  0.77500000  1.0 -0.0558854042
C  C23  1  0.07100000  0.52200000  0.22500000  1.0 -0.0558854042
C  C24  1  0.92900000  0.02200000  0.27500000  1.0 -0.0558854042
C  C25  1  0.75000000  0.98000000  0.30700000  1.0 0.2404931002
C  C26  1  0.25000000  0.48000000  0.19300000  1.0 0.2404931002
C  C27  1  0.75000000  0.52000000  0.80700000  1.0 0.2404931002
C  C28  1  0.25000000  0.02000000  0.69300000  1.0 0.2404931002
C  C29  1  0.75000000  0.63900000  0.07300000  1.0 0.6202742421
C  C30  1  0.25000000  0.13900000  0.42700000  1.0 0.6202742421
C  C31  1  0.75000000  0.86100000  0.57300000  1.0 0.6202742421
C  C32  1  0.25000000  0.36100000  0.92700000  1.0 0.6202742421
C  C33  1  0.75000000  0.76700000  0.12600000  1.0 -0.1651690042
C  C34  1  0.25000000  0.26700000  0.37400000  1.0 -0.1651690042
C  C35  1  0.75000000  0.73300000  0.62600000  1.0 -0.1651690042
C  C36  1  0.25000000  0.23300000  0.87400000  1.0 -0.1651690042
N  N1  1  0.75000000  0.91700000  0.37800000  1.0 -0.2337393276
N  N2  1  0.25000000  0.41700000  0.12200000  1.0 -0.2337393276
N  N3  1  0.75000000  0.58300000  0.87800000  1.0 -0.2337393276
N  N4  1  0.25000000  0.08300000  0.62200000  1.0 -0.2337393276
O  O1  1  0.59250000  0.24400000  0.07650000  1.0 -0.4891337863
O  O2  1  0.40750000  0.74400000  0.42350000  1.0 -0.4891337863
O  O3  1  0.90750000  0.25600000  0.57650000  1.0 -0.4891337863
O  O4  1  0.09250000  0.75600000  0.92350000  1.0 -0.4891337863
O  O5  1  0.40750000  0.75600000  0.92350000  1.0 -0.4891337863
O  O6  1  0.59250000  0.25600000  0.57650000  1.0 -0.4891337863
O  O7  1  0.09250000  0.74400000  0.42350000  1.0 -0.4891337863
O  O8  1  0.90750000  0.24400000  0.07650000  1.0 -0.4891337863
O  O9  1  0.39500000  0.09100000  0.17100000  1.0 -0.121169201
O  O10  1  0.60500000  0.59100000  0.32900000  1.0 -0.121169201
O  O11  1  0.10500000  0.40900000  0.67100000  1.0 -0.121169201
O  O12  1  0.89500000  0.90900000  0.82900000  1.0 -0.121169201
O  O13  1  0.60500000  0.90900000  0.82900000  1.0 -0.121169201
O  O14  1  0.39500000  0.40900000  0.67100000  1.0 -0.121169201
O  O15  1  0.89500000  0.59100000  0.32900000  1.0 -0.121169201
O  O16  1  0.10500000  0.09100000  0.17100000  1.0 -0.121169201
O  O17  1  0.90600000  0.58550000  0.05350000  1.0 -0.6191704756
O  O18  1  0.09400000  0.08550000  0.44650000  1.0 -0.6191704756
O  O19  1  0.59400000  0.91450000  0.55350000  1.0 -0.6191704756
O  O20  1  0.40600000  0.41450000  0.94650000  1.0 -0.6191704756
O  O21  1  0.09400000  0.41450000  0.94650000  1.0 -0.6191704756
O  O22  1  0.90600000  0.91450000  0.55350000  1.0 -0.6191704756
O  O23  1  0.40600000  0.08550000  0.44650000  1.0 -0.6191704756
O  O24  1  0.59400000  0.58550000  0.05350000  1.0 -0.6191704756
