# DDEC6 charges by PACMAN v1.1 (https://github.com/mtap-research/PACMAN-charge/)
data_VAXTEV_ion_pacman
_symmetry_space_group_name_H-M   'P 1'
_cell_length_a   12.79390000
_cell_length_b   12.79390000
_cell_length_c   35.38900000
_cell_angle_alpha   87.41900000
_cell_angle_beta   92.58100000
_cell_angle_gamma   135.48100000
_symmetry_Int_Tables_number   1
_chemical_formula_structural   CdH41C38(NO5)2
_chemical_formula_sum   'Cd4 H164 C152 N8 O40'
_cell_volume   4056.65221195
_cell_formula_units_Z   4
loop_
 _symmetry_equiv_pos_site_id
 _symmetry_equiv_pos_as_xyz
  1  'x, y, z'
loop_
 _atom_site_type_symbol
 _atom_site_label
 _atom_site_symmetry_multiplicity
 _atom_site_fract_x
 _atom_site_fract_y
 _atom_site_fract_z
 _atom_site_occupancy
 _atom_site_charge
Cd  Cd1  1  0.23876000  0.85766000  0.82492000  1.0 0.9404680212
Cd  Cd2  1  0.14234000  0.76124000  0.32492000  1.0 0.9404680212
Cd  Cd3  1  0.85766000  0.23876000  0.67508000  1.0 0.9404680212
Cd  Cd4  1  0.76124000  0.14234000  0.17508000  1.0 0.9404680212
H  H1  1  0.07780000  0.69940000  0.94870000  1.0 0.1002315775
H  H2  1  0.30060000  0.92220000  0.44870000  1.0 0.1002315775
H  H3  1  0.05400000  0.77280000  0.91740000  1.0 0.1129714367
H  H4  1  0.22720000  0.94600000  0.41740000  1.0 0.1129714367
H  H5  1  0.23570000  0.77090000  0.01660000  1.0 0.1380291173
H  H6  1  0.22910000  0.76430000  0.51660000  1.0 0.1380291173
H  H7  1  0.11360000  0.71720000  0.04480000  1.0 0.1293040655
H  H8  1  0.28280000  0.88640000  0.54480000  1.0 0.1293040655
H  H9  1  0.06800000  0.65780000  0.00340000  1.0 0.1293040655
H  H10  1  0.34220000  0.93200000  0.50340000  1.0 0.1293040655
H  H11  1  0.36750000  0.09950000  0.07720000  1.0 0.1002315775
H  H12  1  0.90050000  0.63250000  0.57720000  1.0 0.1002315775
H  H13  1  0.31790000  0.94810000  0.07010000  1.0 0.1002315775
H  H14  1  0.05190000  0.68210000  0.57010000  1.0 0.1002315775
H  H15  1  0.36430000  0.33130000  0.02610000  1.0 0.1293040655
H  H16  1  0.66870000  0.63570000  0.52610000  1.0 0.1293040655
H  H17  1  0.28090000  0.22870000  0.06210000  1.0 0.1380291173
H  H18  1  0.77130000  0.71910000  0.56210000  1.0 0.1380291173
H  H19  1  0.43060000  0.28380000  0.05040000  1.0 0.1293040655
H  H20  1  0.71620000  0.56940000  0.55040000  1.0 0.1293040655
H  H21  1  0.20510000  0.27070000  0.99360000  1.0 0.1002315775
H  H22  1  0.72930000  0.79490000  0.49360000  1.0 0.1002315775
H  H23  1  0.08680000  0.16640000  0.96140000  1.0 0.1002315775
H  H24  1  0.83360000  0.91320000  0.46140000  1.0 0.1002315775
H  H25  1  0.03890000  0.03570000  0.91910000  1.0 0.1293040655
H  H26  1  0.96430000  0.96110000  0.41910000  1.0 0.1293040655
H  H27  1  0.11920000  0.00000000  0.90040000  1.0 0.152029932
H  H28  1  0.00000000  0.88080000  0.40040000  1.0 0.152029932
H  H29  1  0.95800000  0.87000000  0.91610000  1.0 0.1201469974
H  H30  1  0.13000000  0.04200000  0.41610000  1.0 0.1201469974
H  H31  1  0.42710000  0.23130000  0.91670000  1.0 0.1201469974
H  H32  1  0.76870000  0.57290000  0.41670000  1.0 0.1201469974
H  H33  1  0.60420000  0.44080000  0.95230000  1.0 0.152029932
H  H34  1  0.55920000  0.39580000  0.45230000  1.0 0.152029932
H  H35  1  0.92710000  0.52550000  0.89990000  1.0 0.1380291173
H  H36  1  0.47450000  0.07290000  0.39990000  1.0 0.1380291173
H  H37  1  0.75060000  0.31580000  0.86460000  1.0 0.1129714367
H  H38  1  0.68420000  0.24940000  0.36460000  1.0 0.1129714367
H  H39  1  0.36930000  0.97450000  0.20080000  1.0 0.1201469974
H  H40  1  0.02550000  0.63070000  0.70080000  1.0 0.1201469974
H  H41  1  0.38130000  0.02350000  0.13700000  1.0 0.1380291173
H  H42  1  0.97650000  0.61870000  0.63700000  1.0 0.1380291173
H  H43  1  0.94300000  0.76840000  0.13400000  1.0 0.1293040655
H  H44  1  0.23160000  0.05700000  0.63400000  1.0 0.1293040655
H  H45  1  0.93350000  0.72450000  0.19820000  1.0 0.1201469974
H  H46  1  0.27550000  0.06650000  0.69820000  1.0 0.1201469974
H  H47  1  0.41220000  0.60620000  0.84760000  1.0 0.1129714367
H  H48  1  0.39380000  0.58780000  0.34760000  1.0 0.1129714367
H  H49  1  0.41480000  0.45380000  0.88310000  1.0 0.1380291173
H  H50  1  0.54620000  0.58520000  0.38310000  1.0 0.1380291173
H  H51  1  0.16650000  0.40090000  0.96130000  1.0 0.1380291173
H  H52  1  0.59910000  0.83350000  0.46130000  1.0 0.1380291173
H  H53  1  0.16040000  0.55080000  0.92500000  1.0 0.1293040655
H  H54  1  0.44920000  0.83960000  0.42500000  1.0 0.1293040655
H  H55  1  0.75280000  0.58540000  0.85470000  1.0 0.1293040655
H  H56  1  0.41460000  0.24720000  0.35470000  1.0 0.1293040655
H  H57  1  0.67020000  0.63180000  0.86150000  1.0 0.1380291173
H  H58  1  0.36820000  0.32980000  0.36150000  1.0 0.1380291173
H  H59  1  0.63450000  0.54530000  0.82500000  1.0 0.1380291173
H  H60  1  0.45470000  0.36550000  0.32500000  1.0 0.1380291173
H  H61  1  0.85520000  0.90960000  0.79420000  1.0 0.1380291173
H  H62  1  0.09040000  0.14480000  0.29420000  1.0 0.1380291173
H  H63  1  0.69020000  0.75220000  0.79120000  1.0 0.1380291173
H  H64  1  0.24780000  0.30980000  0.29120000  1.0 0.1380291173
H  H65  1  0.74730000  0.84490000  0.82810000  1.0 0.1380291173
H  H66  1  0.15510000  0.25270000  0.32810000  1.0 0.1380291173
H  H67  1  0.69940000  0.07780000  0.55130000  1.0 0.1002315775
H  H68  1  0.92220000  0.30060000  0.05130000  1.0 0.1002315775
H  H69  1  0.77280000  0.05400000  0.58260000  1.0 0.1129714367
H  H70  1  0.94600000  0.22720000  0.08260000  1.0 0.1129714367
H  H71  1  0.77090000  0.23570000  0.48340000  1.0 0.1380291173
H  H72  1  0.76430000  0.22910000  0.98340000  1.0 0.1380291173
H  H73  1  0.71720000  0.11360000  0.45520000  1.0 0.1293040655
H  H74  1  0.88640000  0.28280000  0.95520000  1.0 0.1293040655
H  H75  1  0.65780000  0.06800000  0.49660000  1.0 0.1293040655
H  H76  1  0.93200000  0.34220000  0.99660000  1.0 0.1293040655
H  H77  1  0.09950000  0.36750000  0.42280000  1.0 0.1002315775
H  H78  1  0.63250000  0.90050000  0.92280000  1.0 0.1002315775
H  H79  1  0.94810000  0.31790000  0.42990000  1.0 0.1002315775
H  H80  1  0.68210000  0.05190000  0.92990000  1.0 0.1002315775
H  H81  1  0.33130000  0.36430000  0.47390000  1.0 0.1293040655
H  H82  1  0.63570000  0.66870000  0.97390000  1.0 0.1293040655
H  H83  1  0.22870000  0.28090000  0.43790000  1.0 0.1380291173
H  H84  1  0.71910000  0.77130000  0.93790000  1.0 0.1380291173
H  H85  1  0.28380000  0.43060000  0.44960000  1.0 0.1293040655
H  H86  1  0.56940000  0.71620000  0.94960000  1.0 0.1293040655
H  H87  1  0.27070000  0.20510000  0.50640000  1.0 0.1002315775
H  H88  1  0.79490000  0.72930000  0.00640000  1.0 0.1002315775
H  H89  1  0.16640000  0.08680000  0.53860000  1.0 0.1002315775
H  H90  1  0.91320000  0.83360000  0.03860000  1.0 0.1002315775
H  H91  1  0.03570000  0.03890000  0.58090000  1.0 0.1293040655
H  H92  1  0.96110000  0.96430000  0.08090000  1.0 0.1293040655
H  H93  1  0.00000000  0.11920000  0.59960000  1.0 0.152029932
H  H94  1  0.88080000  0.00000000  0.09960000  1.0 0.152029932
H  H95  1  0.87000000  0.95800000  0.58390000  1.0 0.1201469974
H  H96  1  0.04200000  0.13000000  0.08390000  1.0 0.1201469974
H  H97  1  0.23130000  0.42710000  0.58330000  1.0 0.1201469974
H  H98  1  0.57290000  0.76870000  0.08330000  1.0 0.1201469974
H  H99  1  0.44080000  0.60420000  0.54770000  1.0 0.152029932
H  H100  1  0.39580000  0.55920000  0.04770000  1.0 0.152029932
H  H101  1  0.52550000  0.92710000  0.60010000  1.0 0.1380291173
H  H102  1  0.07290000  0.47450000  0.10010000  1.0 0.1380291173
H  H103  1  0.31580000  0.75060000  0.63540000  1.0 0.1129714367
H  H104  1  0.24940000  0.68420000  0.13540000  1.0 0.1129714367
H  H105  1  0.97450000  0.36930000  0.29920000  1.0 0.1201469974
H  H106  1  0.63070000  0.02550000  0.79920000  1.0 0.1201469974
H  H107  1  0.02350000  0.38130000  0.36300000  1.0 0.1380291173
H  H108  1  0.61870000  0.97650000  0.86300000  1.0 0.1380291173
H  H109  1  0.76840000  0.94300000  0.36600000  1.0 0.1293040655
H  H110  1  0.05700000  0.23160000  0.86600000  1.0 0.1293040655
H  H111  1  0.72450000  0.93350000  0.30180000  1.0 0.1201469974
H  H112  1  0.06650000  0.27550000  0.80180000  1.0 0.1201469974
H  H113  1  0.60620000  0.41220000  0.65240000  1.0 0.1129714367
H  H114  1  0.58780000  0.39380000  0.15240000  1.0 0.1129714367
H  H115  1  0.45380000  0.41480000  0.61690000  1.0 0.1380291173
H  H116  1  0.58520000  0.54620000  0.11690000  1.0 0.1380291173
H  H117  1  0.40090000  0.16650000  0.53870000  1.0 0.1380291173
H  H118  1  0.83350000  0.59910000  0.03870000  1.0 0.1380291173
H  H119  1  0.55080000  0.16040000  0.57500000  1.0 0.1293040655
H  H120  1  0.83960000  0.44920000  0.07500000  1.0 0.1293040655
H  H121  1  0.58540000  0.75280000  0.64530000  1.0 0.1293040655
H  H122  1  0.24720000  0.41460000  0.14530000  1.0 0.1293040655
H  H123  1  0.63180000  0.67020000  0.63850000  1.0 0.1380291173
H  H124  1  0.32980000  0.36820000  0.13850000  1.0 0.1380291173
H  H125  1  0.54530000  0.63450000  0.67500000  1.0 0.1380291173
H  H126  1  0.36550000  0.45470000  0.17500000  1.0 0.1380291173
H  H127  1  0.90960000  0.85520000  0.70580000  1.0 0.1380291173
H  H128  1  0.14480000  0.09040000  0.20580000  1.0 0.1380291173
H  H129  1  0.75220000  0.69020000  0.70880000  1.0 0.1380291173
H  H130  1  0.30980000  0.24780000  0.20880000  1.0 0.1380291173
H  H131  1  0.84490000  0.74730000  0.67190000  1.0 0.1380291173
H  H132  1  0.25270000  0.15510000  0.17190000  1.0 0.1380291173
H  H133  1  0.68000000  0.22840000  0.76030000  1.0 0.2593562235
H  H134  1  0.63120000  0.24140000  0.79450000  1.0 0.2593562235
H  H135  1  0.88490000  0.41070000  0.79600000  1.0 0.1293040655
H  H136  1  0.83590000  0.49350000  0.79530000  1.0 0.1293040655
H  H137  1  0.88810000  0.48110000  0.75810000  1.0 0.1293040655
H  H138  1  0.49750000  0.21310000  0.74430000  1.0 0.1380291173
H  H139  1  0.64680000  0.35780000  0.72600000  1.0 0.1293040655
H  H140  1  0.59110000  0.36810000  0.76290000  1.0 0.1201469974
H  H141  1  0.22840000  0.68000000  0.73970000  1.0 0.2593562235
H  H142  1  0.24140000  0.63120000  0.70550000  1.0 0.2593562235
H  H143  1  0.41070000  0.88490000  0.70400000  1.0 0.1293040655
H  H144  1  0.49350000  0.83590000  0.70470000  1.0 0.1293040655
H  H145  1  0.48110000  0.88810000  0.74190000  1.0 0.1293040655
H  H146  1  0.21310000  0.49750000  0.75570000  1.0 0.1380291173
H  H147  1  0.35780000  0.64680000  0.77400000  1.0 0.1293040655
H  H148  1  0.36810000  0.59110000  0.73710000  1.0 0.1201469974
H  H149  1  0.32000000  0.77160000  0.23970000  1.0 0.2593562235
H  H150  1  0.36880000  0.75860000  0.20550000  1.0 0.2593562235
H  H151  1  0.11510000  0.58930000  0.20400000  1.0 0.1293040655
H  H152  1  0.16410000  0.50650000  0.20470000  1.0 0.1293040655
H  H153  1  0.11190000  0.51890000  0.24190000  1.0 0.1293040655
H  H154  1  0.50250000  0.78690000  0.25570000  1.0 0.1380291173
H  H155  1  0.35320000  0.64220000  0.27400000  1.0 0.1293040655
H  H156  1  0.40890000  0.63190000  0.23710000  1.0 0.1201469974
H  H157  1  0.77160000  0.32000000  0.26030000  1.0 0.2593562235
H  H158  1  0.75860000  0.36880000  0.29450000  1.0 0.2593562235
H  H159  1  0.58930000  0.11510000  0.29600000  1.0 0.1293040655
H  H160  1  0.50650000  0.16410000  0.29530000  1.0 0.1293040655
H  H161  1  0.51890000  0.11190000  0.25810000  1.0 0.1293040655
H  H162  1  0.78690000  0.50250000  0.24430000  1.0 0.1380291173
H  H163  1  0.64220000  0.35320000  0.22600000  1.0 0.1293040655
H  H164  1  0.63190000  0.40890000  0.26290000  1.0 0.1201469974
C  C1  1  0.11020000  0.86900000  0.96961000  1.0 -0.0510946722
C  C2  1  0.13100000  0.88980000  0.46961000  1.0 -0.0510946722
C  C3  1  0.16550000  0.87410000  0.00576000  1.0 0.0915843551
C  C4  1  0.12590000  0.83450000  0.50576000  1.0 0.0915843551
C  C5  1  0.23770000  0.99610000  0.02895000  1.0 -0.0593374127
C  C6  1  0.00390000  0.76230000  0.52895000  1.0 -0.0593374127
C  C7  1  0.25140000  0.11200000  0.01646000  1.0 0.0915843551
C  C8  1  0.88800000  0.74860000  0.51646000  1.0 0.0915843551
C  C9  1  0.18695000  0.10125000  0.98227000  1.0 -0.0510946722
C  C10  1  0.89875000  0.81305000  0.48227000  1.0 -0.0510946722
C  C11  1  0.11830000  0.98190000  0.95837000  1.0 0.1002315775
C  C12  1  0.01810000  0.88170000  0.45837000  1.0 0.1002315775
C  C13  1  0.03770000  0.74050000  0.94372000  1.0 -0.0593374127
C  C14  1  0.25950000  0.96230000  0.44372000  1.0 -0.0593374127
C  C15  1  0.14350000  0.74250000  0.01885000  1.0 -0.4587625037
C  C16  1  0.25750000  0.85650000  0.51885000  1.0 -0.4587625037
C  C17  1  0.28600000  0.99800000  0.06865000  1.0 -0.0593374127
C  C18  1  0.00200000  0.71400000  0.56865000  1.0 -0.0593374127
C  C19  1  0.34030000  0.25230000  0.04111000  1.0 -0.4587625037
C  C20  1  0.74770000  0.65970000  0.54111000  1.0 -0.4587625037
C  C21  1  0.18455000  0.21605000  0.97144000  1.0 -0.0593374127
C  C22  1  0.78395000  0.81545000  0.47144000  1.0 -0.0593374127
C  C23  1  0.05250000  0.97090000  0.91995000  1.0 -0.4660991202
C  C24  1  0.02910000  0.94750000  0.41995000  1.0 -0.4660991202
C  C25  1  0.45628000  0.12292000  0.86151000  1.0 0.5466837366
C  C26  1  0.87708000  0.54372000  0.36151000  1.0 0.5466837366
C  C27  1  0.57110000  0.25410000  0.88583000  1.0 -0.0510946722
C  C28  1  0.74590000  0.42890000  0.38583000  1.0 -0.0510946722
C  C29  1  0.52780000  0.29100000  0.91293000  1.0 -0.0910736318
C  C30  1  0.70900000  0.47220000  0.41293000  1.0 -0.0910736318
C  C31  1  0.63420000  0.41620000  0.93428000  1.0 -0.2205360285
C  C32  1  0.58380000  0.36580000  0.43428000  1.0 -0.2205360285
C  C33  1  0.78370000  0.50530000  0.92953000  1.0 0.2394175162
C  C34  1  0.49470000  0.21630000  0.42953000  1.0 0.2394175162
C  C35  1  0.82650000  0.46710000  0.90331000  1.0 -0.2263474311
C  C36  1  0.53290000  0.17350000  0.40331000  1.0 -0.2263474311
C  C37  1  0.72030000  0.34170000  0.88203000  1.0 -0.100948758
C  C38  1  0.65830000  0.27970000  0.38203000  1.0 -0.100948758
C  C39  1  0.14310000  0.81230000  0.24886000  1.0 0.5293508847
C  C40  1  0.18770000  0.85690000  0.74886000  1.0 0.5293508847
C  C41  1  0.15130000  0.84630000  0.20663000  1.0 -0.0510946722
C  C42  1  0.15370000  0.84870000  0.70663000  1.0 -0.0510946722
C  C43  1  0.28310000  0.93350000  0.18748000  1.0 -0.0910736318
C  C44  1  0.06650000  0.71690000  0.68748000  1.0 -0.0910736318
C  C45  1  0.29040000  0.96180000  0.14913000  1.0 -0.2263474311
C  C46  1  0.03820000  0.70960000  0.64913000  1.0 -0.2263474311
C  C47  1  0.16240000  0.89800000  0.12889000  1.0 0.2394175162
C  C48  1  0.10200000  0.83760000  0.62889000  1.0 0.2394175162
C  C49  1  0.02940000  0.81020000  0.14746000  1.0 -0.2205360285
C  C50  1  0.18980000  0.97060000  0.64746000  1.0 -0.2205360285
C  C51  1  0.02400000  0.78440000  0.18592000  1.0 -0.100948758
C  C52  1  0.21560000  0.97600000  0.68592000  1.0 -0.100948758
C  C53  1  0.26960000  0.68560000  0.85831000  1.0 0.5293508847
C  C54  1  0.31440000  0.73040000  0.35831000  1.0 0.5293508847
C  C55  1  0.28050000  0.59150000  0.88255000  1.0 -0.035150859
C  C56  1  0.40850000  0.71950000  0.38255000  1.0 -0.035150859
C  C57  1  0.36060000  0.56380000  0.87016000  1.0 -0.1097610924
C  C58  1  0.43620000  0.63940000  0.37016000  1.0 -0.1097610924
C  C59  1  0.36220000  0.47300000  0.89168000  1.0 -0.2205360285
C  C60  1  0.52700000  0.63780000  0.39168000  1.0 -0.2205360285
C  C61  1  0.28946000  0.40974000  0.92515000  1.0 0.2394175162
C  C62  1  0.59026000  0.71054000  0.42515000  1.0 0.2394175162
C  C63  1  0.21450000  0.44010000  0.93820000  1.0 -0.2205360285
C  C64  1  0.55990000  0.78550000  0.43820000  1.0 -0.2205360285
C  C65  1  0.21200000  0.53080000  0.91620000  1.0 -0.0821474041
C  C66  1  0.46920000  0.78800000  0.41620000  1.0 -0.0821474041
C  C67  1  0.96130000  0.81250000  0.82110000  1.0 0.152029932
C  C68  1  0.18750000  0.03870000  0.32110000  1.0 0.152029932
C  C69  1  0.71150000  0.61850000  0.84270000  1.0 -0.2514136653
C  C70  1  0.38150000  0.28850000  0.34270000  1.0 -0.2514136653
C  C71  1  0.77440000  0.82040000  0.80800000  1.0 -0.3294832031
C  C72  1  0.17960000  0.22560000  0.30800000  1.0 -0.3294832031
C  C73  1  0.86900000  0.11020000  0.53039000  1.0 -0.0510946722
C  C74  1  0.88980000  0.13100000  0.03039000  1.0 -0.0510946722
C  C75  1  0.87410000  0.16550000  0.49424000  1.0 0.0915843551
C  C76  1  0.83450000  0.12590000  0.99424000  1.0 0.0915843551
C  C77  1  0.99610000  0.23770000  0.47105000  1.0 -0.0593374127
C  C78  1  0.76230000  0.00390000  0.97105000  1.0 -0.0593374127
C  C79  1  0.11200000  0.25140000  0.48354000  1.0 0.0915843551
C  C80  1  0.74860000  0.88800000  0.98354000  1.0 0.0915843551
C  C81  1  0.10125000  0.18695000  0.51773000  1.0 -0.0510946722
C  C82  1  0.81305000  0.89875000  0.01773000  1.0 -0.0510946722
C  C83  1  0.98190000  0.11830000  0.54163000  1.0 0.1002315775
C  C84  1  0.88170000  0.01810000  0.04163000  1.0 0.1002315775
C  C85  1  0.74050000  0.03770000  0.55628000  1.0 -0.0593374127
C  C86  1  0.96230000  0.25950000  0.05628000  1.0 -0.0593374127
C  C87  1  0.74250000  0.14350000  0.48115000  1.0 -0.4587625037
C  C88  1  0.85650000  0.25750000  0.98115000  1.0 -0.4587625037
C  C89  1  0.99800000  0.28600000  0.43135000  1.0 -0.0593374127
C  C90  1  0.71400000  0.00200000  0.93135000  1.0 -0.0593374127
C  C91  1  0.25230000  0.34030000  0.45889000  1.0 -0.4587625037
C  C92  1  0.65970000  0.74770000  0.95889000  1.0 -0.4587625037
C  C93  1  0.21605000  0.18455000  0.52856000  1.0 -0.0593374127
C  C94  1  0.81545000  0.78395000  0.02856000  1.0 -0.0593374127
C  C95  1  0.97090000  0.05250000  0.58005000  1.0 -0.4660991202
C  C96  1  0.94750000  0.02910000  0.08005000  1.0 -0.4660991202
C  C97  1  0.12292000  0.45628000  0.63849000  1.0 0.5466837366
C  C98  1  0.54372000  0.87708000  0.13849000  1.0 0.5466837366
C  C99  1  0.25410000  0.57110000  0.61417000  1.0 -0.0510946722
C  C100  1  0.42890000  0.74590000  0.11417000  1.0 -0.0510946722
C  C101  1  0.29100000  0.52780000  0.58707000  1.0 -0.0910736318
C  C102  1  0.47220000  0.70900000  0.08707000  1.0 -0.0910736318
C  C103  1  0.41620000  0.63420000  0.56572000  1.0 -0.2205360285
C  C104  1  0.36580000  0.58380000  0.06572000  1.0 -0.2205360285
C  C105  1  0.50530000  0.78370000  0.57047000  1.0 0.2394175162
C  C106  1  0.21630000  0.49470000  0.07047000  1.0 0.2394175162
C  C107  1  0.46710000  0.82650000  0.59669000  1.0 -0.2263474311
C  C108  1  0.17350000  0.53290000  0.09669000  1.0 -0.2263474311
C  C109  1  0.34170000  0.72030000  0.61797000  1.0 -0.100948758
C  C110  1  0.27970000  0.65830000  0.11797000  1.0 -0.100948758
C  C111  1  0.81230000  0.14310000  0.25114000  1.0 0.5293508847
C  C112  1  0.85690000  0.18770000  0.75114000  1.0 0.5293508847
C  C113  1  0.84630000  0.15130000  0.29337000  1.0 -0.0510946722
C  C114  1  0.84870000  0.15370000  0.79337000  1.0 -0.0510946722
C  C115  1  0.93350000  0.28310000  0.31252000  1.0 -0.0910736318
C  C116  1  0.71690000  0.06650000  0.81252000  1.0 -0.0910736318
C  C117  1  0.96180000  0.29040000  0.35087000  1.0 -0.2263474311
C  C118  1  0.70960000  0.03820000  0.85087000  1.0 -0.2263474311
C  C119  1  0.89800000  0.16240000  0.37111000  1.0 0.2394175162
C  C120  1  0.83760000  0.10200000  0.87111000  1.0 0.2394175162
C  C121  1  0.81020000  0.02940000  0.35254000  1.0 -0.2205360285
C  C122  1  0.97060000  0.18980000  0.85254000  1.0 -0.2205360285
C  C123  1  0.78440000  0.02400000  0.31408000  1.0 -0.100948758
C  C124  1  0.97600000  0.21560000  0.81408000  1.0 -0.100948758
C  C125  1  0.68560000  0.26960000  0.64169000  1.0 0.5293508847
C  C126  1  0.73040000  0.31440000  0.14169000  1.0 0.5293508847
C  C127  1  0.59150000  0.28050000  0.61745000  1.0 -0.035150859
C  C128  1  0.71950000  0.40850000  0.11745000  1.0 -0.035150859
C  C129  1  0.56380000  0.36060000  0.62984000  1.0 -0.1097610924
C  C130  1  0.63940000  0.43620000  0.12984000  1.0 -0.1097610924
C  C131  1  0.47300000  0.36220000  0.60832000  1.0 -0.2205360285
C  C132  1  0.63780000  0.52700000  0.10832000  1.0 -0.2205360285
C  C133  1  0.40974000  0.28946000  0.57485000  1.0 0.2394175162
C  C134  1  0.71054000  0.59026000  0.07485000  1.0 0.2394175162
C  C135  1  0.44010000  0.21450000  0.56180000  1.0 -0.2205360285
C  C136  1  0.78550000  0.55990000  0.06180000  1.0 -0.2205360285
C  C137  1  0.53080000  0.21200000  0.58380000  1.0 -0.0821474041
C  C138  1  0.78800000  0.46920000  0.08380000  1.0 -0.0821474041
C  C139  1  0.81250000  0.96130000  0.67890000  1.0 0.152029932
C  C140  1  0.03870000  0.18750000  0.17890000  1.0 0.152029932
C  C141  1  0.61850000  0.71150000  0.65730000  1.0 -0.2514136653
C  C142  1  0.28850000  0.38150000  0.15730000  1.0 -0.2514136653
C  C143  1  0.82040000  0.77440000  0.69200000  1.0 -0.3294832031
C  C144  1  0.22560000  0.17960000  0.19200000  1.0 -0.3294832031
C  C145  1  0.83600000  0.43100000  0.78130000  1.0 -0.2967537349
C  C146  1  0.59640000  0.30860000  0.74940000  1.0 -0.2832071106
C  C147  1  0.43100000  0.83600000  0.71870000  1.0 -0.2967537349
C  C148  1  0.30860000  0.59640000  0.75060000  1.0 -0.2832071106
C  C149  1  0.16400000  0.56900000  0.21870000  1.0 -0.2967537349
C  C150  1  0.40360000  0.69140000  0.25060000  1.0 -0.2832071106
C  C151  1  0.56900000  0.16400000  0.28130000  1.0 -0.2967537349
C  C152  1  0.69140000  0.40360000  0.24940000  1.0 -0.2832071106
N  N1  1  0.82120000  0.75080000  0.82402000  1.0 -0.0013293885
N  N2  1  0.24920000  0.17880000  0.32402000  1.0 -0.0013293885
N  N3  1  0.75080000  0.82120000  0.67598000  1.0 -0.0013293885
N  N4  1  0.17880000  0.24920000  0.17598000  1.0 -0.0013293885
N  N5  1  0.67910000  0.28790000  0.77259000  1.0 -0.1097610924
N  N6  1  0.28790000  0.67910000  0.72741000  1.0 -0.1097610924
N  N7  1  0.32090000  0.71210000  0.22741000  1.0 -0.1097610924
N  N8  1  0.71210000  0.32090000  0.27259000  1.0 -0.1097610924
O  O1  1  0.32088000  0.03532000  0.86826000  1.0 -0.5289503182
O  O2  1  0.96468000  0.67912000  0.36826000  1.0 -0.5289503182
O  O3  1  0.49694000  0.10026000  0.83325000  1.0 -0.5781368534
O  O4  1  0.89974000  0.50306000  0.33325000  1.0 -0.5781368534
O  O5  1  0.87889000  0.62991000  0.95212000  1.0 -0.2147262018
O  O6  1  0.37009000  0.12111000  0.45212000  1.0 -0.2147262018
O  O7  1  0.03140000  0.75900000  0.26623000  1.0 -0.538307182
O  O8  1  0.24100000  0.96860000  0.76623000  1.0 -0.538307182
O  O9  1  0.25038000  0.84162000  0.26451000  1.0 -0.538307182
O  O10  1  0.15838000  0.74962000  0.76451000  1.0 -0.538307182
O  O11  1  0.15510000  0.91890000  0.09112000  1.0 -0.1805939446
O  O12  1  0.08110000  0.84490000  0.59112000  1.0 -0.1805939446
O  O13  1  0.18362000  0.69438000  0.86988000  1.0 -0.538307182
O  O14  1  0.30562000  0.81638000  0.36988000  1.0 -0.538307182
O  O15  1  0.34246000  0.75034000  0.82943000  1.0 -0.5289503182
O  O16  1  0.24966000  0.65754000  0.32943000  1.0 -0.5289503182
O  O17  1  0.29581000  0.31739000  0.94336000  1.0 -0.185340635
O  O18  1  0.68261000  0.70419000  0.44336000  1.0 -0.185340635
O  O19  1  0.99663000  0.75657000  0.83123000  1.0 -0.2947403709
O  O20  1  0.24343000  0.00337000  0.33123000  1.0 -0.2967537349
O  O21  1  0.03532000  0.32088000  0.63174000  1.0 -0.5289503182
O  O22  1  0.67912000  0.96468000  0.13174000  1.0 -0.5289503182
O  O23  1  0.10026000  0.49694000  0.66675000  1.0 -0.5781368534
O  O24  1  0.50306000  0.89974000  0.16675000  1.0 -0.5781368534
O  O25  1  0.62991000  0.87889000  0.54788000  1.0 -0.2147262018
O  O26  1  0.12111000  0.37009000  0.04788000  1.0 -0.2147262018
O  O27  1  0.75900000  0.03140000  0.23377000  1.0 -0.538307182
O  O28  1  0.96860000  0.24100000  0.73377000  1.0 -0.538307182
O  O29  1  0.84162000  0.25038000  0.23549000  1.0 -0.538307182
O  O30  1  0.74962000  0.15838000  0.73549000  1.0 -0.538307182
O  O31  1  0.91890000  0.15510000  0.40888000  1.0 -0.1805939446
O  O32  1  0.84490000  0.08110000  0.90888000  1.0 -0.1805939446
O  O33  1  0.69438000  0.18362000  0.63012000  1.0 -0.538307182
O  O34  1  0.81638000  0.30562000  0.13012000  1.0 -0.538307182
O  O35  1  0.75034000  0.34246000  0.67057000  1.0 -0.5289503182
O  O36  1  0.65754000  0.24966000  0.17057000  1.0 -0.5289503182
O  O37  1  0.31739000  0.29581000  0.55664000  1.0 -0.185340635
O  O38  1  0.70419000  0.68261000  0.05664000  1.0 -0.185340635
O  O39  1  0.75657000  0.99663000  0.66877000  1.0 -0.2967537349
O  O40  1  0.00337000  0.24343000  0.16877000  1.0 -0.2967537349
