# DDEC6 charges by PACMAN v1.1 (https://github.com/mtap-research/PACMAN-charge/)
data_VAZJAK_ASR_pacman
_symmetry_space_group_name_H-M   'P 1'
_cell_length_a   16.50250000
_cell_length_b   9.97460000
_cell_length_c   20.19310000
_cell_angle_alpha   90.00000000
_cell_angle_beta   94.95200000
_cell_angle_gamma   90.00000000
_symmetry_Int_Tables_number   1
_chemical_formula_structural   Zn2H48C73N5O16
_chemical_formula_sum   'Zn4 H96 C146 N10 O32'
_cell_volume   3311.49520007
_cell_formula_units_Z   2
loop_
 _symmetry_equiv_pos_site_id
 _symmetry_equiv_pos_as_xyz
  1  'x, y, z'
loop_
 _atom_site_type_symbol
 _atom_site_label
 _atom_site_symmetry_multiplicity
 _atom_site_fract_x
 _atom_site_fract_y
 _atom_site_fract_z
 _atom_site_occupancy
 _atom_site_charge
Zn  Zn1  1  0.40751000  0.70875000  0.31667000  1.0 0.763114397
Zn  Zn2  1  0.90751000  0.29125000  0.31667000  1.0 0.763114397
Zn  Zn3  1  0.11154000  0.72751000  0.65772000  1.0 0.8102865858
Zn  Zn4  1  0.61154000  0.27249000  0.65772000  1.0 0.8102865858
H  H1  1  0.47250000  0.54310000  0.20710000  1.0 0.1200565001
H  H2  1  0.48020000  0.55100000  0.08880000  1.0 0.1200565001
H  H3  1  0.37400000  0.90490000  0.08070000  1.0 0.1323319884
H  H4  1  0.34580000  0.88430000  0.19520000  1.0 0.0986798058
H  H5  1  0.39830000  0.83980000  0.97540000  1.0 0.0986798058
H  H6  1  0.45800000  0.57430000  0.98490000  1.0 0.0986798058
H  H7  1  0.45890000  0.50360000  0.86800000  1.0 0.0986798058
H  H8  1  0.48160000  0.54070000  0.75180000  1.0 0.0986798058
H  H9  1  0.40880000  0.91550000  0.76470000  1.0 0.1095600155
H  H10  1  0.41680000  0.91570000  0.88250000  1.0 0.081319085
H  H11  1  0.41680000  0.82580000  0.65910000  1.0 0.1200565001
H  H12  1  0.48320000  0.57560000  0.64980000  1.0 0.1200565001
H  H13  1  0.39640000  0.89180000  0.44640000  1.0 0.1095600155
H  H14  1  0.40830000  0.87020000  0.55720000  1.0 0.0986798058
H  H15  1  0.49330000  0.49190000  0.53670000  1.0 0.0986798058
H  H16  1  0.47980000  0.52440000  0.41730000  1.0 0.0683577476
H  H17  1  0.20370000  0.01090000  0.30990000  1.0 0.1200565001
H  H18  1  0.17680000  0.41540000  0.31090000  1.0 0.1323319884
H  H19  1  0.40020000  0.25080000  0.31500000  1.0 0.1095600155
H  H20  1  0.50130000  0.49180000  0.88030000  1.0 0.0986798058
H  H21  1  0.50590000  0.48040000  0.77370000  1.0 0.0892203429
H  H22  1  0.43440000  0.85150000  0.75220000  1.0 0.0986798058
H  H23  1  0.39460000  0.85450000  0.87070000  1.0 0.0986798058
H  H24  1  0.48620000  0.56810000  0.66420000  1.0 0.0986798058
H  H25  1  0.41440000  0.81920000  0.65250000  1.0 0.1200565001
H  H26  1  0.40130000  0.91420000  0.42830000  1.0 0.0683577476
H  H27  1  0.40440000  0.93010000  0.54420000  1.0 0.0892203429
H  H28  1  0.45850000  0.53390000  0.56100000  1.0 0.0986798058
H  H29  1  0.45610000  0.51420000  0.44510000  1.0 0.0986798058
H  H30  1  0.97250000  0.45690000  0.20710000  1.0 0.1200565001
H  H31  1  0.98020000  0.44900000  0.08880000  1.0 0.1200565001
H  H32  1  0.87400000  0.09510000  0.08070000  1.0 0.1323319884
H  H33  1  0.84580000  0.11570000  0.19520000  1.0 0.0986798058
H  H34  1  0.89830000  0.16020000  0.97540000  1.0 0.0986798058
H  H35  1  0.95800000  0.42570000  0.98490000  1.0 0.0986798058
H  H36  1  0.95890000  0.49640000  0.86800000  1.0 0.0986798058
H  H37  1  0.98160000  0.45930000  0.75180000  1.0 0.0986798058
H  H38  1  0.90880000  0.08450000  0.76470000  1.0 0.1095600155
H  H39  1  0.91680000  0.08430000  0.88250000  1.0 0.081319085
H  H40  1  0.91680000  0.17420000  0.65910000  1.0 0.1200565001
H  H41  1  0.98320000  0.42440000  0.64980000  1.0 0.1200565001
H  H42  1  0.89640000  0.10820000  0.44640000  1.0 0.1095600155
H  H43  1  0.90830000  0.12980000  0.55720000  1.0 0.0986798058
H  H44  1  0.99330000  0.50810000  0.53670000  1.0 0.0986798058
H  H45  1  0.97980000  0.47560000  0.41730000  1.0 0.0683577476
H  H46  1  0.70370000  0.98910000  0.30990000  1.0 0.1200565001
H  H47  1  0.67680000  0.58460000  0.31090000  1.0 0.1323319884
H  H48  1  0.90020000  0.74920000  0.31500000  1.0 0.1095600155
H  H49  1  0.00130000  0.50820000  0.88030000  1.0 0.0986798058
H  H50  1  0.00590000  0.51960000  0.77370000  1.0 0.0986798058
H  H51  1  0.93440000  0.14850000  0.75220000  1.0 0.0986798058
H  H52  1  0.89460000  0.14550000  0.87070000  1.0 0.0986798058
H  H53  1  0.98620000  0.43190000  0.66420000  1.0 0.0986798058
H  H54  1  0.91440000  0.18080000  0.65250000  1.0 0.1200565001
H  H55  1  0.90130000  0.08580000  0.42830000  1.0 0.0683577476
H  H56  1  0.90440000  0.06990000  0.54420000  1.0 0.0892203429
H  H57  1  0.95850000  0.46610000  0.56100000  1.0 0.0986798058
H  H58  1  0.95610000  0.48580000  0.44510000  1.0 0.0986798058
H  H59  1  0.00710000  0.78120000  0.77420000  1.0 0.0986798058
H  H60  1  0.24030000  0.72520000  0.77460000  1.0 0.1095600155
H  H61  1  0.01230000  0.76920000  0.88910000  1.0 0.1095600155
H  H62  1  0.25560000  0.72820000  0.88920000  1.0 0.1095600155
H  H63  1  0.81500000  0.97630000  0.65630000  1.0 0.1095600155
H  H64  1  0.86050000  0.57520000  0.65770000  1.0 0.1095600155
H  H65  1  0.19980000  0.72540000  0.99730000  1.0 0.1200565001
H  H66  1  0.03410000  0.75720000  0.99420000  1.0 0.1095600155
H  H67  1  0.63010000  0.71530000  0.66410000  1.0 0.1323319884
H  H68  1  0.97100000  0.77870000  0.08820000  1.0 0.1095600155
H  H69  1  0.21110000  0.72180000  0.10940000  1.0 0.1095600155
H  H70  1  0.96490000  0.77220000  0.20190000  1.0 0.1200565001
H  H71  1  0.20530000  0.71600000  0.22450000  1.0 0.1356762989
H  H72  1  0.02640000  0.74400000  0.31310000  1.0 0.1095600155
H  H73  1  0.19000000  0.75020000  0.32890000  1.0 0.1605434908
H  H74  1  0.00750000  0.78450000  0.41310000  1.0 0.1200565001
H  H75  1  0.24890000  0.72610000  0.44370000  1.0 0.1323319884
H  H76  1  0.00010000  0.78260000  0.52800000  1.0 0.0986798058
H  H77  1  0.23550000  0.72430000  0.55810000  1.0 0.1095600155
H  H78  1  0.50710000  0.21880000  0.77420000  1.0 0.0986798058
H  H79  1  0.74030000  0.27480000  0.77460000  1.0 0.1095600155
H  H80  1  0.51230000  0.23080000  0.88910000  1.0 0.1095600155
H  H81  1  0.75560000  0.27180000  0.88920000  1.0 0.1095600155
H  H82  1  0.31500000  0.02370000  0.65630000  1.0 0.1095600155
H  H83  1  0.36050000  0.42480000  0.65770000  1.0 0.1095600155
H  H84  1  0.69980000  0.27460000  0.99730000  1.0 0.1200565001
H  H85  1  0.53410000  0.24280000  0.99420000  1.0 0.1095600155
H  H86  1  0.13010000  0.28470000  0.66410000  1.0 0.1323319884
H  H87  1  0.47100000  0.22130000  0.08820000  1.0 0.1095600155
H  H88  1  0.71110000  0.27820000  0.10940000  1.0 0.1095600155
H  H89  1  0.46490000  0.22780000  0.20190000  1.0 0.1200565001
H  H90  1  0.70530000  0.28400000  0.22450000  1.0 0.1356762989
H  H91  1  0.52640000  0.25600000  0.31310000  1.0 0.1095600155
H  H92  1  0.69000000  0.24980000  0.32890000  1.0 0.1605434908
H  H93  1  0.50750000  0.21550000  0.41310000  1.0 0.1200565001
H  H94  1  0.74890000  0.27390000  0.44370000  1.0 0.1323319884
H  H95  1  0.50010000  0.21740000  0.52800000  1.0 0.0986798058
H  H96  1  0.73550000  0.27570000  0.55810000  1.0 0.1095600155
C  C1  1  0.44760000  0.61510000  0.18210000  1.0 0.1518162644
C  C2  1  0.45130000  0.61770000  0.11080000  1.0 -0.2136118183
C  C3  1  0.41100000  0.72210000  0.07530000  1.0 0.1518162644
C  C4  1  0.38600000  0.82400000  0.10460000  1.0 -0.1741337733
C  C5  1  0.37590000  0.81700000  0.17480000  1.0 0.0892203429
C  C6  1  0.41400000  0.75680000  0.99570000  1.0 -0.1874032462
C  C7  1  0.44020000  0.65720000  0.96560000  1.0 -0.1101067899
C  C8  1  0.43790000  0.69800000  0.88600000  1.0 0.0414732319
C  C9  1  0.45300000  0.59000000  0.84860000  1.0 -0.0598616272
C  C10  1  0.46010000  0.61100000  0.77720000  1.0 0.0080019178
C  C11  1  0.43620000  0.72900000  0.74640000  1.0 0.002964657
C  C12  1  0.42190000  0.83300000  0.78670000  1.0 -0.0918986953
C  C13  1  0.42360000  0.83700000  0.85710000  1.0 -0.0728692469
C  C14  1  0.43640000  0.74240000  0.67680000  1.0 -0.0520540116
C  C15  1  0.45950000  0.65690000  0.63310000  1.0 -0.0598616272
C  C16  1  0.41580000  0.80860000  0.46440000  1.0 0.0585037625
C  C17  1  0.42280000  0.79760000  0.53020000  1.0 -0.0281767616
C  C18  1  0.45230000  0.67460000  0.55970000  1.0 0.0536009657
C  C19  1  0.47310000  0.57440000  0.51840000  1.0 -0.1005893158
C  C20  1  0.46470000  0.59270000  0.44660000  1.0 0.0683577476
C  C21  1  0.36470000  0.99400000  0.32130000  1.0 0.4780432029
C  C22  1  0.30830000  0.11430000  0.31160000  1.0 -0.0728692469
C  C23  1  0.22690000  0.09810000  0.31010000  1.0 -0.1161497639
C  C24  1  0.17740000  0.21210000  0.30880000  1.0 0.0080019178
C  C25  1  0.21070000  0.33850000  0.31010000  1.0 -0.0598616272
C  C26  1  0.29460000  0.35250000  0.31030000  1.0 0.002964657
C  C27  1  0.34270000  0.24130000  0.31270000  1.0 -0.1628953325
C  C28  1  0.08710000  0.18950000  0.29970000  1.0 0.3378555818
C  C29  1  0.33460000  0.49000000  0.31470000  1.0 0.5304745777
C  C30  1  0.45630000  0.65700000  0.88580000  1.0 0.0208908362
C  C31  1  0.48110000  0.56700000  0.85510000  1.0 -0.0818549128
C  C32  1  0.48410000  0.55800000  0.79260000  1.0 -0.1101067899
C  C33  1  0.45390000  0.66900000  0.74980000  1.0 0.0279289769
C  C34  1  0.43700000  0.77100000  0.77780000  1.0 0.002964657
C  C35  1  0.42100000  0.78300000  0.85070000  1.0 -0.0281767616
C  C36  1  0.46190000  0.64800000  0.67880000  1.0 -0.0598616272
C  C37  1  0.43570000  0.73900000  0.63550000  1.0 -0.0728692469
C  C38  1  0.41260000  0.83500000  0.45360000  1.0 0.081319085
C  C39  1  0.41560000  0.84700000  0.52350000  1.0 -0.1005893158
C  C40  1  0.43620000  0.72900000  0.56160000  1.0 0.0683577476
C  C41  1  0.44800000  0.61100000  0.53390000  1.0 -0.0407940516
C  C42  1  0.44480000  0.60000000  0.46270000  1.0 0.0585037625
C  C43  1  0.36520000  0.99600000  0.30260000  1.0 0.4718306555
C  C44  1  0.08790000  0.19290000  0.32690000  1.0 0.3454155369
C  C45  1  0.94760000  0.38490000  0.18210000  1.0 0.1518162644
C  C46  1  0.95130000  0.38230000  0.11080000  1.0 -0.2136118183
C  C47  1  0.91100000  0.27790000  0.07530000  1.0 0.1518162644
C  C48  1  0.88600000  0.17600000  0.10460000  1.0 -0.1741337733
C  C49  1  0.87590000  0.18300000  0.17480000  1.0 0.0892203429
C  C50  1  0.91400000  0.24320000  0.99570000  1.0 -0.1874032462
C  C51  1  0.94020000  0.34280000  0.96560000  1.0 -0.1101067899
C  C52  1  0.93790000  0.30200000  0.88600000  1.0 0.0414732319
C  C53  1  0.95300000  0.41000000  0.84860000  1.0 -0.0598616272
C  C54  1  0.96010000  0.38900000  0.77720000  1.0 0.0080019178
C  C55  1  0.93620000  0.27100000  0.74640000  1.0 0.002964657
C  C56  1  0.92190000  0.16700000  0.78670000  1.0 -0.0918986953
C  C57  1  0.92360000  0.16300000  0.85710000  1.0 -0.0728692469
C  C58  1  0.93640000  0.25760000  0.67680000  1.0 -0.0520540116
C  C59  1  0.95950000  0.34310000  0.63310000  1.0 -0.0520540116
C  C60  1  0.91580000  0.19140000  0.46440000  1.0 0.0585037625
C  C61  1  0.92280000  0.20240000  0.53020000  1.0 -0.0281767616
C  C62  1  0.95230000  0.32540000  0.55970000  1.0 0.0536009657
C  C63  1  0.97310000  0.42560000  0.51840000  1.0 -0.1005893158
C  C64  1  0.96470000  0.40730000  0.44660000  1.0 0.0683577476
C  C65  1  0.86470000  0.00600000  0.32130000  1.0 0.4780432029
C  C66  1  0.80830000  0.88570000  0.31160000  1.0 -0.0728692469
C  C67  1  0.72690000  0.90190000  0.31010000  1.0 -0.1161497639
C  C68  1  0.67740000  0.78790000  0.30880000  1.0 0.0080019178
C  C69  1  0.71070000  0.66150000  0.31010000  1.0 -0.0598616272
C  C70  1  0.79460000  0.64750000  0.31030000  1.0 0.002964657
C  C71  1  0.84270000  0.75870000  0.31270000  1.0 -0.1628953325
C  C72  1  0.58710000  0.81050000  0.29970000  1.0 0.3378555818
C  C73  1  0.83460000  0.51000000  0.31470000  1.0 0.5304745777
C  C74  1  0.95630000  0.34300000  0.88580000  1.0 0.0208908362
C  C75  1  0.98110000  0.43300000  0.85510000  1.0 -0.0818549128
C  C76  1  0.98410000  0.44200000  0.79260000  1.0 -0.1101067899
C  C77  1  0.95390000  0.33100000  0.74980000  1.0 0.0279289769
C  C78  1  0.93700000  0.22900000  0.77780000  1.0 0.002964657
C  C79  1  0.92100000  0.21700000  0.85070000  1.0 -0.0281767616
C  C80  1  0.96190000  0.35200000  0.67880000  1.0 -0.0520540116
C  C81  1  0.93570000  0.26100000  0.63550000  1.0 -0.0728692469
C  C82  1  0.91260000  0.16500000  0.45360000  1.0 0.081319085
C  C83  1  0.91560000  0.15300000  0.52350000  1.0 -0.1005893158
C  C84  1  0.93620000  0.27100000  0.56160000  1.0 0.0683577476
C  C85  1  0.94800000  0.38900000  0.53390000  1.0 -0.0407940516
C  C86  1  0.94480000  0.40000000  0.46270000  1.0 0.0585037625
C  C87  1  0.86520000  0.00400000  0.30260000  1.0 0.4718306555
C  C88  1  0.58790000  0.80710000  0.32690000  1.0 0.3454155369
C  C89  1  0.05820000  0.76310000  0.79780000  1.0 0.0892203429
C  C90  1  0.19340000  0.73330000  0.79840000  1.0 0.0080019178
C  C91  1  0.93910000  0.80770000  0.65530000  1.0 0.5304745777
C  C92  1  0.06080000  0.76070000  0.86720000  1.0 -0.2364909233
C  C93  1  0.20270000  0.73480000  0.86690000  1.0 -0.2022926566
C  C94  1  0.85100000  0.77950000  0.65690000  1.0 -0.0107264781
C  C95  1  0.13570000  0.74570000  0.90370000  1.0 0.1605434908
C  C96  1  0.79590000  0.88660000  0.65730000  1.0 -0.1499726133
C  C97  1  0.82330000  0.64780000  0.65820000  1.0 -0.2022926566
C  C98  1  0.14620000  0.73770000  0.97700000  1.0 -0.1499726133
C  C99  1  0.71320000  0.86100000  0.65910000  1.0 -0.0107264781
C  C100  1  0.74020000  0.62370000  0.66030000  1.0 0.0279289769
C  C101  1  0.08710000  0.74640000  0.01600000  1.0 -0.1313050247
C  C102  1  0.65630000  0.97680000  0.65890000  1.0 0.5577464743
C  C103  1  0.68640000  0.73200000  0.66150000  1.0 -0.1313050247
C  C104  1  0.70820000  0.48440000  0.66280000  1.0 0.5119919224
C  C105  1  0.09120000  0.74200000  0.08690000  1.0 0.1095600155
C  C106  1  0.01940000  0.76230000  0.11590000  1.0 -0.1499726133
C  C107  1  0.16010000  0.72910000  0.12750000  1.0 -0.1394562305
C  C108  1  0.01580000  0.75950000  0.18410000  1.0 -0.1313050247
C  C109  1  0.15620000  0.72660000  0.19680000  1.0 -0.1161497639
C  C110  1  0.08400000  0.73880000  0.22620000  1.0 0.1200565001
C  C111  1  0.07960000  0.74380000  0.29850000  1.0 -0.0918986953
C  C112  1  0.13660000  0.74770000  0.34290000  1.0 -0.0918986953
C  C113  1  0.12950000  0.74900000  0.41700000  1.0 0.1722639097
C  C114  1  0.05510000  0.76960000  0.44210000  1.0 -0.2022926566
C  C115  1  0.19680000  0.73520000  0.45980000  1.0 -0.1874032462
C  C116  1  0.05120000  0.76810000  0.51090000  1.0 0.0986798058
C  C117  1  0.18840000  0.73440000  0.52790000  1.0 0.0414732319
C  C118  1  0.55820000  0.23690000  0.79780000  1.0 0.0892203429
C  C119  1  0.69340000  0.26670000  0.79840000  1.0 0.0080019178
C  C120  1  0.43910000  0.19230000  0.65530000  1.0 0.5304745777
C  C121  1  0.56080000  0.23930000  0.86720000  1.0 -0.2364909233
C  C122  1  0.70270000  0.26520000  0.86690000  1.0 -0.2022926566
C  C123  1  0.35100000  0.22050000  0.65690000  1.0 -0.0107264781
C  C124  1  0.63570000  0.25430000  0.90370000  1.0 0.1605434908
C  C125  1  0.29590000  0.11340000  0.65730000  1.0 -0.1499726133
C  C126  1  0.32330000  0.35220000  0.65820000  1.0 -0.2022926566
C  C127  1  0.64620000  0.26230000  0.97700000  1.0 -0.1499726133
C  C128  1  0.21320000  0.13900000  0.65910000  1.0 -0.0107264781
C  C129  1  0.24020000  0.37630000  0.66030000  1.0 0.0279289769
C  C130  1  0.58710000  0.25360000  0.01600000  1.0 -0.1313050247
C  C131  1  0.15630000  0.02320000  0.65890000  1.0 0.5577464743
C  C132  1  0.18640000  0.26800000  0.66150000  1.0 -0.1313050247
C  C133  1  0.20820000  0.51560000  0.66280000  1.0 0.5119919224
C  C134  1  0.59120000  0.25800000  0.08690000  1.0 0.1095600155
C  C135  1  0.51940000  0.23770000  0.11590000  1.0 -0.1499726133
C  C136  1  0.66010000  0.27090000  0.12750000  1.0 -0.1394562305
C  C137  1  0.51580000  0.24050000  0.18410000  1.0 -0.1313050247
C  C138  1  0.65620000  0.27340000  0.19680000  1.0 -0.1161497639
C  C139  1  0.58400000  0.26120000  0.22620000  1.0 0.1200565001
C  C140  1  0.57960000  0.25620000  0.29850000  1.0 -0.0918986953
C  C141  1  0.63660000  0.25230000  0.34290000  1.0 -0.0918986953
C  C142  1  0.62950000  0.25100000  0.41700000  1.0 0.1722639097
C  C143  1  0.55510000  0.23040000  0.44210000  1.0 -0.2022926566
C  C144  1  0.69680000  0.26480000  0.45980000  1.0 -0.1874032462
C  C145  1  0.55120000  0.23190000  0.51090000  1.0 0.0986798058
C  C146  1  0.68840000  0.26560000  0.52790000  1.0 0.0414732319
N  N1  1  0.41040000  0.71050000  0.21300000  1.0 -0.2364909233
N  N2  1  0.43270000  0.71800000  0.42270000  1.0 -0.2136118183
N  N3  1  0.42590000  0.70700000  0.41520000  1.0 -0.2607337889
N  N4  1  0.91040000  0.28950000  0.21300000  1.0 -0.2364909233
N  N5  1  0.93270000  0.28200000  0.42270000  1.0 -0.2136118183
N  N6  1  0.92590000  0.29300000  0.41520000  1.0 -0.2543594198
N  N7  1  0.11840000  0.74320000  0.76360000  1.0 -0.2136118183
N  N8  1  0.11420000  0.74770000  0.55230000  1.0 -0.2136118183
N  N9  1  0.61840000  0.25680000  0.76360000  1.0 -0.2136118183
N  N10  1  0.61420000  0.25230000  0.55230000  1.0 -0.2136118183
O  O1  1  0.33333333  0.88100000  0.31400000  1.0 -0.4984392183
O  O2  1  0.44010000  0.01960000  0.32870000  1.0 -0.2189033957
O  O3  1  0.06300000  0.07850000  0.27590000  1.0 -0.2260785954
O  O4  1  0.04100000  0.27600000  0.31800000  1.0 -0.431536998
O  O5  1  0.29190000  0.59110000  0.31490000  1.0 -0.449069451
O  O6  1  0.41000000  0.49200000  0.31350000  1.0 -0.4720332281
O  O7  1  0.34500000  0.88000000  0.31400000  1.0 -0.4421334596
O  O8  1  0.43410000  0.02910000  0.28440000  1.0 -0.1628953325
O  O9  1  0.07050000  0.07840000  0.34600000  1.0 -0.2607337889
O  O10  1  0.04200000  0.28900000  0.31500000  1.0 -0.4720332281
O  O11  1  0.83333000  0.11900000  0.31400000  1.0 -0.4984392183
O  O12  1  0.94010000  0.98040000  0.32870000  1.0 -0.2189033957
O  O13  1  0.56300000  0.92150000  0.27590000  1.0 -0.2260785954
O  O14  1  0.54100000  0.72400000  0.31800000  1.0 -0.431536998
O  O15  1  0.79190000  0.40890000  0.31490000  1.0 -0.449069451
O  O16  1  0.91000000  0.50800000  0.31350000  1.0 -0.4720332281
O  O17  1  0.84500000  0.12000000  0.31400000  1.0 -0.4421334596
O  O18  1  0.93410000  0.97090000  0.28440000  1.0 -0.1628953325
O  O19  1  0.57050000  0.92160000  0.34600000  1.0 -0.2607337889
O  O20  1  0.54200000  0.71100000  0.31500000  1.0 -0.4720332281
O  O21  1  0.13170000  0.53250000  0.65810000  1.0 -0.5105671244
O  O22  1  0.25430000  0.61540000  0.66666667  1.0 -0.5383245604
O  O23  1  0.98840000  0.71350000  0.65240000  1.0 -0.5292173581
O  O24  1  0.17700000  0.90990000  0.66300000  1.0 -0.4421334596
O  O25  1  0.95940000  0.93090000  0.65730000  1.0 -0.5500827389
O  O26  1  0.58130000  0.94210000  0.64970000  1.0 -0.5500827389
O  O27  1  0.63170000  0.46750000  0.65810000  1.0 -0.5105671244
O  O28  1  0.75430000  0.38460000  0.66666667  1.0 -0.5383245604
O  O29  1  0.48840000  0.28650000  0.65240000  1.0 -0.5292173581
O  O30  1  0.67700000  0.09010000  0.66300000  1.0 -0.4421334596
O  O31  1  0.45940000  0.06910000  0.65730000  1.0 -0.5500827389
O  O32  1  0.08130000  0.05790000  0.64970000  1.0 -0.5500827389
