# DDEC6 charges by PACMAN v1.1 (https://github.com/mtap-research/PACMAN-charge/)
data_VECVIL_ASR_pacman
_symmetry_space_group_name_H-M   'P 1'
_cell_length_a   12.31130000
_cell_length_b   12.31130000
_cell_length_c   12.31130000
_cell_angle_alpha   114.14300000
_cell_angle_beta   114.14300000
_cell_angle_gamma   100.48400000
_symmetry_Int_Tables_number   1
_chemical_formula_structural   U3H18C10(NO10)2
_chemical_formula_sum   'U6 H36 C20 N4 O40'
_cell_volume   1410.55462819
_cell_formula_units_Z   2
loop_
 _symmetry_equiv_pos_site_id
 _symmetry_equiv_pos_as_xyz
  1  'x, y, z'
loop_
 _atom_site_type_symbol
 _atom_site_label
 _atom_site_symmetry_multiplicity
 _atom_site_fract_x
 _atom_site_fract_y
 _atom_site_fract_z
 _atom_site_occupancy
 _atom_site_charge
U  U1  1  0.60050000  0.68170000  0.27226000  1.0 2.4291414316
U  U2  1  0.40944000  0.32824000  0.72774000  1.0 2.4291414316
U  U3  1  0.31830000  0.59056000  0.91880000  1.0 2.4291414316
U  U4  1  0.67176000  0.39950000  0.08120000  1.0 2.4351814485
U  U5  1  0.32563000  0.32563000  0.00000000  1.0 2.2298511958
U  U6  1  0.67437000  0.67437000  0.00000000  1.0 2.2298511958
H  H1  1  0.95350000  0.62880000  0.62930000  1.0 0.1530511698
H  H2  1  0.86809000  0.47453000  0.54172000  1.0 0.1364221371
H  H3  1  0.79008000  0.66588000  0.67526000  1.0 0.0787459521
H  H4  1  0.85549000  0.58937000  0.74104000  1.0 0.0787459521
H  H5  1  0.60255000  0.47240000  0.48927000  1.0 0.1530511698
H  H6  1  0.66912000  0.38688000  0.53728000  1.0 0.1364221371
H  H7  1  0.84566000  0.68620000  0.26970000  1.0 0.4125000632
H  H8  1  0.17988000  0.14756000  0.07384000  1.0 0.3144359088
H  H9  1  0.07639000  0.12889000  0.96058000  1.0 0.2594048774
H  H10  1  0.99950000  0.32420000  0.37070000  1.0 0.1530511698
H  H11  1  0.93281000  0.32637000  0.45828000  1.0 0.1364221371
H  H12  1  0.99062000  0.11482000  0.32474000  1.0 0.0787459521
H  H13  1  0.84833000  0.11445000  0.25896000  1.0 0.0787459521
H  H14  1  0.98313000  0.11328000  0.51073000  1.0 0.1530511698
H  H15  1  0.84960000  0.13184000  0.46272000  1.0 0.1364221371
H  H16  1  0.41650000  0.57596000  0.73030000  1.0 0.4125000632
H  H17  1  0.07372000  0.10604000  0.92616000  1.0 0.3144359088
H  H18  1  0.16831000  0.11581000  0.03942000  1.0 0.2594048774
H  H19  1  0.37120000  0.00050000  0.32470000  1.0 0.1530511698
H  H20  1  0.52547000  0.06719000  0.39356000  1.0 0.1364221371
H  H21  1  0.33412000  0.00938000  0.12420000  1.0 0.0787459521
H  H22  1  0.41063000  0.15167000  0.26612000  1.0 0.0787459521
H  H23  1  0.52760000  0.01687000  0.13015000  1.0 0.1530511698
H  H24  1  0.61312000  0.15040000  0.28224000  1.0 0.1364221371
H  H25  1  0.31380000  0.58350000  0.15946000  1.0 0.4125000632
H  H26  1  0.85244000  0.92628000  0.03232000  1.0 0.3144359088
H  H27  1  0.87111000  0.83169000  0.94750000  1.0 0.2594048774
H  H28  1  0.67580000  0.04650000  0.67530000  1.0 0.1530511698
H  H29  1  0.67363000  0.13191000  0.60644000  1.0 0.1364221371
H  H30  1  0.88518000  0.20992000  0.87580000  1.0 0.0787459521
H  H31  1  0.88555000  0.14451000  0.73388000  1.0 0.0787459521
H  H32  1  0.88672000  0.39745000  0.86985000  1.0 0.1530511698
H  H33  1  0.86816000  0.33088000  0.71776000  1.0 0.1364221371
H  H34  1  0.42404000  0.15434000  0.84054000  1.0 0.4125000632
H  H35  1  0.89396000  0.82012000  0.96768000  1.0 0.3144359088
H  H36  1  0.88419000  0.92361000  0.05250000  1.0 0.2594048774
C  C1  1  0.79560000  0.56040000  0.43400000  1.0 0.7024317479
C  C2  1  0.86270000  0.55990000  0.56740000  1.0 -0.3491858148
C  C3  1  0.79830000  0.58190000  0.65140000  1.0 -0.1113544607
C  C4  1  0.66280000  0.47210000  0.57230000  1.0 -0.3365448618
C  C5  1  0.60540000  0.48400000  0.66160000  1.0 0.6874912477
C  C6  1  0.12640000  0.36160000  0.56600000  1.0 0.7024317479
C  C7  1  0.99250000  0.29530000  0.43260000  1.0 -0.3491858148
C  C8  1  0.93050000  0.14690000  0.34860000  1.0 -0.1113544607
C  C9  1  0.89980000  0.09050000  0.42770000  1.0 -0.3365448618
C  C10  1  0.82240000  0.94380000  0.33840000  1.0 0.6874912477
C  C11  1  0.43960000  0.87360000  0.23520000  1.0 0.7024317479
C  C12  1  0.44010000  0.00750000  0.30280000  1.0 -0.3491858148
C  C13  1  0.41810000  0.06950000  0.21640000  1.0 -0.1113544607
C  C14  1  0.52790000  0.10020000  0.19070000  1.0 -0.3365448618
C  C15  1  0.51600000  0.17760000  0.12140000  1.0 0.6874912477
C  C16  1  0.63840000  0.20440000  0.76480000  1.0 0.7024317479
C  C17  1  0.70470000  0.13730000  0.69720000  1.0 -0.3491858148
C  C18  1  0.85310000  0.20170000  0.78360000  1.0 -0.1113544607
C  C19  1  0.90950000  0.33720000  0.80930000  1.0 -0.3365448618
C  C20  1  0.05620000  0.39460000  0.87860000  1.0 0.6874912477
N  N1  1  0.58810000  0.75220000  0.53530000  1.0 0.7180739141
N  N2  1  0.21690000  0.05280000  0.46470000  1.0 0.7180739141
N  N3  1  0.24780000  0.78310000  0.83590000  1.0 0.7180739141
N  N4  1  0.94720000  0.41190000  0.16410000  1.0 0.7180739141
O  O1  1  0.74280000  0.64000000  0.43720000  1.0 -0.6415105366
O  O2  1  0.79930000  0.48660000  0.33130000  1.0 -0.6126457655
O  O3  1  0.49990000  0.38960000  0.61050000  1.0 -0.6415105366
O  O4  1  0.66630000  0.58660000  0.78250000  1.0 -0.6415105366
O  O5  1  0.75012000  0.63472000  0.19440000  1.0 -1.0698488855
O  O6  1  0.53920000  0.46130000  0.14390000  1.0 -1.1202789747
O  O7  1  0.50330000  0.65550000  0.41160000  1.0 -0.4894516
O  O8  1  0.67740000  0.83540000  0.54960000  1.0 -0.4825626814
O  O9  1  0.58310000  0.76470000  0.63900000  1.0 -0.415639227
O  O10  1  0.16080000  0.17180000  0.01500000  1.0 -0.4639629825
O  O11  1  0.20280000  0.30560000  0.56280000  1.0 -0.6415105366
O  O12  1  0.15530000  0.46800000  0.66870000  1.0 -0.6126457655
O  O13  1  0.77910000  0.88940000  0.38950000  1.0 -0.6415105366
O  O14  1  0.80410000  0.88380000  0.21750000  1.0 -0.6415105366
O  O15  1  0.44032000  0.55572000  0.80560000  1.0 -1.0698488855
O  O16  1  0.31740000  0.39530000  0.85610000  1.0 -1.1202789747
O  O17  1  0.24390000  0.09170000  0.58840000  1.0 -0.4894516
O  O18  1  0.28580000  0.12780000  0.45040000  1.0 -0.4825626814
O  O19  1  0.12570000  0.94410000  0.36100000  1.0 -0.415639227
O  O20  1  0.15680000  0.14580000  0.98500000  1.0 -0.4639629825
O  O21  1  0.36000000  0.79720000  0.10280000  1.0 -0.6415105366
O  O22  1  0.51340000  0.84470000  0.31270000  1.0 -0.6126457655
O  O23  1  0.61040000  0.22090000  0.11030000  1.0 -0.6415105366
O  O24  1  0.41340000  0.19590000  0.07970000  1.0 -0.6415105366
O  O25  1  0.36528000  0.55968000  0.11540000  1.0 -1.0698488855
O  O26  1  0.53870000  0.68260000  0.07790000  1.0 -1.1202789747
O  O27  1  0.34450000  0.75610000  0.84780000  1.0 -0.4894516
O  O28  1  0.16460000  0.71420000  0.84200000  1.0 -0.4825626814
O  O29  1  0.23530000  0.87430000  0.81840000  1.0 -0.415639227
O  O30  1  0.82820000  0.84320000  0.98900000  1.0 -0.4653487706
O  O31  1  0.69440000  0.25720000  0.89720000  1.0 -0.6415105366
O  O32  1  0.53200000  0.20070000  0.68730000  1.0 -0.6126457655
O  O33  1  0.11060000  0.50010000  0.88970000  1.0 -0.6415105366
O  O34  1  0.11620000  0.33370000  0.92030000  1.0 -0.6415105366
O  O35  1  0.44428000  0.24988000  0.88460000  1.0 -1.0698488855
O  O36  1  0.60470000  0.46080000  0.92210000  1.0 -1.1202789747
O  O37  1  0.90830000  0.49670000  0.15220000  1.0 -0.4894516
O  O38  1  0.87220000  0.32260000  0.15800000  1.0 -0.4825626814
O  O39  1  0.05590000  0.41690000  0.18160000  1.0 -0.415639227
O  O40  1  0.85420000  0.83920000  0.01100000  1.0 -0.4639629825
