# DDEC6 charges by PACMAN v1.1 (https://github.com/mtap-research/PACMAN-charge/)
data_VECVUW_FSR_pacman
_symmetry_space_group_name_H-M   'P 1'
_cell_length_a   23.42610000
_cell_length_b   23.42610000
_cell_length_c   12.20330000
_cell_angle_alpha   90.00000000
_cell_angle_beta   90.00000000
_cell_angle_gamma   120.00000000
_symmetry_Int_Tables_number   1
_chemical_formula_structural   AgC4N3F8
_chemical_formula_sum   'Ag18 C72 N54 F144'
_cell_volume   5799.73172724
_cell_formula_units_Z   18
loop_
 _symmetry_equiv_pos_site_id
 _symmetry_equiv_pos_as_xyz
  1  'x, y, z'
loop_
 _atom_site_type_symbol
 _atom_site_label
 _atom_site_symmetry_multiplicity
 _atom_site_fract_x
 _atom_site_fract_y
 _atom_site_fract_z
 _atom_site_occupancy
 _atom_site_charge
Ag  Ag1  1  0.59112000  0.06003000  0.00000000  1.0 0.3136447855
Ag  Ag2  1  0.93997000  0.53109000  0.00000000  1.0 0.3136447855
Ag  Ag3  1  0.46891000  0.40888000  0.00000000  1.0 0.3136447855
Ag  Ag4  1  0.40888000  0.93997000  0.00000000  1.0 0.3136447855
Ag  Ag5  1  0.06003000  0.46891000  0.00000000  1.0 0.3136447855
Ag  Ag6  1  0.53109000  0.59112000  0.00000000  1.0 0.3136447855
Ag  Ag7  1  0.76156000  0.20753000  0.00000000  1.0 0.3483180839
Ag  Ag8  1  0.79247000  0.55403000  0.00000000  1.0 0.3483180839
Ag  Ag9  1  0.44597000  0.23844000  0.00000000  1.0 0.3483180839
Ag  Ag10  1  0.23844000  0.79247000  0.00000000  1.0 0.3483180839
Ag  Ag11  1  0.20753000  0.44597000  0.00000000  1.0 0.3483180839
Ag  Ag12  1  0.55403000  0.76156000  0.00000000  1.0 0.3483180839
Ag  Ag13  1  0.70950000  0.10985000  0.50000000  1.0 0.3483180839
Ag  Ag14  1  0.89015000  0.59965000  0.50000000  1.0 0.3483180839
Ag  Ag15  1  0.40035000  0.29050000  0.50000000  1.0 0.3483180839
Ag  Ag16  1  0.29050000  0.89015000  0.50000000  1.0 0.3483180839
Ag  Ag17  1  0.10985000  0.40035000  0.50000000  1.0 0.3483180839
Ag  Ag18  1  0.59965000  0.70950000  0.50000000  1.0 0.3483180839
C  C1  1  0.57850000  0.91150000  0.00000000  1.0 0.0705754348
C  C2  1  0.08850000  0.66700000  0.00000000  1.0 0.0705754348
C  C3  1  0.33300000  0.42150000  0.00000000  1.0 0.0705754348
C  C4  1  0.42150000  0.08850000  0.00000000  1.0 0.0705754348
C  C5  1  0.91150000  0.33300000  0.00000000  1.0 0.0705754348
C  C6  1  0.66700000  0.57850000  0.00000000  1.0 0.0705754348
C  C7  1  0.65190000  0.94110000  0.00000000  1.0 0.6118320861
C  C8  1  0.05890000  0.71080000  0.00000000  1.0 0.6118320861
C  C9  1  0.28920000  0.34810000  0.00000000  1.0 0.6118320861
C  C10  1  0.34810000  0.05890000  0.00000000  1.0 0.6118320861
C  C11  1  0.94110000  0.28920000  0.00000000  1.0 0.6118320861
C  C12  1  0.71080000  0.65190000  0.00000000  1.0 0.6118320861
C  C13  1  0.47870000  0.84550000  0.00000000  1.0 0.0868176186
C  C14  1  0.15450000  0.63320000  0.00000000  1.0 0.0868176186
C  C15  1  0.36680000  0.52130000  0.00000000  1.0 0.0868176186
C  C16  1  0.52130000  0.15450000  0.00000000  1.0 0.0868176186
C  C17  1  0.84550000  0.36680000  0.00000000  1.0 0.0868176186
C  C18  1  0.63320000  0.47870000  0.00000000  1.0 0.0868176186
C  C19  1  0.41380000  0.78240000  0.00000000  1.0 0.6118320861
C  C20  1  0.21760000  0.63140000  0.00000000  1.0 0.6118320861
C  C21  1  0.36860000  0.58620000  0.00000000  1.0 0.6154569426
C  C22  1  0.58620000  0.21760000  0.00000000  1.0 0.6118320861
C  C23  1  0.78240000  0.36860000  0.00000000  1.0 0.6154569426
C  C24  1  0.63140000  0.41380000  0.00000000  1.0 0.6118320861
C  C25  1  0.65460000  0.07360000  0.25830000  1.0 0.0175378687
C  C26  1  0.92640000  0.58100000  0.25830000  1.0 0.0175378687
C  C27  1  0.41900000  0.34540000  0.25830000  1.0 0.0148989932
C  C28  1  0.34540000  0.92640000  0.25830000  1.0 0.0148989932
C  C29  1  0.07360000  0.41900000  0.25830000  1.0 0.0175378687
C  C30  1  0.58100000  0.65460000  0.25830000  1.0 0.0175378687
C  C31  1  0.34540000  0.92640000  0.74170000  1.0 0.0148989932
C  C32  1  0.07360000  0.41900000  0.74170000  1.0 0.0148989932
C  C33  1  0.58100000  0.65460000  0.74170000  1.0 0.0175378687
C  C34  1  0.65460000  0.07360000  0.74170000  1.0 0.0175378687
C  C35  1  0.92640000  0.58100000  0.74170000  1.0 0.0175378687
C  C36  1  0.41900000  0.34540000  0.74170000  1.0 0.0175378687
C  C37  1  0.59880000  0.01080000  0.29810000  1.0 0.3885610924
C  C38  1  0.98920000  0.58800000  0.29810000  1.0 0.3885610924
C  C39  1  0.41200000  0.40120000  0.29810000  1.0 0.3885610924
C  C40  1  0.40120000  0.98920000  0.29810000  1.0 0.3885610924
C  C41  1  0.01080000  0.41200000  0.29810000  1.0 0.3885610924
C  C42  1  0.58800000  0.59880000  0.29810000  1.0 0.3885610924
C  C43  1  0.40120000  0.98920000  0.70190000  1.0 0.3885610924
C  C44  1  0.01080000  0.41200000  0.70190000  1.0 0.3885610924
C  C45  1  0.58800000  0.59880000  0.70190000  1.0 0.3845480495
C  C46  1  0.59880000  0.01080000  0.70190000  1.0 0.3845480495
C  C47  1  0.98920000  0.58800000  0.70190000  1.0 0.3845480495
C  C48  1  0.41200000  0.40120000  0.70190000  1.0 0.3845480495
C  C49  1  0.74230000  0.16120000  0.25610000  1.0 0.1128239608
C  C50  1  0.83880000  0.58110000  0.25610000  1.0 0.1128239608
C  C51  1  0.41890000  0.25770000  0.25610000  1.0 0.1128239608
C  C52  1  0.25770000  0.83880000  0.25610000  1.0 0.1128239608
C  C53  1  0.16120000  0.41890000  0.25610000  1.0 0.1128239608
C  C54  1  0.58110000  0.74230000  0.25610000  1.0 0.1128239608
C  C55  1  0.25770000  0.83880000  0.74390000  1.0 0.1128239608
C  C56  1  0.16120000  0.41890000  0.74390000  1.0 0.1128239608
C  C57  1  0.58110000  0.74230000  0.74390000  1.0 0.1128239608
C  C58  1  0.74230000  0.16120000  0.74390000  1.0 0.1128239608
C  C59  1  0.83880000  0.58110000  0.74390000  1.0 0.1128239608
C  C60  1  0.41890000  0.25770000  0.74390000  1.0 0.1128239608
C  C61  1  0.80760000  0.21960000  0.28710000  1.0 0.5908278414
C  C62  1  0.78040000  0.58800000  0.28710000  1.0 0.5908278414
C  C63  1  0.41200000  0.19240000  0.28710000  1.0 0.5908278414
C  C64  1  0.19240000  0.78040000  0.28710000  1.0 0.5908278414
C  C65  1  0.21960000  0.41200000  0.28710000  1.0 0.5908278414
C  C66  1  0.58800000  0.80760000  0.28710000  1.0 0.5908278414
C  C67  1  0.19240000  0.78040000  0.71290000  1.0 0.5908278414
C  C68  1  0.21960000  0.41200000  0.71290000  1.0 0.5908278414
C  C69  1  0.58800000  0.80760000  0.71290000  1.0 0.5908278414
C  C70  1  0.80760000  0.21960000  0.71290000  1.0 0.5908278414
C  C71  1  0.78040000  0.58800000  0.71290000  1.0 0.5908278414
C  C72  1  0.41200000  0.19240000  0.71290000  1.0 0.5908278414
N  N1  1  0.55020000  0.94830000  0.00000000  1.0 -0.3092015447
N  N2  1  0.05170000  0.60190000  0.00000000  1.0 -0.3092015447
N  N3  1  0.39810000  0.44980000  0.00000000  1.0 -0.3092015447
N  N4  1  0.44980000  0.05170000  0.00000000  1.0 -0.3092015447
N  N5  1  0.94830000  0.39810000  0.00000000  1.0 -0.3092015447
N  N6  1  0.60190000  0.55020000  0.00000000  1.0 -0.3092015447
N  N7  1  0.48400000  0.90510000  0.00000000  1.0 -0.2615212487
N  N8  1  0.09490000  0.57890000  0.00000000  1.0 -0.2615212487
N  N9  1  0.42110000  0.51600000  0.00000000  1.0 -0.2615212487
N  N10  1  0.51600000  0.09490000  0.00000000  1.0 -0.2615212487
N  N11  1  0.90510000  0.42110000  0.00000000  1.0 -0.2615212487
N  N12  1  0.57890000  0.48400000  0.00000000  1.0 -0.2615212487
N  N13  1  0.53600000  0.84670000  0.00000000  1.0 -0.3641236088
N  N14  1  0.15330000  0.68930000  0.00000000  1.0 -0.3659865893
N  N15  1  0.31070000  0.46400000  0.00000000  1.0 -0.3659865893
N  N16  1  0.46400000  0.15330000  0.00000000  1.0 -0.3659865893
N  N17  1  0.84670000  0.31070000  0.00000000  1.0 -0.3641236088
N  N18  1  0.68930000  0.53600000  0.00000000  1.0 -0.3659865893
N  N19  1  0.71910000  0.15280000  0.15440000  1.0 -0.1783669305
N  N20  1  0.84720000  0.56630000  0.15440000  1.0 -0.1783669305
N  N21  1  0.43370000  0.28090000  0.15440000  1.0 -0.1783669305
N  N22  1  0.28090000  0.84720000  0.15440000  1.0 -0.1783669305
N  N23  1  0.15280000  0.43370000  0.15440000  1.0 -0.1783669305
N  N24  1  0.56630000  0.71910000  0.15440000  1.0 -0.1783669305
N  N25  1  0.28090000  0.84720000  0.84560000  1.0 -0.1783669305
N  N26  1  0.15280000  0.43370000  0.84560000  1.0 -0.1783669305
N  N27  1  0.56630000  0.71910000  0.84560000  1.0 -0.1783669305
N  N28  1  0.71910000  0.15280000  0.84560000  1.0 -0.1783669305
N  N29  1  0.84720000  0.56630000  0.84560000  1.0 -0.1783669305
N  N30  1  0.43370000  0.28090000  0.84560000  1.0 -0.1783669305
N  N31  1  0.66010000  0.09460000  0.15870000  1.0 -0.172149339
N  N32  1  0.90540000  0.56550000  0.15870000  1.0 -0.172149339
N  N33  1  0.43450000  0.33990000  0.15870000  1.0 -0.172149339
N  N34  1  0.33990000  0.90540000  0.15870000  1.0 -0.172149339
N  N35  1  0.09460000  0.43450000  0.15870000  1.0 -0.172149339
N  N36  1  0.56550000  0.66010000  0.15870000  1.0 -0.172149339
N  N37  1  0.33990000  0.90540000  0.84130000  1.0 -0.172149339
N  N38  1  0.09460000  0.43450000  0.84130000  1.0 -0.172149339
N  N39  1  0.56550000  0.66010000  0.84130000  1.0 -0.172149339
N  N40  1  0.66010000  0.09460000  0.84130000  1.0 -0.172149339
N  N41  1  0.90540000  0.56550000  0.84130000  1.0 -0.172149339
N  N42  1  0.43450000  0.33990000  0.84130000  1.0 -0.172149339
N  N43  1  0.70410000  0.11330000  0.32710000  1.0 -0.3522811643
N  N44  1  0.88670000  0.59080000  0.32710000  1.0 -0.3522811643
N  N45  1  0.40920000  0.29590000  0.32710000  1.0 -0.3522811643
N  N46  1  0.29590000  0.88670000  0.32710000  1.0 -0.3522811643
N  N47  1  0.11330000  0.40920000  0.32710000  1.0 -0.3522811643
N  N48  1  0.59080000  0.70410000  0.32710000  1.0 -0.3522811643
N  N49  1  0.29590000  0.88670000  0.67290000  1.0 -0.3522811643
N  N50  1  0.11330000  0.40920000  0.67290000  1.0 -0.3522811643
N  N51  1  0.59080000  0.70410000  0.67290000  1.0 -0.3522811643
N  N52  1  0.70410000  0.11330000  0.67290000  1.0 -0.3522811643
N  N53  1  0.88670000  0.59080000  0.67290000  1.0 -0.3522811643
N  N54  1  0.40920000  0.29590000  0.67290000  1.0 -0.3522811643
F  F1  1  0.67930000  0.97860000  0.08630000  1.0 -0.2014140457
F  F2  1  0.02140000  0.70070000  0.08630000  1.0 -0.2014140457
F  F3  1  0.29930000  0.32070000  0.08630000  1.0 -0.2014140457
F  F4  1  0.32070000  0.02140000  0.08630000  1.0 -0.2014140457
F  F5  1  0.97860000  0.29930000  0.08630000  1.0 -0.2014140457
F  F6  1  0.70070000  0.67930000  0.08630000  1.0 -0.2014140457
F  F7  1  0.32070000  0.02140000  0.91370000  1.0 -0.2014140457
F  F8  1  0.97860000  0.29930000  0.91370000  1.0 -0.2014140457
F  F9  1  0.70070000  0.67930000  0.91370000  1.0 -0.2014140457
F  F10  1  0.67930000  0.97860000  0.91370000  1.0 -0.2014140457
F  F11  1  0.02140000  0.70070000  0.91370000  1.0 -0.2014140457
F  F12  1  0.29930000  0.32070000  0.91370000  1.0 -0.2014140457
F  F13  1  0.66930000  0.89550000  0.00000000  1.0 -0.2014140457
F  F14  1  0.10450000  0.77380000  0.00000000  1.0 -0.2014140457
F  F15  1  0.22620000  0.33070000  0.00000000  1.0 -0.2014140457
F  F16  1  0.33070000  0.10450000  0.00000000  1.0 -0.2014140457
F  F17  1  0.89550000  0.22620000  0.00000000  1.0 -0.2014140457
F  F18  1  0.77380000  0.66930000  0.00000000  1.0 -0.2014140457
F  F19  1  0.40790000  0.74590000  0.08580000  1.0 -0.1878452362
F  F20  1  0.25410000  0.66200000  0.08580000  1.0 -0.1878452362
F  F21  1  0.33800000  0.59210000  0.08580000  1.0 -0.1878452362
F  F22  1  0.59210000  0.25410000  0.08580000  1.0 -0.1878452362
F  F23  1  0.74590000  0.33800000  0.08580000  1.0 -0.1878452362
F  F24  1  0.66200000  0.40790000  0.08580000  1.0 -0.1878452362
F  F25  1  0.59210000  0.25410000  0.91420000  1.0 -0.1878452362
F  F26  1  0.74590000  0.33800000  0.91420000  1.0 -0.1878452362
F  F27  1  0.66200000  0.40790000  0.91420000  1.0 -0.1878452362
F  F28  1  0.40790000  0.74590000  0.91420000  1.0 -0.1878452362
F  F29  1  0.25410000  0.66200000  0.91420000  1.0 -0.1878452362
F  F30  1  0.33800000  0.59210000  0.91420000  1.0 -0.1878452362
F  F31  1  0.36450000  0.79360000  0.00000000  1.0 -0.2203161256
F  F32  1  0.20640000  0.57090000  0.00000000  1.0 -0.2203161256
F  F33  1  0.42910000  0.63550000  0.00000000  1.0 -0.2203161256
F  F34  1  0.63550000  0.20640000  0.00000000  1.0 -0.2203161256
F  F35  1  0.79360000  0.42910000  0.00000000  1.0 -0.2203161256
F  F36  1  0.57090000  0.36450000  0.00000000  1.0 -0.2203161256
F  F37  1  0.56580000  0.01820000  0.37930000  1.0 -0.0422827482
F  F38  1  0.98180000  0.54760000  0.37930000  1.0 -0.0422827482
F  F39  1  0.45240000  0.43420000  0.37930000  1.0 -0.0422827482
F  F40  1  0.43420000  0.98180000  0.37930000  1.0 -0.0422827482
F  F41  1  0.01820000  0.45240000  0.37930000  1.0 -0.0422827482
F  F42  1  0.54760000  0.56580000  0.37930000  1.0 -0.0422827482
F  F43  1  0.43420000  0.98180000  0.62070000  1.0 -0.0422827482
F  F44  1  0.01820000  0.45240000  0.62070000  1.0 -0.0422827482
F  F45  1  0.54760000  0.56580000  0.62070000  1.0 -0.0422827482
F  F46  1  0.56580000  0.01820000  0.62070000  1.0 -0.0422827482
F  F47  1  0.98180000  0.54760000  0.62070000  1.0 -0.0422827482
F  F48  1  0.45240000  0.43420000  0.62070000  1.0 -0.0422827482
F  F49  1  0.62740000  0.97620000  0.35210000  1.0 -0.0085761467
F  F50  1  0.02380000  0.65120000  0.35210000  1.0 -0.0085761467
F  F51  1  0.34880000  0.37260000  0.35210000  1.0 -0.0085761467
F  F52  1  0.37260000  0.02380000  0.35210000  1.0 -0.0085761467
F  F53  1  0.97620000  0.34880000  0.35210000  1.0 -0.0085761467
F  F54  1  0.65120000  0.62740000  0.35210000  1.0 -0.0085761467
F  F55  1  0.37260000  0.02380000  0.64790000  1.0 -0.0085761467
F  F56  1  0.97620000  0.34880000  0.64790000  1.0 -0.0085761467
F  F57  1  0.65120000  0.62740000  0.64790000  1.0 -0.0085761467
F  F58  1  0.62740000  0.97620000  0.64790000  1.0 -0.0085761467
F  F59  1  0.02380000  0.65120000  0.64790000  1.0 -0.0085761467
F  F60  1  0.34880000  0.37260000  0.64790000  1.0 -0.0085761467
F  F61  1  0.56150000  0.96950000  0.22620000  1.0 0.0830835793
F  F62  1  0.03050000  0.59200000  0.22620000  1.0 0.0868176186
F  F63  1  0.40800000  0.43850000  0.22620000  1.0 0.0830835793
F  F64  1  0.43850000  0.03050000  0.22620000  1.0 0.0830835793
F  F65  1  0.96950000  0.40800000  0.22620000  1.0 0.0830835793
F  F66  1  0.59200000  0.56150000  0.22620000  1.0 0.0830835793
F  F67  1  0.43850000  0.03050000  0.77380000  1.0 0.0830835793
F  F68  1  0.96950000  0.40800000  0.77380000  1.0 0.0830835793
F  F69  1  0.59200000  0.56150000  0.77380000  1.0 0.0830835793
F  F70  1  0.56150000  0.96950000  0.77380000  1.0 0.0830835793
F  F71  1  0.03050000  0.59200000  0.77380000  1.0 0.0830835793
F  F72  1  0.40800000  0.43850000  0.77380000  1.0 0.0830835793
F  F73  1  0.85630000  0.21950000  0.23470000  1.0 -0.2273679505
F  F74  1  0.78050000  0.63680000  0.23470000  1.0 -0.2273679505
F  F75  1  0.36320000  0.14370000  0.23470000  1.0 -0.2273679505
F  F76  1  0.14370000  0.78050000  0.23470000  1.0 -0.2273679505
F  F77  1  0.21950000  0.36320000  0.23470000  1.0 -0.2273679505
F  F78  1  0.63680000  0.85630000  0.23470000  1.0 -0.2273679505
F  F79  1  0.14370000  0.78050000  0.76530000  1.0 -0.2273679505
F  F80  1  0.21950000  0.36320000  0.76530000  1.0 -0.2273679505
F  F81  1  0.63680000  0.85630000  0.76530000  1.0 -0.2273679505
F  F82  1  0.85630000  0.21950000  0.76530000  1.0 -0.2273679505
F  F83  1  0.78050000  0.63680000  0.76530000  1.0 -0.2273679505
F  F84  1  0.36320000  0.14370000  0.76530000  1.0 -0.2273679505
F  F85  1  0.81840000  0.22640000  0.38980000  1.0 -0.2273679505
F  F86  1  0.77360000  0.59200000  0.38980000  1.0 -0.2273679505
F  F87  1  0.40800000  0.18160000  0.38980000  1.0 -0.2273679505
F  F88  1  0.18160000  0.77360000  0.38980000  1.0 -0.2273679505
F  F89  1  0.22640000  0.40800000  0.38980000  1.0 -0.2273679505
F  F90  1  0.59200000  0.81840000  0.38980000  1.0 -0.2273679505
F  F91  1  0.18160000  0.77360000  0.61020000  1.0 -0.2273679505
F  F92  1  0.22640000  0.40800000  0.61020000  1.0 -0.2273679505
F  F93  1  0.59200000  0.81840000  0.61020000  1.0 -0.2273679505
F  F94  1  0.81840000  0.22640000  0.61020000  1.0 -0.2273679505
F  F95  1  0.77360000  0.59200000  0.61020000  1.0 -0.2273679505
F  F96  1  0.40800000  0.18160000  0.61020000  1.0 -0.2273679505
F  F97  1  0.81150000  0.27540000  0.25240000  1.0 -0.206201254
F  F98  1  0.72460000  0.53610000  0.25240000  1.0 -0.206201254
F  F99  1  0.46390000  0.18850000  0.25240000  1.0 -0.206201254
F  F100  1  0.18850000  0.72460000  0.25240000  1.0 -0.206201254
F  F101  1  0.27540000  0.46390000  0.25240000  1.0 -0.206201254
F  F102  1  0.53610000  0.81150000  0.25240000  1.0 -0.206201254
F  F103  1  0.18850000  0.72460000  0.74760000  1.0 -0.206201254
F  F104  1  0.27540000  0.46390000  0.74760000  1.0 -0.206201254
F  F105  1  0.53610000  0.81150000  0.74760000  1.0 -0.206201254
F  F106  1  0.81150000  0.27540000  0.74760000  1.0 -0.206201254
F  F107  1  0.72460000  0.53610000  0.74760000  1.0 -0.206201254
F  F108  1  0.46390000  0.18850000  0.74760000  1.0 -0.206201254
F  F109  1  0.98880000  0.56810000  0.39920000  1.0 -0.0422827482
F  F110  1  0.43190000  0.42070000  0.39920000  1.0 -0.0422827482
F  F111  1  0.57930000  0.01120000  0.39920000  1.0 -0.0422827482
F  F112  1  0.01120000  0.43190000  0.39920000  1.0 -0.0422827482
F  F113  1  0.56810000  0.57930000  0.39920000  1.0 -0.0422827482
F  F114  1  0.42070000  0.98880000  0.39920000  1.0 -0.0422827482
F  F115  1  0.01120000  0.43190000  0.60080000  1.0 -0.0422827482
F  F116  1  0.56810000  0.57930000  0.60080000  1.0 -0.0422827482
F  F117  1  0.42070000  0.98880000  0.60080000  1.0 -0.0422827482
F  F118  1  0.98880000  0.56810000  0.60080000  1.0 -0.0422827482
F  F119  1  0.43190000  0.42070000  0.60080000  1.0 -0.0422827482
F  F120  1  0.57930000  0.01120000  0.60080000  1.0 -0.0422827482
F  F121  1  0.04270000  0.64280000  0.27730000  1.0 0.1010465617
F  F122  1  0.35720000  0.39990000  0.27730000  1.0 0.1010465617
F  F123  1  0.60010000  0.95730000  0.27730000  1.0 0.1010465617
F  F124  1  0.95730000  0.35720000  0.27730000  1.0 0.1010465617
F  F125  1  0.64280000  0.60010000  0.27730000  1.0 0.1010465617
F  F126  1  0.39990000  0.04270000  0.27730000  1.0 0.1010465617
F  F127  1  0.95730000  0.35720000  0.72270000  1.0 0.1010465617
F  F128  1  0.64280000  0.60010000  0.72270000  1.0 0.1010465617
F  F129  1  0.39990000  0.04270000  0.72270000  1.0 0.1010465617
F  F130  1  0.04270000  0.64280000  0.72270000  1.0 0.1010465617
F  F131  1  0.35720000  0.39990000  0.72270000  1.0 0.1010465617
F  F132  1  0.60010000  0.95730000  0.72270000  1.0 0.1010465617
F  F133  1  0.99960000  0.54110000  0.23620000  1.0 0.0374100896
F  F134  1  0.45890000  0.45850000  0.23620000  1.0 0.0374100896
F  F135  1  0.54150000  0.00040000  0.23620000  1.0 0.0349569061
F  F136  1  0.00040000  0.45890000  0.23620000  1.0 0.0349569061
F  F137  1  0.54110000  0.54150000  0.23620000  1.0 0.0374100896
F  F138  1  0.45850000  0.99960000  0.23620000  1.0 0.0349569061
F  F139  1  0.00040000  0.45890000  0.76380000  1.0 0.0374100896
F  F140  1  0.54110000  0.54150000  0.76380000  1.0 0.0374100896
F  F141  1  0.45850000  0.99960000  0.76380000  1.0 0.0374100896
F  F142  1  0.99960000  0.54110000  0.76380000  1.0 0.0374100896
F  F143  1  0.45890000  0.45850000  0.76380000  1.0 0.0374100896
F  F144  1  0.54150000  0.00040000  0.76380000  1.0 0.0374100896
