# DDEC6 charges by PACMAN v1.1 (https://github.com/mtap-research/PACMAN-charge/)
data_VECWUX_FSR_pacman
_symmetry_space_group_name_H-M   'P 1'
_cell_length_a   11.33730000
_cell_length_b   11.33730000
_cell_length_c   30.74600000
_cell_angle_alpha   90.00000000
_cell_angle_beta   90.00000000
_cell_angle_gamma   118.54300000
_symmetry_Int_Tables_number   1
_chemical_formula_structural   NiH16C24(N3O8)2
_chemical_formula_sum   'Ni4 H64 C96 N24 O64'
_cell_volume   3471.59679858
_cell_formula_units_Z   4
loop_
 _symmetry_equiv_pos_site_id
 _symmetry_equiv_pos_as_xyz
  1  'x, y, z'
loop_
 _atom_site_type_symbol
 _atom_site_label
 _atom_site_symmetry_multiplicity
 _atom_site_fract_x
 _atom_site_fract_y
 _atom_site_fract_z
 _atom_site_occupancy
 _atom_site_charge
Ni  Ni1  1  0.31339000  0.76635000  0.57295000  1.0 0.8284883239
Ni  Ni2  1  0.26635000  0.81339000  0.07295000  1.0 0.8284883239
Ni  Ni3  1  0.76635000  0.31339000  0.42705000  1.0 0.8284883239
Ni  Ni4  1  0.81339000  0.26635000  0.92705000  1.0 0.8284883239
H  H1  1  0.55930000  0.80890000  0.56470000  1.0 0.3887926701
H  H2  1  0.30890000  0.05930000  0.06470000  1.0 0.3887926701
H  H3  1  0.56160000  0.93640000  0.55390000  1.0 0.3887926701
H  H4  1  0.43640000  0.06160000  0.05390000  1.0 0.3887926701
H  H5  1  0.06750000  0.58370000  0.59270000  1.0 0.3646892496
H  H6  1  0.08370000  0.56750000  0.09270000  1.0 0.3646892496
H  H7  1  0.06050000  0.70690000  0.58250000  1.0 0.3887926701
H  H8  1  0.20690000  0.56050000  0.08250000  1.0 0.3887926701
H  H9  1  0.61800000  0.88000000  0.72670000  1.0 0.1076177381
H  H10  1  0.38000000  0.11800000  0.22670000  1.0 0.1076177381
H  H11  1  0.22200000  0.72860000  0.70710000  1.0 0.1382969581
H  H12  1  0.22860000  0.72200000  0.20710000  1.0 0.1382969581
H  H13  1  0.29740000  0.54620000  0.92830000  1.0 0.1382969581
H  H14  1  0.04620000  0.79740000  0.42830000  1.0 0.1382969581
H  H15  1  0.28700000  0.89360000  0.93280000  1.0 0.1524037458
H  H16  1  0.39360000  0.78700000  0.43280000  1.0 0.1524037458
H  H17  1  0.46430000  0.63130000  0.61360000  1.0 0.1076177381
H  H18  1  0.13130000  0.96430000  0.11360000  1.0 0.1076177381
H  H19  1  0.46810000  0.43450000  0.61570000  1.0 0.1282693881
H  H20  1  0.93450000  0.96810000  0.11570000  1.0 0.1282693881
H  H21  1  0.14940000  0.28060000  0.53670000  1.0 0.1224690713
H  H22  1  0.78060000  0.64940000  0.03670000  1.0 0.1224690713
H  H23  1  0.15470000  0.48530000  0.53620000  1.0 0.1076177381
H  H24  1  0.98530000  0.65470000  0.03620000  1.0 0.1076177381
H  H25  1  0.13340000  0.08980000  0.54530000  1.0 0.1282693881
H  H26  1  0.58980000  0.63340000  0.04530000  1.0 0.1282693881
H  H27  1  0.14110000  0.89210000  0.54510000  1.0 0.0998994608
H  H28  1  0.39210000  0.64110000  0.04510000  1.0 0.0998994608
H  H29  1  0.48700000  0.05700000  0.60350000  1.0 0.1076177381
H  H30  1  0.55700000  0.98700000  0.10350000  1.0 0.1076177381
H  H31  1  0.49150000  0.26030000  0.60450000  1.0 0.1282693881
H  H32  1  0.76030000  0.99150000  0.10450000  1.0 0.1282693881
H  H33  1  0.80890000  0.55930000  0.43530000  1.0 0.3887926701
H  H34  1  0.05930000  0.30890000  0.93530000  1.0 0.3887926701
H  H35  1  0.93640000  0.56160000  0.44610000  1.0 0.3887926701
H  H36  1  0.06160000  0.43640000  0.94610000  1.0 0.3887926701
H  H37  1  0.58370000  0.06750000  0.40730000  1.0 0.3646892496
H  H38  1  0.56750000  0.08370000  0.90730000  1.0 0.3646892496
H  H39  1  0.70690000  0.06050000  0.41750000  1.0 0.3887926701
H  H40  1  0.56050000  0.20690000  0.91750000  1.0 0.3887926701
H  H41  1  0.88000000  0.61800000  0.27330000  1.0 0.1076177381
H  H42  1  0.11800000  0.38000000  0.77330000  1.0 0.1076177381
H  H43  1  0.72860000  0.22200000  0.29290000  1.0 0.1382969581
H  H44  1  0.72200000  0.22860000  0.79290000  1.0 0.1382969581
H  H45  1  0.54620000  0.29740000  0.07170000  1.0 0.1382969581
H  H46  1  0.79740000  0.04620000  0.57170000  1.0 0.1382969581
H  H47  1  0.89360000  0.28700000  0.06720000  1.0 0.1524037458
H  H48  1  0.78700000  0.39360000  0.56720000  1.0 0.1524037458
H  H49  1  0.63130000  0.46430000  0.38640000  1.0 0.1076177381
H  H50  1  0.96430000  0.13130000  0.88640000  1.0 0.1076177381
H  H51  1  0.43450000  0.46810000  0.38430000  1.0 0.1282693881
H  H52  1  0.96810000  0.93450000  0.88430000  1.0 0.1282693881
H  H53  1  0.28060000  0.14940000  0.46330000  1.0 0.1224690713
H  H54  1  0.64940000  0.78060000  0.96330000  1.0 0.1224690713
H  H55  1  0.48530000  0.15470000  0.46380000  1.0 0.1076177381
H  H56  1  0.65470000  0.98530000  0.96380000  1.0 0.1076177381
H  H57  1  0.08980000  0.13340000  0.45470000  1.0 0.1282693881
H  H58  1  0.63340000  0.58980000  0.95470000  1.0 0.1282693881
H  H59  1  0.89210000  0.14110000  0.45490000  1.0 0.0998994608
H  H60  1  0.64110000  0.39210000  0.95490000  1.0 0.0998994608
H  H61  1  0.05700000  0.48700000  0.39650000  1.0 0.1076177381
H  H62  1  0.98700000  0.55700000  0.89650000  1.0 0.1076177381
H  H63  1  0.26030000  0.49150000  0.39550000  1.0 0.1282693881
H  H64  1  0.99150000  0.76030000  0.89550000  1.0 0.1282693881
C  C1  1  0.44660000  0.82700000  0.66122000  1.0 0.5643256344
C  C2  1  0.32700000  0.94660000  0.16122000  1.0 0.5643256344
C  C3  1  0.42390000  0.80790000  0.70981000  1.0 0.0095862414
C  C4  1  0.30790000  0.92390000  0.20981000  1.0 0.0095862414
C  C5  1  0.53110000  0.84510000  0.73751000  1.0 -0.1530683971
C  C6  1  0.34510000  0.03110000  0.23751000  1.0 -0.1530683971
C  C7  1  0.50630000  0.82890000  0.78262000  1.0 -0.1242375597
C  C8  1  0.32890000  0.00630000  0.28262000  1.0 -0.1242375597
C  C9  1  0.37740000  0.77640000  0.80053000  1.0 0.0153908171
C  C10  1  0.27640000  0.87740000  0.30053000  1.0 0.0153908171
C  C11  1  0.27430000  0.74130000  0.77020000  1.0 0.033708198
C  C12  1  0.24130000  0.77430000  0.27020000  1.0 0.033708198
C  C13  1  0.29440000  0.75480000  0.72597000  1.0 -0.1530683971
C  C14  1  0.25480000  0.79440000  0.22597000  1.0 -0.1530683971
C  C15  1  0.35320000  0.75700000  0.84880000  1.0 -0.0792717505
C  C16  1  0.25700000  0.85320000  0.34880000  1.0 -0.0792717505
C  C17  1  0.33930000  0.64590000  0.87046000  1.0 0.0432443209
C  C18  1  0.14590000  0.83930000  0.37046000  1.0 0.0432443209
C  C19  1  0.30390000  0.62230000  0.91474000  1.0 -0.1647645346
C  C20  1  0.12230000  0.80390000  0.41474000  1.0 -0.1658155046
C  C21  1  0.27890000  0.71270000  0.93808000  1.0 0.0095862414
C  C22  1  0.21270000  0.77890000  0.43808000  1.0 0.0095862414
C  C23  1  0.29710000  0.82850000  0.91737000  1.0 -0.1658155046
C  C24  1  0.32850000  0.79710000  0.41737000  1.0 -0.1658155046
C  C25  1  0.33030000  0.84710000  0.87380000  1.0 0.033708198
C  C26  1  0.34710000  0.83030000  0.37380000  1.0 0.033708198
C  C27  1  0.23280000  0.68580000  0.98446000  1.0 0.5523145833
C  C28  1  0.18580000  0.73280000  0.48446000  1.0 0.5523145833
C  C29  1  0.40080000  0.56000000  0.59730000  1.0 0.0620611571
C  C30  1  0.06000000  0.90080000  0.09730000  1.0 0.0620611571
C  C31  1  0.40390000  0.44190000  0.59880000  1.0 -0.1890310496
C  C32  1  0.94190000  0.90390000  0.09880000  1.0 -0.1890310496
C  C33  1  0.31180000  0.33180000  0.57510000  1.0 0.0998994608
C  C34  1  0.83180000  0.81180000  0.07510000  1.0 0.0998994608
C  C35  1  0.21620000  0.35160000  0.55210000  1.0 -0.2087734006
C  C36  1  0.85160000  0.71620000  0.05210000  1.0 -0.2087734006
C  C37  1  0.21930000  0.47530000  0.55210000  1.0 0.072257489
C  C38  1  0.97530000  0.71930000  0.05210000  1.0 0.072257489
C  C39  1  0.31270000  0.20030000  0.57544000  1.0 0.1076177381
C  C40  1  0.70030000  0.81270000  0.07544000  1.0 0.1076177381
C  C41  1  0.20690000  0.08610000  0.55720000  1.0 -0.1990619264
C  C42  1  0.58610000  0.70690000  0.05720000  1.0 -0.1990619264
C  C43  1  0.21290000  0.96750000  0.55710000  1.0 0.072257489
C  C44  1  0.46750000  0.71290000  0.05710000  1.0 0.072257489
C  C45  1  0.41560000  0.06400000  0.59120000  1.0 0.0998994608
C  C46  1  0.56400000  0.91560000  0.09120000  1.0 0.0998994608
C  C47  1  0.41830000  0.18650000  0.59230000  1.0 -0.1890310496
C  C48  1  0.68650000  0.91830000  0.09230000  1.0 -0.1890310496
C  C49  1  0.82700000  0.44660000  0.33878000  1.0 0.5643256344
C  C50  1  0.94660000  0.32700000  0.83878000  1.0 0.5643256344
C  C51  1  0.80790000  0.42390000  0.29019000  1.0 0.0095862414
C  C52  1  0.92390000  0.30790000  0.79019000  1.0 0.0095862414
C  C53  1  0.84510000  0.53110000  0.26249000  1.0 -0.1530683971
C  C54  1  0.03110000  0.34510000  0.76249000  1.0 -0.1530683971
C  C55  1  0.82890000  0.50630000  0.21738000  1.0 -0.1242375597
C  C56  1  0.00630000  0.32890000  0.71738000  1.0 -0.1242375597
C  C57  1  0.77640000  0.37740000  0.19947000  1.0 0.0153908171
C  C58  1  0.87740000  0.27640000  0.69947000  1.0 0.0153908171
C  C59  1  0.74130000  0.27430000  0.22980000  1.0 0.033708198
C  C60  1  0.77430000  0.24130000  0.72980000  1.0 0.033708198
C  C61  1  0.75480000  0.29440000  0.27403000  1.0 -0.1530683971
C  C62  1  0.79440000  0.25480000  0.77403000  1.0 -0.1530683971
C  C63  1  0.75700000  0.35320000  0.15120000  1.0 -0.0792717505
C  C64  1  0.85320000  0.25700000  0.65120000  1.0 -0.0792717505
C  C65  1  0.64590000  0.33930000  0.12954000  1.0 0.0432443209
C  C66  1  0.83930000  0.14590000  0.62954000  1.0 0.0432443209
C  C67  1  0.62230000  0.30390000  0.08526000  1.0 -0.1647645346
C  C68  1  0.80390000  0.12230000  0.58526000  1.0 -0.1647645346
C  C69  1  0.71270000  0.27890000  0.06192000  1.0 0.0095862414
C  C70  1  0.77890000  0.21270000  0.56192000  1.0 0.0095862414
C  C71  1  0.82850000  0.29710000  0.08263000  1.0 -0.1658155046
C  C72  1  0.79710000  0.32850000  0.58263000  1.0 -0.1658155046
C  C73  1  0.84710000  0.33030000  0.12620000  1.0 0.033708198
C  C74  1  0.83030000  0.34710000  0.62620000  1.0 0.033708198
C  C75  1  0.68580000  0.23280000  0.01554000  1.0 0.5523145833
C  C76  1  0.73280000  0.18580000  0.51554000  1.0 0.5523145833
C  C77  1  0.56000000  0.40080000  0.40270000  1.0 0.0620611571
C  C78  1  0.90080000  0.06000000  0.90270000  1.0 0.0620611571
C  C79  1  0.44190000  0.40390000  0.40120000  1.0 -0.1890310496
C  C80  1  0.90390000  0.94190000  0.90120000  1.0 -0.1890310496
C  C81  1  0.33180000  0.31180000  0.42490000  1.0 0.0998994608
C  C82  1  0.81180000  0.83180000  0.92490000  1.0 0.0998994608
C  C83  1  0.35160000  0.21620000  0.44790000  1.0 -0.2087734006
C  C84  1  0.71620000  0.85160000  0.94790000  1.0 -0.2087734006
C  C85  1  0.47530000  0.21930000  0.44790000  1.0 0.072257489
C  C86  1  0.71930000  0.97530000  0.94790000  1.0 0.072257489
C  C87  1  0.20030000  0.31270000  0.42456000  1.0 0.1076177381
C  C88  1  0.81270000  0.70030000  0.92456000  1.0 0.1076177381
C  C89  1  0.08610000  0.20690000  0.44280000  1.0 -0.1990619264
C  C90  1  0.70690000  0.58610000  0.94280000  1.0 -0.1990619264
C  C91  1  0.96750000  0.21290000  0.44290000  1.0 0.072257489
C  C92  1  0.71290000  0.46750000  0.94290000  1.0 0.072257489
C  C93  1  0.06400000  0.41560000  0.40880000  1.0 0.0998994608
C  C94  1  0.91560000  0.56400000  0.90880000  1.0 0.0998994608
C  C95  1  0.18650000  0.41830000  0.40770000  1.0 -0.1890310496
C  C96  1  0.91830000  0.68650000  0.90770000  1.0 -0.1890310496
N  N1  1  0.13310000  0.69070000  0.78430000  1.0 0.5085429587
N  N2  1  0.19070000  0.63310000  0.28430000  1.0 0.5085429587
N  N3  1  0.62550000  0.87010000  0.81030000  1.0 0.425995294
N  N4  1  0.37010000  0.12550000  0.31030000  1.0 0.425995294
N  N5  1  0.35920000  0.54040000  0.84780000  1.0 0.5085429587
N  N6  1  0.04040000  0.85920000  0.34780000  1.0 0.5085429587
N  N7  1  0.33220000  0.96900000  0.85420000  1.0 0.5085429587
N  N8  1  0.46900000  0.83220000  0.35420000  1.0 0.5085429587
N  N9  1  0.31180000  0.58100000  0.57394000  1.0 -0.2609782181
N  N10  1  0.08100000  0.81180000  0.07394000  1.0 -0.2609782181
N  N11  1  0.31580000  0.95420000  0.57324000  1.0 -0.2308266423
N  N12  1  0.45420000  0.81580000  0.07324000  1.0 -0.2308266423
N  N13  1  0.69070000  0.13310000  0.21570000  1.0 0.5085429587
N  N14  1  0.63310000  0.19070000  0.71570000  1.0 0.5085429587
N  N15  1  0.87010000  0.62550000  0.18970000  1.0 0.425995294
N  N16  1  0.12550000  0.37010000  0.68970000  1.0 0.425995294
N  N17  1  0.54040000  0.35920000  0.15220000  1.0 0.5085429587
N  N18  1  0.85920000  0.04040000  0.65220000  1.0 0.5085429587
N  N19  1  0.96900000  0.33220000  0.14580000  1.0 0.5085429587
N  N20  1  0.83220000  0.46900000  0.64580000  1.0 0.5085429587
N  N21  1  0.58100000  0.31180000  0.42606000  1.0 -0.2609782181
N  N22  1  0.81180000  0.08100000  0.92606000  1.0 -0.2609782181
N  N23  1  0.95420000  0.31580000  0.42676000  1.0 -0.2308266423
N  N24  1  0.81580000  0.45420000  0.92676000  1.0 -0.2308266423
O  O1  1  0.34110000  0.78170000  0.63812000  1.0 -0.5703010969
O  O2  1  0.28170000  0.84110000  0.13812000  1.0 -0.5703010969
O  O3  1  0.56520000  0.88300000  0.64779000  1.0 -0.5703010969
O  O4  1  0.38300000  0.06520000  0.14779000  1.0 -0.5703010969
O  O5  1  0.17260000  0.56640000  0.99693000  1.0 -0.5616548024
O  O6  1  0.06640000  0.67260000  0.49693000  1.0 -0.5616548024
O  O7  1  0.25900000  0.78760000  0.00692000  1.0 -0.5476345084
O  O8  1  0.28760000  0.75900000  0.50692000  1.0 -0.5476345084
O  O9  1  0.51850000  0.85470000  0.56158000  1.0 -0.6748738847
O  O10  1  0.35470000  0.01850000  0.06158000  1.0 -0.6748738847
O  O11  1  0.10590000  0.66570000  0.58509000  1.0 -0.6748738847
O  O12  1  0.16570000  0.60590000  0.08509000  1.0 -0.6748738847
O  O13  1  0.10710000  0.71630000  0.81900000  1.0 -0.2880698032
O  O14  1  0.21630000  0.60710000  0.31900000  1.0 -0.2880698032
O  O15  1  0.04510000  0.62070000  0.75980000  1.0 -0.2669605426
O  O16  1  0.12070000  0.54510000  0.25980000  1.0 -0.2669605426
O  O17  1  0.73430000  0.95570000  0.79690000  1.0 -0.0419167019
O  O18  1  0.45570000  0.23430000  0.29690000  1.0 -0.0419167019
O  O19  1  0.61450000  0.80270000  0.84280000  1.0 -0.0291935182
O  O20  1  0.30270000  0.11450000  0.34280000  1.0 -0.0291935182
O  O21  1  0.34970000  0.53190000  0.80896000  1.0 -0.3103042207
O  O22  1  0.03190000  0.84970000  0.30896000  1.0 -0.3103042207
O  O23  1  0.38380000  0.46760000  0.87050000  1.0 -0.2977715619
O  O24  1  0.96760000  0.88380000  0.37050000  1.0 -0.2977715619
O  O25  1  0.40140000  0.01560000  0.82220000  1.0 -0.3103042207
O  O26  1  0.51560000  0.90140000  0.32220000  1.0 -0.3103042207
O  O27  1  0.26320000  0.01460000  0.87030000  1.0 -0.3256578408
O  O28  1  0.51460000  0.76320000  0.37030000  1.0 -0.3256578408
O  O29  1  0.72400000  0.87000000  0.79530000  1.0 0.0998994608
O  O30  1  0.37000000  0.22400000  0.29530000  1.0 0.0946053304
O  O31  1  0.61400000  0.90200000  0.84680000  1.0 -0.062925633
O  O32  1  0.40200000  0.11400000  0.34680000  1.0 -0.062925633
O  O33  1  0.78170000  0.34110000  0.36188000  1.0 -0.5703010969
O  O34  1  0.84110000  0.28170000  0.86188000  1.0 -0.5703010969
O  O35  1  0.88300000  0.56520000  0.35221000  1.0 -0.5703010969
O  O36  1  0.06520000  0.38300000  0.85221000  1.0 -0.5703010969
O  O37  1  0.56640000  0.17260000  0.00307000  1.0 -0.5616548024
O  O38  1  0.67260000  0.06640000  0.50307000  1.0 -0.5616548024
O  O39  1  0.78760000  0.25900000  0.99308000  1.0 -0.5476345084
O  O40  1  0.75900000  0.28760000  0.49308000  1.0 -0.5476345084
O  O41  1  0.85470000  0.51850000  0.43842000  1.0 -0.6748738847
O  O42  1  0.01850000  0.35470000  0.93842000  1.0 -0.6748738847
O  O43  1  0.66570000  0.10590000  0.41491000  1.0 -0.6748738847
O  O44  1  0.60590000  0.16570000  0.91491000  1.0 -0.6748738847
O  O45  1  0.71630000  0.10710000  0.18100000  1.0 -0.2880698032
O  O46  1  0.60710000  0.21630000  0.68100000  1.0 -0.2880698032
O  O47  1  0.62070000  0.04510000  0.24020000  1.0 -0.2669605426
O  O48  1  0.54510000  0.12070000  0.74020000  1.0 -0.2669605426
O  O49  1  0.95570000  0.73430000  0.20310000  1.0 -0.0419167019
O  O50  1  0.23430000  0.45570000  0.70310000  1.0 -0.0419167019
O  O51  1  0.80270000  0.61450000  0.15720000  1.0 -0.0291935182
O  O52  1  0.11450000  0.30270000  0.65720000  1.0 -0.0291935182
O  O53  1  0.53190000  0.34970000  0.19104000  1.0 -0.3103042207
O  O54  1  0.84970000  0.03190000  0.69104000  1.0 -0.3103042207
O  O55  1  0.46760000  0.38380000  0.12950000  1.0 -0.2977715619
O  O56  1  0.88380000  0.96760000  0.62950000  1.0 -0.2977715619
O  O57  1  0.01560000  0.40140000  0.17780000  1.0 -0.3103042207
O  O58  1  0.90140000  0.51560000  0.67780000  1.0 -0.3103042207
O  O59  1  0.01460000  0.26320000  0.12970000  1.0 -0.3256578408
O  O60  1  0.76320000  0.51460000  0.62970000  1.0 -0.3256578408
O  O61  1  0.87000000  0.72400000  0.20470000  1.0 0.0998994608
O  O62  1  0.22400000  0.37000000  0.70470000  1.0 0.0946053304
O  O63  1  0.90200000  0.61400000  0.15320000  1.0 -0.062925633
O  O64  1  0.11400000  0.40200000  0.65320000  1.0 -0.062925633
