# DDEC6 charges by PACMAN v1.1 (https://github.com/mtap-research/PACMAN-charge/)
data_VECZEI_FSR_pacman
_symmetry_space_group_name_H-M   'P 1'
_cell_length_a   9.36600000
_cell_length_b   9.36600000
_cell_length_c   6.94700000
_cell_angle_alpha   90.00000000
_cell_angle_beta   90.00000000
_cell_angle_gamma   90.00000000
_symmetry_Int_Tables_number   1
_chemical_formula_structural   CaN9
_chemical_formula_sum   'Ca2 N18'
_cell_volume   609.40442833
_cell_formula_units_Z   2
loop_
 _symmetry_equiv_pos_site_id
 _symmetry_equiv_pos_as_xyz
  1  'x, y, z'
loop_
 _atom_site_type_symbol
 _atom_site_label
 _atom_site_symmetry_multiplicity
 _atom_site_fract_x
 _atom_site_fract_y
 _atom_site_fract_z
 _atom_site_occupancy
 _atom_site_charge
Ca  Ca1  1  0.00000000  0.50000000  0.90710000  1.0 0.6479745954
Ca  Ca2  1  0.50000000  0.00000000  0.09290000  1.0 0.6479745954
N  N1  1  0.00000000  0.50000000  0.24200000  1.0 -0.4144421071
N  N2  1  0.50000000  0.00000000  0.75800000  1.0 -0.4151961058
N  N3  1  0.00000000  0.50000000  0.40420000  1.0 0.5054457635
N  N4  1  0.50000000  0.00000000  0.59580000  1.0 0.5054457635
N  N5  1  0.00000000  0.50000000  0.56990000  1.0 -0.3283661753
N  N6  1  0.50000000  0.00000000  0.43010000  1.0 -0.3283661753
N  N7  1  0.82210000  0.32210000  0.91090000  1.0 -0.3471704126
N  N8  1  0.82210000  0.67790000  0.91090000  1.0 -0.3471704126
N  N9  1  0.17790000  0.67790000  0.91090000  1.0 -0.3471704126
N  N10  1  0.17790000  0.32210000  0.91090000  1.0 -0.3471704126
N  N11  1  0.67790000  0.82210000  0.08910000  1.0 -0.3471704126
N  N12  1  0.67790000  0.17790000  0.08910000  1.0 -0.3471704126
N  N13  1  0.32210000  0.17790000  0.08910000  1.0 -0.3471704126
N  N14  1  0.32210000  0.82210000  0.08910000  1.0 -0.3471704126
N  N15  1  0.75000000  0.25000000  0.00000000  1.0 0.4892232865
N  N16  1  0.75000000  0.75000000  0.00000000  1.0 0.4892232865
N  N17  1  0.25000000  0.75000000  0.00000000  1.0 0.4892232865
N  N18  1  0.25000000  0.25000000  0.00000000  1.0 0.4892232865
