# DDEC6 charges by PACMAN v1.1 (https://github.com/mtap-research/PACMAN-charge/)
data_VEDROP_ASR_pacman
_symmetry_space_group_name_H-M   'P 1'
_cell_length_a   13.66130000
_cell_length_b   13.66130000
_cell_length_c   12.62140000
_cell_angle_alpha   71.26610000
_cell_angle_beta   108.73400000
_cell_angle_gamma   76.71750000
_symmetry_Int_Tables_number   1
_chemical_formula_structural   Na2Tb2P3H18C48(NO10)3
_chemical_formula_sum   'Na2 Tb2 P3 H18 C48 N3 O30'
_cell_volume   1961.63219658
_cell_formula_units_Z   1
loop_
 _symmetry_equiv_pos_site_id
 _symmetry_equiv_pos_as_xyz
  1  'x, y, z'
loop_
 _atom_site_type_symbol
 _atom_site_label
 _atom_site_symmetry_multiplicity
 _atom_site_fract_x
 _atom_site_fract_y
 _atom_site_fract_z
 _atom_site_occupancy
 _atom_site_charge
Na  Na1  1  0.53510000  0.69010000  0.20550000  1.0 0.8766919995
Na  Na2  1  0.69010000  0.53510000  0.79450000  1.0 0.8766919995
Tb  Tb1  1  0.70891000  0.70891000  0.50000000  1.0 1.9630530501
Tb  Tb2  1  0.52213000  0.52213000  0.00000000  1.0 2.0770048523
P  P1  1  0.04730000  0.05290000  0.38790000  1.0 1.3129531765
P  P2  1  0.05290000  0.04730000  0.61210000  1.0 1.3129531765
P  P3  1  0.16240000  0.16240000  0.50000000  1.0 1.3420826817
H  H1  1  0.89870000  0.94310000  0.34710000  1.0 0.1505094522
H  H2  1  0.57690000  0.06950000  0.12540000  1.0 0.1505094522
H  H3  1  0.75050000  0.26550000  0.09900000  1.0 0.1505094522
H  H4  1  0.22640000  0.91320000  0.26740000  1.0 0.1505094522
H  H5  1  0.47950000  0.64990000  0.56760000  1.0 0.130979518
H  H6  1  0.20100000  0.80160000  0.59170000  1.0 0.1505094522
H  H7  1  0.00760000  0.34500000  0.21830000  1.0 0.1579070637
H  H8  1  0.73940000  0.58000000  0.18220000  1.0 0.130979518
H  H9  1  0.02340000  0.42160000  0.50520000  1.0 0.1579070637
H  H10  1  0.94310000  0.89870000  0.65290000  1.0 0.1505094522
H  H11  1  0.06950000  0.57690000  0.87460000  1.0 0.1505094522
H  H12  1  0.26550000  0.75050000  0.90100000  1.0 0.1505094522
H  H13  1  0.91320000  0.22640000  0.73260000  1.0 0.1505094522
H  H14  1  0.64990000  0.47950000  0.43240000  1.0 0.130979518
H  H15  1  0.80160000  0.20100000  0.40830000  1.0 0.1505094522
H  H16  1  0.34500000  0.00760000  0.78170000  1.0 0.1579070637
H  H17  1  0.58000000  0.73940000  0.81780000  1.0 0.130979518
H  H18  1  0.42160000  0.02340000  0.49480000  1.0 0.1579070637
C  C1  1  0.84330000  0.10550000  0.22480000  1.0 0.2986989343
C  C2  1  0.83470000  0.00390000  0.28130000  1.0 -0.1901945373
C  C3  1  0.73750000  0.99190000  0.24400000  1.0 0.0488411883
C  C4  1  0.64690000  0.07750000  0.15000000  1.0 -0.0998321748
C  C5  1  0.65440000  0.17380000  0.09000000  1.0 0.0043930854
C  C6  1  0.74920000  0.19300000  0.13200000  1.0 -0.1709218299
C  C7  1  0.72850000  0.87890000  0.32100000  1.0 0.5522652292
C  C8  1  0.55460000  0.27260000  0.97700000  1.0 0.6309959316
C  C9  1  0.20060000  0.87140000  0.42390000  1.0 0.2857634598
C  C10  1  0.25860000  0.86380000  0.35280000  1.0 -0.1832256219
C  C11  1  0.36450000  0.78230000  0.40870000  1.0 0.0102139046
C  C12  1  0.40860000  0.70780000  0.53130000  1.0 -0.1246948963
C  C13  1  0.35100000  0.71620000  0.60170000  1.0 0.0175265172
C  C14  1  0.24350000  0.79770000  0.54560000  1.0 -0.1990935182
C  C15  1  0.42860000  0.77660000  0.33280000  1.0 0.5786598448
C  C16  1  0.40710000  0.63770000  0.73650000  1.0 0.5786598448
C  C17  1  0.02460000  0.36740000  0.37110000  1.0 0.2793917233
C  C18  1  0.97110000  0.38470000  0.25290000  1.0 -0.1990935182
C  C19  1  0.86240000  0.46080000  0.18180000  1.0 0.0304477444
C  C20  1  0.81310000  0.52610000  0.23090000  1.0 -0.1337738609
C  C21  1  0.87150000  0.51150000  0.34890000  1.0 0.0304477444
C  C22  1  0.98160000  0.43120000  0.42370000  1.0 -0.1901945373
C  C23  1  0.80000000  0.47720000  0.05200000  1.0 0.5676487112
C  C24  1  0.82050000  0.57970000  0.40570000  1.0 0.5786598448
C  C25  1  0.10550000  0.84330000  0.77520000  1.0 0.2986989343
C  C26  1  0.00390000  0.83470000  0.71870000  1.0 -0.1901945373
C  C27  1  0.99190000  0.73750000  0.75600000  1.0 0.0488411883
C  C28  1  0.07750000  0.64690000  0.85000000  1.0 -0.0998321748
C  C29  1  0.17380000  0.65440000  0.91000000  1.0 0.0043930854
C  C30  1  0.19300000  0.74920000  0.86800000  1.0 -0.1709218299
C  C31  1  0.87890000  0.72850000  0.67900000  1.0 0.5522652292
C  C32  1  0.27260000  0.55460000  0.02300000  1.0 0.6309959316
C  C33  1  0.87140000  0.20060000  0.57610000  1.0 0.2857634598
C  C34  1  0.86380000  0.25860000  0.64720000  1.0 -0.1832256219
C  C35  1  0.78230000  0.36450000  0.59130000  1.0 0.0102139046
C  C36  1  0.70780000  0.40860000  0.46870000  1.0 -0.1246948963
C  C37  1  0.71620000  0.35100000  0.39830000  1.0 0.0175265172
C  C38  1  0.79770000  0.24350000  0.45440000  1.0 -0.1990935182
C  C39  1  0.77660000  0.42860000  0.66720000  1.0 0.5786598448
C  C40  1  0.63770000  0.40710000  0.26350000  1.0 0.5786598448
C  C41  1  0.36740000  0.02460000  0.62890000  1.0 0.2793917233
C  C42  1  0.38470000  0.97110000  0.74710000  1.0 -0.1990935182
C  C43  1  0.46080000  0.86240000  0.81820000  1.0 0.0304477444
C  C44  1  0.52610000  0.81310000  0.76910000  1.0 -0.1337738609
C  C45  1  0.51150000  0.87150000  0.65110000  1.0 0.0304477444
C  C46  1  0.43120000  0.98160000  0.57630000  1.0 -0.1901945373
C  C47  1  0.47720000  0.80000000  0.94800000  1.0 0.5676487112
C  C48  1  0.57970000  0.82050000  0.59430000  1.0 0.5786598448
N  N1  1  0.12520000  0.11460000  0.39610000  1.0 -0.7870112038
N  N2  1  0.11460000  0.12520000  0.60390000  1.0 -0.7870112038
N  N3  1  0.01610000  0.01610000  0.50000000  1.0 -0.7810248708
O  O1  1  0.63450000  0.88130000  0.29590000  1.0 -0.5078380382
O  O2  1  0.81510000  0.80050000  0.39940000  1.0 -0.5363022065
O  O3  1  0.54120000  0.37320000  0.95860000  1.0 -0.7091241157
O  O4  1  0.49030000  0.23630000  0.92100000  1.0 -0.4415426827
O  O5  1  0.93980000  0.12680000  0.26200000  1.0 -0.37685967
O  O6  1  0.09300000  0.95060000  0.36090000  1.0 -0.3941903686
O  O7  1  0.13500000  0.29260000  0.44190000  1.0 -0.37685967
O  O8  1  0.53020000  0.71000000  0.38990000  1.0 -0.6950611448
O  O9  1  0.38410000  0.83330000  0.22110000  1.0 -0.4773603207
O  O10  1  0.51040000  0.58380000  0.78740000  1.0 -0.6537401652
O  O11  1  0.35590000  0.62850000  0.80130000  1.0 -0.5535075343
O  O12  1  0.71910000  0.64310000  0.33960000  1.0 -0.6714761829
O  O13  1  0.87430000  0.56790000  0.51130000  1.0 -0.5349954343
O  O14  1  0.69730000  0.51070000  0.00880000  1.0 -0.6537401652
O  O15  1  0.84650000  0.45850000  0.99130000  1.0 -0.4518503821
O  O16  1  0.88130000  0.63450000  0.70410000  1.0 -0.5078380382
O  O17  1  0.80050000  0.81510000  0.60060000  1.0 -0.5363022065
O  O18  1  0.37320000  0.54120000  0.04140000  1.0 -0.7091241157
O  O19  1  0.23630000  0.49030000  0.07900000  1.0 -0.4415426827
O  O20  1  0.12680000  0.93980000  0.73800000  1.0 -0.37685967
O  O21  1  0.95060000  0.09300000  0.63910000  1.0 -0.3941903686
O  O22  1  0.29260000  0.13500000  0.55810000  1.0 -0.37685967
O  O23  1  0.71000000  0.53020000  0.61010000  1.0 -0.6950611448
O  O24  1  0.83330000  0.38410000  0.77890000  1.0 -0.4773603207
O  O25  1  0.58380000  0.51040000  0.21260000  1.0 -0.6537401652
O  O26  1  0.62850000  0.35590000  0.19870000  1.0 -0.5535075343
O  O27  1  0.64310000  0.71910000  0.66040000  1.0 -0.6714761829
O  O28  1  0.56790000  0.87430000  0.48870000  1.0 -0.5363022065
O  O29  1  0.51070000  0.69730000  0.99120000  1.0 -0.6537401652
O  O30  1  0.45850000  0.84650000  0.00870000  1.0 -0.4518503821
