# DDEC6 charges by PACMAN v1.1 (https://github.com/mtap-research/PACMAN-charge/)
data_VEGXIQ_ASR_pacman
_symmetry_space_group_name_H-M   'P 1'
_cell_length_a   7.31600000
_cell_length_b   32.02300000
_cell_length_c   16.53300000
_cell_angle_alpha   90.00000000
_cell_angle_beta   99.91000000
_cell_angle_gamma   90.00000000
_symmetry_Int_Tables_number   1
_chemical_formula_structural   Mn3H18C34(O5F6)2
_chemical_formula_sum   'Mn12 H72 C136 O40 F48'
_cell_volume   3815.56250785
_cell_formula_units_Z   4
loop_
 _symmetry_equiv_pos_site_id
 _symmetry_equiv_pos_as_xyz
  1  'x, y, z'
loop_
 _atom_site_type_symbol
 _atom_site_label
 _atom_site_symmetry_multiplicity
 _atom_site_fract_x
 _atom_site_fract_y
 _atom_site_fract_z
 _atom_site_occupancy
 _atom_site_charge
Mn  Mn1  1  0.74763000  0.07068000  0.60146000  1.0 1.0214796894
Mn  Mn2  1  0.25237000  0.57068000  0.89854000  1.0 1.0214796894
Mn  Mn3  1  0.25237000  0.92932000  0.39854000  1.0 1.0214796894
Mn  Mn4  1  0.74763000  0.42932000  0.10146000  1.0 1.0214796894
Mn  Mn5  1  0.27354000  0.07365000  0.62514000  1.0 1.0750102632
Mn  Mn6  1  0.72646000  0.57365000  0.87486000  1.0 1.0750102632
Mn  Mn7  1  0.72646000  0.92635000  0.37486000  1.0 1.0750102632
Mn  Mn8  1  0.27354000  0.42635000  0.12514000  1.0 1.0750102632
Mn  Mn9  1  0.00000000  0.00000000  0.50000000  1.0 1.0935684078
Mn  Mn10  1  0.00000000  0.50000000  0.00000000  1.0 1.0935684078
Mn  Mn11  1  0.50000000  0.00000000  0.50000000  1.0 1.0365109079
Mn  Mn12  1  0.50000000  0.50000000  0.00000000  1.0 1.0365109079
H  H1  1  0.15010000  0.00300000  0.76790000  1.0 0.1275421668
H  H2  1  0.84990000  0.50300000  0.73210000  1.0 0.1275421668
H  H3  1  0.84990000  0.99700000  0.23210000  1.0 0.1275421668
H  H4  1  0.15010000  0.49700000  0.26790000  1.0 0.1275421668
H  H5  1  0.05810000  0.96670000  0.87510000  1.0 0.1194876992
H  H6  1  0.94190000  0.46670000  0.62490000  1.0 0.1194876992
H  H7  1  0.94190000  0.03330000  0.12490000  1.0 0.1194876992
H  H8  1  0.05810000  0.53330000  0.37510000  1.0 0.1194876992
H  H9  1  0.20560000  0.85810000  0.78150000  1.0 0.1194876992
H  H10  1  0.79440000  0.35810000  0.71850000  1.0 0.1194876992
H  H11  1  0.79440000  0.14190000  0.21850000  1.0 0.1194876992
H  H12  1  0.20560000  0.64190000  0.28150000  1.0 0.1194876992
H  H13  1  0.32720000  0.89500000  0.68120000  1.0 0.1194876992
H  H14  1  0.67280000  0.39500000  0.81880000  1.0 0.1194876992
H  H15  1  0.67280000  0.10500000  0.31880000  1.0 0.1194876992
H  H16  1  0.32720000  0.60500000  0.18120000  1.0 0.1194876992
H  H17  1  0.43900000  0.07750000  0.50400000  1.0 0.382564389
H  H18  1  0.56100000  0.57750000  0.99600000  1.0 0.382564389
H  H19  1  0.56100000  0.92250000  0.49600000  1.0 0.382564389
H  H20  1  0.43900000  0.42250000  0.00400000  1.0 0.382564389
H  H21  1  0.79000000  0.99720000  0.61400000  1.0 0.3946105175
H  H22  1  0.21000000  0.49720000  0.88600000  1.0 0.3946105175
H  H23  1  0.21000000  0.00280000  0.38600000  1.0 0.3946105175
H  H24  1  0.79000000  0.50280000  0.11400000  1.0 0.3946105175
H  H25  1  0.89480000  0.90820000  0.04730000  1.0 0.1144894146
H  H26  1  0.10520000  0.40820000  0.45270000  1.0 0.1144894146
H  H27  1  0.10520000  0.09180000  0.95270000  1.0 0.1144894146
H  H28  1  0.89480000  0.59180000  0.54730000  1.0 0.1144894146
H  H29  1  0.04500000  0.93130000  0.17490000  1.0 0.1194876992
H  H30  1  0.95500000  0.43130000  0.32510000  1.0 0.1194876992
H  H31  1  0.95500000  0.06870000  0.82510000  1.0 0.1194876992
H  H32  1  0.04500000  0.56870000  0.67490000  1.0 0.1194876992
H  H33  1  0.53420000  0.92790000  0.09470000  1.0 0.1194876992
H  H34  1  0.46580000  0.42790000  0.40530000  1.0 0.1194876992
H  H35  1  0.46580000  0.07210000  0.90530000  1.0 0.1194876992
H  H36  1  0.53420000  0.57210000  0.59470000  1.0 0.1194876992
H  H37  1  0.38290000  0.90730000  0.96550000  1.0 0.1194876992
H  H38  1  0.61710000  0.40730000  0.53450000  1.0 0.1194876992
H  H39  1  0.61710000  0.09270000  0.03450000  1.0 0.1194876992
H  H40  1  0.38290000  0.59270000  0.46550000  1.0 0.1194876992
H  H41  1  0.22600000  0.09890000  0.38970000  1.0 0.1275421668
H  H42  1  0.77400000  0.59890000  0.11030000  1.0 0.1275421668
H  H43  1  0.77400000  0.90110000  0.61030000  1.0 0.1275421668
H  H44  1  0.22600000  0.40110000  0.88970000  1.0 0.1275421668
H  H45  1  0.39800000  0.15180000  0.34240000  1.0 0.1194876992
H  H46  1  0.60200000  0.65180000  0.15760000  1.0 0.1194876992
H  H47  1  0.60200000  0.84820000  0.65760000  1.0 0.1194876992
H  H48  1  0.39800000  0.34820000  0.84240000  1.0 0.1194876992
H  H49  1  0.10410000  0.23790000  0.44480000  1.0 0.1194876992
H  H50  1  0.89590000  0.73790000  0.05520000  1.0 0.1194876992
H  H51  1  0.89590000  0.76210000  0.55520000  1.0 0.1194876992
H  H52  1  0.10410000  0.26210000  0.94480000  1.0 0.1194876992
H  H53  1  0.92610000  0.18510000  0.48810000  1.0 0.1275421668
H  H54  1  0.07390000  0.68510000  0.01190000  1.0 0.1275421668
H  H55  1  0.07390000  0.81490000  0.51190000  1.0 0.1275421668
H  H56  1  0.92610000  0.31490000  0.98810000  1.0 0.1275421668
H  H57  1  0.06230000  0.23620000  0.26820000  1.0 0.1194876992
H  H58  1  0.93770000  0.73620000  0.23180000  1.0 0.1194876992
H  H59  1  0.93770000  0.76380000  0.73180000  1.0 0.1194876992
H  H60  1  0.06230000  0.26380000  0.76820000  1.0 0.1194876992
H  H61  1  0.87810000  0.28910000  0.19900000  1.0 0.1275421668
H  H62  1  0.12190000  0.78910000  0.30100000  1.0 0.1275421668
H  H63  1  0.12190000  0.71090000  0.80100000  1.0 0.1275421668
H  H64  1  0.87810000  0.21090000  0.69900000  1.0 0.1275421668
H  H65  1  0.26030000  0.37450000  0.29720000  1.0 0.1194876992
H  H66  1  0.73970000  0.87450000  0.20280000  1.0 0.1194876992
H  H67  1  0.73970000  0.62550000  0.70280000  1.0 0.1194876992
H  H68  1  0.26030000  0.12550000  0.79720000  1.0 0.1194876992
H  H69  1  0.43600000  0.32210000  0.37040000  1.0 0.1194876992
H  H70  1  0.56400000  0.82210000  0.12960000  1.0 0.1194876992
H  H71  1  0.56400000  0.67790000  0.62960000  1.0 0.1194876992
H  H72  1  0.43600000  0.17790000  0.87040000  1.0 0.1194876992
C  C1  1  0.30630000  0.97616000  0.64320000  1.0 0.5935843818
C  C2  1  0.69370000  0.47616000  0.85680000  1.0 0.5935843818
C  C3  1  0.69370000  0.02384000  0.35680000  1.0 0.5935843818
C  C4  1  0.30630000  0.52384000  0.14320000  1.0 0.5935843818
C  C5  1  0.24900000  0.95270000  0.71360000  1.0 -0.0097687631
C  C6  1  0.75100000  0.45270000  0.78640000  1.0 -0.0097687631
C  C7  1  0.75100000  0.04730000  0.28640000  1.0 -0.0097687631
C  C8  1  0.24900000  0.54730000  0.21360000  1.0 -0.0097687631
C  C9  1  0.16570000  0.97404000  0.77160000  1.0 -0.092784173
C  C10  1  0.83430000  0.47404000  0.72840000  1.0 -0.092784173
C  C11  1  0.83430000  0.02596000  0.22840000  1.0 -0.092784173
C  C12  1  0.16570000  0.52596000  0.27160000  1.0 -0.092784173
C  C13  1  0.10640000  0.95210000  0.83460000  1.0 -0.1409695395
C  C14  1  0.89360000  0.45210000  0.66540000  1.0 -0.1409695395
C  C15  1  0.89360000  0.04790000  0.16540000  1.0 -0.1409695395
C  C16  1  0.10640000  0.54790000  0.33460000  1.0 -0.1409695395
C  C17  1  0.11750000  0.90830000  0.83870000  1.0 0.082248555
C  C18  1  0.88250000  0.40830000  0.66130000  1.0 0.082248555
C  C19  1  0.88250000  0.09170000  0.16130000  1.0 0.082248555
C  C20  1  0.11750000  0.59170000  0.33870000  1.0 0.082248555
C  C21  1  0.19810000  0.88726000  0.78000000  1.0 -0.1501748628
C  C22  1  0.80190000  0.38726000  0.72000000  1.0 -0.1501748628
C  C23  1  0.80190000  0.11274000  0.22000000  1.0 -0.1501748628
C  C24  1  0.19810000  0.61274000  0.28000000  1.0 -0.1501748628
C  C25  1  0.26800000  0.90929000  0.71870000  1.0 -0.0989284894
C  C26  1  0.73200000  0.40929000  0.78130000  1.0 -0.0989284894
C  C27  1  0.73200000  0.09071000  0.28130000  1.0 -0.0989284894
C  C28  1  0.26800000  0.59071000  0.21870000  1.0 -0.0989284894
C  C29  1  0.03420000  0.88679000  0.90800000  1.0 -0.27985005
C  C30  1  0.96580000  0.38679000  0.59200000  1.0 -0.27985005
C  C31  1  0.96580000  0.11321000  0.09200000  1.0 -0.27985005
C  C32  1  0.03420000  0.61321000  0.40800000  1.0 -0.27985005
C  C33  1  0.07100000  0.83883000  0.91330000  1.0 0.6729517103
C  C34  1  0.92900000  0.33883000  0.58670000  1.0 0.6729517103
C  C35  1  0.92900000  0.16117000  0.08670000  1.0 0.6729517103
C  C36  1  0.07100000  0.66117000  0.41330000  1.0 0.6729517103
C  C37  1  0.81920000  0.89312000  0.88820000  1.0 0.6729517103
C  C38  1  0.18080000  0.39312000  0.61180000  1.0 0.6729517103
C  C39  1  0.18080000  0.10688000  0.11180000  1.0 0.6729517103
C  C40  1  0.81920000  0.60688000  0.38820000  1.0 0.6729517103
C  C41  1  0.12200000  0.90482000  0.99330000  1.0 0.082248555
C  C42  1  0.87800000  0.40482000  0.50670000  1.0 0.082248555
C  C43  1  0.87800000  0.09518000  0.00670000  1.0 0.082248555
C  C44  1  0.12200000  0.59518000  0.49330000  1.0 0.082248555
C  C45  1  0.02330000  0.91225000  0.05650000  1.0 -0.1501748628
C  C46  1  0.97670000  0.41225000  0.44350000  1.0 -0.1501748628
C  C47  1  0.97670000  0.08775000  0.94350000  1.0 -0.1501748628
C  C48  1  0.02330000  0.58775000  0.55650000  1.0 -0.1501748628
C  C49  1  0.11350000  0.92571000  0.13340000  1.0 -0.092784173
C  C50  1  0.88650000  0.42571000  0.36660000  1.0 -0.092784173
C  C51  1  0.88650000  0.07429000  0.86660000  1.0 -0.092784173
C  C52  1  0.11350000  0.57429000  0.63340000  1.0 -0.092784173
C  C53  1  0.30680000  0.93082000  0.14860000  1.0 -0.0097687631
C  C54  1  0.69320000  0.43082000  0.35140000  1.0 -0.0097687631
C  C55  1  0.69320000  0.06918000  0.85140000  1.0 -0.0097687631
C  C56  1  0.30680000  0.56918000  0.64860000  1.0 -0.0097687631
C  C57  1  0.40560000  0.92400000  0.08530000  1.0 -0.0989284894
C  C58  1  0.59440000  0.42400000  0.41470000  1.0 -0.0989284894
C  C59  1  0.59440000  0.07600000  0.91470000  1.0 -0.0989284894
C  C60  1  0.40560000  0.57600000  0.58530000  1.0 -0.0989284894
C  C61  1  0.31510000  0.91139000  0.00790000  1.0 -0.1409695395
C  C62  1  0.68490000  0.41139000  0.49210000  1.0 -0.1409695395
C  C63  1  0.68490000  0.08861000  0.99210000  1.0 -0.1409695395
C  C64  1  0.31510000  0.58861000  0.50790000  1.0 -0.1409695395
C  C65  1  0.40150000  0.94126000  0.23540000  1.0 0.596761965
C  C66  1  0.59850000  0.44126000  0.26460000  1.0 0.596761965
C  C67  1  0.59850000  0.05874000  0.76460000  1.0 0.596761965
C  C68  1  0.40150000  0.55874000  0.73540000  1.0 0.596761965
C  C69  1  0.96030000  0.10266000  0.48250000  1.0 0.5719199263
C  C70  1  0.03970000  0.60266000  0.01750000  1.0 0.5719199263
C  C71  1  0.03970000  0.89734000  0.51750000  1.0 0.5719199263
C  C72  1  0.96030000  0.39734000  0.98250000  1.0 0.5719199263
C  C73  1  0.06160000  0.13645000  0.44570000  1.0 -0.0207734785
C  C74  1  0.93840000  0.63645000  0.05430000  1.0 -0.0207734785
C  C75  1  0.93840000  0.86355000  0.55430000  1.0 -0.0207734785
C  C76  1  0.06160000  0.36355000  0.94570000  1.0 -0.0207734785
C  C77  1  0.20180000  0.12677000  0.40080000  1.0 -0.1064508922
C  C78  1  0.79820000  0.62677000  0.09920000  1.0 -0.1064508922
C  C79  1  0.79820000  0.87323000  0.59920000  1.0 -0.1064508922
C  C80  1  0.20180000  0.37323000  0.90080000  1.0 -0.1064508922
C  C81  1  0.30520000  0.15847000  0.37260000  1.0 -0.1409695395
C  C82  1  0.69480000  0.65847000  0.12740000  1.0 -0.1409695395
C  C83  1  0.69480000  0.84153000  0.62740000  1.0 -0.1409695395
C  C84  1  0.30520000  0.34153000  0.87260000  1.0 -0.1409695395
C  C85  1  0.27090000  0.20034000  0.38940000  1.0 0.0867763318
C  C86  1  0.72910000  0.70034000  0.11060000  1.0 0.0867763318
C  C87  1  0.72910000  0.79966000  0.61060000  1.0 0.0867763318
C  C88  1  0.27090000  0.29966000  0.88940000  1.0 0.0867763318
C  C89  1  0.12830000  0.20998000  0.43340000  1.0 -0.1409695395
C  C90  1  0.87170000  0.70998000  0.06660000  1.0 -0.1409695395
C  C91  1  0.87170000  0.79002000  0.56660000  1.0 -0.1409695395
C  C92  1  0.12830000  0.29002000  0.93340000  1.0 -0.1409695395
C  C93  1  0.02300000  0.17833000  0.46030000  1.0 -0.0989284894
C  C94  1  0.97700000  0.67833000  0.03970000  1.0 -0.0989284894
C  C95  1  0.97700000  0.82167000  0.53970000  1.0 -0.0989284894
C  C96  1  0.02300000  0.32167000  0.96030000  1.0 -0.0989284894
C  C97  1  0.39120000  0.23679000  0.36590000  1.0 -0.27985005
C  C98  1  0.60880000  0.73679000  0.13410000  1.0 -0.27985005
C  C99  1  0.60880000  0.76321000  0.63410000  1.0 -0.27985005
C  C100  1  0.39120000  0.26321000  0.86590000  1.0 -0.27985005
C  C101  1  0.51110000  0.22390000  0.30080000  1.0 0.6729517103
C  C102  1  0.48890000  0.72390000  0.19920000  1.0 0.6729517103
C  C103  1  0.48890000  0.77610000  0.69920000  1.0 0.6729517103
C  C104  1  0.51110000  0.27610000  0.80080000  1.0 0.6729517103
C  C105  1  0.52440000  0.25010000  0.44620000  1.0 0.6729517103
C  C106  1  0.47560000  0.75010000  0.05380000  1.0 0.6729517103
C  C107  1  0.47560000  0.74990000  0.55380000  1.0 0.6729517103
C  C108  1  0.52440000  0.24990000  0.94620000  1.0 0.6729517103
C  C109  1  0.26910000  0.27358000  0.32690000  1.0 0.082248555
C  C110  1  0.73090000  0.77358000  0.17310000  1.0 0.082248555
C  C111  1  0.73090000  0.72642000  0.67310000  1.0 0.082248555
C  C112  1  0.26910000  0.22642000  0.82690000  1.0 0.082248555
C  C113  1  0.10130000  0.26404000  0.27460000  1.0 -0.1409695395
C  C114  1  0.89870000  0.76404000  0.22540000  1.0 -0.1409695395
C  C115  1  0.89870000  0.73596000  0.72540000  1.0 -0.1409695395
C  C116  1  0.10130000  0.23596000  0.77460000  1.0 -0.1409695395
C  C117  1  0.99170000  0.29565000  0.23200000  1.0 -0.0989284894
C  C118  1  0.00830000  0.79565000  0.26800000  1.0 -0.0989284894
C  C119  1  0.00830000  0.70435000  0.76800000  1.0 -0.0989284894
C  C120  1  0.99170000  0.20435000  0.73200000  1.0 -0.0989284894
C  C121  1  0.05350000  0.33702000  0.23920000  1.0 -0.0097687631
C  C122  1  0.94650000  0.83702000  0.26080000  1.0 -0.0097687631
C  C123  1  0.94650000  0.66298000  0.76080000  1.0 -0.0097687631
C  C124  1  0.05350000  0.16298000  0.73920000  1.0 -0.0097687631
C  C125  1  0.22000000  0.34677000  0.29150000  1.0 -0.1064508922
C  C126  1  0.78000000  0.84677000  0.20850000  1.0 -0.1064508922
C  C127  1  0.78000000  0.65323000  0.70850000  1.0 -0.1064508922
C  C128  1  0.22000000  0.15323000  0.79150000  1.0 -0.1064508922
C  C129  1  0.32580000  0.31530000  0.33520000  1.0 -0.1409695395
C  C130  1  0.67420000  0.81530000  0.16480000  1.0 -0.1409695395
C  C131  1  0.67420000  0.68470000  0.66480000  1.0 -0.1409695395
C  C132  1  0.32580000  0.18470000  0.83520000  1.0 -0.1409695395
C  C133  1  0.94350000  0.37060000  0.18940000  1.0 0.5719199263
C  C134  1  0.05650000  0.87060000  0.31060000  1.0 0.5719199263
C  C135  1  0.05650000  0.62940000  0.81060000  1.0 0.5719199263
C  C136  1  0.94350000  0.12940000  0.68940000  1.0 0.5719199263
O  O1  1  0.43960000  0.96465000  0.61139000  1.0 -0.5257090099
O  O2  1  0.56040000  0.46465000  0.88861000  1.0 -0.5257090099
O  O3  1  0.56040000  0.03535000  0.38861000  1.0 -0.5257090099
O  O4  1  0.43960000  0.53535000  0.11139000  1.0 -0.5257090099
O  O5  1  0.20050000  0.00760000  0.61656000  1.0 -0.6327314891
O  O6  1  0.79950000  0.50760000  0.88344000  1.0 -0.6327314891
O  O7  1  0.79950000  0.99240000  0.38344000  1.0 -0.6327314891
O  O8  1  0.20050000  0.49240000  0.11656000  1.0 -0.6327314891
O  O9  1  0.30240000  0.95466000  0.28464000  1.0 -0.5678080834
O  O10  1  0.69760000  0.45466000  0.21536000  1.0 -0.5678080834
O  O11  1  0.69760000  0.04534000  0.71536000  1.0 -0.5678080834
O  O12  1  0.30240000  0.54534000  0.78464000  1.0 -0.5678080834
O  O13  1  0.57630000  0.93457000  0.25272000  1.0 -0.5858978845
O  O14  1  0.42370000  0.43457000  0.24728000  1.0 -0.5858978845
O  O15  1  0.42370000  0.06543000  0.74728000  1.0 -0.5858978845
O  O16  1  0.57630000  0.56543000  0.75272000  1.0 -0.5858978845
O  O17  1  0.05240000  0.06866000  0.50276000  1.0 -0.6473484404
O  O18  1  0.94760000  0.56866000  0.99724000  1.0 -0.6473484404
O  O19  1  0.94760000  0.93134000  0.49724000  1.0 -0.6473484404
O  O20  1  0.05240000  0.43134000  0.00276000  1.0 -0.6473484404
O  O21  1  0.79960000  0.10888000  0.49643000  1.0 -0.5140955813
O  O22  1  0.20040000  0.60888000  0.00357000  1.0 -0.5140955813
O  O23  1  0.20040000  0.89112000  0.50357000  1.0 -0.5140955813
O  O24  1  0.79960000  0.39112000  0.99643000  1.0 -0.5140955813
O  O25  1  0.77050000  0.36616000  0.16780000  1.0 -0.5257090099
O  O26  1  0.22950000  0.86616000  0.33220000  1.0 -0.5257090099
O  O27  1  0.22950000  0.63384000  0.83220000  1.0 -0.5257090099
O  O28  1  0.77050000  0.13384000  0.66780000  1.0 -0.5257090099
O  O29  1  0.02630000  0.40313000  0.16913000  1.0 -0.6071797974
O  O30  1  0.97370000  0.90313000  0.33087000  1.0 -0.6071797974
O  O31  1  0.97370000  0.59687000  0.83087000  1.0 -0.6071797974
O  O32  1  0.02630000  0.09687000  0.66913000  1.0 -0.6071797974
O  O33  1  0.46720000  0.06413000  0.54652000  1.0 -0.8441834814
O  O34  1  0.53280000  0.56413000  0.95348000  1.0 -0.8441834814
O  O35  1  0.53280000  0.93587000  0.45348000  1.0 -0.8441834814
O  O36  1  0.46720000  0.43587000  0.04652000  1.0 -0.8441834814
O  O37  1  0.78080000  0.00767000  0.56560000  1.0 -0.8516745932
O  O38  1  0.21920000  0.50767000  0.93440000  1.0 -0.8516745932
O  O39  1  0.21920000  0.99233000  0.43440000  1.0 -0.8516745932
O  O40  1  0.78080000  0.49233000  0.06560000  1.0 -0.8516745932
F  F1  1  0.98220000  0.81848000  0.84614000  1.0 -0.2103165728
F  F2  1  0.01780000  0.31848000  0.65386000  1.0 -0.2103165728
F  F3  1  0.01780000  0.18152000  0.15386000  1.0 -0.2103165728
F  F4  1  0.98220000  0.68152000  0.34614000  1.0 -0.2103165728
F  F5  1  0.25370000  0.83067000  0.91898000  1.0 -0.1991010512
F  F6  1  0.74630000  0.33067000  0.58102000  1.0 -0.1991010512
F  F7  1  0.74630000  0.16933000  0.08102000  1.0 -0.1991010512
F  F8  1  0.25370000  0.66933000  0.41898000  1.0 -0.1991010512
F  F9  1  0.01680000  0.82181000  0.97878000  1.0 -0.1991010512
F  F10  1  0.98320000  0.32181000  0.52122000  1.0 -0.1991010512
F  F11  1  0.98320000  0.17819000  0.02122000  1.0 -0.1991010512
F  F12  1  0.01680000  0.67819000  0.47878000  1.0 -0.1991010512
F  F13  1  0.75360000  0.88484000  0.80833000  1.0 -0.1927535278
F  F14  1  0.24640000  0.38484000  0.69167000  1.0 -0.1927535278
F  F15  1  0.24640000  0.11516000  0.19167000  1.0 -0.1927535278
F  F16  1  0.75360000  0.61516000  0.30833000  1.0 -0.1927535278
F  F17  1  0.72510000  0.86844000  0.93238000  1.0 -0.1991010512
F  F18  1  0.27490000  0.36844000  0.56762000  1.0 -0.1991010512
F  F19  1  0.27490000  0.13156000  0.06762000  1.0 -0.1991010512
F  F20  1  0.72510000  0.63156000  0.43238000  1.0 -0.1991010512
F  F21  1  0.77090000  0.93257000  0.90163000  1.0 -0.1927535278
F  F22  1  0.22910000  0.43257000  0.59837000  1.0 -0.1927535278
F  F23  1  0.22910000  0.06743000  0.09837000  1.0 -0.1927535278
F  F24  1  0.77090000  0.56743000  0.40163000  1.0 -0.1927535278
F  F25  1  0.64950000  0.19708000  0.33134000  1.0 -0.2103165728
F  F26  1  0.35050000  0.69708000  0.16866000  1.0 -0.2103165728
F  F27  1  0.35050000  0.80292000  0.66866000  1.0 -0.2103165728
F  F28  1  0.64950000  0.30292000  0.83134000  1.0 -0.2103165728
F  F29  1  0.40830000  0.20534000  0.23605000  1.0 -0.1927535278
F  F30  1  0.59170000  0.70534000  0.26395000  1.0 -0.1927535278
F  F31  1  0.59170000  0.79466000  0.76395000  1.0 -0.1927535278
F  F32  1  0.40830000  0.29466000  0.73605000  1.0 -0.1927535278
F  F33  1  0.59360000  0.25698000  0.27209000  1.0 -0.1927535278
F  F34  1  0.40640000  0.75698000  0.22791000  1.0 -0.1927535278
F  F35  1  0.40640000  0.74302000  0.72791000  1.0 -0.1927535278
F  F36  1  0.59360000  0.24302000  0.77209000  1.0 -0.1927535278
F  F37  1  0.66666667  0.27355000  0.43203000  1.0 -0.2103165728
F  F38  1  0.33340000  0.77355000  0.06797000  1.0 -0.2103165728
F  F39  1  0.33340000  0.72645000  0.56797000  1.0 -0.2103165728
F  F40  1  0.66666667  0.22645000  0.93203000  1.0 -0.2103165728
F  F41  1  0.43170000  0.27166000  0.49570000  1.0 -0.1927535278
F  F42  1  0.56830000  0.77166000  0.00430000  1.0 -0.1927535278
F  F43  1  0.56830000  0.72834000  0.50430000  1.0 -0.1927535278
F  F44  1  0.43170000  0.22834000  0.99570000  1.0 -0.1927535278
F  F45  1  0.59720000  0.21648000  0.48886000  1.0 -0.1927535278
F  F46  1  0.40280000  0.71648000  0.01114000  1.0 -0.1927535278
F  F47  1  0.40280000  0.78352000  0.51114000  1.0 -0.1927535278
F  F48  1  0.59720000  0.28352000  0.98886000  1.0 -0.1927535278
