# DDEC6 charges by PACMAN v1.1 (https://github.com/mtap-research/PACMAN-charge/)
data_VEHKIE_FSR_pacman
_symmetry_space_group_name_H-M   'P 1'
_cell_length_a   20.31780000
_cell_length_b   20.31780000
_cell_length_c   20.31780000
_cell_angle_alpha   109.47100000
_cell_angle_beta   109.47100000
_cell_angle_gamma   109.47100000
_symmetry_Int_Tables_number   1
_chemical_formula_structural   Zn9H18C54O41
_chemical_formula_sum   'Zn18 H36 C108 O82'
_cell_volume   6456.71623108
_cell_formula_units_Z   2
loop_
 _symmetry_equiv_pos_site_id
 _symmetry_equiv_pos_as_xyz
  1  'x, y, z'
loop_
 _atom_site_type_symbol
 _atom_site_label
 _atom_site_symmetry_multiplicity
 _atom_site_fract_x
 _atom_site_fract_y
 _atom_site_fract_z
 _atom_site_occupancy
 _atom_site_charge
Zn  Zn1  1  0.93658000  0.43658000  0.50000000  1.0 0.9931287642
Zn  Zn2  1  0.06342000  0.56342000  0.50000000  1.0 0.997752821
Zn  Zn3  1  0.50000000  0.93658000  0.43658000  1.0 0.9931287642
Zn  Zn4  1  0.43658000  0.50000000  0.93658000  1.0 0.9931287642
Zn  Zn5  1  0.50000000  0.06342000  0.56342000  1.0 0.9931287642
Zn  Zn6  1  0.56342000  0.50000000  0.06342000  1.0 0.9931287642
Zn  Zn7  1  0.11007000  0.57466000  0.05387000  1.0 0.9786923086
Zn  Zn8  1  0.52079000  0.05620000  0.94613000  1.0 0.9786923086
Zn  Zn9  1  0.88993000  0.94380000  0.46459000  1.0 0.9786923086
Zn  Zn10  1  0.47921000  0.42534000  0.53541000  1.0 0.9786923086
Zn  Zn11  1  0.05387000  0.11007000  0.57466000  1.0 0.9786923086
Zn  Zn12  1  0.57466000  0.05387000  0.11007000  1.0 0.9786923086
Zn  Zn13  1  0.53541000  0.47921000  0.42534000  1.0 0.9786923086
Zn  Zn14  1  0.05620000  0.94613000  0.52079000  1.0 0.9786923086
Zn  Zn15  1  0.94613000  0.52079000  0.05620000  1.0 0.9786923086
Zn  Zn16  1  0.94380000  0.46459000  0.88993000  1.0 0.9786923086
Zn  Zn17  1  0.46459000  0.88993000  0.94380000  1.0 0.9786923086
Zn  Zn18  1  0.42534000  0.53541000  0.47921000  1.0 0.9786923086
H  H1  1  0.03040000  0.54440000  0.75460000  1.0 0.1410161833
H  H2  1  0.78980000  0.27580000  0.24540000  1.0 0.1410161833
H  H3  1  0.96960000  0.72420000  0.51400000  1.0 0.1410161833
H  H4  1  0.21020000  0.45560000  0.48600000  1.0 0.1410161833
H  H5  1  0.75460000  0.03040000  0.54440000  1.0 0.1410161833
H  H6  1  0.54440000  0.75460000  0.03040000  1.0 0.1410161833
H  H7  1  0.48600000  0.21020000  0.45560000  1.0 0.1410161833
H  H8  1  0.27580000  0.24540000  0.78980000  1.0 0.1410161833
H  H9  1  0.24540000  0.78980000  0.27580000  1.0 0.1410161833
H  H10  1  0.72420000  0.51400000  0.96960000  1.0 0.1410161833
H  H11  1  0.51400000  0.96960000  0.72420000  1.0 0.1410161833
H  H12  1  0.45560000  0.48600000  0.21020000  1.0 0.1410161833
H  H13  1  0.22600000  0.71510000  0.96770000  1.0 0.1326243448
H  H14  1  0.74740000  0.25830000  0.03230000  1.0 0.1326243448
H  H15  1  0.77400000  0.74170000  0.48910000  1.0 0.1326243448
H  H16  1  0.25260000  0.28490000  0.51090000  1.0 0.1326243448
H  H17  1  0.96770000  0.22600000  0.71510000  1.0 0.1326243448
H  H18  1  0.71510000  0.96770000  0.22600000  1.0 0.1326243448
H  H19  1  0.51090000  0.25260000  0.28490000  1.0 0.1326243448
H  H20  1  0.25830000  0.03230000  0.74740000  1.0 0.1326243448
H  H21  1  0.03230000  0.74740000  0.25830000  1.0 0.1326243448
H  H22  1  0.74170000  0.48910000  0.77400000  1.0 0.1326243448
H  H23  1  0.48910000  0.77400000  0.74170000  1.0 0.1326243448
H  H24  1  0.28490000  0.51090000  0.25260000  1.0 0.1326243448
H  H25  1  0.22130000  0.69750000  0.76240000  1.0 0.1410161833
H  H26  1  0.93510000  0.45890000  0.23760000  1.0 0.1410161833
H  H27  1  0.77870000  0.54110000  0.47620000  1.0 0.1410161833
H  H28  1  0.06490000  0.30250000  0.52380000  1.0 0.1410161833
H  H29  1  0.76240000  0.22130000  0.69750000  1.0 0.1410161833
H  H30  1  0.69750000  0.76240000  0.22130000  1.0 0.1410161833
H  H31  1  0.52380000  0.06490000  0.30250000  1.0 0.1410161833
H  H32  1  0.45890000  0.23760000  0.93510000  1.0 0.1410161833
H  H33  1  0.23760000  0.93510000  0.45890000  1.0 0.1410161833
H  H34  1  0.54110000  0.47620000  0.77870000  1.0 0.1410161833
H  H35  1  0.47620000  0.77870000  0.54110000  1.0 0.1410161833
H  H36  1  0.30250000  0.52380000  0.06490000  1.0 0.1410161833
C  C1  1  0.08256000  0.58819000  0.78417000  1.0 -0.0725234471
C  C2  1  0.80402000  0.29839000  0.21583000  1.0 -0.0725234471
C  C3  1  0.91744000  0.70161000  0.50563000  1.0 -0.0725234471
C  C4  1  0.19598000  0.41181000  0.49437000  1.0 -0.0725234471
C  C5  1  0.78417000  0.08256000  0.58819000  1.0 -0.0725234471
C  C6  1  0.58819000  0.78417000  0.08256000  1.0 -0.0725234471
C  C7  1  0.49437000  0.19598000  0.41181000  1.0 -0.0725234471
C  C8  1  0.29839000  0.21583000  0.80402000  1.0 -0.0725234471
C  C9  1  0.21583000  0.80402000  0.29839000  1.0 -0.0725234471
C  C10  1  0.70161000  0.50563000  0.91744000  1.0 -0.0725234471
C  C11  1  0.50563000  0.91744000  0.70161000  1.0 -0.0725234471
C  C12  1  0.41181000  0.49437000  0.19598000  1.0 -0.0725234471
C  C13  1  0.12295000  0.62547000  0.86806000  1.0 -0.0166684838
C  C14  1  0.75741000  0.25489000  0.13194000  1.0 -0.0166684838
C  C15  1  0.87705000  0.74511000  0.50252000  1.0 -0.0166684838
C  C16  1  0.24259000  0.37453000  0.49748000  1.0 -0.0166684838
C  C17  1  0.86806000  0.12295000  0.62547000  1.0 -0.0166684838
C  C18  1  0.62547000  0.86806000  0.12295000  1.0 -0.0166684838
C  C19  1  0.49748000  0.24259000  0.37453000  1.0 -0.0140934858
C  C20  1  0.25489000  0.13194000  0.75741000  1.0 -0.0166684838
C  C21  1  0.13194000  0.75741000  0.25489000  1.0 -0.0166684838
C  C22  1  0.74511000  0.50252000  0.87705000  1.0 -0.0166684838
C  C23  1  0.50252000  0.87705000  0.74511000  1.0 -0.0166684838
C  C24  1  0.37453000  0.49748000  0.24259000  1.0 -0.0166684838
C  C25  1  0.19925000  0.68980000  0.91171000  1.0 -0.0840663681
C  C26  1  0.77809000  0.28754000  0.08829000  1.0 -0.0840663681
C  C27  1  0.80075000  0.71246000  0.49055000  1.0 -0.0840663681
C  C28  1  0.22191000  0.31020000  0.50945000  1.0 -0.0840663681
C  C29  1  0.91171000  0.19925000  0.68980000  1.0 -0.0840663681
C  C30  1  0.68980000  0.91171000  0.19925000  1.0 -0.0840663681
C  C31  1  0.50945000  0.22191000  0.31020000  1.0 -0.0840663681
C  C32  1  0.28754000  0.08829000  0.77809000  1.0 -0.0840663681
C  C33  1  0.08829000  0.77809000  0.28754000  1.0 -0.0840663681
C  C34  1  0.71246000  0.49055000  0.80075000  1.0 -0.0840663681
C  C35  1  0.49055000  0.80075000  0.71246000  1.0 -0.0840663681
C  C36  1  0.31020000  0.50945000  0.22191000  1.0 -0.0840663681
C  C37  1  0.23799000  0.71836000  0.87365000  1.0 -0.0166684838
C  C38  1  0.84471000  0.36434000  0.12635000  1.0 -0.0166684838
C  C39  1  0.76201000  0.63566000  0.48037000  1.0 -0.0166684838
C  C40  1  0.15529000  0.28164000  0.51963000  1.0 -0.0166684838
C  C41  1  0.87365000  0.23799000  0.71836000  1.0 -0.0166684838
C  C42  1  0.71836000  0.87365000  0.23799000  1.0 -0.0166684838
C  C43  1  0.51963000  0.15529000  0.28164000  1.0 -0.0166684838
C  C44  1  0.36434000  0.12635000  0.84471000  1.0 -0.0166684838
C  C45  1  0.12635000  0.84471000  0.36434000  1.0 -0.0166684838
C  C46  1  0.63566000  0.48037000  0.76201000  1.0 -0.0166684838
C  C47  1  0.48037000  0.76201000  0.63566000  1.0 -0.0166684838
C  C48  1  0.28164000  0.51963000  0.15529000  1.0 -0.0166684838
C  C49  1  0.19626000  0.67954000  0.78876000  1.0 -0.0725234471
C  C50  1  0.89078000  0.40750000  0.21124000  1.0 -0.0725234471
C  C51  1  0.80374000  0.59250000  0.48328000  1.0 -0.0725234471
C  C52  1  0.10922000  0.32046000  0.51672000  1.0 -0.0725234471
C  C53  1  0.78876000  0.19626000  0.67954000  1.0 -0.0725234471
C  C54  1  0.67954000  0.78876000  0.19626000  1.0 -0.0725234471
C  C55  1  0.51672000  0.10922000  0.32046000  1.0 -0.0725234471
C  C56  1  0.40750000  0.21124000  0.89078000  1.0 -0.0725234471
C  C57  1  0.21124000  0.89078000  0.40750000  1.0 -0.0725234471
C  C58  1  0.59250000  0.48328000  0.80374000  1.0 -0.0725234471
C  C59  1  0.48328000  0.80374000  0.59250000  1.0 -0.0725234471
C  C60  1  0.32046000  0.51672000  0.10922000  1.0 -0.0725234471
C  C61  1  0.11801000  0.61463000  0.74398000  1.0 -0.0416108619
C  C62  1  0.87065000  0.37403000  0.25602000  1.0 -0.0416108619
C  C63  1  0.88199000  0.62597000  0.49662000  1.0 -0.0416108619
C  C64  1  0.12935000  0.38537000  0.50338000  1.0 -0.0416108619
C  C65  1  0.74398000  0.11801000  0.61463000  1.0 -0.0416108619
C  C66  1  0.61463000  0.74398000  0.11801000  1.0 -0.0416108619
C  C67  1  0.50338000  0.12935000  0.38537000  1.0 -0.0416108619
C  C68  1  0.37403000  0.25602000  0.87065000  1.0 -0.0416108619
C  C69  1  0.25602000  0.87065000  0.37403000  1.0 -0.0416108619
C  C70  1  0.62597000  0.49662000  0.88199000  1.0 -0.0416108619
C  C71  1  0.49662000  0.88199000  0.62597000  1.0 -0.0416108619
C  C72  1  0.38537000  0.50338000  0.12935000  1.0 -0.0416108619
C  C73  1  0.08337000  0.58976000  0.90849000  1.0 0.606707037
C  C74  1  0.68127000  0.17488000  0.09151000  1.0 0.606707037
C  C75  1  0.91663000  0.82512000  0.50639000  1.0 0.606707037
C  C76  1  0.31873000  0.41024000  0.49361000  1.0 0.606707037
C  C77  1  0.90849000  0.08337000  0.58976000  1.0 0.606707037
C  C78  1  0.58976000  0.90849000  0.08337000  1.0 0.606707037
C  C79  1  0.49361000  0.31873000  0.41024000  1.0 0.606707037
C  C80  1  0.17488000  0.09151000  0.68127000  1.0 0.606707037
C  C81  1  0.09151000  0.68127000  0.17488000  1.0 0.606707037
C  C82  1  0.82512000  0.50639000  0.91663000  1.0 0.606707037
C  C83  1  0.50639000  0.91663000  0.82512000  1.0 0.606707037
C  C84  1  0.41024000  0.49361000  0.31873000  1.0 0.606707037
C  C85  1  0.07606000  0.57506000  0.65492000  1.0 0.587189208
C  C86  1  0.92014000  0.42114000  0.34508000  1.0 0.587189208
C  C87  1  0.92394000  0.57886000  0.49900000  1.0 0.587189208
C  C88  1  0.07986000  0.42494000  0.50100000  1.0 0.587189208
C  C89  1  0.65492000  0.07606000  0.57506000  1.0 0.587189208
C  C90  1  0.57506000  0.65492000  0.07606000  1.0 0.587189208
C  C91  1  0.50100000  0.07986000  0.42494000  1.0 0.587189208
C  C92  1  0.42114000  0.34508000  0.92014000  1.0 0.587189208
C  C93  1  0.34508000  0.92014000  0.42114000  1.0 0.587189208
C  C94  1  0.57886000  0.49900000  0.92394000  1.0 0.587189208
C  C95  1  0.49900000  0.92394000  0.57886000  1.0 0.587189208
C  C96  1  0.42494000  0.50100000  0.07986000  1.0 0.587189208
C  C97  1  0.32380000  0.78720000  0.92260000  1.0 0.5425384298
C  C98  1  0.86460000  0.40120000  0.07740000  1.0 0.5425384298
C  C99  1  0.67620000  0.59880000  0.46340000  1.0 0.5425384298
C  C100  1  0.13540000  0.21280000  0.53660000  1.0 0.5425384298
C  C101  1  0.92260000  0.32380000  0.78720000  1.0 0.5425384298
C  C102  1  0.78720000  0.92260000  0.32380000  1.0 0.5425384298
C  C103  1  0.53660000  0.13540000  0.21280000  1.0 0.5425384298
C  C104  1  0.40120000  0.07740000  0.86460000  1.0 0.5425384298
C  C105  1  0.07740000  0.86460000  0.40120000  1.0 0.5425384298
C  C106  1  0.59880000  0.46340000  0.67620000  1.0 0.5425384298
C  C107  1  0.46340000  0.67620000  0.59880000  1.0 0.5425384298
C  C108  1  0.21280000  0.53660000  0.13540000  1.0 0.5425384298
O  O1  1  0.12562000  0.61812000  0.98196000  1.0 -0.4866841902
O  O2  1  0.63616000  0.14366000  0.01804000  1.0 -0.4866841902
O  O3  1  0.87438000  0.85634000  0.49250000  1.0 -0.4866841902
O  O4  1  0.36384000  0.38188000  0.50750000  1.0 -0.4866841902
O  O5  1  0.98196000  0.12562000  0.61812000  1.0 -0.4866841902
O  O6  1  0.61812000  0.98196000  0.12562000  1.0 -0.4866841902
O  O7  1  0.50750000  0.36384000  0.38188000  1.0 -0.4866841902
O  O8  1  0.14366000  0.01804000  0.63616000  1.0 -0.4866841902
O  O9  1  0.01804000  0.63616000  0.14366000  1.0 -0.4866841902
O  O10  1  0.85634000  0.49250000  0.87438000  1.0 -0.4866841902
O  O11  1  0.49250000  0.87438000  0.85634000  1.0 -0.4866841902
O  O12  1  0.38188000  0.50750000  0.36384000  1.0 -0.4866841902
O  O13  1  0.00998000  0.53607000  0.86491000  1.0 -0.5044262752
O  O14  1  0.67116000  0.14507000  0.13509000  1.0 -0.5063804085
O  O15  1  0.99002000  0.85493000  0.52609000  1.0 -0.5044262752
O  O16  1  0.32884000  0.46393000  0.47391000  1.0 -0.5044262752
O  O17  1  0.86491000  0.00998000  0.53607000  1.0 -0.5044262752
O  O18  1  0.53607000  0.86491000  0.00998000  1.0 -0.5044262752
O  O19  1  0.47391000  0.32884000  0.46393000  1.0 -0.5063804085
O  O20  1  0.14507000  0.13509000  0.67116000  1.0 -0.5044262752
O  O21  1  0.13509000  0.67116000  0.14507000  1.0 -0.5044262752
O  O22  1  0.85493000  0.52609000  0.99002000  1.0 -0.5063804085
O  O23  1  0.52609000  0.99002000  0.85493000  1.0 -0.5044262752
O  O24  1  0.46393000  0.47391000  0.32884000  1.0 -0.5044262752
O  O25  1  0.11156000  0.60215000  0.62279000  1.0 -0.5063804085
O  O26  1  0.97936000  0.48877000  0.37721000  1.0 -0.5063804085
O  O27  1  0.88844000  0.51123000  0.49059000  1.0 -0.5044262752
O  O28  1  0.02064000  0.39785000  0.50941000  1.0 -0.5063804085
O  O29  1  0.62279000  0.11156000  0.60215000  1.0 -0.5063804085
O  O30  1  0.60215000  0.62279000  0.11156000  1.0 -0.5063804085
O  O31  1  0.50941000  0.02064000  0.39785000  1.0 -0.5044262752
O  O32  1  0.48877000  0.37721000  0.97936000  1.0 -0.5063804085
O  O33  1  0.37721000  0.97936000  0.48877000  1.0 -0.5063804085
O  O34  1  0.51123000  0.49059000  0.88844000  1.0 -0.5063804085
O  O35  1  0.49059000  0.88844000  0.51123000  1.0 -0.5063804085
O  O36  1  0.39785000  0.50941000  0.02064000  1.0 -0.5044262752
O  O37  1  0.00630000  0.51495000  0.61893000  1.0 -0.5183824146
O  O38  1  0.89602000  0.38737000  0.38107000  1.0 -0.5183824146
O  O39  1  0.99370000  0.61263000  0.50865000  1.0 -0.5183824146
O  O40  1  0.10398000  0.48505000  0.49135000  1.0 -0.5183824146
O  O41  1  0.61893000  0.00630000  0.51495000  1.0 -0.5183824146
O  O42  1  0.51495000  0.61893000  0.00630000  1.0 -0.5183824146
O  O43  1  0.49135000  0.10398000  0.48505000  1.0 -0.5183824146
O  O44  1  0.38737000  0.38107000  0.89602000  1.0 -0.5183824146
O  O45  1  0.38107000  0.89602000  0.38737000  1.0 -0.5183824146
O  O46  1  0.61263000  0.50865000  0.99370000  1.0 -0.5183824146
O  O47  1  0.50865000  0.99370000  0.61263000  1.0 -0.5183824146
O  O48  1  0.48505000  0.49135000  0.10398000  1.0 -0.5183824146
O  O49  1  0.35409000  0.80662000  0.88241000  1.0 -0.4639481658
O  O50  1  0.92421000  0.47168000  0.11759000  1.0 -0.4639481658
O  O51  1  0.64591000  0.52832000  0.45253000  1.0 -0.4639481658
O  O52  1  0.07579000  0.19338000  0.54747000  1.0 -0.4639481658
O  O53  1  0.88241000  0.35409000  0.80662000  1.0 -0.4639481658
O  O54  1  0.80662000  0.88241000  0.35409000  1.0 -0.4639481658
O  O55  1  0.54747000  0.07579000  0.19338000  1.0 -0.4639481658
O  O56  1  0.47168000  0.11759000  0.92421000  1.0 -0.4655256216
O  O57  1  0.11759000  0.92421000  0.47168000  1.0 -0.4639481658
O  O58  1  0.52832000  0.45253000  0.64591000  1.0 -0.4639481658
O  O59  1  0.45253000  0.64591000  0.52832000  1.0 -0.4639481658
O  O60  1  0.19338000  0.54747000  0.07579000  1.0 -0.4639481658
O  O61  1  0.35848000  0.82142000  0.99496000  1.0 -0.4065278416
O  O62  1  0.82646000  0.36352000  0.00504000  1.0 -0.3994777446
O  O63  1  0.64152000  0.63648000  0.46294000  1.0 -0.4065278416
O  O64  1  0.17354000  0.17858000  0.53706000  1.0 -0.4065278416
O  O65  1  0.99496000  0.35848000  0.82142000  1.0 -0.4065278416
O  O66  1  0.82142000  0.99496000  0.35848000  1.0 -0.3994777446
O  O67  1  0.53706000  0.17354000  0.17858000  1.0 -0.3994777446
O  O68  1  0.36352000  0.00504000  0.82646000  1.0 -0.4065278416
O  O69  1  0.00504000  0.82646000  0.36352000  1.0 -0.4065278416
O  O70  1  0.63648000  0.46294000  0.64152000  1.0 -0.3994777446
O  O71  1  0.46294000  0.64152000  0.63648000  1.0 -0.4065278416
O  O72  1  0.17858000  0.53706000  0.17354000  1.0 -0.4065278416
O  O73  1  0.00000000  0.48908000  0.00000000  1.0 -0.973137403
O  O74  1  0.48908000  0.00000000  0.00000000  1.0 -0.973137403
O  O75  1  0.00000000  0.00000000  0.48908000  1.0 -0.973137403
O  O76  1  0.51092000  0.51092000  0.51092000  1.0 -0.973137403
O  O77  1  0.85335000  0.35335000  0.50000000  1.0 -0.2246578281
O  O78  1  0.14665000  0.64665000  0.50000000  1.0 -0.2308022474
O  O79  1  0.50000000  0.85335000  0.35335000  1.0 -0.2246578281
O  O80  1  0.35335000  0.50000000  0.85335000  1.0 -0.2308022474
O  O81  1  0.50000000  0.14665000  0.64665000  1.0 -0.2308022474
O  O82  1  0.64665000  0.50000000  0.14665000  1.0 -0.2308022474
