# DDEC6 charges by PACMAN v1.1 (https://github.com/mtap-research/PACMAN-charge/)
data_VEHLEA_FSR_pacman
_symmetry_space_group_name_H-M   'P 1'
_cell_length_a   8.94945000
_cell_length_b   8.94945000
_cell_length_c   16.13580000
_cell_angle_alpha   70.39460000
_cell_angle_beta   109.60500000
_cell_angle_gamma   123.80000000
_symmetry_Int_Tables_number   1
_chemical_formula_structural   Zn3(PO3)4
_chemical_formula_sum   'Zn6 P8 O24'
_cell_volume   993.20645769
_cell_formula_units_Z   2
loop_
 _symmetry_equiv_pos_site_id
 _symmetry_equiv_pos_as_xyz
  1  'x, y, z'
loop_
 _atom_site_type_symbol
 _atom_site_label
 _atom_site_symmetry_multiplicity
 _atom_site_fract_x
 _atom_site_fract_y
 _atom_site_fract_z
 _atom_site_occupancy
 _atom_site_charge
Zn  Zn1  1  0.87278000  0.87278000  0.75000000  1.0 1.1232104867
Zn  Zn2  1  0.12722000  0.12722000  0.25000000  1.0 1.1232104867
Zn  Zn3  1  0.72602000  0.99890000  0.47553000  1.0 1.1325157253
Zn  Zn4  1  0.99890000  0.72602000  0.02447000  1.0 1.1325157253
Zn  Zn5  1  0.27398000  0.00110000  0.52447000  1.0 1.1325157253
Zn  Zn6  1  0.00110000  0.27398000  0.97553000  1.0 1.1354153721
P  P1  1  0.10699000  0.14779000  0.59952000  1.0 1.4287973611
P  P2  1  0.14779000  0.10699000  0.90048000  1.0 1.4287973611
P  P3  1  0.89301000  0.85221000  0.40048000  1.0 1.4287973611
P  P4  1  0.85221000  0.89301000  0.09952000  1.0 1.4287973611
P  P5  1  0.48488000  0.78992000  0.63508000  1.0 1.3644736378
P  P6  1  0.78992000  0.48488000  0.86492000  1.0 1.3644736378
P  P7  1  0.51512000  0.21008000  0.36492000  1.0 1.3696538179
P  P8  1  0.21008000  0.51512000  0.13508000  1.0 1.3696538179
O  O1  1  0.01420000  0.96380000  0.65940000  1.0 -0.8010231213
O  O2  1  0.96380000  0.01420000  0.84060000  1.0 -0.8010231213
O  O3  1  0.98580000  0.03620000  0.34060000  1.0 -0.8010231213
O  O4  1  0.03620000  0.98580000  0.15940000  1.0 -0.8010231213
O  O5  1  0.63690000  0.85730000  0.71370000  1.0 -0.7251896294
O  O6  1  0.85730000  0.63690000  0.78630000  1.0 -0.7251896294
O  O7  1  0.36310000  0.14270000  0.28630000  1.0 -0.7251896294
O  O8  1  0.14270000  0.36310000  0.21370000  1.0 -0.7237031491
O  O9  1  0.97030000  0.18570000  0.52380000  1.0 -0.7503108414
O  O10  1  0.18570000  0.97030000  0.97620000  1.0 -0.7503108414
O  O11  1  0.02970000  0.81430000  0.47620000  1.0 -0.7503108414
O  O12  1  0.81430000  0.02970000  0.02380000  1.0 -0.7503108414
O  O13  1  0.25770000  0.16910000  0.56750000  1.0 -0.7070525064
O  O14  1  0.16910000  0.25770000  0.93250000  1.0 -0.7070525064
O  O15  1  0.74230000  0.83090000  0.43250000  1.0 -0.7070525064
O  O16  1  0.83090000  0.74230000  0.06750000  1.0 -0.7070525064
O  O17  1  0.35050000  0.84910000  0.62390000  1.0 -0.7070525064
O  O18  1  0.84910000  0.35050000  0.87610000  1.0 -0.7070525064
O  O19  1  0.64950000  0.15090000  0.37610000  1.0 -0.7070525064
O  O20  1  0.15090000  0.64950000  0.12390000  1.0 -0.7047599585
O  O21  1  0.55150000  0.83090000  0.55190000  1.0 -0.8010231213
O  O22  1  0.83090000  0.55150000  0.94810000  1.0 -0.8010231213
O  O23  1  0.44850000  0.16910000  0.44810000  1.0 -0.8010231213
O  O24  1  0.16910000  0.44850000  0.05190000  1.0 -0.8010231213
