# DDEC6 charges by PACMAN v1.1 (https://github.com/mtap-research/PACMAN-charge/)
data_VEJHUR_FSR_pacman
_symmetry_space_group_name_H-M   'P 1'
_cell_length_a   7.45700000
_cell_length_b   14.71100000
_cell_length_c   15.44200000
_cell_angle_alpha   104.49000000
_cell_angle_beta   99.92000000
_cell_angle_gamma   90.28000000
_symmetry_Int_Tables_number   1
_chemical_formula_structural   FeH20Pd(C13N6)2
_chemical_formula_sum   'Fe2 H40 Pd2 C52 N24'
_cell_volume   1613.53530096
_cell_formula_units_Z   2
loop_
 _symmetry_equiv_pos_site_id
 _symmetry_equiv_pos_as_xyz
  1  'x, y, z'
loop_
 _atom_site_type_symbol
 _atom_site_label
 _atom_site_symmetry_multiplicity
 _atom_site_fract_x
 _atom_site_fract_y
 _atom_site_fract_z
 _atom_site_occupancy
 _atom_site_charge
Fe  Fe1  1  0.00000000  0.50000000  0.00000000  1.0 0.7583778941
Fe  Fe2  1  0.00000000  0.00000000  0.00000000  1.0 0.7583778941
H  H1  1  0.12057000  0.69781000  0.16255000  1.0 0.1370521032
H  H2  1  0.10915000  0.11078000  0.21555000  1.0 0.1298728131
H  H3  1  0.09603000  0.55761000  0.34432000  1.0 0.1218758751
H  H4  1  0.19171000  0.69085000  0.44278000  1.0 0.1013394637
H  H5  1  0.44125000  0.00432000  0.57891000  1.0 0.1094362435
H  H6  1  0.23457000  0.21842000  0.69037000  1.0 0.1094362435
H  H7  1  0.54810000  0.12792000  0.84581000  1.0 0.1094362435
H  H8  1  0.28325000  0.78369000  0.59981000  1.0 0.1218758751
H  H9  1  0.43177000  0.99633000  0.87531000  1.0 0.1218758751
H  H10  1  0.31194000  0.29555000  0.83860000  1.0 0.1094362435
H  H11  1  0.45183000  0.44228000  0.88052000  1.0 0.1218758751
H  H12  1  0.01744000  0.87769000  0.28302000  1.0 0.1218758751
H  H13  1  0.28835000  0.88532000  0.47441000  1.0 0.1298728131
H  H14  1  0.33074000  0.86530000  0.75716000  1.0 0.1094362435
H  H15  1  0.20104000  0.16799000  0.36782000  1.0 0.1013394637
H  H16  1  0.18164000  0.14386000  0.54410000  1.0 0.1218758751
H  H17  1  0.55394000  0.13182000  0.69855000  1.0 0.1013394637
H  H18  1  0.31005000  0.29961000  0.49985000  1.0 0.1218758751
H  H19  1  0.51880000  0.51299000  0.76900000  1.0 0.1094362435
H  H20  1  0.44142000  0.43185000  0.61865000  1.0 0.1094362435
H  H21  1  0.87943000  0.30219000  0.83745000  1.0 0.1370521032
H  H22  1  0.89085000  0.88922000  0.78445000  1.0 0.1298728131
H  H23  1  0.90397000  0.44239000  0.65568000  1.0 0.1218758751
H  H24  1  0.80829000  0.30915000  0.55722000  1.0 0.1013394637
H  H25  1  0.55875000  0.99568000  0.42109000  1.0 0.1094362435
H  H26  1  0.76543000  0.78158000  0.30963000  1.0 0.1094362435
H  H27  1  0.45190000  0.87208000  0.15419000  1.0 0.1094362435
H  H28  1  0.71675000  0.21631000  0.40019000  1.0 0.1218758751
H  H29  1  0.56823000  0.00367000  0.12469000  1.0 0.1218758751
H  H30  1  0.68806000  0.70445000  0.16140000  1.0 0.1094362435
H  H31  1  0.54817000  0.55772000  0.11948000  1.0 0.1218758751
H  H32  1  0.98256000  0.12231000  0.71698000  1.0 0.1218758751
H  H33  1  0.71165000  0.11468000  0.52559000  1.0 0.1298728131
H  H34  1  0.66926000  0.13470000  0.24284000  1.0 0.1094362435
H  H35  1  0.79896000  0.83201000  0.63218000  1.0 0.1013394637
H  H36  1  0.81836000  0.85614000  0.45590000  1.0 0.1218758751
H  H37  1  0.44606000  0.86818000  0.30145000  1.0 0.1013394637
H  H38  1  0.68995000  0.70039000  0.50015000  1.0 0.1218758751
H  H39  1  0.48120000  0.48701000  0.23100000  1.0 0.1094362435
H  H40  1  0.55858000  0.56815000  0.38135000  1.0 0.1094362435
Pd  Pd1  1  0.48957000  0.74266000  0.96354000  1.0 0.1732035346
Pd  Pd2  1  0.51043000  0.25734000  0.03646000  1.0 0.1732035346
C  C1  1  0.29850000  0.83640000  0.96190000  1.0 0.0398730414
C  C2  1  0.68290000  0.65080000  0.97090000  1.0 0.0398730414
C  C3  1  0.30540000  0.64860000  0.97520000  1.0 0.0513978028
C  C4  1  0.67470000  0.83810000  0.95710000  1.0 0.0601621151
C  C5  1  0.10550000  0.64910000  0.18950000  1.0 0.0759001442
C  C6  1  0.08040000  0.04840000  0.21270000  1.0 0.0713682559
C  C7  1  0.37320000  0.92120000  0.65500000  1.0 0.1094362435
C  C8  1  0.09310000  0.57230000  0.28890000  1.0 0.0713682559
C  C9  1  0.21150000  0.74580000  0.42570000  1.0 0.0513978028
C  C10  1  0.44040000  0.00160000  0.63840000  1.0 -0.1608051218
C  C11  1  0.29150000  0.27810000  0.70560000  1.0 -0.1608051218
C  C12  1  0.50390000  0.07600000  0.79820000  1.0 -0.0953589238
C  C13  1  0.32530000  0.31630000  0.63610000  1.0 0.1094362435
C  C14  1  0.30540000  0.83810000  0.58220000  1.0 -0.1515492431
C  C15  1  0.43600000  0.99750000  0.81580000  1.0 -0.0805108703
C  C16  1  0.33760000  0.32390000  0.79430000  1.0 -0.0874020464
C  C17  1  0.42120000  0.41090000  0.81930000  1.0 -0.0805108703
C  C18  1  0.03110000  0.92050000  0.24910000  1.0 0.0601621151
C  C19  1  0.27180000  0.83130000  0.49370000  1.0 -0.1392328299
C  C20  1  0.37320000  0.91930000  0.74470000  1.0 -0.1608051218
C  C21  1  0.17510000  0.13460000  0.40830000  1.0 0.0513978028
C  C22  1  0.21040000  0.17820000  0.50490000  1.0 -0.1392328299
C  C23  1  0.50690000  0.07830000  0.71020000  1.0 -0.1092609249
C  C24  1  0.28370000  0.26690000  0.54080000  1.0 -0.1608051218
C  C25  1  0.46130000  0.45340000  0.75290000  1.0 -0.0805108703
C  C26  1  0.41340000  0.40440000  0.66310000  1.0 -0.1705142117
C  C27  1  0.70150000  0.16360000  0.03810000  1.0 0.0398730414
C  C28  1  0.31710000  0.34920000  0.02910000  1.0 0.0398730414
C  C29  1  0.69460000  0.35140000  0.02480000  1.0 0.0513978028
C  C30  1  0.32530000  0.16190000  0.04290000  1.0 0.0601621151
C  C31  1  0.89450000  0.35090000  0.81050000  1.0 0.0759001442
C  C32  1  0.91960000  0.95160000  0.78730000  1.0 0.0713682559
C  C33  1  0.62680000  0.07880000  0.34500000  1.0 0.1094362435
C  C34  1  0.90690000  0.42770000  0.71110000  1.0 0.0713682559
C  C35  1  0.78850000  0.25420000  0.57430000  1.0 0.0513978028
C  C36  1  0.55960000  0.99840000  0.36160000  1.0 -0.1608051218
C  C37  1  0.70850000  0.72190000  0.29440000  1.0 -0.1608051218
C  C38  1  0.49610000  0.92400000  0.20180000  1.0 -0.0953589238
C  C39  1  0.67470000  0.68370000  0.36390000  1.0 0.1094362435
C  C40  1  0.69460000  0.16190000  0.41780000  1.0 -0.1515492431
C  C41  1  0.56400000  0.00250000  0.18420000  1.0 -0.0805108703
C  C42  1  0.66240000  0.67610000  0.20570000  1.0 -0.0874020464
C  C43  1  0.57880000  0.58910000  0.18070000  1.0 -0.0805108703
C  C44  1  0.96890000  0.07950000  0.75090000  1.0 0.0601621151
C  C45  1  0.72820000  0.16870000  0.50630000  1.0 -0.1392328299
C  C46  1  0.62680000  0.08070000  0.25530000  1.0 -0.1608051218
C  C47  1  0.82490000  0.86540000  0.59170000  1.0 0.0513978028
C  C48  1  0.78960000  0.82180000  0.49510000  1.0 -0.1392328299
C  C49  1  0.49310000  0.92170000  0.28980000  1.0 -0.1092609249
C  C50  1  0.71630000  0.73310000  0.45920000  1.0 -0.1608051218
C  C51  1  0.53870000  0.54660000  0.24710000  1.0 -0.0805108703
C  C52  1  0.58660000  0.59560000  0.33690000  1.0 -0.1705142117
N  N1  1  0.03550000  0.98270000  0.13830000  1.0 -0.1515492431
N  N2  1  0.20190000  0.59680000  0.98320000  1.0 -0.3402664705
N  N3  1  0.05590000  0.56290000  0.14500000  1.0 -0.1608051218
N  N4  1  0.78190000  0.89330000  0.95810000  1.0 -0.3402664705
N  N5  1  0.19140000  0.89180000  0.96570000  1.0 -0.3402664705
N  N6  1  0.13240000  0.65840000  0.28020000  1.0 0.0866502368
N  N7  1  0.79400000  0.59820000  0.97880000  1.0 -0.3402664705
N  N8  1  0.07950000  0.01350000  0.28590000  1.0 0.1094362435
N  N9  1  0.05080000  0.51270000  0.21070000  1.0 -0.1820843152
N  N10  1  0.00680000  0.89930000  0.16160000  1.0 -0.1923727251
N  N11  1  0.18520000  0.74540000  0.34230000  1.0 -0.2150982774
N  N12  1  0.10870000  0.05090000  0.37890000  1.0 -0.1991620518
N  N13  1  0.96450000  0.01730000  0.86170000  1.0 -0.1515492431
N  N14  1  0.79810000  0.40320000  0.01680000  1.0 -0.3402664705
N  N15  1  0.94410000  0.43710000  0.85500000  1.0 -0.1608051218
N  N16  1  0.21810000  0.10670000  0.04190000  1.0 -0.3402664705
N  N17  1  0.80860000  0.10820000  0.03430000  1.0 -0.3402664705
N  N18  1  0.86760000  0.34160000  0.71980000  1.0 0.0866502368
N  N19  1  0.20600000  0.40180000  0.02120000  1.0 -0.3402664705
N  N20  1  0.92050000  0.98650000  0.71410000  1.0 0.1094362435
N  N21  1  0.94920000  0.48730000  0.78930000  1.0 -0.1820843152
N  N22  1  0.99320000  0.10070000  0.83840000  1.0 -0.1923727251
N  N23  1  0.81480000  0.25460000  0.65770000  1.0 -0.2150982774
N  N24  1  0.89130000  0.94910000  0.62110000  1.0 -0.1991620518
