# DDEC6 charges by PACMAN v1.1 (https://github.com/mtap-research/PACMAN-charge/)
data_VEJHUR01_FSR_pacman
_symmetry_space_group_name_H-M   'P 1'
_cell_length_a   7.45270000
_cell_length_b   14.75700000
_cell_length_c   15.41090000
_cell_angle_alpha   104.33100000
_cell_angle_beta   99.94200000
_cell_angle_gamma   90.13800000
_symmetry_Int_Tables_number   1
_chemical_formula_structural   FeH20Pd(C13N6)2
_chemical_formula_sum   'Fe2 H40 Pd2 C52 N24'
_cell_volume   1615.67083369
_cell_formula_units_Z   2
loop_
 _symmetry_equiv_pos_site_id
 _symmetry_equiv_pos_as_xyz
  1  'x, y, z'
loop_
 _atom_site_type_symbol
 _atom_site_label
 _atom_site_symmetry_multiplicity
 _atom_site_fract_x
 _atom_site_fract_y
 _atom_site_fract_z
 _atom_site_occupancy
 _atom_site_charge
Fe  Fe1  1  0.50000000  0.50000000  0.50000000  1.0 0.7586277294
Fe  Fe2  1  0.50000000  0.00000000  0.50000000  1.0 0.7586277294
H  H1  1  0.38272000  0.30247000  0.33718000  1.0 0.1399913
H  H2  1  0.39761000  0.44348000  0.15438000  1.0 0.1218380405
H  H3  1  0.30654000  0.30905000  0.05532000  1.0 0.100885536
H  H4  1  0.21465000  0.11381000  0.02519000  1.0 0.1302561529
H  H5  1  0.21088000  0.21589000  0.89881000  1.0 0.1218380405
H  H6  1  0.16438000  0.13231000  0.73966000  1.0 0.1096320872
H  H7  1  0.06314000  0.00140000  0.62264000  1.0 0.1218380405
H  H8  1  0.95672000  0.86840000  0.65550000  1.0 0.100885536
H  H9  1  0.94655000  0.86699000  0.80498000  1.0 0.100885536
H  H10  1  0.06375000  0.99730000  0.92304000  1.0 0.1096320872
H  H11  1  0.39110000  0.88964000  0.28363000  1.0 0.1302561529
H  H12  1  0.47872000  0.12147000  0.21468000  1.0 0.1218380405
H  H13  1  0.29740000  0.83163000  0.13151000  1.0 0.100885536
H  H14  1  0.31846000  0.85462000  0.95501000  1.0 0.1302561529
H  H15  1  0.19127000  0.70038000  0.00044000  1.0 0.1218380405
H  H16  1  0.05856000  0.56635000  0.88075000  1.0 0.1096320872
H  H17  1  0.97791000  0.48827000  0.72921000  1.0 0.1096320872
H  H18  1  0.03926000  0.55502000  0.61783000  1.0 0.1218380405
H  H19  1  0.18697000  0.70136000  0.65678000  1.0 0.1096320872
H  H20  1  0.26968000  0.78154000  0.80868000  1.0 0.1096320872
H  H21  1  0.61728000  0.69753000  0.66282000  1.0 0.1399913
H  H22  1  0.60239000  0.55652000  0.84562000  1.0 0.1218380405
H  H23  1  0.69346000  0.69095000  0.94468000  1.0 0.100885536
H  H24  1  0.78535000  0.88619000  0.97481000  1.0 0.1302561529
H  H25  1  0.78912000  0.78411000  0.10119000  1.0 0.1218380405
H  H26  1  0.83562000  0.86769000  0.26034000  1.0 0.1096320872
H  H27  1  0.93686000  0.99860000  0.37736000  1.0 0.1218380405
H  H28  1  0.04328000  0.13160000  0.34450000  1.0 0.100885536
H  H29  1  0.05345000  0.13301000  0.19502000  1.0 0.100885536
H  H30  1  0.93625000  0.00270000  0.07696000  1.0 0.1096320872
H  H31  1  0.60890000  0.11036000  0.71637000  1.0 0.1302561529
H  H32  1  0.52128000  0.87853000  0.78532000  1.0 0.1218380405
H  H33  1  0.70260000  0.16837000  0.86849000  1.0 0.100885536
H  H34  1  0.68154000  0.14538000  0.04499000  1.0 0.1302561529
H  H35  1  0.80873000  0.29962000  0.99956000  1.0 0.1218380405
H  H36  1  0.94144000  0.43365000  0.11925000  1.0 0.1096320872
H  H37  1  0.02209000  0.51173000  0.27079000  1.0 0.1096320872
H  H38  1  0.96074000  0.44498000  0.38217000  1.0 0.1218380405
H  H39  1  0.81303000  0.29864000  0.34322000  1.0 0.1096320872
H  H40  1  0.73032000  0.21846000  0.19132000  1.0 0.1096320872
Pd  Pd1  1  0.01128000  0.25785000  0.53816000  1.0 0.1766049358
Pd  Pd2  1  0.98872000  0.74215000  0.46184000  1.0 0.1766049358
C  C1  1  0.19630000  0.35180000  0.52650000  1.0 0.0496009189
C  C2  1  0.81630000  0.35050000  0.53060000  1.0 0.0405093588
C  C3  1  0.39630000  0.35100000  0.30980000  1.0 0.0807403194
C  C4  1  0.40460000  0.42840000  0.21000000  1.0 0.061563545
C  C5  1  0.28830000  0.25450000  0.07320000  1.0 0.0496009189
C  C6  1  0.22850000  0.16770000  0.00550000  1.0 -0.1332223323
C  C7  1  0.19250000  0.16130000  0.91660000  1.0 -0.1508074199
C  C8  1  0.12720000  0.07800000  0.84400000  1.0 0.1096320872
C  C9  1  0.12400000  0.07860000  0.75310000  1.0 -0.1508074199
C  C10  1  0.06180000  0.00040000  0.68260000  1.0 -0.0804564414
C  C11  1  0.99760000  0.92110000  0.70240000  1.0 -0.0896626706
C  C12  1  0.99370000  0.91950000  0.79200000  1.0 -0.1145508682
C  C13  1  0.06230000  0.99860000  0.86290000  1.0 -0.1682091288
C  C14  1  0.20200000  0.16290000  0.53980000  1.0 0.0405093588
C  C15  1  0.82400000  0.16280000  0.54340000  1.0 0.0496009189
C  C16  1  0.41850000  0.95190000  0.28620000  1.0 0.0728466044
C  C17  1  0.46620000  0.07900000  0.24910000  1.0 0.061563545
C  C18  1  0.32260000  0.86450000  0.09040000  1.0 0.061563545
C  C19  1  0.28870000  0.82080000  0.99450000  1.0 -0.1508074199
C  C20  1  0.21570000  0.73300000  0.95900000  1.0 -0.1567628106
C  C21  1  0.17050000  0.68280000  0.86260000  1.0 0.1096320872
C  C22  1  0.08450000  0.59460000  0.83640000  1.0 -0.1682091288
C  C23  1  0.03610000  0.54740000  0.74510000  1.0 -0.0804564414
C  C24  1  0.07300000  0.58690000  0.67870000  1.0 -0.0896626706
C  C25  1  0.16080000  0.67450000  0.70210000  1.0 -0.0896626706
C  C26  1  0.21020000  0.72280000  0.79330000  1.0 -0.1682091288
C  C27  1  0.80370000  0.64820000  0.47350000  1.0 0.0496009189
C  C28  1  0.18370000  0.64950000  0.46940000  1.0 0.0405093588
C  C29  1  0.60370000  0.64900000  0.69020000  1.0 0.0807403194
C  C30  1  0.59540000  0.57160000  0.79000000  1.0 0.061563545
C  C31  1  0.71170000  0.74550000  0.92680000  1.0 0.0496009189
C  C32  1  0.77150000  0.83230000  0.99450000  1.0 -0.1332223323
C  C33  1  0.80750000  0.83870000  0.08340000  1.0 -0.1508074199
C  C34  1  0.87280000  0.92200000  0.15600000  1.0 0.1096320872
C  C35  1  0.87600000  0.92140000  0.24690000  1.0 -0.1508074199
C  C36  1  0.93820000  0.99960000  0.31740000  1.0 -0.0804564414
C  C37  1  0.00240000  0.07890000  0.29760000  1.0 -0.0896626706
C  C38  1  0.00630000  0.08050000  0.20800000  1.0 -0.1145508682
C  C39  1  0.93770000  0.00140000  0.13710000  1.0 -0.1682091288
C  C40  1  0.79800000  0.83710000  0.46020000  1.0 0.0405093588
C  C41  1  0.17600000  0.83720000  0.45660000  1.0 0.0496009189
C  C42  1  0.58150000  0.04810000  0.71380000  1.0 0.0728466044
C  C43  1  0.53380000  0.92100000  0.75090000  1.0 0.061563545
C  C44  1  0.67740000  0.13550000  0.90960000  1.0 0.061563545
C  C45  1  0.71130000  0.17920000  0.00550000  1.0 -0.1508074199
C  C46  1  0.78430000  0.26700000  0.04100000  1.0 -0.1567628106
C  C47  1  0.82950000  0.31720000  0.13740000  1.0 0.1096320872
C  C48  1  0.91550000  0.40540000  0.16360000  1.0 -0.1682091288
C  C49  1  0.96390000  0.45260000  0.25490000  1.0 -0.0804564414
C  C50  1  0.92700000  0.41310000  0.32130000  1.0 -0.0896626706
C  C51  1  0.83920000  0.32550000  0.29790000  1.0 -0.0896626706
C  C52  1  0.78980000  0.27720000  0.20670000  1.0 -0.1682091288
N  N1  1  0.29890000  0.40310000  0.51710000  1.0 -0.3341931385
N  N2  1  0.70790000  0.40250000  0.52190000  1.0 -0.3341931385
N  N3  1  0.44360000  0.43740000  0.35360000  1.0 -0.1567628106
N  N4  1  0.44890000  0.48750000  0.28860000  1.0 -0.1768602861
N  N5  1  0.37000000  0.34180000  0.21970000  1.0 0.0935309994
N  N6  1  0.31580000  0.25540000  0.15740000  1.0 -0.2105844451
N  N7  1  0.30870000  0.10760000  0.53520000  1.0 -0.3402712253
N  N8  1  0.71630000  0.10730000  0.54140000  1.0 -0.3402712253
N  N9  1  0.46170000  0.01800000  0.36090000  1.0 -0.1508074199
N  N10  1  0.49160000  0.10090000  0.33730000  1.0 -0.1941203905
N  N11  1  0.41910000  0.98660000  0.21290000  1.0 0.100885536
N  N12  1  0.38740000  0.94840000  0.11850000  1.0 -0.2105844451
N  N13  1  0.70110000  0.59690000  0.48290000  1.0 -0.3341931385
N  N14  1  0.29210000  0.59750000  0.47810000  1.0 -0.3341931385
N  N15  1  0.55640000  0.56260000  0.64640000  1.0 -0.1567628106
N  N16  1  0.55110000  0.51250000  0.71140000  1.0 -0.1768602861
N  N17  1  0.63000000  0.65820000  0.78030000  1.0 0.0935309994
N  N18  1  0.68420000  0.74460000  0.84260000  1.0 -0.2105844451
N  N19  1  0.69130000  0.89240000  0.46480000  1.0 -0.3402712253
N  N20  1  0.28370000  0.89270000  0.45860000  1.0 -0.3402712253
N  N21  1  0.53830000  0.98200000  0.63910000  1.0 -0.1508074199
N  N22  1  0.50840000  0.89910000  0.66270000  1.0 -0.1941203905
N  N23  1  0.58090000  0.01340000  0.78710000  1.0 0.100885536
N  N24  1  0.61260000  0.05160000  0.88150000  1.0 -0.2105844451
