# DDEC6 charges by PACMAN v1.1 (https://github.com/mtap-research/PACMAN-charge/)
data_VEJHUR03_FSR_pacman
_symmetry_space_group_name_H-M   'P 1'
_cell_length_a   7.19670000
_cell_length_b   14.26090000
_cell_length_c   15.25140000
_cell_angle_alpha   103.85400000
_cell_angle_beta   99.89100000
_cell_angle_gamma   90.13200000
_symmetry_Int_Tables_number   1
_chemical_formula_structural   FeH20Pd(C13N6)2
_chemical_formula_sum   'Fe2 H40 Pd2 C52 N24'
_cell_volume   1495.60413647
_cell_formula_units_Z   2
loop_
 _symmetry_equiv_pos_site_id
 _symmetry_equiv_pos_as_xyz
  1  'x, y, z'
loop_
 _atom_site_type_symbol
 _atom_site_label
 _atom_site_symmetry_multiplicity
 _atom_site_fract_x
 _atom_site_fract_y
 _atom_site_fract_z
 _atom_site_occupancy
 _atom_site_charge
Fe  Fe1  1  0.50000000  0.50000000  0.50000000  1.0 0.5686993335
Fe  Fe2  1  0.50000000  0.00000000  0.50000000  1.0 0.5686993335
H  H1  1  0.38674000  0.80158000  0.34893000  1.0 0.1414662708
H  H2  1  0.04918000  0.05894000  0.61173000  1.0 0.1212716944
H  H3  1  0.16857000  0.64400000  0.74329000  1.0 0.1102967132
H  H4  1  0.07117000  0.51032000  0.62490000  1.0 0.1212716944
H  H5  1  0.19525000  0.21281000  0.65859000  1.0 0.1005520544
H  H6  1  0.40052000  0.37928000  0.29119000  1.0 0.1414662708
H  H7  1  0.30505000  0.81879000  0.06466000  1.0 0.0914015506
H  H8  1  0.27509000  0.28777000  0.81187000  1.0 0.1005520544
H  H9  1  0.06065000  0.49636000  0.92446000  1.0 0.1102967132
H  H10  1  0.95251000  0.37198000  0.65424000  1.0 0.1005520544
H  H11  1  0.21736000  0.72697000  0.90504000  1.0 0.1212716944
H  H12  1  0.21683000  0.61617000  0.03074000  1.0 0.1212716944
H  H13  1  0.32884000  0.35603000  0.95986000  1.0 0.1259578277
H  H14  1  0.06392000  0.05673000  0.87596000  1.0 0.1102967132
H  H15  1  0.29667000  0.32378000  0.13538000  1.0 0.1005520544
H  H16  1  0.94692000  0.36535000  0.80529000  1.0 0.1005520544
H  H17  1  0.38959000  0.95516000  0.16551000  1.0 0.1212716944
H  H18  1  0.19068000  0.19393000  0.00071000  1.0 0.1212716944
H  H19  1  0.47548000  0.62502000  0.22446000  1.0 0.1102967132
H  H20  1  0.98359000  0.98213000  0.72220000  1.0 0.1102967132
H  H21  1  0.61326000  0.19842000  0.65107000  1.0 0.1414662708
H  H22  1  0.95082000  0.94106000  0.38827000  1.0 0.1212716944
H  H23  1  0.83143000  0.35600000  0.25671000  1.0 0.1102967132
H  H24  1  0.92883000  0.48968000  0.37510000  1.0 0.1212716944
H  H25  1  0.80475000  0.78719000  0.34141000  1.0 0.1005520544
H  H26  1  0.59948000  0.62072000  0.70881000  1.0 0.1414662708
H  H27  1  0.69495000  0.18121000  0.93534000  1.0 0.0914015506
H  H28  1  0.72491000  0.71223000  0.18813000  1.0 0.1005520544
H  H29  1  0.93935000  0.50364000  0.07554000  1.0 0.1102967132
H  H30  1  0.04749000  0.62802000  0.34576000  1.0 0.1005520544
H  H31  1  0.78264000  0.27303000  0.09496000  1.0 0.1212716944
H  H32  1  0.78317000  0.38383000  0.96926000  1.0 0.1212716944
H  H33  1  0.67116000  0.64397000  0.04014000  1.0 0.1259578277
H  H34  1  0.93608000  0.94327000  0.12404000  1.0 0.1102967132
H  H35  1  0.70333000  0.67622000  0.86462000  1.0 0.1005520544
H  H36  1  0.05308000  0.63465000  0.19471000  1.0 0.1005520544
H  H37  1  0.61041000  0.04484000  0.83449000  1.0 0.1212716944
H  H38  1  0.80932000  0.80607000  0.99929000  1.0 0.1212716944
H  H39  1  0.52452000  0.37498000  0.77554000  1.0 0.1102967132
H  H40  1  0.01641000  0.01787000  0.27780000  1.0 0.1102967132
Pd  Pd1  1  0.01167000  0.75808000  0.53584000  1.0 0.1493863796
Pd  Pd2  1  0.98833000  0.24192000  0.46416000  1.0 0.1493863796
C  C1  1  0.81000000  0.85400000  0.52840000  1.0 0.0175651821
C  C2  1  0.20160000  0.85520000  0.52480000  1.0 0.0175651821
C  C3  1  0.20770000  0.65890000  0.53380000  1.0 0.0175651821
C  C4  1  0.81960000  0.65870000  0.53940000  1.0 0.0175651821
C  C5  1  0.39740000  0.85290000  0.32200000  1.0 0.0584280314
C  C6  1  0.08110000  0.08930000  0.67380000  1.0 -0.0813884105
C  C7  1  0.12800000  0.58770000  0.75620000  1.0 -0.1615819021
C  C8  1  0.06620000  0.50810000  0.68490000  1.0 -0.0813884105
C  C9  1  0.17680000  0.18160000  0.86270000  1.0 0.1102967132
C  C10  1  0.16850000  0.18140000  0.70210000  1.0 -0.0909222169
C  C11  1  0.42450000  0.44430000  0.29490000  1.0 0.0526948667
C  C12  1  0.28780000  0.76120000  0.08130000  1.0 0.0584280314
C  C13  1  0.13060000  0.58510000  0.84810000  1.0 0.1102967132
C  C14  1  0.21600000  0.22640000  0.79440000  1.0 -0.1615819021
C  C15  1  0.06130000  0.49980000  0.86440000  1.0 -0.1615819021
C  C16  1  0.99690000  0.42490000  0.70250000  1.0 -0.0958887006
C  C17  1  0.19670000  0.66980000  0.92180000  1.0 -0.1531355868
C  C18  1  0.23070000  0.67300000  0.01230000  1.0 -0.1372866
C  C19  1  0.29520000  0.31920000  0.99790000  1.0 -0.1372866
C  C20  1  0.09010000  0.08880000  0.83280000  1.0 -0.1720042046
C  C21  1  0.32600000  0.36000000  0.09600000  1.0 0.0584280314
C  C22  1  0.99390000  0.42080000  0.79310000  1.0 -0.1070020947
C  C23  1  0.39950000  0.93790000  0.22110000  1.0 0.0526948667
C  C24  1  0.21920000  0.22930000  0.96040000  1.0 -0.1531355868
C  C25  1  0.46470000  0.58000000  0.25860000  1.0 0.0584280314
C  C26  1  0.04220000  0.04360000  0.74020000  1.0 -0.0909222169
C  C27  1  0.19000000  0.14600000  0.47160000  1.0 0.0175651821
C  C28  1  0.79840000  0.14480000  0.47520000  1.0 0.0175651821
C  C29  1  0.79230000  0.34110000  0.46620000  1.0 0.0175651821
C  C30  1  0.18040000  0.34130000  0.46060000  1.0 0.0175651821
C  C31  1  0.60260000  0.14710000  0.67800000  1.0 0.0584280314
C  C32  1  0.91890000  0.91070000  0.32620000  1.0 -0.0813884105
C  C33  1  0.87200000  0.41230000  0.24380000  1.0 -0.1615819021
C  C34  1  0.93380000  0.49190000  0.31510000  1.0 -0.0813884105
C  C35  1  0.82320000  0.81840000  0.13730000  1.0 0.1102967132
C  C36  1  0.83150000  0.81860000  0.29790000  1.0 -0.0909222169
C  C37  1  0.57550000  0.55570000  0.70510000  1.0 0.0526948667
C  C38  1  0.71220000  0.23880000  0.91870000  1.0 0.0584280314
C  C39  1  0.86940000  0.41490000  0.15190000  1.0 0.1102967132
C  C40  1  0.78400000  0.77360000  0.20560000  1.0 -0.1615819021
C  C41  1  0.93870000  0.50020000  0.13560000  1.0 -0.1615819021
C  C42  1  0.00310000  0.57510000  0.29750000  1.0 -0.0958887006
C  C43  1  0.80330000  0.33020000  0.07820000  1.0 -0.1531355868
C  C44  1  0.76930000  0.32700000  0.98770000  1.0 -0.1372866
C  C45  1  0.70480000  0.68080000  0.00210000  1.0 -0.1372866
C  C46  1  0.90990000  0.91120000  0.16720000  1.0 -0.1720042046
C  C47  1  0.67400000  0.64000000  0.90400000  1.0 0.0584280314
C  C48  1  0.00610000  0.57920000  0.20690000  1.0 -0.1070020947
C  C49  1  0.60050000  0.06210000  0.77890000  1.0 0.0584280314
C  C50  1  0.78080000  0.77070000  0.03960000  1.0 -0.1531355868
C  C51  1  0.53530000  0.42000000  0.74140000  1.0 0.0584280314
C  C52  1  0.95780000  0.95640000  0.25980000  1.0 -0.0909222169
N  N1  1  0.31110000  0.90980000  0.51650000  1.0 -0.2817828845
N  N2  1  0.70470000  0.59980000  0.53210000  1.0 -0.2817828845
N  N3  1  0.69560000  0.90790000  0.51800000  1.0 -0.2817828845
N  N4  1  0.46500000  0.51290000  0.37120000  1.0 -0.0813884105
N  N5  1  0.36730000  0.84690000  0.23050000  1.0 0.1005520544
N  N6  1  0.31880000  0.60090000  0.52660000  1.0 -0.2817828845
N  N7  1  0.44370000  0.94280000  0.36640000  1.0 -0.0909222169
N  N8  1  0.31440000  0.75900000  0.16590000  1.0 -0.2200644876
N  N9  1  0.48740000  0.60050000  0.34870000  1.0 -0.1819399338
N  N10  1  0.42340000  0.48420000  0.22230000  1.0 0.1259578277
N  N11  1  0.44610000  0.99690000  0.30170000  1.0 -0.1615819021
N  N12  1  0.39410000  0.44670000  0.12750000  1.0 -0.2114492919
N  N13  1  0.68890000  0.09020000  0.48350000  1.0 -0.2817828845
N  N14  1  0.29530000  0.40020000  0.46790000  1.0 -0.2817828845
N  N15  1  0.30440000  0.09210000  0.48200000  1.0 -0.2817828845
N  N16  1  0.53500000  0.48710000  0.62880000  1.0 -0.0813884105
N  N17  1  0.63270000  0.15310000  0.76950000  1.0 0.1005520544
N  N18  1  0.68120000  0.39910000  0.47340000  1.0 -0.2817828845
N  N19  1  0.55630000  0.05720000  0.63360000  1.0 -0.0909222169
N  N20  1  0.68560000  0.24100000  0.83410000  1.0 -0.2200644876
N  N21  1  0.51260000  0.39950000  0.65130000  1.0 -0.1819399338
N  N22  1  0.57660000  0.51580000  0.77770000  1.0 0.1259578277
N  N23  1  0.55390000  0.00310000  0.69830000  1.0 -0.1615819021
N  N24  1  0.60590000  0.55330000  0.87250000  1.0 -0.2114492919
