# DDEC6 charges by PACMAN v1.1 (https://github.com/mtap-research/PACMAN-charge/)
data_VEJYUF_FSR_pacman
_symmetry_space_group_name_H-M   'P 1'
_cell_length_a   15.30730000
_cell_length_b   15.39500000
_cell_length_c   18.42600000
_cell_angle_alpha   90.00000000
_cell_angle_beta   90.00000000
_cell_angle_gamma   90.00000000
_symmetry_Int_Tables_number   1
_chemical_formula_structural   ZnH7C7N4
_chemical_formula_sum   'Zn16 H112 C112 N64'
_cell_volume   4342.19530937
_cell_formula_units_Z   16
loop_
 _symmetry_equiv_pos_site_id
 _symmetry_equiv_pos_as_xyz
  1  'x, y, z'
loop_
 _atom_site_type_symbol
 _atom_site_label
 _atom_site_symmetry_multiplicity
 _atom_site_fract_x
 _atom_site_fract_y
 _atom_site_fract_z
 _atom_site_occupancy
 _atom_site_charge
Zn  Zn1  1  0.36051000  0.29785000  0.90830000  1.0 0.5966278385
Zn  Zn2  1  0.63949000  0.20215000  0.40830000  1.0 0.5966278385
Zn  Zn3  1  0.86051000  0.70215000  0.59170000  1.0 0.5966278385
Zn  Zn4  1  0.13949000  0.79785000  0.09170000  1.0 0.5966278385
Zn  Zn5  1  0.63949000  0.70215000  0.09170000  1.0 0.5966278385
Zn  Zn6  1  0.36051000  0.79785000  0.59170000  1.0 0.5966278385
Zn  Zn7  1  0.13949000  0.29785000  0.40830000  1.0 0.5966278385
Zn  Zn8  1  0.86051000  0.20215000  0.90830000  1.0 0.5966278385
Zn  Zn9  1  0.16398000  0.99036000  0.81374000  1.0 0.59388978
Zn  Zn10  1  0.83602000  0.50964000  0.31374000  1.0 0.5966278385
Zn  Zn11  1  0.66398000  0.00964000  0.68626000  1.0 0.59388978
Zn  Zn12  1  0.33602000  0.49036000  0.18626000  1.0 0.59388978
Zn  Zn13  1  0.83602000  0.00964000  0.18626000  1.0 0.59388978
Zn  Zn14  1  0.16398000  0.49036000  0.68626000  1.0 0.59388978
Zn  Zn15  1  0.33602000  0.99036000  0.31374000  1.0 0.59388978
Zn  Zn16  1  0.66398000  0.50964000  0.81374000  1.0 0.5966278385
H  H1  1  0.21990000  0.17810000  0.84480000  1.0 0.099130783
H  H2  1  0.78010000  0.32190000  0.34480000  1.0 0.099130783
H  H3  1  0.71990000  0.82190000  0.65520000  1.0 0.099130783
H  H4  1  0.28010000  0.67810000  0.15520000  1.0 0.099130783
H  H5  1  0.78010000  0.82190000  0.15520000  1.0 0.099130783
H  H6  1  0.21990000  0.67810000  0.65520000  1.0 0.099130783
H  H7  1  0.28010000  0.17810000  0.34480000  1.0 0.099130783
H  H8  1  0.71990000  0.32190000  0.84480000  1.0 0.099130783
H  H9  1  0.44200000  0.10070000  0.92800000  1.0 0.099130783
H  H10  1  0.55800000  0.39930000  0.42800000  1.0 0.099130783
H  H11  1  0.94200000  0.89930000  0.57200000  1.0 0.099130783
H  H12  1  0.05800000  0.60070000  0.07200000  1.0 0.099130783
H  H13  1  0.55800000  0.89930000  0.07200000  1.0 0.099130783
H  H14  1  0.44200000  0.60070000  0.57200000  1.0 0.099130783
H  H15  1  0.05800000  0.10070000  0.42800000  1.0 0.099130783
H  H16  1  0.94200000  0.39930000  0.92800000  1.0 0.099130783
H  H17  1  0.36050000  0.97130000  0.88810000  1.0 0.1115608062
H  H18  1  0.63950000  0.52870000  0.38810000  1.0 0.1115608062
H  H19  1  0.86050000  0.02870000  0.61190000  1.0 0.1115608062
H  H20  1  0.13950000  0.47130000  0.11190000  1.0 0.1115608062
H  H21  1  0.63950000  0.02870000  0.11190000  1.0 0.1115608062
H  H22  1  0.36050000  0.47130000  0.61190000  1.0 0.1115608062
H  H23  1  0.13950000  0.97130000  0.38810000  1.0 0.1115608062
H  H24  1  0.86050000  0.52870000  0.88810000  1.0 0.1115608062
H  H25  1  0.46260000  0.26090000  0.75830000  1.0 0.099130783
H  H26  1  0.53740000  0.23910000  0.25830000  1.0 0.099130783
H  H27  1  0.96260000  0.73910000  0.74170000  1.0 0.099130783
H  H28  1  0.03740000  0.76090000  0.24170000  1.0 0.099130783
H  H29  1  0.53740000  0.73910000  0.24170000  1.0 0.099130783
H  H30  1  0.46260000  0.76090000  0.74170000  1.0 0.099130783
H  H31  1  0.03740000  0.26090000  0.25830000  1.0 0.099130783
H  H32  1  0.96260000  0.23910000  0.75830000  1.0 0.099130783
H  H33  1  0.15460000  0.36280000  0.93570000  1.0 0.1115608062
H  H34  1  0.84540000  0.13720000  0.43570000  1.0 0.1115608062
H  H35  1  0.65460000  0.63720000  0.56430000  1.0 0.1115608062
H  H36  1  0.34540000  0.86280000  0.06430000  1.0 0.1115608062
H  H37  1  0.84540000  0.63720000  0.06430000  1.0 0.1115608062
H  H38  1  0.15460000  0.86280000  0.56430000  1.0 0.1115608062
H  H39  1  0.34540000  0.36280000  0.43570000  1.0 0.1115608062
H  H40  1  0.65460000  0.13720000  0.93570000  1.0 0.1115608062
H  H41  1  0.31300000  0.40230000  0.77240000  1.0 0.099130783
H  H42  1  0.68700000  0.09770000  0.27240000  1.0 0.099130783
H  H43  1  0.81300000  0.59770000  0.72760000  1.0 0.099130783
H  H44  1  0.18700000  0.90230000  0.22760000  1.0 0.099130783
H  H45  1  0.68700000  0.59770000  0.22760000  1.0 0.099130783
H  H46  1  0.31300000  0.90230000  0.72760000  1.0 0.099130783
H  H47  1  0.18700000  0.40230000  0.27240000  1.0 0.099130783
H  H48  1  0.81300000  0.09770000  0.77240000  1.0 0.099130783
H  H49  1  0.31080000  0.43600000  0.02360000  1.0 0.0936216009
H  H50  1  0.68920000  0.06400000  0.52360000  1.0 0.0936216009
H  H51  1  0.81080000  0.56400000  0.47640000  1.0 0.0936216009
H  H52  1  0.18920000  0.93600000  0.97640000  1.0 0.0936216009
H  H53  1  0.68920000  0.56400000  0.97640000  1.0 0.0936216009
H  H54  1  0.31080000  0.93600000  0.47640000  1.0 0.0936216009
H  H55  1  0.18920000  0.43600000  0.52360000  1.0 0.0936216009
H  H56  1  0.81080000  0.06400000  0.02360000  1.0 0.0936216009
H  H57  1  0.07550000  0.44220000  0.84210000  1.0 0.099130783
H  H58  1  0.92450000  0.05780000  0.34210000  1.0 0.099130783
H  H59  1  0.57550000  0.55780000  0.65790000  1.0 0.099130783
H  H60  1  0.42450000  0.94220000  0.15790000  1.0 0.099130783
H  H61  1  0.92450000  0.55780000  0.15790000  1.0 0.099130783
H  H62  1  0.07550000  0.94220000  0.65790000  1.0 0.099130783
H  H63  1  0.42450000  0.44220000  0.34210000  1.0 0.099130783
H  H64  1  0.57550000  0.05780000  0.84210000  1.0 0.099130783
H  H65  1  0.51000000  0.43810000  0.90460000  1.0 0.099130783
H  H66  1  0.49000000  0.06190000  0.40460000  1.0 0.099130783
H  H67  1  0.01000000  0.56190000  0.59540000  1.0 0.099130783
H  H68  1  0.99000000  0.93810000  0.09540000  1.0 0.099130783
H  H69  1  0.49000000  0.56190000  0.09540000  1.0 0.099130783
H  H70  1  0.51000000  0.93810000  0.59540000  1.0 0.099130783
H  H71  1  0.99000000  0.43810000  0.40460000  1.0 0.099130783
H  H72  1  0.01000000  0.06190000  0.90460000  1.0 0.099130783
H  H73  1  0.57770000  0.35790000  0.71170000  1.0 0.099130783
H  H74  1  0.42230000  0.14210000  0.21170000  1.0 0.099130783
H  H75  1  0.07770000  0.64210000  0.78830000  1.0 0.099130783
H  H76  1  0.92230000  0.85790000  0.28830000  1.0 0.099130783
H  H77  1  0.42230000  0.64210000  0.28830000  1.0 0.099130783
H  H78  1  0.57770000  0.85790000  0.78830000  1.0 0.099130783
H  H79  1  0.92230000  0.35790000  0.21170000  1.0 0.099130783
H  H80  1  0.07770000  0.14210000  0.71170000  1.0 0.099130783
H  H81  1  0.46620000  0.32360000  0.16270000  1.0 0.0605063205
H  H82  1  0.53380000  0.17640000  0.66270000  1.0 0.0605063205
H  H83  1  0.96620000  0.67640000  0.33730000  1.0 0.0605063205
H  H84  1  0.03380000  0.82360000  0.83730000  1.0 0.0605063205
H  H85  1  0.53380000  0.67640000  0.83730000  1.0 0.0605063205
H  H86  1  0.46620000  0.82360000  0.33730000  1.0 0.0605063205
H  H87  1  0.03380000  0.32360000  0.66270000  1.0 0.0605063205
H  H88  1  0.96620000  0.17640000  0.16270000  1.0 0.0605063205
H  H89  1  0.47720000  0.24680000  0.04600000  1.0 0.0528624268
H  H90  1  0.52280000  0.25320000  0.54600000  1.0 0.0528624268
H  H91  1  0.97720000  0.75320000  0.45400000  1.0 0.0528624268
H  H92  1  0.02280000  0.74680000  0.95400000  1.0 0.0528624268
H  H93  1  0.52280000  0.75320000  0.95400000  1.0 0.0528624268
H  H94  1  0.47720000  0.74680000  0.45400000  1.0 0.0528624268
H  H95  1  0.02280000  0.24680000  0.54600000  1.0 0.0528624268
H  H96  1  0.97720000  0.25320000  0.04600000  1.0 0.0528624268
H  H97  1  0.42500000  0.21500000  0.06610000  1.0 0.0605063205
H  H98  1  0.57500000  0.28500000  0.56610000  1.0 0.0605063205
H  H99  1  0.92500000  0.78500000  0.43390000  1.0 0.0605063205
H  H100  1  0.07500000  0.71500000  0.93390000  1.0 0.0605063205
H  H101  1  0.57500000  0.78500000  0.93390000  1.0 0.0605063205
H  H102  1  0.42500000  0.71500000  0.43390000  1.0 0.0605063205
H  H103  1  0.07500000  0.21500000  0.56610000  1.0 0.0605063205
H  H104  1  0.92500000  0.28500000  0.06610000  1.0 0.0605063205
H  H105  1  0.08940000  0.79620000  0.82080000  1.0 0.0605063205
H  H106  1  0.91060000  0.70380000  0.32080000  1.0 0.0605063205
H  H107  1  0.58940000  0.20380000  0.67920000  1.0 0.0605063205
H  H108  1  0.41060000  0.29620000  0.17920000  1.0 0.0605063205
H  H109  1  0.91060000  0.20380000  0.17920000  1.0 0.0605063205
H  H110  1  0.08940000  0.29620000  0.67920000  1.0 0.0605063205
H  H111  1  0.41060000  0.79620000  0.32080000  1.0 0.0605063205
H  H112  1  0.58940000  0.70380000  0.82080000  1.0 0.0605063205
C  C1  1  0.26610000  0.14231000  0.86019000  1.0 0.126914389
C  C2  1  0.73390000  0.35769000  0.36019000  1.0 0.126914389
C  C3  1  0.76610000  0.85769000  0.63981000  1.0 0.126914389
C  C4  1  0.23390000  0.64231000  0.13981000  1.0 0.126914389
C  C5  1  0.73390000  0.85769000  0.13981000  1.0 0.126914389
C  C6  1  0.26610000  0.64231000  0.63981000  1.0 0.126914389
C  C7  1  0.23390000  0.14231000  0.36019000  1.0 0.126914389
C  C8  1  0.76610000  0.35769000  0.86019000  1.0 0.126914389
C  C9  1  0.38680000  0.10090000  0.90571000  1.0 -0.0792574472
C  C10  1  0.61320000  0.39910000  0.40571000  1.0 -0.0792574472
C  C11  1  0.88680000  0.89910000  0.59429000  1.0 -0.0792574472
C  C12  1  0.11320000  0.60090000  0.09429000  1.0 -0.0792574472
C  C13  1  0.61320000  0.89910000  0.09429000  1.0 -0.0792574472
C  C14  1  0.38680000  0.60090000  0.59429000  1.0 -0.0792574472
C  C15  1  0.11320000  0.10090000  0.40571000  1.0 -0.0792574472
C  C16  1  0.88680000  0.39910000  0.90571000  1.0 -0.0792574472
C  C17  1  0.34180000  0.02920000  0.88370000  1.0 -0.0709793755
C  C18  1  0.65820000  0.47080000  0.38370000  1.0 -0.0709793755
C  C19  1  0.84180000  0.97080000  0.61630000  1.0 -0.0709793755
C  C20  1  0.15820000  0.52920000  0.11630000  1.0 -0.0709793755
C  C21  1  0.65820000  0.97080000  0.11630000  1.0 -0.0709793755
C  C22  1  0.34180000  0.52920000  0.61630000  1.0 -0.0709793755
C  C23  1  0.15820000  0.02920000  0.38370000  1.0 -0.0709793755
C  C24  1  0.84180000  0.47080000  0.88370000  1.0 -0.0709793755
C  C25  1  0.48630000  0.30890000  0.78300000  1.0 -0.0861228732
C  C26  1  0.51370000  0.19110000  0.28300000  1.0 -0.0861228732
C  C27  1  0.98630000  0.69110000  0.71700000  1.0 -0.0861228732
C  C28  1  0.01370000  0.80890000  0.21700000  1.0 -0.0861228732
C  C29  1  0.51370000  0.69110000  0.21700000  1.0 -0.0861228732
C  C30  1  0.48630000  0.80890000  0.71700000  1.0 -0.0861228732
C  C31  1  0.01370000  0.30890000  0.28300000  1.0 -0.0861228732
C  C32  1  0.98630000  0.19110000  0.78300000  1.0 -0.0861228732
C  C33  1  0.17760000  0.38020000  0.89068000  1.0 -0.0792574472
C  C34  1  0.82240000  0.11980000  0.39068000  1.0 -0.0792574472
C  C35  1  0.67760000  0.61980000  0.60932000  1.0 -0.0792574472
C  C36  1  0.32240000  0.88020000  0.10932000  1.0 -0.0792574472
C  C37  1  0.82240000  0.61980000  0.10932000  1.0 -0.0792574472
C  C38  1  0.17760000  0.88020000  0.60932000  1.0 -0.0792574472
C  C39  1  0.32240000  0.38020000  0.39068000  1.0 -0.0792574472
C  C40  1  0.67760000  0.11980000  0.89068000  1.0 -0.0792574472
C  C41  1  0.26279000  0.40185000  0.80184000  1.0 0.1191138733
C  C42  1  0.73721000  0.09815000  0.30184000  1.0 0.1191138733
C  C43  1  0.76279000  0.59815000  0.69816000  1.0 0.1191138733
C  C44  1  0.23721000  0.90185000  0.19816000  1.0 0.1191138733
C  C45  1  0.73721000  0.59815000  0.19816000  1.0 0.1191138733
C  C46  1  0.26279000  0.90185000  0.69816000  1.0 0.1191138733
C  C47  1  0.23721000  0.40185000  0.30184000  1.0 0.1191138733
C  C48  1  0.76279000  0.09815000  0.80184000  1.0 0.1191138733
C  C49  1  0.34601000  0.39410000  0.04640000  1.0 -0.0420799867
C  C50  1  0.65399000  0.10590000  0.54640000  1.0 -0.0420799867
C  C51  1  0.84601000  0.60590000  0.45360000  1.0 -0.0420799867
C  C52  1  0.15399000  0.89410000  0.95360000  1.0 -0.0420799867
C  C53  1  0.65399000  0.60590000  0.95360000  1.0 -0.0420799867
C  C54  1  0.34601000  0.89410000  0.45360000  1.0 -0.0420799867
C  C55  1  0.15399000  0.39410000  0.54640000  1.0 -0.0420799867
C  C56  1  0.84601000  0.10590000  0.04640000  1.0 -0.0420799867
C  C57  1  0.13410000  0.42400000  0.83906000  1.0 -0.0709793755
C  C58  1  0.86590000  0.07600000  0.33906000  1.0 -0.0709793755
C  C59  1  0.63410000  0.57600000  0.66094000  1.0 -0.0709793755
C  C60  1  0.36590000  0.92400000  0.16094000  1.0 -0.0709793755
C  C61  1  0.86590000  0.57600000  0.16094000  1.0 -0.0709793755
C  C62  1  0.13410000  0.92400000  0.66094000  1.0 -0.0709793755
C  C63  1  0.36590000  0.42400000  0.33906000  1.0 -0.0709793755
C  C64  1  0.63410000  0.07600000  0.83906000  1.0 -0.0709793755
C  C65  1  0.51289000  0.40531000  0.86161000  1.0 0.1191138733
C  C66  1  0.48711000  0.09469000  0.36161000  1.0 0.1191138733
C  C67  1  0.01289000  0.59469000  0.63839000  1.0 0.1191138733
C  C68  1  0.98711000  0.90531000  0.13839000  1.0 0.1191138733
C  C69  1  0.48711000  0.59469000  0.13839000  1.0 0.1191138733
C  C70  1  0.51289000  0.90531000  0.63839000  1.0 0.1191138733
C  C71  1  0.98711000  0.40531000  0.36161000  1.0 0.1191138733
C  C72  1  0.01289000  0.09469000  0.86161000  1.0 0.1191138733
C  C73  1  0.55010000  0.36280000  0.75710000  1.0 -0.0861228732
C  C74  1  0.44990000  0.13720000  0.25710000  1.0 -0.0861228732
C  C75  1  0.05010000  0.63720000  0.74290000  1.0 -0.0861228732
C  C76  1  0.94990000  0.86280000  0.24290000  1.0 -0.0861228732
C  C77  1  0.44990000  0.63720000  0.24290000  1.0 -0.0861228732
C  C78  1  0.55010000  0.86280000  0.74290000  1.0 -0.0861228732
C  C79  1  0.94990000  0.36280000  0.25710000  1.0 -0.0861228732
C  C80  1  0.05010000  0.13720000  0.75710000  1.0 -0.0861228732
C  C81  1  0.43230000  0.33490000  0.12120000  1.0 -0.0420799867
C  C82  1  0.56770000  0.16510000  0.62120000  1.0 -0.0420799867
C  C83  1  0.93230000  0.66510000  0.37880000  1.0 -0.0420799867
C  C84  1  0.06770000  0.83490000  0.87880000  1.0 -0.0420799867
C  C85  1  0.56770000  0.66510000  0.87880000  1.0 -0.0420799867
C  C86  1  0.43230000  0.83490000  0.37880000  1.0 -0.0420799867
C  C87  1  0.06770000  0.33490000  0.62120000  1.0 -0.0420799867
C  C88  1  0.93230000  0.16510000  0.12120000  1.0 -0.0420799867
C  C89  1  0.43810000  0.29200000  0.05700000  1.0 -0.0120997623
C  C90  1  0.56190000  0.20800000  0.55700000  1.0 -0.0120997623
C  C91  1  0.93810000  0.70800000  0.44300000  1.0 -0.0120997623
C  C92  1  0.06190000  0.79200000  0.94300000  1.0 -0.0120997623
C  C93  1  0.56190000  0.70800000  0.94300000  1.0 -0.0120997623
C  C94  1  0.43810000  0.79200000  0.44300000  1.0 -0.0120997623
C  C95  1  0.06190000  0.29200000  0.55700000  1.0 -0.0120997623
C  C96  1  0.93810000  0.20800000  0.05700000  1.0 -0.0120997623
C  C97  1  0.40490000  0.27250000  0.07030000  1.0 -0.0471301273
C  C98  1  0.59510000  0.22750000  0.57030000  1.0 -0.0471301273
C  C99  1  0.90490000  0.72750000  0.42970000  1.0 -0.0471301273
C  C100  1  0.09510000  0.77250000  0.92970000  1.0 -0.0471301273
C  C101  1  0.59510000  0.72750000  0.92970000  1.0 -0.0471301273
C  C102  1  0.40490000  0.77250000  0.42970000  1.0 -0.0471301273
C  C103  1  0.09510000  0.27250000  0.57030000  1.0 -0.0471301273
C  C104  1  0.90490000  0.22750000  0.07030000  1.0 -0.0471301273
C  C105  1  0.10240000  0.81700000  0.86750000  1.0 -0.0231365641
C  C106  1  0.89760000  0.68300000  0.36750000  1.0 -0.0231365641
C  C107  1  0.60240000  0.18300000  0.63250000  1.0 -0.0231365641
C  C108  1  0.39760000  0.31700000  0.13250000  1.0 -0.0231365641
C  C109  1  0.89760000  0.18300000  0.13250000  1.0 -0.0231365641
C  C110  1  0.10240000  0.31700000  0.63250000  1.0 -0.0231365641
C  C111  1  0.39760000  0.81700000  0.36750000  1.0 -0.0231365641
C  C112  1  0.60240000  0.68300000  0.86750000  1.0 -0.0231365641
N  N1  1  0.33852000  0.17298000  0.89010000  1.0 -0.2801010072
N  N2  1  0.66148000  0.32702000  0.39010000  1.0 -0.2801010072
N  N3  1  0.83852000  0.82702000  0.60990000  1.0 -0.2801010072
N  N4  1  0.16148000  0.67298000  0.10990000  1.0 -0.2801010072
N  N5  1  0.66148000  0.82702000  0.10990000  1.0 -0.2801010072
N  N6  1  0.33852000  0.67298000  0.60990000  1.0 -0.2801010072
N  N7  1  0.16148000  0.17298000  0.39010000  1.0 -0.2801010072
N  N8  1  0.83852000  0.32702000  0.89010000  1.0 -0.2801010072
N  N9  1  0.26486000  0.05624000  0.85396000  1.0 -0.2801010072
N  N10  1  0.73514000  0.44376000  0.35396000  1.0 -0.2801010072
N  N11  1  0.76486000  0.94376000  0.64604000  1.0 -0.2801010072
N  N12  1  0.23514000  0.55624000  0.14604000  1.0 -0.2801010072
N  N13  1  0.73514000  0.94376000  0.14604000  1.0 -0.2801010072
N  N14  1  0.26486000  0.55624000  0.64604000  1.0 -0.2801010072
N  N15  1  0.23514000  0.05624000  0.35396000  1.0 -0.2801010072
N  N16  1  0.76486000  0.44376000  0.85396000  1.0 -0.2801010072
N  N17  1  0.37744000  0.32583000  0.01153000  1.0 -0.24173753
N  N18  1  0.62256000  0.17417000  0.51153000  1.0 -0.24173753
N  N19  1  0.87744000  0.67417000  0.48847000  1.0 -0.24173753
N  N20  1  0.12256000  0.82583000  0.98847000  1.0 -0.24173753
N  N21  1  0.62256000  0.67417000  0.98847000  1.0 -0.24173753
N  N22  1  0.37744000  0.82583000  0.48847000  1.0 -0.24173753
N  N23  1  0.12256000  0.32583000  0.51153000  1.0 -0.24173753
N  N24  1  0.87744000  0.17417000  0.01153000  1.0 -0.24173753
N  N25  1  0.46315000  0.33630000  0.85008000  1.0 -0.2801010072
N  N26  1  0.53685000  0.16370000  0.35008000  1.0 -0.2801010072
N  N27  1  0.96315000  0.66370000  0.64992000  1.0 -0.2801010072
N  N28  1  0.03685000  0.83630000  0.14992000  1.0 -0.2801010072
N  N29  1  0.53685000  0.66370000  0.14992000  1.0 -0.2801010072
N  N30  1  0.46315000  0.83630000  0.64992000  1.0 -0.2801010072
N  N31  1  0.03685000  0.33630000  0.35008000  1.0 -0.2801010072
N  N32  1  0.96315000  0.16370000  0.85008000  1.0 -0.2801010072
N  N33  1  0.26072000  0.36510000  0.86682000  1.0 -0.2731884647
N  N34  1  0.73928000  0.13490000  0.36682000  1.0 -0.2731884647
N  N35  1  0.76072000  0.63490000  0.63318000  1.0 -0.2731884647
N  N36  1  0.23928000  0.86510000  0.13318000  1.0 -0.2731884647
N  N37  1  0.73928000  0.63490000  0.13318000  1.0 -0.2731884647
N  N38  1  0.26072000  0.86510000  0.63318000  1.0 -0.2731884647
N  N39  1  0.23928000  0.36510000  0.36682000  1.0 -0.2731884647
N  N40  1  0.76072000  0.13490000  0.86682000  1.0 -0.2731884647
N  N41  1  0.36758000  0.39912000  0.11532000  1.0 -0.24173753
N  N42  1  0.63242000  0.10088000  0.61532000  1.0 -0.24173753
N  N43  1  0.86758000  0.60088000  0.38468000  1.0 -0.24173753
N  N44  1  0.13242000  0.89912000  0.88468000  1.0 -0.24173753
N  N45  1  0.63242000  0.60088000  0.88468000  1.0 -0.24173753
N  N46  1  0.36758000  0.89912000  0.38468000  1.0 -0.24173753
N  N47  1  0.13242000  0.39912000  0.61532000  1.0 -0.24173753
N  N48  1  0.86758000  0.10088000  0.11532000  1.0 -0.24173753
N  N49  1  0.18803000  0.43794000  0.78192000  1.0 -0.2801010072
N  N50  1  0.81197000  0.06206000  0.28192000  1.0 -0.2801010072
N  N51  1  0.68803000  0.56206000  0.71808000  1.0 -0.2801010072
N  N52  1  0.31197000  0.93794000  0.21808000  1.0 -0.2801010072
N  N53  1  0.81197000  0.56206000  0.21808000  1.0 -0.2801010072
N  N54  1  0.18803000  0.93794000  0.71808000  1.0 -0.2801010072
N  N55  1  0.31197000  0.43794000  0.28192000  1.0 -0.2801010072
N  N56  1  0.68803000  0.06206000  0.78192000  1.0 -0.2801010072
N  N57  1  0.56713000  0.42445000  0.80772000  1.0 -0.2850709785
N  N58  1  0.43287000  0.07555000  0.30772000  1.0 -0.2850709785
N  N59  1  0.06713000  0.57555000  0.69228000  1.0 -0.2850709785
N  N60  1  0.93287000  0.92445000  0.19228000  1.0 -0.2850709785
N  N61  1  0.43287000  0.57555000  0.19228000  1.0 -0.2850709785
N  N62  1  0.56713000  0.92445000  0.69228000  1.0 -0.2850709785
N  N63  1  0.93287000  0.42445000  0.30772000  1.0 -0.2850709785
N  N64  1  0.06713000  0.07555000  0.80772000  1.0 -0.2850709785
