# DDEC6 charges by PACMAN v1.1 (https://github.com/mtap-research/PACMAN-charge/)
data_VEJZIU_ASR_pacman
_symmetry_space_group_name_H-M   'P 1'
_cell_length_a   21.45440000
_cell_length_b   21.45440000
_cell_length_c   21.45440000
_cell_angle_alpha   101.80300000
_cell_angle_beta   101.80300000
_cell_angle_gamma   126.22200000
_symmetry_Int_Tables_number   1
_chemical_formula_structural   ZnH8(C2N)4
_chemical_formula_sum   'Zn16 H128 C128 N64'
_cell_volume   7105.34224395
_cell_formula_units_Z   16
loop_
 _symmetry_equiv_pos_site_id
 _symmetry_equiv_pos_as_xyz
  1  'x, y, z'
loop_
 _atom_site_type_symbol
 _atom_site_label
 _atom_site_symmetry_multiplicity
 _atom_site_fract_x
 _atom_site_fract_y
 _atom_site_fract_z
 _atom_site_occupancy
 _atom_site_charge
Zn  Zn1  1  0.42248000  0.26557000  0.37883000  1.0 0.5642509599
Zn  Zn2  1  0.04365000  0.42248000  0.15691000  1.0 0.5642509599
Zn  Zn3  1  0.26557000  0.88674000  0.84309000  1.0 0.5642509599
Zn  Zn4  1  0.95635000  0.11326000  0.37883000  1.0 0.5652751689
Zn  Zn5  1  0.88674000  0.04365000  0.62117000  1.0 0.5652751689
Zn  Zn6  1  0.57752000  0.95635000  0.84309000  1.0 0.5652751689
Zn  Zn7  1  0.11326000  0.73443000  0.15691000  1.0 0.5642509599
Zn  Zn8  1  0.73443000  0.57752000  0.62117000  1.0 0.5652751689
Zn  Zn9  1  0.57752000  0.73443000  0.62117000  1.0 0.5652751689
Zn  Zn10  1  0.95635000  0.57752000  0.84309000  1.0 0.5652751689
Zn  Zn11  1  0.73443000  0.11326000  0.15691000  1.0 0.5642509599
Zn  Zn12  1  0.04365000  0.88674000  0.62117000  1.0 0.5642509599
Zn  Zn13  1  0.11326000  0.95635000  0.37883000  1.0 0.5652751689
Zn  Zn14  1  0.42248000  0.04365000  0.15691000  1.0 0.5642509599
Zn  Zn15  1  0.88674000  0.26557000  0.84309000  1.0 0.5652751689
Zn  Zn16  1  0.26557000  0.42248000  0.37883000  1.0 0.5642509599
H  H1  1  0.58620000  0.28380000  0.44880000  1.0 0.1079877077
H  H2  1  0.13740000  0.58620000  0.30240000  1.0 0.1079877077
H  H3  1  0.28380000  0.83500000  0.69760000  1.0 0.1079877077
H  H4  1  0.86260000  0.16500000  0.44880000  1.0 0.1079877077
H  H5  1  0.83500000  0.13740000  0.55120000  1.0 0.1079877077
H  H6  1  0.41380000  0.86260000  0.69760000  1.0 0.1079877077
H  H7  1  0.16500000  0.71620000  0.30240000  1.0 0.1079877077
H  H8  1  0.71620000  0.41380000  0.55120000  1.0 0.1079877077
H  H9  1  0.41380000  0.71620000  0.55120000  1.0 0.1079877077
H  H10  1  0.86260000  0.41380000  0.69760000  1.0 0.1079877077
H  H11  1  0.71620000  0.16500000  0.30240000  1.0 0.1079877077
H  H12  1  0.13740000  0.83500000  0.55120000  1.0 0.1079877077
H  H13  1  0.16500000  0.86260000  0.44880000  1.0 0.1079877077
H  H14  1  0.58620000  0.13740000  0.30240000  1.0 0.1079877077
H  H15  1  0.83500000  0.28380000  0.69760000  1.0 0.1079877077
H  H16  1  0.28380000  0.58620000  0.44880000  1.0 0.1079877077
H  H17  1  0.55360000  0.44640000  0.50000000  1.0 0.1001957473
H  H18  1  0.05360000  0.55360000  0.10720000  1.0 0.1001957473
H  H19  1  0.44640000  0.94640000  0.89280000  1.0 0.1001957473
H  H20  1  0.94640000  0.05360000  0.50000000  1.0 0.1001957473
H  H21  1  0.44640000  0.55360000  0.50000000  1.0 0.1001957473
H  H22  1  0.94640000  0.44640000  0.89280000  1.0 0.1001957473
H  H23  1  0.55360000  0.05360000  0.10720000  1.0 0.1001957473
H  H24  1  0.05360000  0.94640000  0.50000000  1.0 0.1001957473
H  H25  1  0.29450000  0.29450000  0.38720000  1.0 0.1001957473
H  H26  1  0.90730000  0.29450000  0.00000000  1.0 0.1001957473
H  H27  1  0.29450000  0.90730000  0.00000000  1.0 0.1001957473
H  H28  1  0.09270000  0.09270000  0.38720000  1.0 0.1001957473
H  H29  1  0.90730000  0.90730000  0.61280000  1.0 0.1001957473
H  H30  1  0.70550000  0.09270000  0.00000000  1.0 0.1001957473
H  H31  1  0.09270000  0.70550000  0.00000000  1.0 0.1001957473
H  H32  1  0.70550000  0.70550000  0.61280000  1.0 0.1001957473
H  H33  1  0.48760000  0.42490000  0.33990000  1.0 0.1079877077
H  H34  1  0.14770000  0.48760000  0.06270000  1.0 0.1079877077
H  H35  1  0.42490000  0.08500000  0.93730000  1.0 0.1079877077
H  H36  1  0.85230000  0.91500000  0.33990000  1.0 0.1079877077
H  H37  1  0.08500000  0.14770000  0.66010000  1.0 0.1079877077
H  H38  1  0.51240000  0.85230000  0.93730000  1.0 0.1079877077
H  H39  1  0.91500000  0.57510000  0.06270000  1.0 0.1079877077
H  H40  1  0.57510000  0.51240000  0.66010000  1.0 0.1079877077
H  H41  1  0.51240000  0.57510000  0.66010000  1.0 0.1079877077
H  H42  1  0.85230000  0.51240000  0.93730000  1.0 0.1079877077
H  H43  1  0.57510000  0.91500000  0.06270000  1.0 0.1079877077
H  H44  1  0.14770000  0.08500000  0.66010000  1.0 0.1079877077
H  H45  1  0.91500000  0.85230000  0.33990000  1.0 0.1079877077
H  H46  1  0.48760000  0.14770000  0.06270000  1.0 0.1079877077
H  H47  1  0.08500000  0.42490000  0.93730000  1.0 0.1079877077
H  H48  1  0.42490000  0.48760000  0.33990000  1.0 0.1079877077
H  H49  1  0.34620000  0.21880000  0.21820000  1.0 0.1001957473
H  H50  1  0.12800000  0.34620000  0.12740000  1.0 0.1001957473
H  H51  1  0.21880000  0.00060000  0.87260000  1.0 0.1001957473
H  H52  1  0.87200000  0.99940000  0.21820000  1.0 0.1001957473
H  H53  1  0.00060000  0.12800000  0.78180000  1.0 0.1001957473
H  H54  1  0.65380000  0.87200000  0.87260000  1.0 0.1001957473
H  H55  1  0.99940000  0.78120000  0.12740000  1.0 0.1001957473
H  H56  1  0.78120000  0.65380000  0.78180000  1.0 0.1001957473
H  H57  1  0.65380000  0.78120000  0.78180000  1.0 0.1001957473
H  H58  1  0.87200000  0.65380000  0.87260000  1.0 0.1001957473
H  H59  1  0.78120000  0.99940000  0.12740000  1.0 0.1001957473
H  H60  1  0.12800000  0.00060000  0.78180000  1.0 0.1001957473
H  H61  1  0.99940000  0.87200000  0.21820000  1.0 0.1001957473
H  H62  1  0.34620000  0.12800000  0.12740000  1.0 0.1001957473
H  H63  1  0.00060000  0.21880000  0.87260000  1.0 0.1001957473
H  H64  1  0.21880000  0.34620000  0.21820000  1.0 0.1001957473
H  H65  1  0.42320000  0.21690000  0.51090000  1.0 0.0586499876
H  H66  1  0.91230000  0.42320000  0.20630000  1.0 0.0586499876
H  H67  1  0.21690000  0.70600000  0.79370000  1.0 0.0586499876
H  H68  1  0.08770000  0.29400000  0.51090000  1.0 0.0586499876
H  H69  1  0.70600000  0.91230000  0.48910000  1.0 0.0586499876
H  H70  1  0.57680000  0.08770000  0.79370000  1.0 0.0586499876
H  H71  1  0.29400000  0.78310000  0.20630000  1.0 0.0586499876
H  H72  1  0.78310000  0.57680000  0.48910000  1.0 0.0586499876
H  H73  1  0.57680000  0.78310000  0.48910000  1.0 0.0586499876
H  H74  1  0.08770000  0.57680000  0.79370000  1.0 0.0586499876
H  H75  1  0.78310000  0.29400000  0.20630000  1.0 0.0586499876
H  H76  1  0.91230000  0.70600000  0.48910000  1.0 0.0586499876
H  H77  1  0.29400000  0.08770000  0.51090000  1.0 0.0586499876
H  H78  1  0.42320000  0.91230000  0.20630000  1.0 0.0586499876
H  H79  1  0.70600000  0.21690000  0.79370000  1.0 0.0586499876
H  H80  1  0.21690000  0.42320000  0.51090000  1.0 0.0586499876
H  H81  1  0.42820000  0.12920000  0.29900000  1.0 0.1079877077
H  H82  1  0.12920000  0.42820000  0.29900000  1.0 0.1079877077
H  H83  1  0.12920000  0.83020000  0.70100000  1.0 0.1079877077
H  H84  1  0.87080000  0.16980000  0.29900000  1.0 0.1079877077
H  H85  1  0.83020000  0.12920000  0.70100000  1.0 0.1079877077
H  H86  1  0.57180000  0.87080000  0.70100000  1.0 0.1079877077
H  H87  1  0.16980000  0.87080000  0.29900000  1.0 0.1079877077
H  H88  1  0.87080000  0.57180000  0.70100000  1.0 0.1079877077
H  H89  1  0.23790000  0.08640000  0.32430000  1.0 0.1001957473
H  H90  1  0.91360000  0.23790000  0.15150000  1.0 0.1001957473
H  H91  1  0.08640000  0.76210000  0.84850000  1.0 0.1001957473
H  H92  1  0.08640000  0.23790000  0.32430000  1.0 0.1001957473
H  H93  1  0.76210000  0.91360000  0.67570000  1.0 0.1001957473
H  H94  1  0.76210000  0.08640000  0.84850000  1.0 0.1001957473
H  H95  1  0.23790000  0.91360000  0.15150000  1.0 0.1001957473
H  H96  1  0.91360000  0.76210000  0.67570000  1.0 0.1001957473
H  H97  1  0.44690000  0.29800000  0.24170000  1.0 0.1001957473
H  H98  1  0.20520000  0.44690000  0.14890000  1.0 0.1001957473
H  H99  1  0.29800000  0.05630000  0.85110000  1.0 0.1001957473
H  H100  1  0.79480000  0.94370000  0.24170000  1.0 0.1001957473
H  H101  1  0.05630000  0.20520000  0.75830000  1.0 0.1001957473
H  H102  1  0.55310000  0.79480000  0.85110000  1.0 0.1001957473
H  H103  1  0.94370000  0.70200000  0.14890000  1.0 0.1001957473
H  H104  1  0.70200000  0.55310000  0.75830000  1.0 0.1001957473
H  H105  1  0.55310000  0.70200000  0.75830000  1.0 0.1001957473
H  H106  1  0.79480000  0.55310000  0.85110000  1.0 0.1001957473
H  H107  1  0.70200000  0.94370000  0.14890000  1.0 0.1001957473
H  H108  1  0.20520000  0.05630000  0.75830000  1.0 0.1001957473
H  H109  1  0.94370000  0.79480000  0.24170000  1.0 0.1001957473
H  H110  1  0.44690000  0.20520000  0.14890000  1.0 0.1001957473
H  H111  1  0.05630000  0.29800000  0.85110000  1.0 0.1001957473
H  H112  1  0.29800000  0.44690000  0.24170000  1.0 0.1001957473
H  H113  1  0.39650000  0.25010000  0.51840000  1.0 0.0586499876
H  H114  1  0.87810000  0.39650000  0.14640000  1.0 0.0586499876
H  H115  1  0.25010000  0.73170000  0.85360000  1.0 0.0586499876
H  H116  1  0.12190000  0.26830000  0.51840000  1.0 0.0586499876
H  H117  1  0.73170000  0.87810000  0.48160000  1.0 0.0586499876
H  H118  1  0.60350000  0.12190000  0.85360000  1.0 0.0586499876
H  H119  1  0.26830000  0.74990000  0.14640000  1.0 0.0586499876
H  H120  1  0.74990000  0.60350000  0.48160000  1.0 0.0586499876
H  H121  1  0.60350000  0.74990000  0.48160000  1.0 0.0586499876
H  H122  1  0.12190000  0.60350000  0.85360000  1.0 0.0586499876
H  H123  1  0.74990000  0.26830000  0.14640000  1.0 0.0586499876
H  H124  1  0.87810000  0.73170000  0.48160000  1.0 0.0586499876
H  H125  1  0.26830000  0.12190000  0.51840000  1.0 0.0586499876
H  H126  1  0.39650000  0.87810000  0.14640000  1.0 0.0586499876
H  H127  1  0.73170000  0.25010000  0.85360000  1.0 0.0586499876
H  H128  1  0.25010000  0.39650000  0.51840000  1.0 0.0586499876
C  C1  1  0.59500000  0.33240000  0.47160000  1.0 -0.0691242084
C  C2  1  0.12340000  0.59500000  0.26260000  1.0 -0.0691242084
C  C3  1  0.33240000  0.86080000  0.73740000  1.0 -0.0691242084
C  C4  1  0.87660000  0.13920000  0.47160000  1.0 -0.0691242084
C  C5  1  0.86080000  0.12340000  0.52840000  1.0 -0.0691242084
C  C6  1  0.40500000  0.87660000  0.73740000  1.0 -0.0691242084
C  C7  1  0.13920000  0.66760000  0.26260000  1.0 -0.0691242084
C  C8  1  0.66760000  0.40500000  0.52840000  1.0 -0.0691242084
C  C9  1  0.40500000  0.66760000  0.52840000  1.0 -0.0691242084
C  C10  1  0.87660000  0.40500000  0.73740000  1.0 -0.0691242084
C  C11  1  0.66760000  0.13920000  0.26260000  1.0 -0.0691242084
C  C12  1  0.12340000  0.86080000  0.52840000  1.0 -0.0691242084
C  C13  1  0.13920000  0.87660000  0.47160000  1.0 -0.0691242084
C  C14  1  0.59500000  0.12340000  0.26260000  1.0 -0.0691242084
C  C15  1  0.86080000  0.33240000  0.73740000  1.0 -0.0691242084
C  C16  1  0.33240000  0.59500000  0.47160000  1.0 -0.0691242084
C  C17  1  0.57820000  0.42180000  0.50000000  1.0 0.0814794641
C  C18  1  0.07820000  0.57820000  0.15640000  1.0 0.0814794641
C  C19  1  0.42180000  0.92180000  0.84360000  1.0 0.0814794641
C  C20  1  0.92180000  0.07820000  0.50000000  1.0 0.0814794641
C  C21  1  0.42180000  0.57820000  0.50000000  1.0 0.0814794641
C  C22  1  0.92180000  0.42180000  0.84360000  1.0 0.0814794641
C  C23  1  0.57820000  0.07820000  0.15640000  1.0 0.0814794641
C  C24  1  0.07820000  0.92180000  0.50000000  1.0 0.0814794641
C  C25  1  0.33510000  0.33510000  0.37480000  1.0 0.0814794641
C  C26  1  0.96030000  0.33510000  0.00000000  1.0 0.0814794641
C  C27  1  0.33510000  0.96030000  0.00000000  1.0 0.0814794641
C  C28  1  0.03970000  0.03970000  0.37480000  1.0 0.0814794641
C  C29  1  0.96030000  0.96030000  0.62520000  1.0 0.0814794641
C  C30  1  0.66490000  0.03970000  0.00000000  1.0 0.0814794641
C  C31  1  0.03970000  0.66490000  0.00000000  1.0 0.0814794641
C  C32  1  0.66490000  0.66490000  0.62520000  1.0 0.0814794641
C  C33  1  0.43970000  0.40550000  0.34940000  1.0 -0.0905273227
C  C34  1  0.09030000  0.43970000  0.03420000  1.0 -0.0905273227
C  C35  1  0.40550000  0.05610000  0.96580000  1.0 -0.0905273227
C  C36  1  0.90970000  0.94390000  0.34940000  1.0 -0.0905273227
C  C37  1  0.05610000  0.09030000  0.65060000  1.0 -0.0905273227
C  C38  1  0.56030000  0.90970000  0.96580000  1.0 -0.0905273227
C  C39  1  0.94390000  0.59450000  0.03420000  1.0 -0.0905273227
C  C40  1  0.59450000  0.56030000  0.65060000  1.0 -0.0905273227
C  C41  1  0.56030000  0.59450000  0.65060000  1.0 -0.0905273227
C  C42  1  0.90970000  0.56030000  0.96580000  1.0 -0.0905273227
C  C43  1  0.59450000  0.94390000  0.03420000  1.0 -0.0905273227
C  C44  1  0.09030000  0.05610000  0.65060000  1.0 -0.0905273227
C  C45  1  0.94390000  0.90970000  0.34940000  1.0 -0.0905273227
C  C46  1  0.43970000  0.09030000  0.03420000  1.0 -0.0905273227
C  C47  1  0.05610000  0.40550000  0.96580000  1.0 -0.0905273227
C  C48  1  0.40550000  0.43970000  0.34940000  1.0 -0.0905273227
C  C49  1  0.37180000  0.19590000  0.22590000  1.0 -0.0390577172
C  C50  1  0.14590000  0.37180000  0.17590000  1.0 -0.0390577172
C  C51  1  0.19590000  0.97000000  0.82410000  1.0 -0.0390577172
C  C52  1  0.85410000  0.03000000  0.22590000  1.0 -0.0390577172
C  C53  1  0.97000000  0.14590000  0.77410000  1.0 -0.0390577172
C  C54  1  0.62820000  0.85410000  0.82410000  1.0 -0.0390577172
C  C55  1  0.03000000  0.80410000  0.17590000  1.0 -0.0390577172
C  C56  1  0.80410000  0.62820000  0.77410000  1.0 -0.0390577172
C  C57  1  0.62820000  0.80410000  0.77410000  1.0 -0.0390577172
C  C58  1  0.85410000  0.62820000  0.82410000  1.0 -0.0390577172
C  C59  1  0.80410000  0.03000000  0.17590000  1.0 -0.0390577172
C  C60  1  0.14590000  0.97000000  0.77410000  1.0 -0.0390577172
C  C61  1  0.03000000  0.85410000  0.22590000  1.0 -0.0390577172
C  C62  1  0.37180000  0.14590000  0.17590000  1.0 -0.0390577172
C  C63  1  0.97000000  0.19590000  0.82410000  1.0 -0.0390577172
C  C64  1  0.19590000  0.37180000  0.22590000  1.0 -0.0390577172
C  C65  1  0.36850000  0.17770000  0.47460000  1.0 -0.0171570789
C  C66  1  0.89390000  0.36850000  0.19080000  1.0 -0.0171570789
C  C67  1  0.17770000  0.70310000  0.80920000  1.0 -0.0171570789
C  C68  1  0.10610000  0.29690000  0.47460000  1.0 -0.0171570789
C  C69  1  0.70310000  0.89390000  0.52540000  1.0 -0.0171570789
C  C70  1  0.63150000  0.10610000  0.80920000  1.0 -0.0171570789
C  C71  1  0.29690000  0.82230000  0.19080000  1.0 -0.0171570789
C  C72  1  0.82230000  0.63150000  0.52540000  1.0 -0.0171570789
C  C73  1  0.63150000  0.82230000  0.52540000  1.0 -0.0171570789
C  C74  1  0.10610000  0.63150000  0.80920000  1.0 -0.0171570789
C  C75  1  0.82230000  0.29690000  0.19080000  1.0 -0.0171570789
C  C76  1  0.89390000  0.70310000  0.52540000  1.0 -0.0171570789
C  C77  1  0.29690000  0.10610000  0.47460000  1.0 -0.0171570789
C  C78  1  0.36850000  0.89390000  0.19080000  1.0 -0.0171570789
C  C79  1  0.70310000  0.17770000  0.80920000  1.0 -0.0171570789
C  C80  1  0.17770000  0.36850000  0.47460000  1.0 -0.0171570789
C  C81  1  0.42050000  0.15210000  0.26840000  1.0 0.0399825982
C  C82  1  0.15210000  0.42050000  0.26840000  1.0 0.0399825982
C  C83  1  0.15210000  0.88370000  0.73160000  1.0 0.0399825982
C  C84  1  0.84790000  0.11630000  0.26840000  1.0 0.0399825982
C  C85  1  0.88370000  0.15210000  0.73160000  1.0 0.0399825982
C  C86  1  0.57950000  0.84790000  0.73160000  1.0 0.0399825982
C  C87  1  0.11630000  0.84790000  0.26840000  1.0 0.0399825982
C  C88  1  0.84790000  0.57950000  0.73160000  1.0 0.0399825982
C  C89  1  0.26540000  0.10750000  0.37290000  1.0 -0.0691242084
C  C90  1  0.89250000  0.26540000  0.15790000  1.0 -0.0691242084
C  C91  1  0.10750000  0.73460000  0.84210000  1.0 -0.0691242084
C  C92  1  0.10750000  0.26540000  0.37290000  1.0 -0.0691242084
C  C93  1  0.73460000  0.89250000  0.62710000  1.0 -0.0691242084
C  C94  1  0.73460000  0.10750000  0.84210000  1.0 -0.0691242084
C  C95  1  0.26540000  0.89250000  0.15790000  1.0 -0.0691242084
C  C96  1  0.89250000  0.73460000  0.62710000  1.0 -0.0691242084
C  C97  1  0.43620000  0.24810000  0.23910000  1.0 -0.0390577172
C  C98  1  0.19710000  0.43620000  0.18810000  1.0 -0.0336009236
C  C99  1  0.24810000  0.00900000  0.81190000  1.0 -0.0390577172
C  C100  1  0.80290000  0.99100000  0.23910000  1.0 -0.0390577172
C  C101  1  0.00900000  0.19710000  0.76090000  1.0 -0.0390577172
C  C102  1  0.56380000  0.80290000  0.81190000  1.0 -0.0390577172
C  C103  1  0.99100000  0.75190000  0.18810000  1.0 -0.0390577172
C  C104  1  0.75190000  0.56380000  0.76090000  1.0 -0.0390577172
C  C105  1  0.56380000  0.75190000  0.76090000  1.0 -0.0390577172
C  C106  1  0.80290000  0.56380000  0.81190000  1.0 -0.0390577172
C  C107  1  0.75190000  0.99100000  0.18810000  1.0 -0.0390577172
C  C108  1  0.19710000  0.00900000  0.76090000  1.0 -0.0390577172
C  C109  1  0.99100000  0.80290000  0.23910000  1.0 -0.0390577172
C  C110  1  0.43620000  0.19710000  0.18810000  1.0 -0.0390577172
C  C111  1  0.00900000  0.24810000  0.81190000  1.0 -0.0390577172
C  C112  1  0.24810000  0.43620000  0.23910000  1.0 -0.0390577172
C  C113  1  0.35120000  0.19890000  0.47930000  1.0 -0.0336009236
C  C114  1  0.87190000  0.35120000  0.15230000  1.0 -0.0336009236
C  C115  1  0.19890000  0.71960000  0.84770000  1.0 -0.0336009236
C  C116  1  0.12810000  0.28040000  0.47930000  1.0 -0.0336009236
C  C117  1  0.71960000  0.87190000  0.52070000  1.0 -0.0336009236
C  C118  1  0.64880000  0.12810000  0.84770000  1.0 -0.0336009236
C  C119  1  0.28040000  0.80110000  0.15230000  1.0 -0.0336009236
C  C120  1  0.80110000  0.64880000  0.52070000  1.0 -0.0336009236
C  C121  1  0.64880000  0.80110000  0.52070000  1.0 -0.0336009236
C  C122  1  0.12810000  0.64880000  0.84770000  1.0 -0.0336009236
C  C123  1  0.80110000  0.28040000  0.15230000  1.0 -0.0336009236
C  C124  1  0.87190000  0.71960000  0.52070000  1.0 -0.0336009236
C  C125  1  0.28040000  0.12810000  0.47930000  1.0 -0.0336009236
C  C126  1  0.35120000  0.87190000  0.15230000  1.0 -0.0336009236
C  C127  1  0.71960000  0.19890000  0.84770000  1.0 -0.0336009236
C  C128  1  0.19890000  0.35120000  0.47930000  1.0 -0.0336009236
N  N1  1  0.53760000  0.34340000  0.45420000  1.0 -0.3072668418
N  N2  1  0.08340000  0.53760000  0.19420000  1.0 -0.3072668418
N  N3  1  0.34340000  0.88920000  0.80580000  1.0 -0.3072668418
N  N4  1  0.91660000  0.11080000  0.45420000  1.0 -0.3072668418
N  N5  1  0.88920000  0.08340000  0.54580000  1.0 -0.3072668418
N  N6  1  0.46240000  0.91660000  0.80580000  1.0 -0.3072668418
N  N7  1  0.11080000  0.65660000  0.19420000  1.0 -0.3072668418
N  N8  1  0.65660000  0.46240000  0.54580000  1.0 -0.3072668418
N  N9  1  0.46240000  0.65660000  0.54580000  1.0 -0.3072668418
N  N10  1  0.91660000  0.46240000  0.80580000  1.0 -0.3072668418
N  N11  1  0.65660000  0.11080000  0.19420000  1.0 -0.3072668418
N  N12  1  0.08340000  0.88920000  0.54580000  1.0 -0.3072668418
N  N13  1  0.11080000  0.91660000  0.45420000  1.0 -0.3072668418
N  N14  1  0.53760000  0.08340000  0.19420000  1.0 -0.3072668418
N  N15  1  0.88920000  0.34340000  0.80580000  1.0 -0.3072668418
N  N16  1  0.34340000  0.53760000  0.45420000  1.0 -0.3072668418
N  N17  1  0.39460000  0.33700000  0.36520000  1.0 -0.2824757743
N  N18  1  0.02940000  0.39460000  0.05760000  1.0 -0.2824757743
N  N19  1  0.33700000  0.97180000  0.94240000  1.0 -0.2824757743
N  N20  1  0.97060000  0.02820000  0.36520000  1.0 -0.2824757743
N  N21  1  0.97180000  0.02940000  0.63480000  1.0 -0.2824757743
N  N22  1  0.60540000  0.97060000  0.94240000  1.0 -0.2824757743
N  N23  1  0.02820000  0.66300000  0.05760000  1.0 -0.2824757743
N  N24  1  0.66300000  0.60540000  0.63480000  1.0 -0.2824757743
N  N25  1  0.60540000  0.66300000  0.63480000  1.0 -0.2824757743
N  N26  1  0.97060000  0.60540000  0.94240000  1.0 -0.2824757743
N  N27  1  0.66300000  0.02820000  0.05760000  1.0 -0.2824757743
N  N28  1  0.02940000  0.97180000  0.63480000  1.0 -0.2824757743
N  N29  1  0.02820000  0.97060000  0.36520000  1.0 -0.2824757743
N  N30  1  0.39460000  0.02940000  0.05760000  1.0 -0.2824757743
N  N31  1  0.97180000  0.33700000  0.94240000  1.0 -0.2824757743
N  N32  1  0.33700000  0.39460000  0.36520000  1.0 -0.2824757743
N  N33  1  0.41560000  0.20770000  0.28970000  1.0 -0.2331296961
N  N34  1  0.12590000  0.41560000  0.20790000  1.0 -0.2331296961
N  N35  1  0.20770000  0.91800000  0.79210000  1.0 -0.2331296961
N  N36  1  0.87410000  0.08200000  0.28970000  1.0 -0.2331296961
N  N37  1  0.91800000  0.12590000  0.71030000  1.0 -0.2331296961
N  N38  1  0.58440000  0.87410000  0.79210000  1.0 -0.2331296961
N  N39  1  0.08200000  0.79230000  0.20790000  1.0 -0.2331296961
N  N40  1  0.79230000  0.58440000  0.71030000  1.0 -0.2331296961
N  N41  1  0.58440000  0.79230000  0.71030000  1.0 -0.2331296961
N  N42  1  0.87410000  0.58440000  0.79210000  1.0 -0.2331296961
N  N43  1  0.79230000  0.08200000  0.20790000  1.0 -0.2331296961
N  N44  1  0.12590000  0.91800000  0.71030000  1.0 -0.2331296961
N  N45  1  0.08200000  0.87410000  0.28970000  1.0 -0.2331296961
N  N46  1  0.41560000  0.12590000  0.20790000  1.0 -0.2331296961
N  N47  1  0.91800000  0.20770000  0.79210000  1.0 -0.2331296961
N  N48  1  0.20770000  0.41560000  0.28970000  1.0 -0.2331296961
N  N49  1  0.34320000  0.18040000  0.40940000  1.0 -0.2585698526
N  N50  1  0.93380000  0.34320000  0.16280000  1.0 -0.2585698526
N  N51  1  0.18040000  0.77100000  0.83720000  1.0 -0.2585698526
N  N52  1  0.06620000  0.22900000  0.40940000  1.0 -0.2585698526
N  N53  1  0.77100000  0.93380000  0.59060000  1.0 -0.2585698526
N  N54  1  0.65680000  0.06620000  0.83720000  1.0 -0.2585698526
N  N55  1  0.22900000  0.81960000  0.16280000  1.0 -0.2585698526
N  N56  1  0.81960000  0.65680000  0.59060000  1.0 -0.2585698526
N  N57  1  0.65680000  0.81960000  0.59060000  1.0 -0.2585698526
N  N58  1  0.06620000  0.65680000  0.83720000  1.0 -0.2585698526
N  N59  1  0.81960000  0.22900000  0.16280000  1.0 -0.2585698526
N  N60  1  0.93380000  0.77100000  0.59060000  1.0 -0.2585698526
N  N61  1  0.22900000  0.06620000  0.40940000  1.0 -0.2585698526
N  N62  1  0.34320000  0.93380000  0.16280000  1.0 -0.2585698526
N  N63  1  0.77100000  0.18040000  0.83720000  1.0 -0.2585698526
N  N64  1  0.18040000  0.34320000  0.40940000  1.0 -0.2585698526
