# DDEC6 charges by PACMAN v1.1 (https://github.com/mtap-research/PACMAN-charge/)
data_VELGIF_FSR_pacman
_symmetry_space_group_name_H-M   'P 1'
_cell_length_a   11.52100000
_cell_length_b   13.83000000
_cell_length_c   20.23000000
_cell_angle_alpha   75.78800000
_cell_angle_beta   87.09300000
_cell_angle_gamma   85.69200000
_symmetry_Int_Tables_number   1
_chemical_formula_structural   Co3H30C46(N2O)8
_chemical_formula_sum   'Co6 H60 C92 N32 O16'
_cell_volume   3114.13621039
_cell_formula_units_Z   2
loop_
 _symmetry_equiv_pos_site_id
 _symmetry_equiv_pos_as_xyz
  1  'x, y, z'
loop_
 _atom_site_type_symbol
 _atom_site_label
 _atom_site_symmetry_multiplicity
 _atom_site_fract_x
 _atom_site_fract_y
 _atom_site_fract_z
 _atom_site_occupancy
 _atom_site_charge
Co  Co1  1  0.80723000  0.73701000  0.28054000  1.0 0.8374174898
Co  Co2  1  0.31173000  0.75447000  0.21697000  1.0 0.8374174898
Co  Co3  1  0.19277000  0.26299000  0.71946000  1.0 0.8374174898
Co  Co4  1  0.68827000  0.24553000  0.78303000  1.0 0.8374174898
Co  Co5  1  0.00000000  0.00000000  0.00000000  1.0 0.7534348136
Co  Co6  1  0.50000000  0.50000000  0.50000000  1.0 0.7534348136
H  H1  1  0.94990000  0.08620000  0.14220000  1.0 0.1215081647
H  H2  1  0.94610000  0.26140000  0.14690000  1.0 0.1215081647
H  H3  1  0.01950000  0.24410000  0.95880000  1.0 0.1215081647
H  H4  1  0.78810000  0.90750000  0.12340000  1.0 0.1215081647
H  H5  1  0.93180000  0.96120000  0.25730000  1.0 0.128969493
H  H6  1  0.96280000  0.02920000  0.34350000  1.0 0.1215081647
H  H7  1  0.78320000  0.80460000  0.42300000  1.0 0.1215081647
H  H8  1  0.80700000  0.82500000  0.52550000  1.0 0.128969493
H  H9  1  0.77710000  0.86700000  0.63160000  1.0 0.1215081647
H  H10  1  0.84360000  0.15040000  0.54150000  1.0 0.128969493
H  H11  1  0.86830000  0.11010000  0.43690000  1.0 0.1215081647
H  H12  1  0.79890000  0.90280000  0.73070000  1.0 0.1215081647
H  H13  1  0.49220000  0.91040000  0.41690000  1.0 0.128969493
H  H14  1  0.54110000  0.07700000  0.38690000  1.0 0.1215081647
H  H15  1  0.48700000  0.25710000  0.54080000  1.0 0.1078436216
H  H16  1  0.63210000  0.22830000  0.36860000  1.0 0.1215081647
H  H17  1  0.63350000  0.40340000  0.37500000  1.0 0.128969493
H  H18  1  0.67010000  0.61120000  0.94290000  1.0 0.128969493
H  H19  1  0.65400000  0.32450000  0.03490000  1.0 0.128969493
H  H20  1  0.56480000  0.57720000  0.85350000  1.0 0.1215081647
H  H21  1  0.56940000  0.48190000  0.76450000  1.0 0.128969493
H  H22  1  0.68150000  0.29710000  0.92980000  1.0 0.1215081647
H  H23  1  0.76560000  0.18800000  0.63860000  1.0 0.1215081647
H  H24  1  0.75200000  0.99780000  0.81470000  1.0 0.1365236357
H  H25  1  0.29990000  0.57880000  0.37230000  1.0 0.1215081647
H  H26  1  0.68770000  0.35980000  0.13850000  1.0 0.1215081647
H  H27  1  0.70740000  0.64750000  0.04460000  1.0 0.128969493
H  H28  1  0.79000000  0.39300000  0.22680000  1.0 0.1215081647
H  H29  1  0.83030000  0.48760000  0.30750000  1.0 0.128969493
H  H30  1  0.70820000  0.67660000  0.14680000  1.0 0.1215081647
H  H31  1  0.05010000  0.91380000  0.85780000  1.0 0.1215081647
H  H32  1  0.05390000  0.73860000  0.85310000  1.0 0.1215081647
H  H33  1  0.98050000  0.75590000  0.04120000  1.0 0.1215081647
H  H34  1  0.21190000  0.09250000  0.87660000  1.0 0.1215081647
H  H35  1  0.06820000  0.03880000  0.74270000  1.0 0.128969493
H  H36  1  0.03720000  0.97080000  0.65650000  1.0 0.1215081647
H  H37  1  0.21680000  0.19540000  0.57700000  1.0 0.1215081647
H  H38  1  0.19300000  0.17500000  0.47450000  1.0 0.128969493
H  H39  1  0.22290000  0.13300000  0.36840000  1.0 0.1215081647
H  H40  1  0.15640000  0.84960000  0.45850000  1.0 0.128969493
H  H41  1  0.13170000  0.88990000  0.56310000  1.0 0.1215081647
H  H42  1  0.20110000  0.09720000  0.26930000  1.0 0.1215081647
H  H43  1  0.50780000  0.08960000  0.58310000  1.0 0.128969493
H  H44  1  0.45890000  0.92300000  0.61310000  1.0 0.1215081647
H  H45  1  0.51300000  0.74290000  0.45920000  1.0 0.1078436216
H  H46  1  0.36790000  0.77170000  0.63140000  1.0 0.1215081647
H  H47  1  0.36650000  0.59660000  0.62500000  1.0 0.128969493
H  H48  1  0.32990000  0.38880000  0.05710000  1.0 0.128969493
H  H49  1  0.34600000  0.67550000  0.96510000  1.0 0.128969493
H  H50  1  0.43520000  0.42280000  0.14650000  1.0 0.1215081647
H  H51  1  0.43060000  0.51810000  0.23550000  1.0 0.128969493
H  H52  1  0.31850000  0.70290000  0.07020000  1.0 0.1215081647
H  H53  1  0.23440000  0.81200000  0.36140000  1.0 0.1215081647
H  H54  1  0.24800000  0.00220000  0.18530000  1.0 0.1365236357
H  H55  1  0.70010000  0.42120000  0.62770000  1.0 0.1215081647
H  H56  1  0.31230000  0.64020000  0.86150000  1.0 0.1215081647
H  H57  1  0.29260000  0.35250000  0.95540000  1.0 0.128969493
H  H58  1  0.21000000  0.60700000  0.77320000  1.0 0.1215081647
H  H59  1  0.16970000  0.51240000  0.69250000  1.0 0.128969493
H  H60  1  0.29180000  0.32340000  0.85320000  1.0 0.1215081647
C  C1  1  0.96630000  0.13960000  0.10570000  1.0 -0.0395277575
C  C2  1  0.96270000  0.23660000  0.10840000  1.0 -0.1118175174
C  C3  1  0.00470000  0.22570000  0.00570000  1.0 0.128969493
C  C4  1  0.99250000  0.39790000  0.02040000  1.0 0.1490161529
C  C5  1  0.96790000  0.44530000  0.95450000  1.0 -0.2186580235
C  C6  1  0.02450000  0.45030000  0.06740000  1.0 -0.0881157564
C  C7  1  0.86360000  0.88190000  0.13440000  1.0 0.1613464122
C  C8  1  0.04960000  0.85950000  0.13000000  1.0 -0.031038938
C  C9  1  0.00710000  0.79550000  0.18770000  1.0 -0.031038938
C  C10  1  0.90560000  0.93840000  0.30230000  1.0 -0.0513516749
C  C11  1  0.91570000  0.97610000  0.34790000  1.0 -0.0645468394
C  C12  1  0.82090000  0.85480000  0.39220000  1.0 0.1215081647
C  C13  1  0.83650000  0.96440000  0.47130000  1.0 0.1490161529
C  C14  1  0.81220000  0.89040000  0.52860000  1.0 -0.1893333619
C  C15  1  0.79540000  0.91510000  0.59230000  1.0 -0.1893333619
C  C16  1  0.80720000  0.01410000  0.59450000  1.0 0.1365236357
C  C17  1  0.83470000  0.08540000  0.53820000  1.0 -0.1893333619
C  C18  1  0.84950000  0.06130000  0.47580000  1.0 -0.1893333619
C  C19  1  0.78570000  0.97190000  0.72200000  1.0 -0.1118175174
C  C20  1  0.49610000  0.94570000  0.45030000  1.0 -0.1893333619
C  C21  1  0.52370000  0.04630000  0.43220000  1.0 -0.1893333619
C  C22  1  0.52530000  0.10020000  0.48170000  1.0 0.1490161529
C  C23  1  0.52040000  0.27350000  0.49700000  1.0 0.128969493
C  C24  1  0.60100000  0.25500000  0.40400000  1.0 -0.1020685369
C  C25  1  0.60020000  0.35240000  0.40750000  1.0 -0.031038938
C  C26  1  0.67280000  0.55990000  0.98250000  1.0 -0.1565756137
C  C27  1  0.65300000  0.46790000  0.97900000  1.0 0.1490161529
C  C28  1  0.66290000  0.38980000  0.03720000  1.0 -0.1778070675
C  C29  1  0.58930000  0.51030000  0.85820000  1.0 -0.1235616887
C  C30  1  0.59230000  0.45660000  0.80920000  1.0 -0.0209991392
C  C31  1  0.65400000  0.35530000  0.89930000  1.0 0.128969493
C  C32  1  0.05690000  0.71480000  0.24450000  1.0 0.5665906137
C  C33  1  0.16720000  0.88380000  0.09750000  1.0 0.5605208939
C  C34  1  0.76700000  0.12880000  0.67250000  1.0 0.1078436216
C  C35  1  0.76040000  0.02490000  0.76800000  1.0 -0.031038938
C  C36  1  0.37220000  0.60530000  0.36130000  1.0 0.1659576585
C  C37  1  0.55080000  0.63190000  0.36810000  1.0 -0.0209991392
C  C38  1  0.50910000  0.69440000  0.30800000  1.0 -0.0395277575
C  C39  1  0.54910000  0.77750000  0.25130000  1.0 0.5605208939
C  C40  1  0.66666667  0.61590000  0.40170000  1.0 0.5459212726
C  C41  1  0.68600000  0.41070000  0.09870000  1.0 -0.1778070675
C  C42  1  0.70700000  0.50880000  0.10100000  1.0 0.1490161529
C  C43  1  0.69740000  0.58180000  0.04350000  1.0 -0.1691423366
C  C44  1  0.77880000  0.46190000  0.22050000  1.0 -0.1118175174
C  C45  1  0.79980000  0.51460000  0.26470000  1.0 -0.031038938
C  C46  1  0.73380000  0.61770000  0.17720000  1.0 0.1215081647
C  C47  1  0.03370000  0.86040000  0.89430000  1.0 -0.0395277575
C  C48  1  0.03730000  0.76340000  0.89160000  1.0 -0.1118175174
C  C49  1  0.99530000  0.77430000  0.99430000  1.0 0.128969493
C  C50  1  0.00750000  0.60210000  0.97960000  1.0 0.1490161529
C  C51  1  0.03210000  0.55470000  0.04550000  1.0 -0.2186580235
C  C52  1  0.97550000  0.54970000  0.93260000  1.0 -0.0881157564
C  C53  1  0.13640000  0.11810000  0.86560000  1.0 0.1613464122
C  C54  1  0.95040000  0.14050000  0.87000000  1.0 -0.031038938
C  C55  1  0.99290000  0.20450000  0.81230000  1.0 -0.031038938
C  C56  1  0.09440000  0.06160000  0.69770000  1.0 -0.0513516749
C  C57  1  0.08430000  0.02390000  0.65210000  1.0 -0.0652121017
C  C58  1  0.17910000  0.14520000  0.60780000  1.0 0.1215081647
C  C59  1  0.16350000  0.03560000  0.52870000  1.0 0.1490161529
C  C60  1  0.18780000  0.10960000  0.47140000  1.0 -0.1954517896
C  C61  1  0.20460000  0.08490000  0.40770000  1.0 -0.1893333619
C  C62  1  0.19280000  0.98590000  0.40550000  1.0 0.128969493
C  C63  1  0.16530000  0.91460000  0.46180000  1.0 -0.1893333619
C  C64  1  0.15050000  0.93870000  0.52420000  1.0 -0.1893333619
C  C65  1  0.21430000  0.02810000  0.27800000  1.0 -0.1118175174
C  C66  1  0.50390000  0.05430000  0.54970000  1.0 -0.1893333619
C  C67  1  0.47630000  0.95370000  0.56780000  1.0 -0.1893333619
C  C68  1  0.47470000  0.89980000  0.51830000  1.0 0.1490161529
C  C69  1  0.47960000  0.72650000  0.50300000  1.0 0.1215081647
C  C70  1  0.39900000  0.74500000  0.59600000  1.0 -0.1020685369
C  C71  1  0.39980000  0.64760000  0.59250000  1.0 -0.031038938
C  C72  1  0.32720000  0.44010000  0.01750000  1.0 -0.1565756137
C  C73  1  0.34700000  0.53210000  0.02100000  1.0 0.1490161529
C  C74  1  0.33710000  0.61020000  0.96280000  1.0 -0.1778070675
C  C75  1  0.41070000  0.48970000  0.14180000  1.0 -0.1235616887
C  C76  1  0.40770000  0.54340000  0.19080000  1.0 -0.0209991392
C  C77  1  0.34600000  0.64470000  0.10070000  1.0 0.128969493
C  C78  1  0.94310000  0.28520000  0.75550000  1.0 0.5665906137
C  C79  1  0.83280000  0.11620000  0.90250000  1.0 0.5605208939
C  C80  1  0.23300000  0.87120000  0.32750000  1.0 0.1078436216
C  C81  1  0.23960000  0.97510000  0.23200000  1.0 -0.031038938
C  C82  1  0.62780000  0.39470000  0.63870000  1.0 0.1659576585
C  C83  1  0.44920000  0.36810000  0.63190000  1.0 -0.0209991392
C  C84  1  0.49090000  0.30560000  0.69200000  1.0 -0.031038938
C  C85  1  0.45090000  0.22250000  0.74870000  1.0 0.5605208939
C  C86  1  0.33333333  0.38410000  0.59830000  1.0 0.5459212726
C  C87  1  0.31400000  0.58930000  0.90130000  1.0 -0.1778070675
C  C88  1  0.29300000  0.49120000  0.89900000  1.0 0.1490161529
C  C89  1  0.30260000  0.41820000  0.95650000  1.0 -0.1691423366
C  C90  1  0.22120000  0.53810000  0.77950000  1.0 -0.1118175174
C  C91  1  0.20020000  0.48540000  0.73530000  1.0 -0.031038938
C  C92  1  0.26620000  0.38230000  0.82280000  1.0 0.1215081647
N  N1  1  0.77050000  0.61400000  0.23870000  1.0 -0.2883435423
N  N2  1  0.63390000  0.36060000  0.83600000  1.0 -0.2682335163
N  N3  1  0.54250000  0.36350000  0.46690000  1.0 -0.2682335163
N  N4  1  0.84700000  0.85340000  0.32950000  1.0 -0.2491874332
N  N5  1  0.99850000  0.13230000  0.03970000  1.0 -0.2784565324
N  N6  1  0.74820000  0.12470000  0.73730000  1.0 -0.2784565324
N  N7  1  0.95590000  0.91370000  0.09530000  1.0 -0.33712151
N  N8  1  0.88660000  0.81120000  0.19040000  1.0 -0.3535517389
N  N9  1  0.46270000  0.57700000  0.40090000  1.0 -0.3255290026
N  N10  1  0.39320000  0.67450000  0.30470000  1.0 -0.3535517389
N  N11  1  0.73730000  0.52910000  0.16360000  1.0 0.0102514126
N  N12  1  0.63070000  0.44320000  0.91630000  1.0 -0.0029685651
N  N13  1  0.54800000  0.20520000  0.46190000  1.0 -0.0029685651
N  N14  1  0.85490000  0.93830000  0.40780000  1.0 -0.031038938
N  N15  1  0.78870000  0.03690000  0.66050000  1.0 -0.0029685651
N  N16  1  0.98830000  0.29160000  0.04320000  1.0 0.0102514126
N  N17  1  0.22950000  0.38600000  0.76130000  1.0 -0.2883435423
N  N18  1  0.36610000  0.63940000  0.16400000  1.0 -0.2682335163
N  N19  1  0.45750000  0.63650000  0.53310000  1.0 -0.2682335163
N  N20  1  0.15300000  0.14660000  0.67050000  1.0 -0.2491874332
N  N21  1  0.00150000  0.86770000  0.96030000  1.0 -0.2784565324
N  N22  1  0.25180000  0.87530000  0.26270000  1.0 -0.2784565324
N  N23  1  0.04410000  0.08630000  0.90470000  1.0 -0.33712151
N  N24  1  0.11340000  0.18880000  0.80960000  1.0 -0.3535517389
N  N25  1  0.53730000  0.42300000  0.59910000  1.0 -0.3255290026
N  N26  1  0.60680000  0.32550000  0.69530000  1.0 -0.3535517389
N  N27  1  0.26270000  0.47090000  0.83640000  1.0 0.0102514126
N  N28  1  0.36930000  0.55680000  0.08370000  1.0 -0.0029685651
N  N29  1  0.45200000  0.79480000  0.53810000  1.0 -0.0029685651
N  N30  1  0.14510000  0.06170000  0.59220000  1.0 -0.031038938
N  N31  1  0.21130000  0.96310000  0.33950000  1.0 -0.0029685651
N  N32  1  0.01170000  0.70840000  0.95680000  1.0 0.0102514126
O  O1  1  0.64960000  0.80960000  0.25290000  1.0 -0.5666089589
O  O2  1  0.47930000  0.81130000  0.20460000  1.0 -0.5097356374
O  O3  1  0.66360000  0.55570000  0.46160000  1.0 -0.5375588471
O  O4  1  0.75570000  0.65480000  0.37570000  1.0 -0.4991137022
O  O5  1  0.98210000  0.67580000  0.29130000  1.0 -0.5271828408
O  O6  1  0.16060000  0.68300000  0.24570000  1.0 -0.5375588471
O  O7  1  0.25920000  0.84250000  0.12440000  1.0 -0.5271828408
O  O8  1  0.16560000  0.94840000  0.04150000  1.0 -0.5206699903
O  O9  1  0.35040000  0.19040000  0.74710000  1.0 -0.5666089589
O  O10  1  0.52070000  0.18870000  0.79540000  1.0 -0.5097356374
O  O11  1  0.33640000  0.44430000  0.53840000  1.0 -0.5375588471
O  O12  1  0.24430000  0.34520000  0.62430000  1.0 -0.4991137022
O  O13  1  0.01790000  0.32420000  0.70870000  1.0 -0.5271828408
O  O14  1  0.83940000  0.31700000  0.75430000  1.0 -0.5375588471
O  O15  1  0.74080000  0.15750000  0.87560000  1.0 -0.5271828408
O  O16  1  0.83440000  0.05160000  0.95850000  1.0 -0.5206699903
