# DDEC6 charges by PACMAN v1.1 (https://github.com/mtap-research/PACMAN-charge/)
data_VELTOZ_ASR_pacman
_symmetry_space_group_name_H-M   'P 1'
_cell_length_a   14.17590000
_cell_length_b   17.05980000
_cell_length_c   18.78940000
_cell_angle_alpha   88.40700000
_cell_angle_beta   96.26500000
_cell_angle_gamma   109.16700000
_symmetry_Int_Tables_number   1
_chemical_formula_structural   Y3H46C74(N4O11)2
_chemical_formula_sum   'Y6 H92 C148 N16 O44'
_cell_volume   4266.30870032
_cell_formula_units_Z   2
loop_
 _symmetry_equiv_pos_site_id
 _symmetry_equiv_pos_as_xyz
  1  'x, y, z'
loop_
 _atom_site_type_symbol
 _atom_site_label
 _atom_site_symmetry_multiplicity
 _atom_site_fract_x
 _atom_site_fract_y
 _atom_site_fract_z
 _atom_site_occupancy
 _atom_site_charge
Y  Y1  1  0.52956000  0.25319000  0.71552000  1.0 1.7178838093
Y  Y2  1  0.48633000  0.99253000  0.78315000  1.0 1.6625934084
Y  Y3  1  0.42761000  0.49202000  0.21337000  1.0 1.6745812733
Y  Y4  1  0.47044000  0.74681000  0.28448000  1.0 1.7178838093
Y  Y5  1  0.51367000  0.00747000  0.21685000  1.0 1.6625934084
Y  Y6  1  0.57239000  0.50798000  0.78663000  1.0 1.6745812733
H  H1  1  0.29938000  0.50561000  0.40302000  1.0 0.1294412587
H  H2  1  0.13259000  0.79549000  0.43708000  1.0 0.1294412587
H  H3  1  0.43666000  0.85454000  0.50021000  1.0 0.1103214156
H  H4  1  0.63674000  0.94721000  0.05943000  1.0 0.1210959126
H  H5  1  0.65186000  0.83364000  0.10613000  1.0 0.1294412587
H  H6  1  0.10235000  0.87327000  0.66416000  1.0 0.0877833413
H  H7  1  0.23623000  0.56050000  0.25937000  1.0 0.0824335153
H  H8  1  0.55399000  0.10507000  0.97849000  1.0 0.1210959126
H  H9  1  0.80176000  0.90390000  0.91558000  1.0 0.1210959126
H  H10  1  0.11791000  0.14155000  0.35459000  1.0 0.1294412587
H  H11  1  0.44065000  0.34969000  0.49313000  1.0 0.1103214156
H  H12  1  0.63857000  0.29995000  0.11706000  1.0 0.1294412587
H  H13  1  0.14593000  0.63250000  0.62119000  1.0 0.1294412587
H  H14  1  0.13549000  0.27718000  0.32518000  1.0 0.1294412587
H  H15  1  0.55014000  0.59864000  0.02677000  1.0 0.1210959126
H  H16  1  0.87579000  0.71446000  0.96592000  1.0 0.1210959126
H  H17  1  0.67800000  0.33864000  0.90544000  1.0 0.1294412587
H  H18  1  0.18903000  0.03792000  0.37396000  1.0 0.1210959126
H  H19  1  0.33598000  0.01200000  0.37081000  1.0 0.1294412587
H  H20  1  0.07466000  0.38872000  0.31063000  1.0 0.0877833413
H  H21  1  0.88665000  0.82396000  0.18951000  1.0 0.0877833413
H  H22  1  0.36987000  0.50869000  0.61852000  1.0 0.1294412587
H  H23  1  0.31620000  0.01211000  0.58484000  1.0 0.1210959126
H  H24  1  0.85281000  0.17091000  0.85342000  1.0 0.1294412587
H  H25  1  0.33901000  0.64409000  0.43516000  1.0 0.1294412587
H  H26  1  0.85093000  0.20875000  0.06555000  1.0 0.1294412587
H  H27  1  0.33772000  0.14558000  0.55704000  1.0 0.1294412587
H  H28  1  0.61791000  0.42489000  0.10085000  1.0 0.1210959126
H  H29  1  0.94146000  0.85602000  0.98897000  1.0 0.0824335153
H  H30  1  0.71346000  0.08930000  0.04854000  1.0 0.1294412587
H  H31  1  0.69028000  0.56566000  0.12624000  1.0 0.141534086
H  H32  1  0.91053000  0.31319000  0.83937000  1.0 0.1002423976
H  H33  1  0.29302000  0.07117000  0.71501000  1.0 0.0877833413
H  H34  1  0.91452000  0.35034000  0.04536000  1.0 0.0877833413
H  H35  1  0.67462000  0.79157000  0.89795000  1.0 0.1294412587
H  H36  1  0.21423000  0.52908000  0.60587000  1.0 0.1210959126
H  H37  1  0.16274000  0.76470000  0.65246000  1.0 0.1294412587
H  H38  1  0.12951000  0.29641000  0.53973000  1.0 0.1210959126
H  H39  1  0.87144000  0.04508000  0.89680000  1.0 0.1294412587
H  H40  1  0.80933000  0.44132000  0.95622000  1.0 0.1103214156
H  H41  1  0.25912000  0.24578000  0.54455000  1.0 0.141534086
H  H42  1  0.06903000  0.40694000  0.51781000  1.0 0.0877833413
H  H43  1  0.81847000  0.68042000  0.17389000  1.0 0.1294412587
H  H44  1  0.06910000  0.90168000  0.45733000  1.0 0.0824335153
H  H45  1  0.26316000  0.74448000  0.44281000  1.0 0.141534086
H  H46  1  0.88048000  0.58270000  0.97685000  1.0 0.1294412587
H  H47  1  0.70062000  0.49439000  0.59698000  1.0 0.1294412587
H  H48  1  0.86741000  0.20451000  0.56292000  1.0 0.1294412587
H  H49  1  0.56334000  0.14546000  0.49979000  1.0 0.1103214156
H  H50  1  0.36326000  0.05279000  0.94057000  1.0 0.1210959126
H  H51  1  0.34814000  0.16636000  0.89387000  1.0 0.1294412587
H  H52  1  0.89765000  0.12673000  0.33584000  1.0 0.0877833413
H  H53  1  0.76377000  0.43950000  0.74063000  1.0 0.0824335153
H  H54  1  0.44601000  0.89493000  0.02151000  1.0 0.1210959126
H  H55  1  0.19824000  0.09610000  0.08442000  1.0 0.1210959126
H  H56  1  0.88209000  0.85845000  0.64541000  1.0 0.1294412587
H  H57  1  0.55935000  0.65031000  0.50687000  1.0 0.1103214156
H  H58  1  0.36143000  0.70005000  0.88294000  1.0 0.1294412587
H  H59  1  0.85407000  0.36750000  0.37881000  1.0 0.1294412587
H  H60  1  0.86451000  0.72282000  0.67482000  1.0 0.1294412587
H  H61  1  0.44986000  0.40136000  0.97323000  1.0 0.1210959126
H  H62  1  0.12421000  0.28554000  0.03408000  1.0 0.1210959126
H  H63  1  0.32200000  0.66136000  0.09456000  1.0 0.1294412587
H  H64  1  0.81097000  0.96208000  0.62604000  1.0 0.1210959126
H  H65  1  0.66402000  0.98800000  0.62919000  1.0 0.1294412587
H  H66  1  0.92534000  0.61128000  0.68937000  1.0 0.0877833413
H  H67  1  0.11335000  0.17604000  0.81049000  1.0 0.0877833413
H  H68  1  0.63013000  0.49131000  0.38148000  1.0 0.1294412587
H  H69  1  0.68380000  0.98789000  0.41516000  1.0 0.1210959126
H  H70  1  0.14719000  0.82909000  0.14658000  1.0 0.1294412587
H  H71  1  0.66099000  0.35591000  0.56484000  1.0 0.1294412587
H  H72  1  0.14907000  0.79125000  0.93445000  1.0 0.1294412587
H  H73  1  0.66228000  0.85442000  0.44296000  1.0 0.1294412587
H  H74  1  0.38209000  0.57511000  0.89915000  1.0 0.1210959126
H  H75  1  0.05854000  0.14398000  0.01103000  1.0 0.0877833413
H  H76  1  0.28654000  0.91070000  0.95146000  1.0 0.1294412587
H  H77  1  0.30972000  0.43434000  0.87376000  1.0 0.141534086
H  H78  1  0.08947000  0.68681000  0.16063000  1.0 0.1002423976
H  H79  1  0.70698000  0.92883000  0.28499000  1.0 0.0877833413
H  H80  1  0.08548000  0.64966000  0.95464000  1.0 0.0877833413
H  H81  1  0.32538000  0.20843000  0.10205000  1.0 0.1294412587
H  H82  1  0.78577000  0.47092000  0.39413000  1.0 0.1210959126
H  H83  1  0.83726000  0.23530000  0.34754000  1.0 0.1294412587
H  H84  1  0.87049000  0.70359000  0.46027000  1.0 0.1210959126
H  H85  1  0.12856000  0.95492000  0.10320000  1.0 0.1294412587
H  H86  1  0.19067000  0.55868000  0.04378000  1.0 0.1103214156
H  H87  1  0.74088000  0.75422000  0.45545000  1.0 0.141534086
H  H88  1  0.93097000  0.59306000  0.48219000  1.0 0.0877833413
H  H89  1  0.18153000  0.31958000  0.82611000  1.0 0.1294412587
H  H90  1  0.93090000  0.09832000  0.54267000  1.0 0.0824335153
H  H91  1  0.73684000  0.25552000  0.55719000  1.0 0.141534086
H  H92  1  0.11952000  0.41730000  0.02315000  1.0 0.1294412587
C  C1  1  0.32810000  0.48460000  0.44412000  1.0 -0.1779450205
C  C2  1  0.12710000  0.81020000  0.48450000  1.0 -0.2099862743
C  C3  1  0.61170000  0.17890000  0.85902000  1.0 0.6093268831
C  C4  1  0.40680000  0.89700000  0.49421000  1.0 -0.1872156397
C  C5  1  0.80010000  0.08270000  0.97116000  1.0 0.1103214156
C  C6  1  0.38890000  0.92730000  0.42594000  1.0 -0.0079460904
C  C7  1  0.68700000  0.96770000  0.02770000  1.0 0.0377783548
C  C8  1  0.64040000  0.79610000  0.06720000  1.0 -0.2013501182
C  C9  1  0.10900000  0.85710000  0.61750000  1.0 0.0634318579
C  C10  1  0.37090000  0.42330000  0.43719000  1.0 -0.0500841934
C  C11  1  0.29670000  0.60600000  0.26760000  1.0 0.4507274319
C  C12  1  0.59430000  0.71140000  0.07624000  1.0 -0.0201377111
C  C13  1  0.84310000  0.17370000  0.96090000  1.0 0.1002423976
C  C14  1  0.58270000  0.16310000  0.98745000  1.0 -0.1696943801
C  C15  1  0.78320000  0.94220000  0.94200000  1.0 -0.0016204024
C  C16  1  0.38050000  0.92960000  0.55354000  1.0 -0.0500841934
C  C17  1  0.16220000  0.14270000  0.39660000  1.0 -0.1696943801
C  C18  1  0.41240000  0.39240000  0.49789000  1.0 -0.1779450205
C  C19  1  0.14070000  0.27540000  0.43480000  1.0 0.1002423976
C  C20  1  0.58890000  0.19390000  0.05627000  1.0 -0.0079460904
C  C21  1  0.63170000  0.27860000  0.06994000  1.0 -0.2099862743
C  C22  1  0.18420000  0.63510000  0.58220000  1.0 -0.1779450205
C  C23  1  0.45970000  0.39470000  0.63209000  1.0 0.6040608425
C  C24  1  0.12310000  0.30310000  0.36570000  1.0 -0.2099862743
C  C25  1  0.58080000  0.65650000  0.02006000  1.0 -0.1541397284
C  C26  1  0.87660000  0.73530000  0.01240000  1.0 -0.2013501182
C  C27  1  0.65710000  0.30170000  0.94375000  1.0 -0.2013501182
C  C28  1  0.40270000  0.89980000  0.62820000  1.0 0.4507274319
C  C29  1  0.31840000  0.02010000  0.47617000  1.0 0.1475250711
C  C30  1  0.20530000  0.08200000  0.40770000  1.0 -0.0079460904
C  C31  1  0.61190000  0.68600000  0.95391000  1.0 -0.0079460904
C  C32  1  0.37380000  0.39090000  0.36370000  1.0 0.4507274319
C  C33  1  0.34610000  0.99010000  0.41698000  1.0 -0.2099862743
C  C34  1  0.08680000  0.36990000  0.35770000  1.0 0.0698883684
C  C35  1  0.41240000  0.42410000  0.56552000  1.0 -0.0079460904
C  C36  1  0.88370000  0.80110000  0.14350000  1.0 0.0698883684
C  C37  1  0.66950000  0.82520000  0.00071000  1.0 0.141534086
C  C38  1  0.79350000  0.59030000  0.05384000  1.0 0.1103214156
C  C39  1  0.66470000  0.33180000  0.01306000  1.0 0.141534086
C  C40  1  0.18310000  0.20650000  0.44690000  1.0 0.1002423976
C  C41  1  0.36980000  0.48640000  0.57273000  1.0 -0.2195398967
C  C42  1  0.19770000  0.70110000  0.53420000  1.0 0.1002423976
C  C43  1  0.33530000  0.99060000  0.54467000  1.0 -0.1779450205
C  C44  1  0.86330000  0.20650000  0.89360000  1.0 -0.1872156397
C  C45  1  0.29770000  0.64150000  0.47230000  1.0 0.0377783548
C  C46  1  0.86290000  0.22880000  0.01860000  1.0 -0.2099862743
C  C47  1  0.61810000  0.21610000  0.93175000  1.0 -0.0201377111
C  C48  1  0.15590000  0.76840000  0.54330000  1.0 0.1002423976
C  C49  1  0.32760000  0.51480000  0.51189000  1.0 0.1475250711
C  C50  1  0.29160000  0.14450000  0.51610000  1.0 0.0377783548
C  C51  1  0.67250000  0.45730000  0.07617000  1.0 0.0377783548
C  C52  1  0.91570000  0.81980000  0.02680000  1.0 0.0493360736
C  C53  1  0.55790000  0.67900000  0.14769000  1.0 0.6093268831
C  C54  1  0.73080000  0.05200000  0.02010000  1.0 -0.1696943801
C  C55  1  0.55140000  0.13280000  0.11457000  1.0 0.5305383046
C  C56  1  0.83870000  0.68130000  0.06720000  1.0 0.1002423976
C  C57  1  0.71480000  0.54110000  0.09080000  1.0 -0.1779450205
C  C58  1  0.89870000  0.29150000  0.88590000  1.0 0.0824335153
C  C59  1  0.35420000  0.11590000  0.71430000  1.0 0.4507274319
C  C60  1  0.90030000  0.31320000  0.00580000  1.0 0.0493360736
C  C61  1  0.65520000  0.77090000  0.94348000  1.0 -0.2099862743
C  C62  1  0.22540000  0.57430000  0.57360000  1.0 -0.0016204024
C  C63  1  0.41820000  0.89400000  0.36102000  1.0 0.6093268831
C  C64  1  0.14530000  0.79250000  0.61120000  1.0 -0.2013501182
C  C65  1  0.11950000  0.31460000  0.49210000  1.0 -0.2099862743
C  C66  1  0.82510000  0.02580000  0.93140000  1.0 -0.1872156397
C  C67  1  0.78470000  0.46720000  0.99070000  1.0 0.0063197621
C  C68  1  0.24660000  0.20510000  0.50810000  1.0 -0.1779450205
C  C69  1  0.08350000  0.38060000  0.47850000  1.0 0.0493360736
C  C70  1  0.84280000  0.71500000  0.13490000  1.0 -0.2099862743
C  C71  1  0.60050000  0.62550000  0.89468000  1.0 0.5305383046
C  C72  1  0.09010000  0.87400000  0.49740000  1.0 0.0698883684
C  C73  1  0.25450000  0.70190000  0.47760000  1.0 -0.1779450205
C  C74  1  0.82730000  0.55110000  0.00318000  1.0 -0.1779450205
C  C75  1  0.67190000  0.51540000  0.55588000  1.0 -0.1779450205
C  C76  1  0.87290000  0.18980000  0.51550000  1.0 -0.2099862743
C  C77  1  0.38830000  0.82110000  0.14098000  1.0 0.6093268831
C  C78  1  0.59320000  0.10300000  0.50579000  1.0 -0.1872156397
C  C79  1  0.19990000  0.91730000  0.02884000  1.0 0.1103214156
C  C80  1  0.61110000  0.07270000  0.57406000  1.0 -0.0079460904
C  C81  1  0.31300000  0.03230000  0.97230000  1.0 0.0377783548
C  C82  1  0.35960000  0.20390000  0.93280000  1.0 -0.2013501182
C  C83  1  0.89100000  0.14290000  0.38250000  1.0 0.0634318579
C  C84  1  0.62910000  0.57670000  0.56281000  1.0 -0.0500841934
C  C85  1  0.70330000  0.39400000  0.73240000  1.0 0.4507274319
C  C86  1  0.40570000  0.28860000  0.92376000  1.0 -0.0201377111
C  C87  1  0.15690000  0.82630000  0.03910000  1.0 0.1002423976
C  C88  1  0.41730000  0.83690000  0.01255000  1.0 -0.1696943801
C  C89  1  0.21680000  0.05780000  0.05800000  1.0 -0.0016204024
C  C90  1  0.61950000  0.07040000  0.44646000  1.0 -0.0500841934
C  C91  1  0.83780000  0.85730000  0.60340000  1.0 -0.1696943801
C  C92  1  0.58760000  0.60760000  0.50211000  1.0 -0.1779450205
C  C93  1  0.85930000  0.72460000  0.56520000  1.0 0.1002423976
C  C94  1  0.41110000  0.80610000  0.94373000  1.0 -0.0079460904
C  C95  1  0.36830000  0.72140000  0.93006000  1.0 -0.2099862743
C  C96  1  0.81580000  0.36490000  0.41780000  1.0 -0.1779450205
C  C97  1  0.54030000  0.60530000  0.36791000  1.0 0.6040608425
C  C98  1  0.87690000  0.69690000  0.63430000  1.0 -0.2099862743
C  C99  1  0.41920000  0.34350000  0.97994000  1.0 -0.1541397284
C  C100  1  0.12340000  0.26470000  0.98760000  1.0 -0.2013501182
C  C101  1  0.34290000  0.69830000  0.05625000  1.0 -0.2013501182
C  C102  1  0.59730000  0.10020000  0.37180000  1.0 0.4507274319
C  C103  1  0.68160000  0.97990000  0.52383000  1.0 0.1475250711
C  C104  1  0.79470000  0.91800000  0.59230000  1.0 -0.0079460904
C  C105  1  0.38810000  0.31400000  0.04609000  1.0 -0.0079460904
C  C106  1  0.62620000  0.60910000  0.63630000  1.0 0.4507274319
C  C107  1  0.65390000  0.00990000  0.58302000  1.0 -0.2099862743
C  C108  1  0.91320000  0.63010000  0.64230000  1.0 0.0698883684
C  C109  1  0.58760000  0.57590000  0.43448000  1.0 -0.0079460904
C  C110  1  0.11630000  0.19890000  0.85650000  1.0 0.0698883684
C  C111  1  0.33050000  0.17480000  0.99929000  1.0 0.141534086
C  C112  1  0.20650000  0.40970000  0.94616000  1.0 0.1103214156
C  C113  1  0.33530000  0.66820000  0.98694000  1.0 0.141534086
C  C114  1  0.81690000  0.79350000  0.55310000  1.0 0.1002423976
C  C115  1  0.63020000  0.51360000  0.42727000  1.0 -0.2195398967
C  C116  1  0.80230000  0.29890000  0.46580000  1.0 0.1002423976
C  C117  1  0.66470000  0.00940000  0.45533000  1.0 -0.1779450205
C  C118  1  0.13670000  0.79350000  0.10640000  1.0 -0.1872156397
C  C119  1  0.70230000  0.35850000  0.52770000  1.0 0.0377783548
C  C120  1  0.13710000  0.77120000  0.98140000  1.0 -0.2099862743
C  C121  1  0.38190000  0.78390000  0.06825000  1.0 -0.0201377111
C  C122  1  0.84410000  0.23160000  0.45670000  1.0 0.1002423976
C  C123  1  0.67240000  0.48520000  0.48811000  1.0 0.1475250711
C  C124  1  0.70840000  0.85550000  0.48390000  1.0 0.0377783548
C  C125  1  0.32750000  0.54270000  0.92383000  1.0 0.0377783548
C  C126  1  0.08430000  0.18020000  0.97320000  1.0 0.0493360736
C  C127  1  0.44210000  0.32100000  0.85231000  1.0 0.6093268831
C  C128  1  0.26920000  0.94800000  0.97990000  1.0 -0.1696943801
C  C129  1  0.44860000  0.86720000  0.88543000  1.0 0.5305383046
C  C130  1  0.16130000  0.31870000  0.93280000  1.0 0.1002423976
C  C131  1  0.28520000  0.45890000  0.90920000  1.0 -0.1779450205
C  C132  1  0.10130000  0.70850000  0.11410000  1.0 0.0824335153
C  C133  1  0.64580000  0.88410000  0.28570000  1.0 0.4507274319
C  C134  1  0.09970000  0.68680000  0.99420000  1.0 0.0493360736
C  C135  1  0.34480000  0.22910000  0.05652000  1.0 -0.2099862743
C  C136  1  0.77460000  0.42570000  0.42640000  1.0 0.0003030112
C  C137  1  0.58180000  0.10600000  0.63898000  1.0 0.6093268831
C  C138  1  0.85470000  0.20750000  0.38880000  1.0 -0.2013501182
C  C139  1  0.88050000  0.68540000  0.50790000  1.0 -0.2099862743
C  C140  1  0.17490000  0.97420000  0.06860000  1.0 -0.1872156397
C  C141  1  0.21530000  0.53280000  0.00930000  1.0 0.0063197621
C  C142  1  0.75340000  0.79490000  0.49190000  1.0 -0.1779450205
C  C143  1  0.91650000  0.61940000  0.52150000  1.0 0.0493360736
C  C144  1  0.15720000  0.28500000  0.86510000  1.0 -0.2099862743
C  C145  1  0.39950000  0.37450000  0.10532000  1.0 0.5305383046
C  C146  1  0.90990000  0.12600000  0.50260000  1.0 0.0698883684
C  C147  1  0.74550000  0.29810000  0.52240000  1.0 -0.1779450205
C  C148  1  0.17270000  0.44890000  0.99682000  1.0 -0.1779450205
N  N1  1  0.71510000  0.91392000  0.99038000  1.0 0.0493360736
N  N2  1  0.70800000  0.42077000  0.02697000  1.0 0.0493360736
N  N3  1  0.27130000  0.08374000  0.46667000  1.0 0.030868477
N  N4  1  0.28210000  0.57836000  0.51918000  1.0 0.0377783548
N  N5  1  0.91730000  0.34520000  0.94070000  1.0 -0.2926480731
N  N6  1  0.91890000  0.85310000  0.09090000  1.0 -0.2926480731
N  N7  1  0.06820000  0.40910000  0.41230000  1.0 -0.2926480731
N  N8  1  0.08260000  0.89820000  0.56190000  1.0 -0.281455056
N  N9  1  0.28490000  0.08608000  0.00962000  1.0 0.0493360736
N  N10  1  0.29200000  0.57923000  0.97303000  1.0 0.0493360736
N  N11  1  0.72870000  0.91626000  0.53333000  1.0 0.030868477
N  N12  1  0.71790000  0.42164000  0.48082000  1.0 0.0377783548
N  N13  1  0.08270000  0.65480000  0.05930000  1.0 -0.2926480731
N  N14  1  0.08110000  0.14690000  0.90910000  1.0 -0.2926480731
N  N15  1  0.93180000  0.59090000  0.58770000  1.0 -0.2926480731
N  N16  1  0.91740000  0.10180000  0.43810000  1.0 -0.281455056
O  O1  1  0.37298000  0.60633000  0.23784000  1.0 -0.6219804447
O  O2  1  0.35300000  0.43121000  0.31038000  1.0 -0.6219804447
O  O3  1  0.41250000  0.82710000  0.63230000  1.0 -0.1178686928
O  O4  1  0.49210000  0.33448000  0.62523000  1.0 -0.6083798441
O  O5  1  0.39060000  0.94010000  0.67959000  1.0 -0.6414879124
O  O6  1  0.52930000  0.60183000  0.15472000  1.0 -0.6083798441
O  O7  1  0.41670000  0.93331000  0.30433000  1.0 -0.6083798441
O  O8  1  0.61880000  0.65188000  0.83203000  1.0 -0.6219804447
O  O9  1  0.55760000  0.73108000  0.19329000  1.0 -0.6013848107
O  O10  1  0.58620000  0.10157000  0.85507000  1.0 -0.6013848107
O  O11  1  0.50740000  0.05813000  0.09596000  1.0 -0.6083798441
O  O12  1  0.57220000  0.54958000  0.90839000  1.0 -0.6013848107
O  O13  1  0.43354000  0.11133000  0.75056000  1.0 -0.6083798441
O  O14  1  0.56690000  0.15571000  0.17884000  1.0 -0.6013848107
O  O15  1  0.43980000  0.82802000  0.36833000  1.0 -0.6013848107
O  O16  1  0.63282000  0.22819000  0.80737000  1.0 -0.6083798441
O  O17  1  0.37560000  0.31420000  0.36220000  1.0 -0.1779450205
O  O18  1  0.35610000  0.17906000  0.67752000  1.0 -0.5277166526
O  O19  1  0.46400000  0.43108000  0.68955000  1.0 -0.6083798441
O  O20  1  0.29920000  0.66432000  0.30765000  1.0 -0.5159775774
O  O21  1  0.43230000  0.35380000  0.35620000  1.0 -0.094881491
O  O22  1  0.46360000  0.86010000  0.63570000  1.0 -0.1091216031
O  O23  1  0.62702000  0.39367000  0.76216000  1.0 -0.6219804447
O  O24  1  0.64700000  0.56879000  0.68962000  1.0 -0.6219804447
O  O25  1  0.58750000  0.17290000  0.36770000  1.0 -0.1178686928
O  O26  1  0.50790000  0.66552000  0.37477000  1.0 -0.6083798441
O  O27  1  0.60940000  0.05990000  0.32041000  1.0 -0.6414879124
O  O28  1  0.47070000  0.39817000  0.84528000  1.0 -0.6083798441
O  O29  1  0.58330000  0.06669000  0.69567000  1.0 -0.6083798441
O  O30  1  0.38120000  0.34812000  0.16797000  1.0 -0.6219804447
O  O31  1  0.44240000  0.26892000  0.80671000  1.0 -0.6013848107
O  O32  1  0.41380000  0.89843000  0.14493000  1.0 -0.6013848107
O  O33  1  0.49260000  0.94187000  0.90404000  1.0 -0.6083798441
O  O34  1  0.42780000  0.45042000  0.09161000  1.0 -0.6013848107
O  O35  1  0.56646000  0.88867000  0.24944000  1.0 -0.6083798441
O  O36  1  0.43310000  0.84429000  0.82116000  1.0 -0.6013848107
O  O37  1  0.56020000  0.17198000  0.63167000  1.0 -0.6013848107
O  O38  1  0.36718000  0.77181000  0.19263000  1.0 -0.6083798441
O  O39  1  0.62440000  0.68580000  0.63780000  1.0 -0.1779450205
O  O40  1  0.64390000  0.82094000  0.32248000  1.0 -0.5277166526
O  O41  1  0.53600000  0.56892000  0.31045000  1.0 -0.6083798441
O  O42  1  0.70080000  0.33568000  0.69235000  1.0 -0.5159775774
O  O43  1  0.56770000  0.64620000  0.64380000  1.0 -0.0953315358
O  O44  1  0.53640000  0.13990000  0.36430000  1.0 -0.1091216031
