# DDEC6 charges by PACMAN v1.1 (https://github.com/mtap-research/PACMAN-charge/)
data_VEMDAT_FSR_pacman
_symmetry_space_group_name_H-M   'P 1'
_cell_length_a   13.53960000
_cell_length_b   30.43800000
_cell_length_c   15.72170000
_cell_angle_alpha   90.00000000
_cell_angle_beta   110.53500000
_cell_angle_gamma   90.00000000
_symmetry_Int_Tables_number   1
_chemical_formula_structural   Zn3P2H32C42S2(N2O5)3
_chemical_formula_sum   'Zn12 P8 H128 C168 S8 N24 O60'
_cell_volume   6067.50014331
_cell_formula_units_Z   4
loop_
 _symmetry_equiv_pos_site_id
 _symmetry_equiv_pos_as_xyz
  1  'x, y, z'
loop_
 _atom_site_type_symbol
 _atom_site_label
 _atom_site_symmetry_multiplicity
 _atom_site_fract_x
 _atom_site_fract_y
 _atom_site_fract_z
 _atom_site_occupancy
 _atom_site_charge
Zn  Zn1  1  0.52430000  0.94928000  0.14052000  1.0 0.7627853169
Zn  Zn2  1  0.47570000  0.44928000  0.35948000  1.0 0.7627853169
Zn  Zn3  1  0.47570000  0.05072000  0.85948000  1.0 0.7627853169
Zn  Zn4  1  0.52430000  0.55072000  0.64052000  1.0 0.7627853169
Zn  Zn5  1  0.66666667  0.91706000  0.70811000  1.0 0.8318103417
Zn  Zn6  1  0.33333333  0.41706000  0.79189000  1.0 0.8318103417
Zn  Zn7  1  0.33333333  0.08294000  0.29189000  1.0 0.8318103417
Zn  Zn8  1  0.66666667  0.58294000  0.20811000  1.0 0.8318103417
Zn  Zn9  1  0.38628000  0.97676000  0.56956000  1.0 0.964966522
Zn  Zn10  1  0.61372000  0.47676000  0.93044000  1.0 0.964966522
Zn  Zn11  1  0.61372000  0.02324000  0.43044000  1.0 0.965392576
Zn  Zn12  1  0.38628000  0.52324000  0.06956000  1.0 0.964966522
P  P1  1  0.50608000  0.04820000  0.21738000  1.0 1.2513236566
P  P2  1  0.49392000  0.54820000  0.28262000  1.0 1.2513236566
P  P3  1  0.49392000  0.95180000  0.78262000  1.0 1.2513236566
P  P4  1  0.50608000  0.45180000  0.71738000  1.0 1.2513236566
P  P5  1  0.55694000  0.93248000  0.50061000  1.0 1.2513236566
P  P6  1  0.44306000  0.43248000  0.99939000  1.0 1.2513236566
P  P7  1  0.44306000  0.06752000  0.49939000  1.0 1.2513236566
P  P8  1  0.55694000  0.56752000  0.00061000  1.0 1.2513236566
H  H1  1  0.58920000  0.21700000  0.13050000  1.0 0.1204224233
H  H2  1  0.41080000  0.71700000  0.36950000  1.0 0.1204224233
H  H3  1  0.41080000  0.78300000  0.86950000  1.0 0.1204224233
H  H4  1  0.58920000  0.28300000  0.63050000  1.0 0.1204224233
H  H5  1  0.42620000  0.18560000  0.05520000  1.0 0.1022917482
H  H6  1  0.57380000  0.68560000  0.44480000  1.0 0.1022917482
H  H7  1  0.57380000  0.81440000  0.94480000  1.0 0.1022917482
H  H8  1  0.42620000  0.31440000  0.55520000  1.0 0.1022917482
H  H9  1  0.39000000  0.11530000  0.09260000  1.0 0.1098279079
H  H10  1  0.61000000  0.61530000  0.40740000  1.0 0.1098279079
H  H11  1  0.61000000  0.88470000  0.90740000  1.0 0.1098279079
H  H12  1  0.39000000  0.38470000  0.59260000  1.0 0.1098279079
H  H13  1  0.68210000  0.10710000  0.27790000  1.0 0.1317965225
H  H14  1  0.31790000  0.60710000  0.22210000  1.0 0.1317965225
H  H15  1  0.31790000  0.89290000  0.72210000  1.0 0.1317965225
H  H16  1  0.68210000  0.39290000  0.77790000  1.0 0.1317965225
H  H17  1  0.40820000  0.86890000  0.39320000  1.0 0.1204224233
H  H18  1  0.59180000  0.36890000  0.10680000  1.0 0.1204224233
H  H19  1  0.59180000  0.13110000  0.60680000  1.0 0.1204224233
H  H20  1  0.40820000  0.63110000  0.89320000  1.0 0.1204224233
H  H21  1  0.41900000  0.79920000  0.33850000  1.0 0.1204224233
H  H22  1  0.58100000  0.29920000  0.16150000  1.0 0.1204224233
H  H23  1  0.58100000  0.20080000  0.66150000  1.0 0.1204224233
H  H24  1  0.41900000  0.70080000  0.83850000  1.0 0.1204224233
H  H25  1  0.58000000  0.76380000  0.38000000  1.0 0.1022917482
H  H26  1  0.42000000  0.26380000  0.12000000  1.0 0.1022917482
H  H27  1  0.42000000  0.23620000  0.62000000  1.0 0.1022917482
H  H28  1  0.58000000  0.73620000  0.88000000  1.0 0.1022917482
H  H29  1  0.72140000  0.86950000  0.52110000  1.0 0.1204224233
H  H30  1  0.27860000  0.36950000  0.97890000  1.0 0.1204224233
H  H31  1  0.27860000  0.13050000  0.47890000  1.0 0.1204224233
H  H32  1  0.72140000  0.63050000  0.02110000  1.0 0.1204224233
H  H33  1  0.22210000  0.90770000  0.50010000  1.0 0.1317965225
H  H34  1  0.77790000  0.40770000  0.99990000  1.0 0.1317965225
H  H35  1  0.77790000  0.09230000  0.49990000  1.0 0.1317965225
H  H36  1  0.22210000  0.59230000  0.00010000  1.0 0.1317965225
H  H37  1  0.04480000  0.89980000  0.42010000  1.0 0.1520931101
H  H38  1  0.95520000  0.39980000  0.07990000  1.0 0.1520931101
H  H39  1  0.95520000  0.10020000  0.57990000  1.0 0.1520931101
H  H40  1  0.04480000  0.60020000  0.92010000  1.0 0.1520931101
H  H41  1  0.02410000  0.03080000  0.39550000  1.0 0.1317965225
H  H42  1  0.97590000  0.53080000  0.10450000  1.0 0.1317965225
H  H43  1  0.97590000  0.96920000  0.60450000  1.0 0.1317965225
H  H44  1  0.02410000  0.46920000  0.89550000  1.0 0.1317965225
H  H45  1  0.20120000  0.03510000  0.47720000  1.0 0.1098279079
H  H46  1  0.79880000  0.53510000  0.02280000  1.0 0.1098279079
H  H47  1  0.79880000  0.96490000  0.52280000  1.0 0.1098279079
H  H48  1  0.20120000  0.46490000  0.97720000  1.0 0.1098279079
H  H49  1  0.86590000  0.90680000  0.40270000  1.0 0.138047961
H  H50  1  0.13410000  0.40680000  0.09730000  1.0 0.138047961
H  H51  1  0.13410000  0.09320000  0.59730000  1.0 0.138047961
H  H52  1  0.86590000  0.59320000  0.90270000  1.0 0.138047961
H  H53  1  0.68980000  0.90320000  0.31430000  1.0 0.1022917482
H  H54  1  0.31020000  0.40320000  0.18570000  1.0 0.1022917482
H  H55  1  0.31020000  0.09680000  0.68570000  1.0 0.1022917482
H  H56  1  0.68980000  0.59680000  0.81430000  1.0 0.1022917482
H  H57  1  0.71380000  0.00680000  0.17730000  1.0 0.1098279079
H  H58  1  0.28620000  0.50680000  0.32270000  1.0 0.1098279079
H  H59  1  0.28620000  0.99320000  0.82270000  1.0 0.1098279079
H  H60  1  0.71380000  0.49320000  0.67730000  1.0 0.1098279079
H  H61  1  0.88980000  0.01390000  0.26230000  1.0 0.1204224233
H  H62  1  0.11020000  0.51390000  0.23770000  1.0 0.1204224233
H  H63  1  0.11020000  0.98610000  0.73770000  1.0 0.1204224233
H  H64  1  0.88980000  0.48610000  0.76230000  1.0 0.1204224233
H  H65  1  0.30900000  0.98890000  0.10720000  1.0 0.1098279079
H  H66  1  0.69100000  0.48890000  0.39280000  1.0 0.1098279079
H  H67  1  0.69100000  0.01110000  0.89280000  1.0 0.1098279079
H  H68  1  0.30900000  0.51110000  0.60720000  1.0 0.1098279079
H  H69  1  0.13390000  0.98080000  0.02200000  1.0 0.1098279079
H  H70  1  0.86610000  0.48080000  0.47800000  1.0 0.1098279079
H  H71  1  0.86610000  0.01920000  0.97800000  1.0 0.1098279079
H  H72  1  0.13390000  0.51920000  0.52200000  1.0 0.1098279079
H  H73  1  0.21320000  0.88850000  0.87520000  1.0 0.138047961
H  H74  1  0.78680000  0.38850000  0.62480000  1.0 0.138047961
H  H75  1  0.78680000  0.11150000  0.12480000  1.0 0.138047961
H  H76  1  0.21320000  0.61150000  0.37520000  1.0 0.138047961
H  H77  1  0.38640000  0.89940000  0.96480000  1.0 0.1098279079
H  H78  1  0.61360000  0.39940000  0.53520000  1.0 0.1098279079
H  H79  1  0.61360000  0.10060000  0.03520000  1.0 0.1098279079
H  H80  1  0.38640000  0.60060000  0.46480000  1.0 0.1098279079
H  H81  1  0.97940000  0.94500000  0.98170000  1.0 0.138047961
H  H82  1  0.02060000  0.44500000  0.51830000  1.0 0.138047961
H  H83  1  0.02060000  0.05500000  0.01830000  1.0 0.138047961
H  H84  1  0.97940000  0.55500000  0.48170000  1.0 0.138047961
H  H85  1  0.80460000  0.93890000  0.89300000  1.0 0.1204224233
H  H86  1  0.19540000  0.43890000  0.60700000  1.0 0.1204224233
H  H87  1  0.19540000  0.06110000  0.10700000  1.0 0.1204224233
H  H88  1  0.80460000  0.56110000  0.39300000  1.0 0.1204224233
H  H89  1  0.87680000  0.89990000  0.68570000  1.0 0.1204224233
H  H90  1  0.12320000  0.39990000  0.81430000  1.0 0.1204224233
H  H91  1  0.12320000  0.10010000  0.31430000  1.0 0.1204224233
H  H92  1  0.87680000  0.60010000  0.18570000  1.0 0.1204224233
H  H93  1  0.05420000  0.90480000  0.76900000  1.0 0.1520931101
H  H94  1  0.94580000  0.40480000  0.73100000  1.0 0.1520931101
H  H95  1  0.94580000  0.09520000  0.23100000  1.0 0.1520931101
H  H96  1  0.05420000  0.59520000  0.26900000  1.0 0.1520931101
H  H97  1  0.40130000  0.86250000  0.14620000  1.0 0.1022917482
H  H98  1  0.59870000  0.36250000  0.35380000  1.0 0.1022917482
H  H99  1  0.59870000  0.13750000  0.85380000  1.0 0.1022917482
H  H100  1  0.40130000  0.63750000  0.64620000  1.0 0.1098279079
H  H101  1  0.41900000  0.78740000  0.15710000  1.0 0.1520931101
H  H102  1  0.58100000  0.28740000  0.34290000  1.0 0.1520931101
H  H103  1  0.58100000  0.21260000  0.84290000  1.0 0.1520931101
H  H104  1  0.41900000  0.71260000  0.65710000  1.0 0.1520931101
H  H105  1  0.71080000  0.80170000  0.14870000  1.0 0.1317965225
H  H106  1  0.28920000  0.30170000  0.35130000  1.0 0.1317965225
H  H107  1  0.28920000  0.19830000  0.85130000  1.0 0.1317965225
H  H108  1  0.71080000  0.69830000  0.64870000  1.0 0.1317965225
H  H109  1  0.68030000  0.87570000  0.13070000  1.0 0.1022917482
H  H110  1  0.31970000  0.37570000  0.36930000  1.0 0.1022917482
H  H111  1  0.31970000  0.12430000  0.86930000  1.0 0.1022917482
H  H112  1  0.68030000  0.62430000  0.63070000  1.0 0.1022917482
H  H113  1  0.44090000  0.71580000  0.09790000  1.0 0.1520931101
H  H114  1  0.55910000  0.21580000  0.40210000  1.0 0.1520931101
H  H115  1  0.55910000  0.28420000  0.90210000  1.0 0.1520931101
H  H116  1  0.44090000  0.78420000  0.59790000  1.0 0.1520931101
H  H117  1  0.47870000  0.64240000  0.12200000  1.0 0.1204224233
H  H118  1  0.52130000  0.14240000  0.37800000  1.0 0.1204224233
H  H119  1  0.52130000  0.35760000  0.87800000  1.0 0.1204224233
H  H120  1  0.47870000  0.85760000  0.62200000  1.0 0.1204224233
H  H121  1  0.77030000  0.66780000  0.26910000  1.0 0.1022917482
H  H122  1  0.22970000  0.16780000  0.23090000  1.0 0.1022917482
H  H123  1  0.22970000  0.33220000  0.73090000  1.0 0.1022917482
H  H124  1  0.77030000  0.83220000  0.76910000  1.0 0.1022917482
H  H125  1  0.74200000  0.74200000  0.25070000  1.0 0.138047961
H  H126  1  0.25800000  0.24200000  0.24930000  1.0 0.138047961
H  H127  1  0.25800000  0.25800000  0.74930000  1.0 0.138047961
H  H128  1  0.74200000  0.75800000  0.75070000  1.0 0.138047961
C  C1  1  0.64980000  0.16572000  0.21270000  1.0 -0.0885551953
C  C2  1  0.35020000  0.66572000  0.28730000  1.0 -0.0885551953
C  C3  1  0.35020000  0.83428000  0.78730000  1.0 -0.0885551953
C  C4  1  0.64980000  0.33428000  0.71270000  1.0 -0.0885551953
C  C5  1  0.57460000  0.18882000  0.14550000  1.0 -0.0885551953
C  C6  1  0.42540000  0.68882000  0.35450000  1.0 -0.0885551953
C  C7  1  0.42540000  0.81118000  0.85450000  1.0 -0.0885551953
C  C8  1  0.57460000  0.31118000  0.64550000  1.0 -0.0885551953
C  C9  1  0.47740000  0.16998000  0.10030000  1.0 -0.102600303
C  C10  1  0.52260000  0.66998000  0.39970000  1.0 -0.102600303
C  C11  1  0.52260000  0.83002000  0.89970000  1.0 -0.102600303
C  C12  1  0.47740000  0.33002000  0.60030000  1.0 -0.102600303
C  C13  1  0.45610000  0.12756000  0.12220000  1.0 -0.0797110931
C  C14  1  0.54390000  0.62756000  0.37780000  1.0 -0.0797110931
C  C15  1  0.54390000  0.87244000  0.87780000  1.0 -0.0797110931
C  C16  1  0.45610000  0.37244000  0.62220000  1.0 -0.0797110931
C  C17  1  0.53290000  0.10340000  0.18800000  1.0 -0.1800088042
C  C18  1  0.46710000  0.60340000  0.31200000  1.0 -0.1800088042
C  C19  1  0.46710000  0.89660000  0.81200000  1.0 -0.1800088042
C  C20  1  0.53290000  0.39660000  0.68800000  1.0 -0.1800088042
C  C21  1  0.63010000  0.12281000  0.23350000  1.0 -0.0885551953
C  C22  1  0.36990000  0.62281000  0.26650000  1.0 -0.0885551953
C  C23  1  0.36990000  0.87719000  0.76650000  1.0 -0.0885551953
C  C24  1  0.63010000  0.37719000  0.73350000  1.0 -0.0885551953
C  C25  1  0.56420000  0.87720000  0.46150000  1.0 -0.1710061604
C  C26  1  0.43580000  0.37720000  0.03850000  1.0 -0.1710061604
C  C27  1  0.43580000  0.12280000  0.53850000  1.0 -0.1710061604
C  C28  1  0.56420000  0.62280000  0.96150000  1.0 -0.1710061604
C  C29  1  0.47350000  0.85521000  0.40790000  1.0 -0.0554491305
C  C30  1  0.52650000  0.35521000  0.09210000  1.0 -0.0554491305
C  C31  1  0.52650000  0.14479000  0.59210000  1.0 -0.0554491305
C  C32  1  0.47350000  0.64479000  0.90790000  1.0 -0.0554491305
C  C33  1  0.47960000  0.81317000  0.37610000  1.0 -0.0885551953
C  C34  1  0.52040000  0.31317000  0.12390000  1.0 -0.0885551953
C  C35  1  0.52040000  0.18683000  0.62390000  1.0 -0.0885551953
C  C36  1  0.47960000  0.68683000  0.87610000  1.0 -0.0885551953
C  C37  1  0.57590000  0.79218000  0.40040000  1.0 -0.102600303
C  C38  1  0.42410000  0.29218000  0.09960000  1.0 -0.102600303
C  C39  1  0.42410000  0.20782000  0.59960000  1.0 -0.102600303
C  C40  1  0.57590000  0.70782000  0.90040000  1.0 -0.102600303
C  C41  1  0.66390000  0.81278000  0.45370000  1.0 -0.1340355413
C  C42  1  0.33610000  0.31278000  0.04630000  1.0 -0.1340355413
C  C43  1  0.33610000  0.18722000  0.54630000  1.0 -0.1340355413
C  C44  1  0.66390000  0.68722000  0.95370000  1.0 -0.1340355413
C  C45  1  0.65980000  0.85564000  0.48480000  1.0 -0.0885551953
C  C46  1  0.34020000  0.35564000  0.01520000  1.0 -0.0885551953
C  C47  1  0.34020000  0.14436000  0.51520000  1.0 -0.0885551953
C  C48  1  0.65980000  0.64436000  0.98480000  1.0 -0.0885551953
C  C49  1  0.18160000  0.93273000  0.47900000  1.0 0.1022917482
C  C50  1  0.81840000  0.43273000  0.02100000  1.0 0.1022917482
C  C51  1  0.81840000  0.06727000  0.52100000  1.0 0.1022917482
C  C52  1  0.18160000  0.56727000  0.97900000  1.0 0.1022917482
C  C53  1  0.07510000  0.92767000  0.43010000  1.0 -0.1864519404
C  C54  1  0.92490000  0.42767000  0.06990000  1.0 -0.1864519404
C  C55  1  0.92490000  0.07233000  0.56990000  1.0 -0.1864519404
C  C56  1  0.07510000  0.57233000  0.93010000  1.0 -0.1864519404
C  C57  1  0.01420000  0.96464000  0.39640000  1.0 0.1098279079
C  C58  1  0.98580000  0.46464000  0.10360000  1.0 0.1098279079
C  C59  1  0.98580000  0.03536000  0.60360000  1.0 0.1098279079
C  C60  1  0.01420000  0.53536000  0.89640000  1.0 0.1098279079
C  C61  1  0.06290000  0.00520000  0.41580000  1.0 -0.1994264718
C  C62  1  0.93710000  0.50520000  0.08420000  1.0 -0.1994264718
C  C63  1  0.93710000  0.99480000  0.58420000  1.0 -0.1994264718
C  C64  1  0.06290000  0.49480000  0.91580000  1.0 -0.1994264718
C  C65  1  0.16940000  0.00755000  0.46540000  1.0 0.1022917482
C  C66  1  0.83060000  0.50755000  0.03460000  1.0 0.1022917482
C  C67  1  0.83060000  0.99245000  0.53460000  1.0 0.1022917482
C  C68  1  0.16940000  0.49245000  0.96540000  1.0 0.1022917482
C  C69  1  0.89940000  0.96122000  0.34270000  1.0 0.1022917482
C  C70  1  0.10060000  0.46122000  0.15730000  1.0 0.1022917482
C  C71  1  0.10060000  0.03878000  0.65730000  1.0 0.1022917482
C  C72  1  0.89940000  0.53878000  0.84270000  1.0 0.1022917482
C  C73  1  0.83690000  0.92746000  0.35730000  1.0 -0.2084190174
C  C74  1  0.16310000  0.42746000  0.14270000  1.0 -0.2084190174
C  C75  1  0.16310000  0.07254000  0.64270000  1.0 -0.2084190174
C  C76  1  0.83690000  0.57254000  0.85730000  1.0 -0.2084190174
C  C77  1  0.73090000  0.92536000  0.30300000  1.0 0.1022917482
C  C78  1  0.26910000  0.42536000  0.19700000  1.0 0.1022917482
C  C79  1  0.26910000  0.07464000  0.69700000  1.0 0.1022917482
C  C80  1  0.73090000  0.57464000  0.80300000  1.0 0.1022917482
C  C81  1  0.74500000  0.98630000  0.22260000  1.0 0.1098279079
C  C82  1  0.25500000  0.48630000  0.27740000  1.0 0.1098279079
C  C83  1  0.25500000  0.01370000  0.77740000  1.0 0.1098279079
C  C84  1  0.74500000  0.51370000  0.72260000  1.0 0.1098279079
C  C85  1  0.85110000  0.99090000  0.27400000  1.0 -0.1994264718
C  C86  1  0.14890000  0.49090000  0.22600000  1.0 -0.1994264718
C  C87  1  0.14890000  0.00910000  0.72600000  1.0 -0.1994264718
C  C88  1  0.85110000  0.50910000  0.77400000  1.0 -0.1994264718
C  C89  1  0.28950000  0.96823000  0.06070000  1.0 0.1022917482
C  C90  1  0.71050000  0.46823000  0.43930000  1.0 0.1022917482
C  C91  1  0.71050000  0.03177000  0.93930000  1.0 0.1022917482
C  C92  1  0.28950000  0.53177000  0.56070000  1.0 0.1022917482
C  C93  1  0.18370000  0.96350000  0.00950000  1.0 -0.2084190174
C  C94  1  0.81630000  0.46350000  0.49050000  1.0 -0.2084190174
C  C95  1  0.81630000  0.03650000  0.99050000  1.0 -0.2084190174
C  C96  1  0.18370000  0.53650000  0.50950000  1.0 -0.2084190174
C  C97  1  0.15170000  0.93305000  0.93950000  1.0 0.1022917482
C  C98  1  0.84830000  0.43305000  0.56050000  1.0 0.1022917482
C  C99  1  0.84830000  0.06695000  0.06050000  1.0 0.1022917482
C  C100  1  0.15170000  0.56695000  0.43950000  1.0 0.1022917482
C  C101  1  0.23050000  0.90884000  0.92240000  1.0 -0.1864519404
C  C102  1  0.76950000  0.40884000  0.57760000  1.0 -0.1864519404
C  C103  1  0.76950000  0.09116000  0.07760000  1.0 -0.1864519404
C  C104  1  0.23050000  0.59116000  0.42240000  1.0 -0.1864519404
C  C105  1  0.33460000  0.91560000  0.97690000  1.0 0.0889300937
C  C106  1  0.66540000  0.41560000  0.52310000  1.0 0.0889300937
C  C107  1  0.66540000  0.08440000  0.02310000  1.0 0.0889300937
C  C108  1  0.33460000  0.58440000  0.47690000  1.0 0.0889300937
C  C109  1  0.03790000  0.92715000  0.88440000  1.0 0.1204224233
C  C110  1  0.96210000  0.42715000  0.61560000  1.0 0.1204224233
C  C111  1  0.96210000  0.07285000  0.11560000  1.0 0.1204224233
C  C112  1  0.03790000  0.57285000  0.38440000  1.0 0.1204224233
C  C113  1  0.96050000  0.93632000  0.92140000  1.0 -0.1994264718
C  C114  1  0.03950000  0.43632000  0.57860000  1.0 -0.1994264718
C  C115  1  0.03950000  0.06368000  0.07860000  1.0 -0.1994264718
C  C116  1  0.96050000  0.56368000  0.42140000  1.0 -0.1994264718
C  C117  1  0.85550000  0.93241000  0.86770000  1.0 0.0889300937
C  C118  1  0.14450000  0.43241000  0.63230000  1.0 0.0889300937
C  C119  1  0.14450000  0.06759000  0.13230000  1.0 0.0889300937
C  C120  1  0.85550000  0.56759000  0.36770000  1.0 0.0889300937
C  C121  1  0.89790000  0.90948000  0.74570000  1.0 0.0889300937
C  C122  1  0.10210000  0.40948000  0.75430000  1.0 0.0889300937
C  C123  1  0.10210000  0.09052000  0.25430000  1.0 0.0889300937
C  C124  1  0.89790000  0.59052000  0.24570000  1.0 0.0889300937
C  C125  1  0.00500000  0.91253000  0.79530000  1.0 -0.1800088042
C  C126  1  0.99500000  0.41253000  0.70470000  1.0 -0.1800088042
C  C127  1  0.99500000  0.08747000  0.20470000  1.0 -0.1800088042
C  C128  1  0.00500000  0.58747000  0.29530000  1.0 -0.1800088042
C  C129  1  0.46410000  0.85003000  0.14650000  1.0 0.0889300937
C  C130  1  0.53590000  0.35003000  0.35350000  1.0 0.0889300937
C  C131  1  0.53590000  0.14997000  0.85350000  1.0 0.0889300937
C  C132  1  0.46410000  0.64997000  0.64650000  1.0 0.0889300937
C  C133  1  0.47410000  0.80474000  0.15380000  1.0 -0.1800088042
C  C134  1  0.52590000  0.30474000  0.34620000  1.0 -0.1800088042
C  C135  1  0.52590000  0.19526000  0.84620000  1.0 -0.1800088042
C  C136  1  0.47410000  0.69526000  0.65380000  1.0 -0.1800088042
C  C137  1  0.56840000  0.78578000  0.15620000  1.0 0.1204224233
C  C138  1  0.43160000  0.28578000  0.34380000  1.0 0.1204224233
C  C139  1  0.43160000  0.21422000  0.84380000  1.0 0.1204224233
C  C140  1  0.56840000  0.71422000  0.65620000  1.0 0.1204224233
C  C141  1  0.64690000  0.81330000  0.14790000  1.0 -0.1800088042
C  C142  1  0.35310000  0.31330000  0.35210000  1.0 -0.1800088042
C  C143  1  0.35310000  0.18670000  0.85210000  1.0 -0.1800088042
C  C144  1  0.64690000  0.68670000  0.64790000  1.0 -0.1800088042
C  C145  1  0.62840000  0.85786000  0.13850000  1.0 0.0821552327
C  C146  1  0.37160000  0.35786000  0.36150000  1.0 0.0821552327
C  C147  1  0.37160000  0.14214000  0.86150000  1.0 0.0821552327
C  C148  1  0.62840000  0.64214000  0.63850000  1.0 0.0821552327
C  C149  1  0.58760000  0.73789000  0.17070000  1.0 0.1204224233
C  C150  1  0.41240000  0.23789000  0.32930000  1.0 0.1204224233
C  C151  1  0.41240000  0.26211000  0.82930000  1.0 0.1204224233
C  C152  1  0.58760000  0.76211000  0.67070000  1.0 0.1204224233
C  C153  1  0.50870000  0.70685000  0.13280000  1.0 -0.1710061604
C  C154  1  0.49130000  0.20685000  0.36720000  1.0 -0.1710061604
C  C155  1  0.49130000  0.29315000  0.86720000  1.0 -0.1710061604
C  C156  1  0.50870000  0.79315000  0.63280000  1.0 -0.1710061604
C  C157  1  0.53220000  0.66273000  0.14770000  1.0 0.1098279079
C  C158  1  0.46780000  0.16273000  0.35230000  1.0 0.1098279079
C  C159  1  0.46780000  0.33727000  0.85230000  1.0 0.1098279079
C  C160  1  0.53220000  0.83727000  0.64770000  1.0 0.1098279079
C  C161  1  0.70340000  0.67771000  0.23420000  1.0 0.0821552327
C  C162  1  0.29660000  0.17771000  0.26580000  1.0 0.0821552327
C  C163  1  0.29660000  0.32229000  0.76580000  1.0 0.0821552327
C  C164  1  0.70340000  0.82229000  0.73420000  1.0 0.0821552327
C  C165  1  0.68720000  0.72243000  0.22330000  1.0 -0.1800088042
C  C166  1  0.31280000  0.22243000  0.27670000  1.0 -0.1800088042
C  C167  1  0.31280000  0.27757000  0.77670000  1.0 -0.1800088042
C  C168  1  0.68720000  0.77757000  0.72330000  1.0 -0.1800088042
S  S1  1  0.77319000  0.19025000  0.27424000  1.0 1.1515639587
S  S2  1  0.22681000  0.69025000  0.22576000  1.0 1.1515639587
S  S3  1  0.22681000  0.80975000  0.72576000  1.0 1.1515639587
S  S4  1  0.77319000  0.30975000  0.77424000  1.0 1.1515639587
S  S5  1  0.78571000  0.78431000  0.48879000  1.0 0.9175764187
S  S6  1  0.21429000  0.28431000  0.01121000  1.0 0.9175764187
S  S7  1  0.21429000  0.21569000  0.51121000  1.0 0.9175764187
S  S8  1  0.78571000  0.71569000  0.98879000  1.0 0.9175764187
N  N1  1  0.22900000  0.97180000  0.49730000  1.0 -0.2321285778
N  N2  1  0.77100000  0.47180000  0.00270000  1.0 -0.2321285778
N  N3  1  0.77100000  0.02820000  0.50270000  1.0 -0.2321285778
N  N4  1  0.22900000  0.52820000  0.99730000  1.0 -0.2321285778
N  N5  1  0.68500000  0.95354000  0.23540000  1.0 -0.2173281149
N  N6  1  0.31500000  0.45354000  0.26460000  1.0 -0.2173281149
N  N7  1  0.31500000  0.04646000  0.76460000  1.0 -0.2173281149
N  N8  1  0.68500000  0.54646000  0.73540000  1.0 -0.2173281149
N  N9  1  0.36500000  0.94426000  0.04610000  1.0 -0.2084190174
N  N10  1  0.63500000  0.44426000  0.45390000  1.0 -0.2084190174
N  N11  1  0.63500000  0.05574000  0.95390000  1.0 -0.2084190174
N  N12  1  0.36500000  0.55574000  0.54610000  1.0 -0.2084190174
N  N13  1  0.82380000  0.91972000  0.78050000  1.0 -0.2321285778
N  N14  1  0.17620000  0.41972000  0.71950000  1.0 -0.2321285778
N  N15  1  0.17620000  0.08028000  0.21950000  1.0 -0.2321285778
N  N16  1  0.82380000  0.58028000  0.28050000  1.0 -0.2321285778
N  N17  1  0.53970000  0.87702000  0.13980000  1.0 -0.2406364443
N  N18  1  0.46030000  0.37702000  0.36020000  1.0 -0.2406364443
N  N19  1  0.46030000  0.12298000  0.86020000  1.0 -0.2406364443
N  N20  1  0.53970000  0.62298000  0.63980000  1.0 -0.2406364443
N  N21  1  0.62790000  0.64792000  0.19710000  1.0 -0.2540383325
N  N22  1  0.37210000  0.14792000  0.30290000  1.0 -0.2540383325
N  N23  1  0.37210000  0.35208000  0.80290000  1.0 -0.2540383325
N  N24  1  0.62790000  0.85208000  0.69710000  1.0 -0.2540383325
O  O1  1  0.59240000  0.03838000  0.30760000  1.0 -0.7564715878
O  O2  1  0.40760000  0.53838000  0.19240000  1.0 -0.7564715878
O  O3  1  0.40760000  0.96162000  0.69240000  1.0 -0.7564715878
O  O4  1  0.59240000  0.46162000  0.80760000  1.0 -0.7564715878
O  O5  1  0.39524000  0.04885000  0.22256000  1.0 -0.7380543487
O  O6  1  0.60476000  0.54885000  0.27744000  1.0 -0.7380543487
O  O7  1  0.60476000  0.95115000  0.77744000  1.0 -0.7380543487
O  O8  1  0.39524000  0.45115000  0.72256000  1.0 -0.7380543487
O  O9  1  0.50987000  0.01759000  0.14173000  1.0 -0.6407491551
O  O10  1  0.49013000  0.51759000  0.35827000  1.0 -0.6407491551
O  O11  1  0.49013000  0.98241000  0.85827000  1.0 -0.6407491551
O  O12  1  0.50987000  0.48241000  0.64173000  1.0 -0.6407491551
O  O13  1  0.83510000  0.18560000  0.21980000  1.0 -0.5771125988
O  O14  1  0.16490000  0.68560000  0.28020000  1.0 -0.5771125988
O  O15  1  0.16490000  0.81440000  0.78020000  1.0 -0.5771125988
O  O16  1  0.83510000  0.31440000  0.71980000  1.0 -0.5771125988
O  O17  1  0.81380000  0.16860000  0.35790000  1.0 -0.5862830118
O  O18  1  0.18620000  0.66860000  0.14210000  1.0 -0.5862830118
O  O19  1  0.18620000  0.83140000  0.64210000  1.0 -0.5862830118
O  O20  1  0.81380000  0.33140000  0.85790000  1.0 -0.5862830118
O  O21  1  0.75020000  0.23470000  0.28700000  1.0 -0.5771125988
O  O22  1  0.24980000  0.73470000  0.21300000  1.0 -0.5771125988
O  O23  1  0.24980000  0.76530000  0.71300000  1.0 -0.5771125988
O  O24  1  0.75020000  0.26530000  0.78700000  1.0 -0.5771125988
O  O25  1  0.45020000  0.93582000  0.51080000  1.0 -0.7692922117
O  O26  1  0.54980000  0.43582000  0.98920000  1.0 -0.7692922117
O  O27  1  0.54980000  0.06418000  0.48920000  1.0 -0.7692922117
O  O28  1  0.45020000  0.56418000  0.01080000  1.0 -0.7692922117
O  O29  1  0.64880000  0.93978000  0.58918000  1.0 -0.7692922117
O  O30  1  0.35120000  0.43978000  0.91082000  1.0 -0.7692922117
O  O31  1  0.35120000  0.06022000  0.41082000  1.0 -0.7692922117
O  O32  1  0.64880000  0.56022000  0.08918000  1.0 -0.7692922117
O  O33  1  0.56890000  0.96269000  0.42747000  1.0 -0.6925653206
O  O34  1  0.43110000  0.46269000  0.07253000  1.0 -0.6925653206
O  O35  1  0.43110000  0.03731000  0.57253000  1.0 -0.6925653206
O  O36  1  0.56890000  0.53731000  0.92747000  1.0 -0.6925653206
O  O37  1  0.82840000  0.79460000  0.42620000  1.0 -0.3799769492
O  O38  1  0.17160000  0.29460000  0.07380000  1.0 -0.3799769492
O  O39  1  0.17160000  0.20540000  0.57380000  1.0 -0.3799769492
O  O40  1  0.82840000  0.70540000  0.92620000  1.0 -0.3799769492
O  O41  1  0.84850000  0.80180000  0.57050000  1.0 -0.491482331
O  O42  1  0.15150000  0.30180000  0.92950000  1.0 -0.491482331
O  O43  1  0.15150000  0.19820000  0.42950000  1.0 -0.491482331
O  O44  1  0.84850000  0.69820000  0.07050000  1.0 -0.491482331
O  O45  1  0.77100000  0.74390000  0.44900000  1.0 0.0320519129
O  O46  1  0.22900000  0.24390000  0.05100000  1.0 0.0237243729
O  O47  1  0.22900000  0.25610000  0.55100000  1.0 0.0237243729
O  O48  1  0.77100000  0.75610000  0.94900000  1.0 0.0320519129
O  O49  1  0.58490000  0.95485000  0.03295000  1.0 -0.3999303529
O  O50  1  0.41510000  0.45485000  0.46705000  1.0 -0.3999303529
O  O51  1  0.41510000  0.04515000  0.96705000  1.0 -0.3999303529
O  O52  1  0.58490000  0.54515000  0.53295000  1.0 -0.3999303529
O  O53  1  0.46360000  0.94045000  0.24923000  1.0 -0.3999303529
O  O54  1  0.53640000  0.44045000  0.25077000  1.0 -0.3999303529
O  O55  1  0.53640000  0.05955000  0.75077000  1.0 -0.3999303529
O  O56  1  0.46360000  0.55955000  0.74923000  1.0 -0.3999303529
O  O57  1  0.75980000  0.74020000  0.52120000  1.0 -0.1994264718
O  O58  1  0.24020000  0.24020000  0.97880000  1.0 -0.1994264718
O  O59  1  0.24020000  0.25980000  0.47880000  1.0 -0.1994264718
O  O60  1  0.75980000  0.75980000  0.02120000  1.0 -0.1994264718
