# DDEC6 charges by PACMAN v1.1 (https://github.com/mtap-research/PACMAN-charge/)
data_VEMMIK_FSR_pacman
_symmetry_space_group_name_H-M   'P 1'
_cell_length_a   19.27740000
_cell_length_b   19.27740000
_cell_length_c   19.27740000
_cell_angle_alpha   117.82700000
_cell_angle_beta   117.82700000
_cell_angle_gamma   117.82700000
_symmetry_Int_Tables_number   1
_chemical_formula_structural   MnH2C8N6ClO
_chemical_formula_sum   'Mn6 H12 C48 N36 Cl6 O6'
_cell_volume   2707.56474863
_cell_formula_units_Z   6
loop_
 _symmetry_equiv_pos_site_id
 _symmetry_equiv_pos_as_xyz
  1  'x, y, z'
loop_
 _atom_site_type_symbol
 _atom_site_label
 _atom_site_symmetry_multiplicity
 _atom_site_fract_x
 _atom_site_fract_y
 _atom_site_fract_z
 _atom_site_occupancy
 _atom_site_charge
Mn  Mn1  1  0.77890000  0.49933000  0.08213000  1.0 0.6997027085
Mn  Mn2  1  0.49933000  0.08213000  0.77890000  1.0 0.6997027085
Mn  Mn3  1  0.08213000  0.77890000  0.49933000  1.0 0.6997027085
Mn  Mn4  1  0.22110000  0.50067000  0.91787000  1.0 0.6997027085
Mn  Mn5  1  0.50067000  0.91787000  0.22110000  1.0 0.6997027085
Mn  Mn6  1  0.91787000  0.22110000  0.50067000  1.0 0.6997027085
H  H1  1  0.61150000  0.51650000  0.97520000  1.0 0.1140729324
H  H2  1  0.51650000  0.97520000  0.61150000  1.0 0.1140729324
H  H3  1  0.97520000  0.61150000  0.51650000  1.0 0.1161719596
H  H4  1  0.38850000  0.48350000  0.02480000  1.0 0.1140729324
H  H5  1  0.48350000  0.02480000  0.38850000  1.0 0.1161719596
H  H6  1  0.02480000  0.38850000  0.48350000  1.0 0.1161719596
H  H7  1  0.33470000  0.30540000  0.91830000  1.0 0.1357778446
H  H8  1  0.30540000  0.91830000  0.33470000  1.0 0.1357778446
H  H9  1  0.91830000  0.33470000  0.30540000  1.0 0.1357778446
H  H10  1  0.66530000  0.69460000  0.08170000  1.0 0.1357778446
H  H11  1  0.69460000  0.08170000  0.66530000  1.0 0.1357778446
H  H12  1  0.08170000  0.66530000  0.69460000  1.0 0.1357778446
C  C1  1  0.42010000  0.26660000  0.85670000  1.0 0.2219482274
C  C2  1  0.26660000  0.85670000  0.42010000  1.0 0.2219482274
C  C3  1  0.85670000  0.42010000  0.26660000  1.0 0.2219482274
C  C4  1  0.57990000  0.73340000  0.14330000  1.0 0.2219482274
C  C5  1  0.73340000  0.14330000  0.57990000  1.0 0.2219482274
C  C6  1  0.14330000  0.57990000  0.73340000  1.0 0.2219482274
C  C7  1  0.46220000  0.38440000  0.93050000  1.0 0.028903781
C  C8  1  0.38440000  0.93050000  0.46220000  1.0 0.028903781
C  C9  1  0.93050000  0.46220000  0.38440000  1.0 0.028903781
C  C10  1  0.53780000  0.61560000  0.06950000  1.0 0.028903781
C  C11  1  0.61560000  0.06950000  0.53780000  1.0 0.028903781
C  C12  1  0.06950000  0.53780000  0.61560000  1.0 0.028903781
C  C13  1  0.56650000  0.50930000  0.98450000  1.0 -0.1070229077
C  C14  1  0.50930000  0.98450000  0.56650000  1.0 -0.1070229077
C  C15  1  0.98450000  0.56650000  0.50930000  1.0 -0.1070229077
C  C16  1  0.43350000  0.49070000  0.01550000  1.0 -0.1070229077
C  C17  1  0.49070000  0.01550000  0.43350000  1.0 -0.1070229077
C  C18  1  0.01550000  0.43350000  0.49070000  1.0 -0.1070229077
C  C19  1  0.40090000  0.38310000  0.95050000  1.0 -0.1175595412
C  C20  1  0.38310000  0.95050000  0.40090000  1.0 -0.1175595412
C  C21  1  0.95050000  0.40090000  0.38310000  1.0 -0.1175595412
C  C22  1  0.59910000  0.61690000  0.04950000  1.0 -0.1175595412
C  C23  1  0.61690000  0.04950000  0.59910000  1.0 -0.1175595412
C  C24  1  0.04950000  0.59910000  0.61690000  1.0 -0.1175595412
C  C25  1  0.85170000  0.61650000  0.02680000  1.0 -0.0108598248
C  C26  1  0.61650000  0.02680000  0.85170000  1.0 -0.0108598248
C  C27  1  0.02680000  0.85170000  0.61650000  1.0 -0.0155900036
C  C28  1  0.14830000  0.38350000  0.97320000  1.0 -0.0108598248
C  C29  1  0.38350000  0.97320000  0.14830000  1.0 -0.0108598248
C  C30  1  0.97320000  0.14830000  0.38350000  1.0 -0.0155900036
C  C31  1  0.73620000  0.63660000  0.93020000  1.0 0.0898688744
C  C32  1  0.63660000  0.93020000  0.73620000  1.0 0.0898688744
C  C33  1  0.93020000  0.73620000  0.63660000  1.0 0.0898688744
C  C34  1  0.26380000  0.36340000  0.06980000  1.0 0.0898688744
C  C35  1  0.36340000  0.06980000  0.26380000  1.0 0.0898688744
C  C36  1  0.06980000  0.26380000  0.36340000  1.0 0.0898688744
C  C37  1  0.92850000  0.70390000  0.97960000  1.0 0.0808181414
C  C38  1  0.70390000  0.97960000  0.92850000  1.0 0.0808181414
C  C39  1  0.97960000  0.92850000  0.70390000  1.0 0.0808181414
C  C40  1  0.07150000  0.29610000  0.02040000  1.0 0.0808181414
C  C41  1  0.29610000  0.02040000  0.07150000  1.0 0.0808181414
C  C42  1  0.02040000  0.07150000  0.29610000  1.0 0.0808181414
C  C43  1  0.69570000  0.46810000  0.86920000  1.0 0.0206221837
C  C44  1  0.46810000  0.86920000  0.69570000  1.0 0.0206221837
C  C45  1  0.86920000  0.69570000  0.46810000  1.0 0.0081771778
C  C46  1  0.30430000  0.53190000  0.13080000  1.0 0.0206221837
C  C47  1  0.53190000  0.13080000  0.30430000  1.0 0.0081771778
C  C48  1  0.13080000  0.30430000  0.53190000  1.0 0.0081771778
N  N1  1  0.51300000  0.28920000  0.88760000  1.0 -0.2323128371
N  N2  1  0.28920000  0.88760000  0.51300000  1.0 -0.2323128371
N  N3  1  0.88760000  0.51300000  0.28920000  1.0 -0.2323128371
N  N4  1  0.48700000  0.71080000  0.11240000  1.0 -0.2323128371
N  N5  1  0.71080000  0.11240000  0.48700000  1.0 -0.2323128371
N  N6  1  0.11240000  0.48700000  0.71080000  1.0 -0.2323128371
N  N7  1  0.42360000  0.14530000  0.78940000  1.0 -0.0355669181
N  N8  1  0.14530000  0.78940000  0.42360000  1.0 -0.0355669181
N  N9  1  0.78940000  0.42360000  0.14530000  1.0 -0.0337157012
N  N10  1  0.57640000  0.85470000  0.21060000  1.0 -0.0355669181
N  N11  1  0.85470000  0.21060000  0.57640000  1.0 -0.0337157012
N  N12  1  0.21060000  0.57640000  0.85470000  1.0 -0.0355669181
N  N13  1  0.28530000  0.04610000  0.70500000  1.0 -0.0155900036
N  N14  1  0.04610000  0.70500000  0.28530000  1.0 -0.0108598248
N  N15  1  0.70500000  0.28530000  0.04610000  1.0 -0.0108598248
N  N16  1  0.71470000  0.95390000  0.29500000  1.0 -0.0155900036
N  N17  1  0.95390000  0.29500000  0.71470000  1.0 -0.0108598248
N  N18  1  0.29500000  0.71470000  0.95390000  1.0 -0.0155900036
N  N19  1  0.27750000  0.11540000  0.74280000  1.0 -0.1993559357
N  N20  1  0.11540000  0.74280000  0.27750000  1.0 -0.1993559357
N  N21  1  0.74280000  0.27750000  0.11540000  1.0 -0.1932372464
N  N22  1  0.72250000  0.88460000  0.25720000  1.0 -0.1993559357
N  N23  1  0.88460000  0.25720000  0.72250000  1.0 -0.1932372464
N  N24  1  0.25720000  0.72250000  0.88460000  1.0 -0.1993559357
N  N25  1  0.83640000  0.65100000  0.98060000  1.0 0.207839279
N  N26  1  0.65100000  0.98060000  0.83640000  1.0 0.207839279
N  N27  1  0.98060000  0.83640000  0.65100000  1.0 0.2332379953
N  N28  1  0.16360000  0.34900000  0.01940000  1.0 0.207839279
N  N29  1  0.34900000  0.01940000  0.16360000  1.0 0.2332379953
N  N30  1  0.01940000  0.16360000  0.34900000  1.0 0.2332379953
N  N31  1  0.65930000  0.47770000  0.81200000  1.0 -0.158547368
N  N32  1  0.47770000  0.81200000  0.65930000  1.0 -0.158547368
N  N33  1  0.81200000  0.65930000  0.47770000  1.0 -0.1702887877
N  N34  1  0.34070000  0.52230000  0.18800000  1.0 -0.158547368
N  N35  1  0.52230000  0.18800000  0.34070000  1.0 -0.1824240475
N  N36  1  0.18800000  0.34070000  0.52230000  1.0 -0.1824240475
Cl  Cl1  1  0.88006000  0.68896000  0.30158000  1.0 -0.5210065657
Cl  Cl2  1  0.68896000  0.30158000  0.88006000  1.0 -0.5210065657
Cl  Cl3  1  0.30158000  0.88006000  0.68896000  1.0 -0.5210065657
Cl  Cl4  1  0.11994000  0.31104000  0.69842000  1.0 -0.5210065657
Cl  Cl5  1  0.31104000  0.69842000  0.11994000  1.0 -0.5210065657
Cl  Cl6  1  0.69842000  0.11994000  0.31104000  1.0 -0.5210065657
O  O1  1  0.77450000  0.56490000  0.01790000  1.0 -0.1993559357
O  O2  1  0.56490000  0.01790000  0.77450000  1.0 -0.2062193467
O  O3  1  0.01790000  0.77450000  0.56490000  1.0 -0.2062193467
O  O4  1  0.22550000  0.43510000  0.98210000  1.0 -0.2062193467
O  O5  1  0.43510000  0.98210000  0.22550000  1.0 -0.1993559357
O  O6  1  0.98210000  0.22550000  0.43510000  1.0 -0.1993559357
