# DDEC6 charges by PACMAN v1.1 (https://github.com/mtap-research/PACMAN-charge/)
data_VEMMEG_ASR_pacman
_symmetry_space_group_name_H-M   'P 1'
_cell_length_a   11.69300000
_cell_length_b   11.99400000
_cell_length_c   13.75300000
_cell_angle_alpha   92.97000000
_cell_angle_beta   114.36000000
_cell_angle_gamma   108.35400000
_symmetry_Int_Tables_number   1
_chemical_formula_structural   MnH4(CN)8
_chemical_formula_sum   'Mn3 H12 C24 N24'
_cell_volume   1630.46121610
_cell_formula_units_Z   3
loop_
 _symmetry_equiv_pos_site_id
 _symmetry_equiv_pos_as_xyz
  1  'x, y, z'
loop_
 _atom_site_type_symbol
 _atom_site_label
 _atom_site_symmetry_multiplicity
 _atom_site_fract_x
 _atom_site_fract_y
 _atom_site_fract_z
 _atom_site_occupancy
 _atom_site_charge
Mn  Mn1  1  0.10740000  0.72846000  0.95357000  1.0 0.6054383427
Mn  Mn2  1  0.89260000  0.27154000  0.04643000  1.0 0.6029245764
Mn  Mn3  1  0.00000000  0.00000000  0.00000000  1.0 0.5379602224
H  H1  1  0.67680000  0.43840000  0.03750000  1.0 0.121820657
H  H2  1  0.32320000  0.56160000  0.96250000  1.0 0.121820657
H  H3  1  0.51020000  0.68180000  0.94860000  1.0 0.1312153846
H  H4  1  0.48980000  0.31820000  0.05140000  1.0 0.1312153846
H  H5  1  0.11360000  0.87380000  0.57020000  1.0 0.121820657
H  H6  1  0.88640000  0.12620000  0.42980000  1.0 0.121820657
H  H7  1  0.90220000  0.07070000  0.59210000  1.0 0.1312153846
H  H8  1  0.09780000  0.92930000  0.40790000  1.0 0.1312153846
H  H9  1  0.35900000  0.10600000  0.43680000  1.0 0.121820657
H  H10  1  0.64100000  0.89400000  0.56320000  1.0 0.121820657
H  H11  1  0.50910000  0.86840000  0.37800000  1.0 0.121820657
H  H12  1  0.49090000  0.13160000  0.62200000  1.0 0.121820657
C  C1  1  0.73350000  0.64890000  0.98150000  1.0 0.2308715902
C  C2  1  0.26650000  0.35110000  0.01850000  1.0 0.2308715902
C  C3  1  0.61350000  0.57060000  0.99000000  1.0 0.0309520312
C  C4  1  0.38650000  0.42940000  0.01000000  1.0 0.0309520312
C  C5  1  0.60480000  0.46380000  0.02160000  1.0 -0.1111415667
C  C6  1  0.39520000  0.53620000  0.97840000  1.0 -0.1111415667
C  C7  1  0.50680000  0.60850000  0.96890000  1.0 -0.1111415667
C  C8  1  0.49320000  0.39150000  0.03110000  1.0 -0.1111415667
C  C9  1  0.02570000  0.93940000  0.70380000  1.0 0.2190931648
C  C10  1  0.97430000  0.06060000  0.29620000  1.0 0.2190931648
C  C11  1  0.01140000  0.96920000  0.59900000  1.0 0.0398741322
C  C12  1  0.98860000  0.03080000  0.40100000  1.0 0.0398741322
C  C13  1  0.06840000  0.92500000  0.54240000  1.0 -0.1111415667
C  C14  1  0.93160000  0.07500000  0.45760000  1.0 -0.1111415667
C  C15  1  0.94230000  0.04250000  0.55550000  1.0 -0.1221219987
C  C16  1  0.05770000  0.95750000  0.44450000  1.0 -0.1221219987
C  C17  1  0.32870000  0.96040000  0.26990000  1.0 0.2308715902
C  C18  1  0.67130000  0.03960000  0.73010000  1.0 0.2308715902
C  C19  1  0.41870000  0.98300000  0.38720000  1.0 0.0398741322
C  C20  1  0.58130000  0.01700000  0.61280000  1.0 0.0398741322
C  C21  1  0.41520000  0.06280000  0.46150000  1.0 -0.1254831195
C  C22  1  0.58480000  0.93720000  0.53850000  1.0 -0.1254831195
C  C23  1  0.50470000  0.92140000  0.42680000  1.0 -0.1111415667
C  C24  1  0.49530000  0.07860000  0.57320000  1.0 -0.1111415667
N  N1  1  0.82480000  0.61140000  0.97100000  1.0 -0.2811955303
N  N2  1  0.17520000  0.38860000  0.02900000  1.0 -0.2811955303
N  N3  1  0.91690000  0.71080000  0.96930000  1.0 -0.0392422647
N  N4  1  0.08310000  0.28920000  0.03070000  1.0 -0.0392422647
N  N5  1  0.88090000  0.80320000  0.97880000  1.0 -0.0255858317
N  N6  1  0.11910000  0.19680000  0.02120000  1.0 -0.0255858317
N  N7  1  0.76590000  0.76610000  0.98660000  1.0 -0.2431356065
N  N8  1  0.23410000  0.23390000  0.01340000  1.0 -0.2431356065
N  N9  1  0.01440000  0.00660000  0.77750000  1.0 -0.2324630782
N  N10  1  0.98560000  0.99340000  0.22250000  1.0 -0.2324630782
N  N11  1  0.03440000  0.94930000  0.86040000  1.0 -0.0195196779
N  N12  1  0.96560000  0.05070000  0.13960000  1.0 -0.0195196779
N  N13  1  0.05450000  0.85070000  0.83700000  1.0 -0.0392422647
N  N14  1  0.94550000  0.14930000  0.16300000  1.0 -0.0392422647
N  N15  1  0.05090000  0.84240000  0.73880000  1.0 -0.2699792102
N  N16  1  0.94910000  0.15760000  0.26120000  1.0 -0.2699792102
N  N17  1  0.30270000  0.86650000  0.19830000  1.0 -0.2699792102
N  N18  1  0.69730000  0.13350000  0.80170000  1.0 -0.2699792102
N  N19  1  0.21250000  0.87570000  0.10380000  1.0 -0.0392422647
N  N20  1  0.78750000  0.12430000  0.89620000  1.0 -0.0392422647
N  N21  1  0.18730000  0.97380000  0.11910000  1.0 -0.0195196779
N  N22  1  0.81270000  0.02620000  0.88090000  1.0 -0.0195196779
N  N23  1  0.26110000  0.03020000  0.22350000  1.0 -0.2431356065
N  N24  1  0.73890000  0.96980000  0.77650000  1.0 -0.2431356065
