# DDEC6 charges by PACMAN v1.1 (https://github.com/mtap-research/PACMAN-charge/)
data_VEMMOQ_FSR_pacman
_symmetry_space_group_name_H-M   'P 1'
_cell_length_a   13.50030000
_cell_length_b   13.50030000
_cell_length_c   13.50030000
_cell_angle_alpha   149.71600000
_cell_angle_beta   119.63500000
_cell_angle_gamma   69.02170000
_symmetry_Int_Tables_number   1
_chemical_formula_structural   CuH4C14N9O
_chemical_formula_sum   'Cu2 H8 C28 N18 O2'
_cell_volume   1065.06974302
_cell_formula_units_Z   2
loop_
 _symmetry_equiv_pos_site_id
 _symmetry_equiv_pos_as_xyz
  1  'x, y, z'
loop_
 _atom_site_type_symbol
 _atom_site_label
 _atom_site_symmetry_multiplicity
 _atom_site_fract_x
 _atom_site_fract_y
 _atom_site_fract_z
 _atom_site_occupancy
 _atom_site_charge
Cu  Cu1  1  0.00000000  0.50000000  0.00000000  1.0 0.4823298745
Cu  Cu2  1  0.00000000  0.00000000  0.50000000  1.0 0.4823298745
H  H1  1  0.58600000  0.26220000  0.75780000  1.0 0.1200769536
H  H2  1  0.99560000  0.23780000  0.32380000  1.0 0.1200769536
H  H3  1  0.00440000  0.32820000  0.24220000  1.0 0.1200769536
H  H4  1  0.41400000  0.17180000  0.67620000  1.0 0.1200769536
H  H5  1  0.41400000  0.73780000  0.24220000  1.0 0.1200769536
H  H6  1  0.00440000  0.76220000  0.67620000  1.0 0.1200769536
H  H7  1  0.99560000  0.67180000  0.75780000  1.0 0.1200769536
H  H8  1  0.58600000  0.82820000  0.32380000  1.0 0.1200769536
C  C1  1  0.71920000  0.61090000  0.10830000  1.0 0.2496485926
C  C2  1  0.99740000  0.88910000  0.10830000  1.0 0.2496485926
C  C3  1  0.00260000  0.11090000  0.89170000  1.0 0.2496485926
C  C4  1  0.28080000  0.38910000  0.89170000  1.0 0.2496485926
C  C5  1  0.60660000  0.55460000  0.05200000  1.0 0.0504438572
C  C6  1  0.99740000  0.94540000  0.05200000  1.0 0.0504438572
C  C7  1  0.00260000  0.05460000  0.94800000  1.0 0.0504438572
C  C8  1  0.39340000  0.44540000  0.94800000  1.0 0.0504438572
C  C9  1  0.55200000  0.35880000  0.85680000  1.0 -0.1356818207
C  C10  1  0.99800000  0.14120000  0.19320000  1.0 -0.1356818207
C  C11  1  0.00200000  0.19520000  0.14320000  1.0 -0.1356818207
C  C12  1  0.44800000  0.30480000  0.80680000  1.0 -0.1356818207
C  C13  1  0.44800000  0.64120000  0.14320000  1.0 -0.1356818207
C  C14  1  0.00200000  0.85880000  0.80680000  1.0 -0.1356818207
C  C15  1  0.99800000  0.80480000  0.85680000  1.0 -0.1356818207
C  C16  1  0.55200000  0.69520000  0.19320000  1.0 -0.1356818207
C  C17  1  0.77980000  0.22170000  0.55810000  1.0 0.182249888
C  C18  1  0.83640000  0.27830000  0.55810000  1.0 0.182249888
C  C19  1  0.16360000  0.72170000  0.44190000  1.0 0.182249888
C  C20  1  0.22020000  0.77830000  0.44190000  1.0 0.182249888
C  C21  1  0.58420000  0.21320000  0.37100000  1.0 0.1127244176
C  C22  1  0.65780000  0.28680000  0.37100000  1.0 0.1127244176
C  C23  1  0.34220000  0.71320000  0.62900000  1.0 0.1127244176
C  C24  1  0.41580000  0.78680000  0.62900000  1.0 0.1127244176
C  C25  1  0.79220000  0.32920000  0.46300000  1.0 -0.2599520989
C  C26  1  0.63380000  0.17080000  0.46300000  1.0 -0.2599520989
C  C27  1  0.36620000  0.82920000  0.53700000  1.0 -0.2599520989
C  C28  1  0.20780000  0.67080000  0.53700000  1.0 -0.2599520989
N  N1  1  0.87094000  0.59283000  0.09051000  1.0 -0.0695784118
N  N2  1  0.99768000  0.90717000  0.27811000  1.0 -0.0695784118
N  N3  1  0.00232000  0.28043000  0.90949000  1.0 -0.0695784118
N  N4  1  0.12906000  0.21957000  0.72189000  1.0 -0.0695784118
N  N5  1  0.12906000  0.40717000  0.90949000  1.0 -0.0695784118
N  N6  1  0.00232000  0.09283000  0.72189000  1.0 -0.0695784118
N  N7  1  0.99768000  0.71957000  0.09051000  1.0 -0.0695784118
N  N8  1  0.87094000  0.78043000  0.27811000  1.0 -0.0695784118
N  N9  1  0.77615000  0.48195000  0.98000000  1.0 -0.1972171672
N  N10  1  0.99805000  0.01805000  0.29420000  1.0 -0.1972171672
N  N11  1  0.00195000  0.29615000  0.02000000  1.0 -0.1972171672
N  N12  1  0.22385000  0.20385000  0.70580000  1.0 -0.1972171672
N  N13  1  0.22385000  0.51805000  0.02000000  1.0 -0.1972171672
N  N14  1  0.00195000  0.98195000  0.70580000  1.0 -0.1972171672
N  N15  1  0.99805000  0.70385000  0.98000000  1.0 -0.1972171672
N  N16  1  0.77615000  0.79615000  0.29420000  1.0 -0.1972171672
N  N17  1  0.71310000  0.25000000  0.46310000  1.0 0.1127244176
N  N18  1  0.28690000  0.75000000  0.53690000  1.0 0.1127244176
O  O1  1  0.87740000  0.25000000  0.62740000  1.0 -0.1356818207
O  O2  1  0.12260000  0.75000000  0.37260000  1.0 -0.1356818207
