# DDEC6 charges by PACMAN v1.1 (https://github.com/mtap-research/PACMAN-charge/)
data_VEQBUP_ion_pacman
_symmetry_space_group_name_H-M   'P 1'
_cell_length_a   10.53100000
_cell_length_b   22.91700000
_cell_length_c   24.52500000
_cell_angle_alpha   90.00000000
_cell_angle_beta   98.59500000
_cell_angle_gamma   90.00000000
_symmetry_Int_Tables_number   1
_chemical_formula_structural   Ba2TbH18C30S6N6ClO31
_chemical_formula_sum   'Ba8 Tb4 H72 C120 S24 N24 Cl4 O124'
_cell_volume   5852.36524984
_cell_formula_units_Z   4
loop_
 _symmetry_equiv_pos_site_id
 _symmetry_equiv_pos_as_xyz
  1  'x, y, z'
loop_
 _atom_site_type_symbol
 _atom_site_label
 _atom_site_symmetry_multiplicity
 _atom_site_fract_x
 _atom_site_fract_y
 _atom_site_fract_z
 _atom_site_occupancy
 _atom_site_charge
Ba  Ba1  1  0.05790000  0.21130000  0.50179000  1.0 1.4393108406
Ba  Ba2  1  0.44210000  0.71130000  0.49821000  1.0 1.4393108406
Ba  Ba3  1  0.94210000  0.78870000  0.49821000  1.0 1.4393108406
Ba  Ba4  1  0.55790000  0.28870000  0.50179000  1.0 1.4393108406
Ba  Ba5  1  0.73402000  0.25120000  0.96882000  1.0 1.5106834091
Ba  Ba6  1  0.76598000  0.75120000  0.03118000  1.0 1.5106834091
Ba  Ba7  1  0.26598000  0.74880000  0.03118000  1.0 1.5106834091
Ba  Ba8  1  0.23402000  0.24880000  0.96882000  1.0 1.5106834091
Tb  Tb1  1  0.33212000  0.00461000  0.24274000  1.0 1.9215235331
Tb  Tb2  1  0.16788000  0.50461000  0.75726000  1.0 1.9215235331
Tb  Tb3  1  0.66788000  0.99539000  0.75726000  1.0 1.9215235331
Tb  Tb4  1  0.83212000  0.49539000  0.24274000  1.0 1.9215235331
H  H1  1  0.65750000  0.09210000  0.25410000  1.0 0.1504405742
H  H2  1  0.84250000  0.59210000  0.74590000  1.0 0.1504405742
H  H3  1  0.34250000  0.90790000  0.74590000  1.0 0.1504405742
H  H4  1  0.15750000  0.40790000  0.25410000  1.0 0.1504405742
H  H5  1  0.74660000  0.17180000  0.30630000  1.0 0.1444504626
H  H6  1  0.75340000  0.67180000  0.69370000  1.0 0.1444504626
H  H7  1  0.25340000  0.82820000  0.69370000  1.0 0.1444504626
H  H8  1  0.24660000  0.32820000  0.30630000  1.0 0.1444504626
H  H9  1  0.63820000  0.09930000  0.44180000  1.0 0.1609177091
H  H10  1  0.86180000  0.59930000  0.55820000  1.0 0.1609177091
H  H11  1  0.36180000  0.90070000  0.55820000  1.0 0.1609177091
H  H12  1  0.13820000  0.40070000  0.44180000  1.0 0.1609177091
H  H13  1  0.68060000  0.97330000  0.44960000  1.0 0.1609177091
H  H14  1  0.81940000  0.47330000  0.55040000  1.0 0.1609177091
H  H15  1  0.31940000  0.02670000  0.55040000  1.0 0.1609177091
H  H16  1  0.18060000  0.52670000  0.44960000  1.0 0.1609177091
H  H17  1  0.35610000  0.87870000  0.44940000  1.0 0.1609177091
H  H18  1  0.14390000  0.37870000  0.55060000  1.0 0.1609177091
H  H19  1  0.64390000  0.12130000  0.55060000  1.0 0.1609177091
H  H20  1  0.85610000  0.62130000  0.44940000  1.0 0.1609177091
H  H21  1  0.24850000  0.94030000  0.38240000  1.0 0.1504405742
H  H22  1  0.25150000  0.44030000  0.61760000  1.0 0.1504405742
H  H23  1  0.75150000  0.05970000  0.61760000  1.0 0.1504405742
H  H24  1  0.74850000  0.55970000  0.38240000  1.0 0.1504405742
H  H25  1  0.33000000  0.08290000  0.72990000  1.0 0.1504405742
H  H26  1  0.17000000  0.58290000  0.27010000  1.0 0.1504405742
H  H27  1  0.67000000  0.91710000  0.27010000  1.0 0.1504405742
H  H28  1  0.83000000  0.41710000  0.72990000  1.0 0.1504405742
H  H29  1  0.23750000  0.15390000  0.66820000  1.0 0.1504405742
H  H30  1  0.26250000  0.65390000  0.33180000  1.0 0.1504405742
H  H31  1  0.76250000  0.84610000  0.33180000  1.0 0.1504405742
H  H32  1  0.73750000  0.34610000  0.66820000  1.0 0.1504405742
H  H33  1  0.58150000  0.23190000  0.67360000  1.0 0.1609177091
H  H34  1  0.91850000  0.73190000  0.32640000  1.0 0.1609177091
H  H35  1  0.41850000  0.76810000  0.32640000  1.0 0.1609177091
H  H36  1  0.08150000  0.26810000  0.67360000  1.0 0.1609177091
H  H37  1  0.69090000  0.24600000  0.78250000  1.0 0.1504405742
H  H38  1  0.80910000  0.74600000  0.21750000  1.0 0.1504405742
H  H39  1  0.30910000  0.75400000  0.21750000  1.0 0.1504405742
H  H40  1  0.19090000  0.25400000  0.78250000  1.0 0.1504405742
H  H41  1  0.04180000  0.17490000  0.83220000  1.0 0.1670998961
H  H42  1  0.45820000  0.67490000  0.16780000  1.0 0.1670998961
H  H43  1  0.95820000  0.82510000  0.16780000  1.0 0.1670998961
H  H44  1  0.54180000  0.32510000  0.83220000  1.0 0.1670998961
H  H45  1  0.98060000  0.09520000  0.77670000  1.0 0.1504405742
H  H46  1  0.51940000  0.59520000  0.22330000  1.0 0.1504405742
H  H47  1  0.01940000  0.90480000  0.22330000  1.0 0.1504405742
H  H48  1  0.48060000  0.40480000  0.77670000  1.0 0.1504405742
H  H49  1  0.98680000  0.01930000  0.14910000  1.0 0.1504405742
H  H50  1  0.51320000  0.51930000  0.85090000  1.0 0.1504405742
H  H51  1  0.01320000  0.98070000  0.85090000  1.0 0.1504405742
H  H52  1  0.48680000  0.48070000  0.14910000  1.0 0.1504405742
H  H53  1  0.90460000  0.08210000  0.07870000  1.0 0.1670998961
H  H54  1  0.59540000  0.58210000  0.92130000  1.0 0.1670998961
H  H55  1  0.09540000  0.91790000  0.92130000  1.0 0.1670998961
H  H56  1  0.40460000  0.41790000  0.07870000  1.0 0.1670998961
H  H57  1  0.23420000  0.06740000  0.01340000  1.0 0.1670998961
H  H58  1  0.26580000  0.56740000  0.98660000  1.0 0.1670998961
H  H59  1  0.76580000  0.93260000  0.98660000  1.0 0.1670998961
H  H60  1  0.73420000  0.43260000  0.01340000  1.0 0.1670998961
H  H61  1  0.29790000  0.95060000  0.00720000  1.0 0.1504405742
H  H62  1  0.20210000  0.45060000  0.99280000  1.0 0.1504405742
H  H63  1  0.70210000  0.04940000  0.99280000  1.0 0.1504405742
H  H64  1  0.79790000  0.54940000  0.00720000  1.0 0.1504405742
H  H65  1  0.65020000  0.90430000  0.08370000  1.0 0.1670998961
H  H66  1  0.84980000  0.40430000  0.91630000  1.0 0.1670998961
H  H67  1  0.34980000  0.09570000  0.91630000  1.0 0.1670998961
H  H68  1  0.15020000  0.59570000  0.08370000  1.0 0.1670998961
H  H69  1  0.62050000  0.96560000  0.15780000  1.0 0.1504405742
H  H70  1  0.87950000  0.46560000  0.84220000  1.0 0.1504405742
H  H71  1  0.37950000  0.03440000  0.84220000  1.0 0.1504405742
H  H72  1  0.12050000  0.53440000  0.15780000  1.0 0.1504405742
C  C1  1  0.65290000  0.09420000  0.29240000  1.0 0.0463562812
C  C2  1  0.84710000  0.59420000  0.70760000  1.0 0.0463562812
C  C3  1  0.34710000  0.90580000  0.70760000  1.0 0.0463562812
C  C4  1  0.15290000  0.40580000  0.29240000  1.0 0.0463562812
C  C5  1  0.70530000  0.14150000  0.32330000  1.0 -0.1003489716
C  C6  1  0.79470000  0.64150000  0.67670000  1.0 -0.1003489716
C  C7  1  0.29470000  0.85850000  0.67670000  1.0 -0.1003489716
C  C8  1  0.20530000  0.35850000  0.32330000  1.0 -0.1003489716
C  C9  1  0.69710000  0.14410000  0.37860000  1.0 -0.0199939269
C  C10  1  0.80290000  0.64410000  0.62140000  1.0 -0.0199939269
C  C11  1  0.30290000  0.85590000  0.62140000  1.0 -0.0199939269
C  C12  1  0.19710000  0.35590000  0.37860000  1.0 -0.0199939269
C  C13  1  0.64050000  0.09860000  0.40320000  1.0 -0.1272795114
C  C14  1  0.85950000  0.59860000  0.59680000  1.0 -0.1272795114
C  C15  1  0.35950000  0.90140000  0.59680000  1.0 -0.1272795114
C  C16  1  0.14050000  0.40140000  0.40320000  1.0 -0.1272795114
C  C17  1  0.58800000  0.05280000  0.37250000  1.0 0.0989747263
C  C18  1  0.91200000  0.55280000  0.62750000  1.0 0.0989747263
C  C19  1  0.41200000  0.94720000  0.62750000  1.0 0.0989747263
C  C20  1  0.08800000  0.44720000  0.37250000  1.0 0.0989747263
C  C21  1  0.52670000  0.00220000  0.39530000  1.0 0.117628108
C  C22  1  0.97330000  0.50220000  0.60470000  1.0 0.117628108
C  C23  1  0.47330000  0.99780000  0.60470000  1.0 0.117628108
C  C24  1  0.02670000  0.49780000  0.39530000  1.0 0.117628108
C  C25  1  0.59270000  0.96640000  0.43580000  1.0 -0.1685564749
C  C26  1  0.90730000  0.46640000  0.56420000  1.0 -0.1685564749
C  C27  1  0.40730000  0.03360000  0.56420000  1.0 -0.1685564749
C  C28  1  0.09270000  0.53360000  0.43580000  1.0 -0.1685564749
C  C29  1  0.52660000  0.92010000  0.45560000  1.0 -0.0513322174
C  C30  1  0.97340000  0.42010000  0.54440000  1.0 -0.0513322174
C  C31  1  0.47340000  0.07990000  0.54440000  1.0 -0.0513322174
C  C32  1  0.02660000  0.57990000  0.45560000  1.0 -0.0513322174
C  C33  1  0.40020000  0.91040000  0.43580000  1.0 -0.1180827492
C  C34  1  0.09980000  0.41040000  0.56420000  1.0 -0.1180827492
C  C35  1  0.59980000  0.08960000  0.56420000  1.0 -0.1180827492
C  C36  1  0.90020000  0.58960000  0.43580000  1.0 -0.1180827492
C  C37  1  0.33670000  0.94680000  0.39590000  1.0 0.0102622595
C  C38  1  0.16330000  0.44680000  0.60410000  1.0 0.0102622595
C  C39  1  0.66330000  0.05320000  0.60410000  1.0 0.0102622595
C  C40  1  0.83670000  0.55320000  0.39590000  1.0 0.0102622595
C  C41  1  0.38070000  0.11360000  0.71850000  1.0 0.0156971395
C  C42  1  0.11930000  0.61360000  0.28150000  1.0 0.0156971395
C  C43  1  0.61930000  0.88640000  0.28150000  1.0 0.0156971395
C  C44  1  0.88070000  0.38640000  0.71850000  1.0 0.0156971395
C  C45  1  0.32660000  0.15570000  0.68200000  1.0 -0.1180827492
C  C46  1  0.17340000  0.65570000  0.31800000  1.0 -0.1180827492
C  C47  1  0.67340000  0.84430000  0.31800000  1.0 -0.1180827492
C  C48  1  0.82660000  0.34430000  0.68200000  1.0 -0.1180827492
C  C49  1  0.39960000  0.20000000  0.66520000  1.0 -0.0389328313
C  C50  1  0.10040000  0.70000000  0.33480000  1.0 -0.0389328313
C  C51  1  0.60040000  0.80000000  0.33480000  1.0 -0.0389328313
C  C52  1  0.89960000  0.30000000  0.66520000  1.0 -0.0389328313
C  C53  1  0.52970000  0.20190000  0.68540000  1.0 -0.1401086896
C  C54  1  0.97030000  0.70190000  0.31460000  1.0 -0.1401086896
C  C55  1  0.47030000  0.79810000  0.31460000  1.0 -0.1401086896
C  C56  1  0.02970000  0.29810000  0.68540000  1.0 -0.1401086896
C  C57  1  0.58420000  0.16090000  0.72220000  1.0 0.1100392325
C  C58  1  0.91580000  0.66090000  0.27780000  1.0 0.1100392325
C  C59  1  0.41580000  0.83910000  0.27780000  1.0 0.1100392325
C  C60  1  0.08420000  0.33910000  0.72220000  1.0 0.1100392325
C  C61  1  0.71400000  0.16580000  0.75190000  1.0 0.0989747263
C  C62  1  0.78600000  0.66580000  0.24810000  1.0 0.0989747263
C  C63  1  0.28600000  0.83420000  0.24810000  1.0 0.0989747263
C  C64  1  0.21400000  0.33420000  0.75190000  1.0 0.0989747263
C  C65  1  0.74940000  0.21450000  0.78250000  1.0 -0.1478788807
C  C66  1  0.75060000  0.71450000  0.21750000  1.0 -0.1478788807
C  C67  1  0.25060000  0.78550000  0.21750000  1.0 -0.1478788807
C  C68  1  0.24940000  0.28550000  0.78250000  1.0 -0.1478788807
C  C69  1  0.87060000  0.21810000  0.81380000  1.0 -0.0258196301
C  C70  1  0.62940000  0.71810000  0.18620000  1.0 -0.0258196301
C  C71  1  0.12940000  0.78190000  0.18620000  1.0 -0.0258196301
C  C72  1  0.37060000  0.28190000  0.81380000  1.0 -0.0258196301
C  C73  1  0.95800000  0.17290000  0.81160000  1.0 -0.1127095421
C  C74  1  0.54200000  0.67290000  0.18840000  1.0 -0.1127095421
C  C75  1  0.04200000  0.82710000  0.18840000  1.0 -0.1127095421
C  C76  1  0.45800000  0.32710000  0.81160000  1.0 -0.1127095421
C  C77  1  0.92090000  0.12570000  0.77930000  1.0 0.0308455376
C  C78  1  0.57910000  0.62570000  0.22070000  1.0 0.0308455376
C  C79  1  0.07910000  0.87430000  0.22070000  1.0 0.0308455376
C  C80  1  0.42090000  0.37430000  0.77930000  1.0 0.0308455376
C  C81  1  0.03690000  0.02930000  0.12130000  1.0 0.0463562812
C  C82  1  0.46310000  0.52930000  0.87870000  1.0 0.0463562812
C  C83  1  0.96310000  0.97070000  0.87870000  1.0 0.0463562812
C  C84  1  0.53690000  0.47070000  0.12130000  1.0 0.0463562812
C  C85  1  0.98850000  0.06640000  0.07980000  1.0 -0.1127095421
C  C86  1  0.51150000  0.56640000  0.92020000  1.0 -0.1127095421
C  C87  1  0.01150000  0.93360000  0.92020000  1.0 -0.1180827492
C  C88  1  0.48850000  0.43360000  0.07980000  1.0 -0.1127095421
C  C89  1  0.06170000  0.08140000  0.03900000  1.0 -0.0199939269
C  C90  1  0.43830000  0.58140000  0.96100000  1.0 -0.0199939269
C  C91  1  0.93830000  0.91860000  0.96100000  1.0 -0.0199939269
C  C92  1  0.56170000  0.41860000  0.03900000  1.0 -0.0199939269
C  C93  1  0.18290000  0.05770000  0.04090000  1.0 -0.1401086896
C  C94  1  0.31710000  0.55770000  0.95910000  1.0 -0.1401086896
C  C95  1  0.81710000  0.94230000  0.95910000  1.0 -0.1401086896
C  C96  1  0.68290000  0.44230000  0.04090000  1.0 -0.1401086896
C  C97  1  0.22820000  0.02040000  0.08230000  1.0 0.117628108
C  C98  1  0.27180000  0.52040000  0.91770000  1.0 0.117628108
C  C99  1  0.77180000  0.97960000  0.91770000  1.0 0.117628108
C  C100  1  0.72820000  0.47960000  0.08230000  1.0 0.117628108
C  C101  1  0.34740000  0.98700000  0.08210000  1.0 0.1100392325
C  C102  1  0.15260000  0.48700000  0.91790000  1.0 0.1100392325
C  C103  1  0.65260000  0.01300000  0.91790000  1.0 0.1100392325
C  C104  1  0.84740000  0.51300000  0.08210000  1.0 0.1100392325
C  C105  1  0.36410000  0.95280000  0.03800000  1.0 -0.1272795114
C  C106  1  0.13590000  0.45280000  0.96200000  1.0 -0.1272795114
C  C107  1  0.63590000  0.04720000  0.96200000  1.0 -0.1272795114
C  C108  1  0.86410000  0.54720000  0.03800000  1.0 -0.1272795114
C  C109  1  0.47820000  0.92060000  0.03760000  1.0 -0.0389328313
C  C110  1  0.02180000  0.42060000  0.96240000  1.0 -0.0389328313
C  C111  1  0.52180000  0.07940000  0.96240000  1.0 -0.0389328313
C  C112  1  0.97820000  0.57940000  0.03760000  1.0 -0.0389328313
C  C113  1  0.57250000  0.92560000  0.08250000  1.0 -0.1003489716
C  C114  1  0.92750000  0.42560000  0.91750000  1.0 -0.1003489716
C  C115  1  0.42750000  0.07440000  0.91750000  1.0 -0.1003489716
C  C116  1  0.07250000  0.57440000  0.08250000  1.0 -0.1003489716
C  C117  1  0.55500000  0.96210000  0.12690000  1.0 0.0463562812
C  C118  1  0.94500000  0.46210000  0.87310000  1.0 0.0463562812
C  C119  1  0.44500000  0.03790000  0.87310000  1.0 0.0463562812
C  C120  1  0.05500000  0.53790000  0.12690000  1.0 0.0463562812
S  S1  1  0.75860000  0.20612000  0.41713000  1.0 1.1738272526
S  S2  1  0.74140000  0.70612000  0.58287000  1.0 1.1738272526
S  S3  1  0.24140000  0.79388000  0.58287000  1.0 1.1738272526
S  S4  1  0.25860000  0.29388000  0.41713000  1.0 1.1738272526
S  S5  1  0.61250000  0.87281000  0.50635000  1.0 1.1995851051
S  S6  1  0.88750000  0.37281000  0.49365000  1.0 1.1995851051
S  S7  1  0.38750000  0.12719000  0.49365000  1.0 1.1995851051
S  S8  1  0.11250000  0.62719000  0.50635000  1.0 1.1995851051
S  S9  1  0.33500000  0.25708000  0.61969000  1.0 1.1995851051
S  S10  1  0.16500000  0.75708000  0.38031000  1.0 1.2053071775
S  S11  1  0.66500000  0.74292000  0.38031000  1.0 1.2053071775
S  S12  1  0.83500000  0.24292000  0.61969000  1.0 1.1995851051
S  S13  1  0.90570000  0.27954000  0.85866000  1.0 1.149812869
S  S14  1  0.59430000  0.77954000  0.14134000  1.0 1.149812869
S  S15  1  0.09430000  0.72046000  0.14134000  1.0 1.149812869
S  S16  1  0.40570000  0.22046000  0.85866000  1.0 1.149812869
S  S17  1  0.99860000  0.12791000  0.98316000  1.0 1.1770290353
S  S18  1  0.50140000  0.62791000  0.01684000  1.0 1.1770290353
S  S19  1  0.00140000  0.87209000  0.01684000  1.0 1.1770290353
S  S20  1  0.49860000  0.37209000  0.98316000  1.0 1.1770290353
S  S21  1  0.48760000  0.87332000  0.98134000  1.0 1.1995851051
S  S22  1  0.01240000  0.37332000  0.01866000  1.0 1.1995851051
S  S23  1  0.51240000  0.12668000  0.01866000  1.0 1.1995851051
S  S24  1  0.98760000  0.62668000  0.98134000  1.0 1.1943988122
N  N1  1  0.59570000  0.05130000  0.31730000  1.0 0.2949673452
N  N2  1  0.90430000  0.55130000  0.68270000  1.0 0.2949673452
N  N3  1  0.40430000  0.94870000  0.68270000  1.0 0.2949673452
N  N4  1  0.09570000  0.44870000  0.31730000  1.0 0.2949673452
N  N5  1  0.39920000  0.99140000  0.37610000  1.0 0.3001632013
N  N6  1  0.10080000  0.49140000  0.62390000  1.0 0.3001632013
N  N7  1  0.60080000  0.00860000  0.62390000  1.0 0.3001632013
N  N8  1  0.89920000  0.50860000  0.37610000  1.0 0.3001632013
N  N9  1  0.50870000  0.11730000  0.73790000  1.0 0.3150411167
N  N10  1  0.99130000  0.61730000  0.26210000  1.0 0.3150411167
N  N11  1  0.49130000  0.88270000  0.26210000  1.0 0.3150411167
N  N12  1  0.00870000  0.38270000  0.73790000  1.0 0.3150411167
N  N13  1  0.80250000  0.12150000  0.75140000  1.0 0.3080081262
N  N14  1  0.69750000  0.62150000  0.24860000  1.0 0.3080081262
N  N15  1  0.19750000  0.87850000  0.24860000  1.0 0.3080081262
N  N16  1  0.30250000  0.37850000  0.75140000  1.0 0.3080081262
N  N17  1  0.15510000  0.00700000  0.12290000  1.0 0.3001632013
N  N18  1  0.34490000  0.50700000  0.87710000  1.0 0.3001632013
N  N19  1  0.84490000  0.99300000  0.87710000  1.0 0.3001632013
N  N20  1  0.65510000  0.49300000  0.12290000  1.0 0.3001632013
N  N21  1  0.44440000  0.99190000  0.12500000  1.0 0.3001632013
N  N22  1  0.05560000  0.49190000  0.87500000  1.0 0.3001632013
N  N23  1  0.55560000  0.00810000  0.87500000  1.0 0.3001632013
N  N24  1  0.94440000  0.50810000  0.12500000  1.0 0.3001632013
Cl  Cl1  1  0.64540000  0.48935000  0.76503000  1.0 -0.5378876094
Cl  Cl2  1  0.85460000  0.98935000  0.23497000  1.0 -0.5378876094
Cl  Cl3  1  0.35460000  0.51065000  0.23497000  1.0 -0.5378876094
Cl  Cl4  1  0.14540000  0.01065000  0.76503000  1.0 -0.5378876094
O  O1  1  0.54770000  0.00660000  0.28710000  1.0 -0.5284646086
O  O2  1  0.95230000  0.50660000  0.71290000  1.0 -0.5284646086
O  O3  1  0.45230000  0.99340000  0.71290000  1.0 -0.5284646086
O  O4  1  0.04770000  0.49340000  0.28710000  1.0 -0.5284646086
O  O5  1  0.33700000  0.02640000  0.33780000  1.0 -0.4414742075
O  O6  1  0.16300000  0.52640000  0.66220000  1.0 -0.4414742075
O  O7  1  0.66300000  0.97360000  0.66220000  1.0 -0.4414742075
O  O8  1  0.83700000  0.47360000  0.33780000  1.0 -0.4414742075
O  O9  1  0.56020000  0.07990000  0.77680000  1.0 -0.5378876094
O  O10  1  0.93980000  0.57990000  0.22320000  1.0 -0.5378876094
O  O11  1  0.43980000  0.92010000  0.22320000  1.0 -0.5378876094
O  O12  1  0.06020000  0.42010000  0.77680000  1.0 -0.5378876094
O  O13  1  0.76970000  0.07430000  0.72120000  1.0 -0.5378876094
O  O14  1  0.73030000  0.57430000  0.27880000  1.0 -0.5378876094
O  O15  1  0.23030000  0.92570000  0.27880000  1.0 -0.5378876094
O  O16  1  0.26970000  0.42570000  0.72120000  1.0 -0.5378876094
O  O17  1  0.19970000  0.96940000  0.16220000  1.0 -0.4952394597
O  O18  1  0.30030000  0.46940000  0.83780000  1.0 -0.4952394597
O  O19  1  0.80030000  0.03060000  0.83780000  1.0 -0.4952394597
O  O20  1  0.69970000  0.53060000  0.16220000  1.0 -0.4952394597
O  O21  1  0.43060000  0.02980000  0.16520000  1.0 -0.4591780014
O  O22  1  0.06940000  0.52980000  0.83480000  1.0 -0.4591780014
O  O23  1  0.56940000  0.97020000  0.83480000  1.0 -0.4591780014
O  O24  1  0.93060000  0.47020000  0.16520000  1.0 -0.4591780014
O  O25  1  0.87370000  0.22260000  0.39650000  1.0 -0.5620029353
O  O26  1  0.62630000  0.72260000  0.60350000  1.0 -0.5620029353
O  O27  1  0.12630000  0.77740000  0.60350000  1.0 -0.5620029353
O  O28  1  0.37370000  0.27740000  0.39650000  1.0 -0.5620029353
O  O29  1  0.65810000  0.24880000  0.40720000  1.0 -0.5620029353
O  O30  1  0.84190000  0.74880000  0.59280000  1.0 -0.5620029353
O  O31  1  0.34190000  0.75120000  0.59280000  1.0 -0.5620029353
O  O32  1  0.15810000  0.25120000  0.40720000  1.0 -0.5620029353
O  O33  1  0.78460000  0.18790000  0.47360000  1.0 -0.6381513558
O  O34  1  0.71540000  0.68790000  0.52640000  1.0 -0.6381513558
O  O35  1  0.21540000  0.81210000  0.52640000  1.0 -0.6381513558
O  O36  1  0.28460000  0.31210000  0.47360000  1.0 -0.6381513558
O  O37  1  0.72170000  0.85400000  0.48270000  1.0 -0.6381513558
O  O38  1  0.77830000  0.35400000  0.51730000  1.0 -0.6381513558
O  O39  1  0.27830000  0.14600000  0.51730000  1.0 -0.6381513558
O  O40  1  0.22170000  0.64600000  0.48270000  1.0 -0.6381513558
O  O41  1  0.52320000  0.82700000  0.51510000  1.0 -0.6213508852
O  O42  1  0.97680000  0.32700000  0.48490000  1.0 -0.6213508852
O  O43  1  0.47680000  0.17300000  0.48490000  1.0 -0.6213508852
O  O44  1  0.02320000  0.67300000  0.51510000  1.0 -0.6213508852
O  O45  1  0.64710000  0.90980000  0.55480000  1.0 -0.5507614694
O  O46  1  0.85290000  0.40980000  0.44520000  1.0 -0.5507614694
O  O47  1  0.35290000  0.09020000  0.44520000  1.0 -0.5507614694
O  O48  1  0.14710000  0.59020000  0.55480000  1.0 -0.5507614694
O  O49  1  0.20280000  0.24030000  0.60130000  1.0 -0.6381513558
O  O50  1  0.29720000  0.74030000  0.39870000  1.0 -0.6381513558
O  O51  1  0.79720000  0.75970000  0.39870000  1.0 -0.6381513558
O  O52  1  0.70280000  0.25970000  0.60130000  1.0 -0.6381513558
O  O53  1  0.41440000  0.25710000  0.57750000  1.0 -0.6310270137
O  O54  1  0.08560000  0.75710000  0.42250000  1.0 -0.6310270137
O  O55  1  0.58560000  0.74290000  0.42250000  1.0 -0.6310270137
O  O56  1  0.91440000  0.24290000  0.57750000  1.0 -0.6310270137
O  O57  1  0.34910000  0.30950000  0.65230000  1.0 -0.5885181111
O  O58  1  0.15090000  0.80950000  0.34770000  1.0 -0.5885181111
O  O59  1  0.65090000  0.69050000  0.34770000  1.0 -0.5885181111
O  O60  1  0.84910000  0.19050000  0.65230000  1.0 -0.5885181111
O  O61  1  0.78050000  0.30170000  0.86740000  1.0 -0.6213508852
O  O62  1  0.71950000  0.80170000  0.13260000  1.0 -0.6213508852
O  O63  1  0.21950000  0.69830000  0.13260000  1.0 -0.6213508852
O  O64  1  0.28050000  0.19830000  0.86740000  1.0 -0.6213508852
O  O65  1  0.97670000  0.25680000  0.90920000  1.0 -0.6381513558
O  O66  1  0.52330000  0.75680000  0.09080000  1.0 -0.6381513558
O  O67  1  0.02330000  0.74320000  0.09080000  1.0 -0.6381513558
O  O68  1  0.47670000  0.24320000  0.90920000  1.0 -0.6381513558
O  O69  1  0.97880000  0.31900000  0.82930000  1.0 -0.5122467361
O  O70  1  0.52120000  0.81900000  0.17070000  1.0 -0.5122467361
O  O71  1  0.02120000  0.68100000  0.17070000  1.0 -0.5122467361
O  O72  1  0.47880000  0.18100000  0.82930000  1.0 -0.5122467361
O  O73  1  0.94060000  0.17640000  0.00840000  1.0 -0.6213508852
O  O74  1  0.55940000  0.67640000  0.99160000  1.0 -0.6213508852
O  O75  1  0.05940000  0.82360000  0.99160000  1.0 -0.6213508852
O  O76  1  0.44060000  0.32360000  0.00840000  1.0 -0.6213508852
O  O77  1  0.90750000  0.09110000  0.94850000  1.0 -0.5378876094
O  O78  1  0.59250000  0.59110000  0.05150000  1.0 -0.5378876094
O  O79  1  0.09250000  0.90890000  0.05150000  1.0 -0.5378876094
O  O80  1  0.40750000  0.40890000  0.94850000  1.0 -0.5378876094
O  O81  1  0.10870000  0.14390000  0.95720000  1.0 -0.6213508852
O  O82  1  0.39130000  0.64390000  0.04280000  1.0 -0.6213508852
O  O83  1  0.89130000  0.85610000  0.04280000  1.0 -0.6213508852
O  O84  1  0.60870000  0.35610000  0.95720000  1.0 -0.6213508852
O  O85  1  0.37860000  0.83570000  0.97860000  1.0 -0.600530414
O  O86  1  0.12140000  0.33570000  0.02140000  1.0 -0.600530414
O  O87  1  0.62140000  0.16430000  0.02140000  1.0 -0.600530414
O  O88  1  0.87860000  0.66430000  0.97860000  1.0 -0.600530414
O  O89  1  0.61160000  0.84450000  0.99430000  1.0 -0.6310270137
O  O90  1  0.88840000  0.34450000  0.00570000  1.0 -0.6310270137
O  O91  1  0.38840000  0.15550000  0.00570000  1.0 -0.6310270137
O  O92  1  0.11160000  0.65550000  0.99430000  1.0 -0.6310270137
O  O93  1  0.48130000  0.91170000  0.93320000  1.0 -0.5669762574
O  O94  1  0.01870000  0.41170000  0.06680000  1.0 -0.5669762574
O  O95  1  0.51870000  0.08830000  0.06680000  1.0 -0.5669762574
O  O96  1  0.98130000  0.58830000  0.93320000  1.0 -0.5669762574
O  O97  1  0.36730000  0.10780000  0.24540000  1.0 -0.5885181111
O  O98  1  0.13270000  0.60780000  0.75460000  1.0 -0.600530414
O  O99  1  0.63270000  0.89220000  0.75460000  1.0 -0.600530414
O  O100  1  0.86730000  0.39220000  0.24540000  1.0 -0.5885181111
O  O101  1  0.12610000  0.04880000  0.24740000  1.0 -0.5507614694
O  O102  1  0.37390000  0.54880000  0.75260000  1.0 -0.5507614694
O  O103  1  0.87390000  0.95120000  0.75260000  1.0 -0.5378876094
O  O104  1  0.62610000  0.45120000  0.24740000  1.0 -0.5507614694
O  O105  1  0.71360000  0.16080000  0.89530000  1.0 -0.1401086896
O  O106  1  0.78640000  0.66080000  0.10470000  1.0 -0.1478788807
O  O107  1  0.28640000  0.83920000  0.10470000  1.0 -0.1478788807
O  O108  1  0.21360000  0.33920000  0.89530000  1.0 -0.1478788807
O  O109  1  0.73830000  0.27430000  0.08120000  1.0 -0.2488950945
O  O110  1  0.76170000  0.77430000  0.91880000  1.0 -0.2488950945
O  O111  1  0.26170000  0.72570000  0.91880000  1.0 -0.2488950945
O  O112  1  0.23830000  0.22570000  0.08120000  1.0 -0.2488950945
O  O113  1  0.06010000  0.10990000  0.42510000  1.0 -0.1773051254
O  O114  1  0.43990000  0.60990000  0.57490000  1.0 -0.1773051254
O  O115  1  0.93990000  0.89010000  0.57490000  1.0 -0.1773051254
O  O116  1  0.56010000  0.39010000  0.42510000  1.0 -0.1773051254
O  O117  1  0.99550000  0.12050000  0.57840000  1.0 0.131480749
O  O118  1  0.50450000  0.62050000  0.42160000  1.0 0.131480749
O  O119  1  0.00450000  0.87950000  0.42160000  1.0 0.131480749
O  O120  1  0.49550000  0.37950000  0.57840000  1.0 0.131480749
O  O121  1  0.01000000  0.09900000  0.54500000  1.0 0.1609177091
O  O122  1  0.49000000  0.59900000  0.45500000  1.0 0.1609177091
O  O123  1  0.99000000  0.90100000  0.45500000  1.0 0.1609177091
O  O124  1  0.51000000  0.40100000  0.54500000  1.0 0.1609177091
