# DDEC6 charges by PACMAN v1.1 (https://github.com/mtap-research/PACMAN-charge/)
data_VEQCEA_ion_pacman
_symmetry_space_group_name_H-M   'P 1'
_cell_length_a   10.51100000
_cell_length_b   23.01600000
_cell_length_c   24.57900000
_cell_angle_alpha   90.00000000
_cell_angle_beta   98.64300000
_cell_angle_gamma   90.00000000
_symmetry_Int_Tables_number   1
_chemical_formula_structural   Ba2SmH18C30S6N6ClO31
_chemical_formula_sum   'Ba8 Sm4 H72 C120 S24 N24 Cl4 O124'
_cell_volume   5878.65503031
_cell_formula_units_Z   4
loop_
 _symmetry_equiv_pos_site_id
 _symmetry_equiv_pos_as_xyz
  1  'x, y, z'
loop_
 _atom_site_type_symbol
 _atom_site_label
 _atom_site_symmetry_multiplicity
 _atom_site_fract_x
 _atom_site_fract_y
 _atom_site_fract_z
 _atom_site_occupancy
 _atom_site_charge
Ba  Ba1  1  0.55729000  0.78820000  0.00168000  1.0 1.4404282771
Ba  Ba2  1  0.94271000  0.28820000  0.99832000  1.0 1.4404282771
Ba  Ba3  1  0.44271000  0.21180000  0.99832000  1.0 1.4404282771
Ba  Ba4  1  0.05729000  0.71180000  0.00168000  1.0 1.4404282771
Ba  Ba5  1  0.23436000  0.74919000  0.46960000  1.0 1.5156737172
Ba  Ba6  1  0.26564000  0.24919000  0.53040000  1.0 1.5114748083
Ba  Ba7  1  0.76564000  0.25081000  0.53040000  1.0 1.5114748083
Ba  Ba8  1  0.73436000  0.75081000  0.46960000  1.0 1.5156737172
Sm  Sm1  1  0.83236000  0.99547000  0.74288000  1.0 1.9810154342
Sm  Sm2  1  0.66764000  0.49547000  0.25712000  1.0 1.9810154342
Sm  Sm3  1  0.16764000  0.00453000  0.25712000  1.0 1.9810154342
Sm  Sm4  1  0.33236000  0.50453000  0.74288000  1.0 1.9810154342
H  H1  1  0.16260000  0.91040000  0.75570000  1.0 0.1601006367
H  H2  1  0.33740000  0.41040000  0.24430000  1.0 0.1601006367
H  H3  1  0.83740000  0.08960000  0.24430000  1.0 0.1601006367
H  H4  1  0.66260000  0.58960000  0.75570000  1.0 0.1601006367
H  H5  1  0.25210000  0.83040000  0.80740000  1.0 0.150495676
H  H6  1  0.24790000  0.33040000  0.19260000  1.0 0.150495676
H  H7  1  0.74790000  0.16960000  0.19260000  1.0 0.1429903187
H  H8  1  0.75210000  0.66960000  0.80740000  1.0 0.150495676
H  H9  1  0.13870000  0.90080000  0.94230000  1.0 0.1601006367
H  H10  1  0.36130000  0.40080000  0.05770000  1.0 0.1601006367
H  H11  1  0.86130000  0.09920000  0.05770000  1.0 0.1601006367
H  H12  1  0.63870000  0.59920000  0.94230000  1.0 0.1601006367
H  H13  1  0.18070000  0.02660000  0.95060000  1.0 0.1601006367
H  H14  1  0.31930000  0.52660000  0.04940000  1.0 0.1601006367
H  H15  1  0.81930000  0.97340000  0.04940000  1.0 0.1601006367
H  H16  1  0.68070000  0.47340000  0.95060000  1.0 0.1601006367
H  H17  1  0.85550000  0.12130000  0.94930000  1.0 0.1601006367
H  H18  1  0.64450000  0.62130000  0.05070000  1.0 0.1601006367
H  H19  1  0.14450000  0.87870000  0.05070000  1.0 0.1601006367
H  H20  1  0.35550000  0.37870000  0.94930000  1.0 0.1601006367
H  H21  1  0.74850000  0.05920000  0.88330000  1.0 0.1601006367
H  H22  1  0.75150000  0.55920000  0.11670000  1.0 0.1601006367
H  H23  1  0.25150000  0.94080000  0.11670000  1.0 0.1601006367
H  H24  1  0.24850000  0.44080000  0.88330000  1.0 0.1601006367
H  H25  1  0.82920000  0.91500000  0.23000000  1.0 0.150495676
H  H26  1  0.67080000  0.41500000  0.77000000  1.0 0.150495676
H  H27  1  0.17080000  0.08500000  0.77000000  1.0 0.150495676
H  H28  1  0.32920000  0.58500000  0.23000000  1.0 0.150495676
H  H29  1  0.73570000  0.84570000  0.16780000  1.0 0.1601006367
H  H30  1  0.76430000  0.34570000  0.83220000  1.0 0.1601006367
H  H31  1  0.26430000  0.15430000  0.83220000  1.0 0.1601006367
H  H32  1  0.23570000  0.65430000  0.16780000  1.0 0.1601006367
H  H33  1  0.08220000  0.76800000  0.17410000  1.0 0.1601006367
H  H34  1  0.41780000  0.26800000  0.82590000  1.0 0.1601006367
H  H35  1  0.91780000  0.23200000  0.82590000  1.0 0.1601006367
H  H36  1  0.58220000  0.73200000  0.17410000  1.0 0.1601006367
H  H37  1  0.19010000  0.75340000  0.28340000  1.0 0.150495676
H  H38  1  0.30990000  0.25340000  0.71660000  1.0 0.150495676
H  H39  1  0.80990000  0.24660000  0.71660000  1.0 0.150495676
H  H40  1  0.69010000  0.74660000  0.28340000  1.0 0.150495676
H  H41  1  0.54230000  0.82370000  0.33310000  1.0 0.1683689408
H  H42  1  0.95770000  0.32370000  0.66690000  1.0 0.1683689408
H  H43  1  0.45770000  0.17630000  0.66690000  1.0 0.1683689408
H  H44  1  0.04230000  0.67630000  0.33310000  1.0 0.1683689408
H  H45  1  0.48160000  0.90410000  0.27740000  1.0 0.1601006367
H  H46  1  0.01840000  0.40410000  0.72260000  1.0 0.1601006367
H  H47  1  0.51840000  0.09590000  0.72260000  1.0 0.1601006367
H  H48  1  0.98160000  0.59590000  0.27740000  1.0 0.1601006367
H  H49  1  0.01390000  0.48180000  0.35210000  1.0 0.1601006367
H  H50  1  0.48610000  0.98180000  0.64790000  1.0 0.1601006367
H  H51  1  0.98610000  0.51820000  0.64790000  1.0 0.1601006367
H  H52  1  0.51390000  0.01820000  0.35210000  1.0 0.1601006367
H  H53  1  0.09660000  0.41920000  0.42150000  1.0 0.1683689408
H  H54  1  0.40340000  0.91920000  0.57850000  1.0 0.1683689408
H  H55  1  0.90340000  0.58080000  0.57850000  1.0 0.1683689408
H  H56  1  0.59660000  0.08080000  0.42150000  1.0 0.1683689408
H  H57  1  0.76640000  0.43320000  0.48630000  1.0 0.1683689408
H  H58  1  0.73360000  0.93320000  0.51370000  1.0 0.1683689408
H  H59  1  0.23360000  0.56680000  0.51370000  1.0 0.1683689408
H  H60  1  0.26640000  0.06680000  0.48630000  1.0 0.1683689408
H  H61  1  0.70210000  0.55050000  0.49320000  1.0 0.150495676
H  H62  1  0.79790000  0.05050000  0.50680000  1.0 0.150495676
H  H63  1  0.29790000  0.44950000  0.50680000  1.0 0.150495676
H  H64  1  0.20210000  0.94950000  0.49320000  1.0 0.150495676
H  H65  1  0.34830000  0.59560000  0.41720000  1.0 0.1683689408
H  H66  1  0.15170000  0.09560000  0.58280000  1.0 0.1683689408
H  H67  1  0.65170000  0.40440000  0.58280000  1.0 0.1683689408
H  H68  1  0.84830000  0.90440000  0.41720000  1.0 0.1683689408
H  H69  1  0.37810000  0.53580000  0.34350000  1.0 0.150495676
H  H70  1  0.12190000  0.03580000  0.65650000  1.0 0.150495676
H  H71  1  0.62190000  0.46420000  0.65650000  1.0 0.150495676
H  H72  1  0.87810000  0.96420000  0.34350000  1.0 0.150495676
C  C1  1  0.15730000  0.90790000  0.79380000  1.0 0.046623401
C  C2  1  0.34270000  0.40790000  0.20620000  1.0 0.046623401
C  C3  1  0.84270000  0.09210000  0.20620000  1.0 0.046623401
C  C4  1  0.65730000  0.59210000  0.79380000  1.0 0.046623401
C  C5  1  0.21010000  0.86040000  0.82430000  1.0 -0.1018000845
C  C6  1  0.28990000  0.36040000  0.17570000  1.0 -0.1018000845
C  C7  1  0.78990000  0.13960000  0.17570000  1.0 -0.1018000845
C  C8  1  0.71010000  0.63960000  0.82430000  1.0 -0.1018000845
C  C9  1  0.20040000  0.85770000  0.87950000  1.0 -0.0193760026
C  C10  1  0.29960000  0.35770000  0.12050000  1.0 -0.0193760026
C  C11  1  0.79960000  0.14230000  0.12050000  1.0 -0.0193760026
C  C12  1  0.70040000  0.64230000  0.87950000  1.0 -0.0193760026
C  C13  1  0.14240000  0.90200000  0.90390000  1.0 -0.1364912885
C  C14  1  0.35760000  0.40200000  0.09610000  1.0 -0.1364912885
C  C15  1  0.85760000  0.09800000  0.09610000  1.0 -0.1364912885
C  C16  1  0.64240000  0.59800000  0.90390000  1.0 -0.1364912885
C  C17  1  0.08990000  0.94810000  0.87300000  1.0 0.1102661331
C  C18  1  0.41010000  0.44810000  0.12700000  1.0 0.1102661331
C  C19  1  0.91010000  0.05190000  0.12700000  1.0 0.1102661331
C  C20  1  0.58990000  0.55190000  0.87300000  1.0 0.1102661331
C  C21  1  0.02880000  0.99830000  0.89630000  1.0 0.1102661331
C  C22  1  0.47120000  0.49830000  0.10370000  1.0 0.1102661331
C  C23  1  0.97120000  0.00170000  0.10370000  1.0 0.1102661331
C  C24  1  0.52880000  0.50170000  0.89630000  1.0 0.1102661331
C  C25  1  0.09300000  0.03380000  0.93630000  1.0 -0.1612600844
C  C26  1  0.40700000  0.53380000  0.06370000  1.0 -0.1612600844
C  C27  1  0.90700000  0.96620000  0.06370000  1.0 -0.1612600844
C  C28  1  0.59300000  0.46620000  0.93630000  1.0 -0.1659122504
C  C29  1  0.02730000  0.08060000  0.95600000  1.0 -0.0528531022
C  C30  1  0.47270000  0.58060000  0.04400000  1.0 -0.0528531022
C  C31  1  0.97270000  0.91940000  0.04400000  1.0 -0.0528531022
C  C32  1  0.52730000  0.41940000  0.95600000  1.0 -0.0528531022
C  C33  1  0.90020000  0.08970000  0.93600000  1.0 -0.1180283741
C  C34  1  0.59980000  0.58970000  0.06400000  1.0 -0.1180283741
C  C35  1  0.09980000  0.91030000  0.06400000  1.0 -0.1180283741
C  C36  1  0.40020000  0.41030000  0.93600000  1.0 -0.1180283741
C  C37  1  0.83710000  0.05310000  0.89670000  1.0 -0.0005394753
C  C38  1  0.66290000  0.55310000  0.10330000  1.0 -0.0005394753
C  C39  1  0.16290000  0.94690000  0.10330000  1.0 -0.0005394753
C  C40  1  0.33710000  0.44690000  0.89670000  1.0 -0.0005394753
C  C41  1  0.88040000  0.88460000  0.21860000  1.0 0.0155319252
C  C42  1  0.61960000  0.38460000  0.78140000  1.0 0.0143593789
C  C43  1  0.11960000  0.11540000  0.78140000  1.0 0.0143593789
C  C44  1  0.38040000  0.61540000  0.21860000  1.0 0.0143593789
C  C45  1  0.82490000  0.84360000  0.18180000  1.0 -0.1180283741
C  C46  1  0.67510000  0.34360000  0.81820000  1.0 -0.1180283741
C  C47  1  0.17510000  0.15640000  0.81820000  1.0 -0.1180283741
C  C48  1  0.32490000  0.65640000  0.18180000  1.0 -0.1180283741
C  C49  1  0.89850000  0.79960000  0.16510000  1.0 -0.0343141112
C  C50  1  0.60150000  0.29960000  0.83490000  1.0 -0.0343141112
C  C51  1  0.10150000  0.20040000  0.83490000  1.0 -0.0343141112
C  C52  1  0.39850000  0.70040000  0.16510000  1.0 -0.0343141112
C  C53  1  0.02970000  0.79780000  0.18560000  1.0 -0.1496403922
C  C54  1  0.47030000  0.29780000  0.81440000  1.0 -0.1496403922
C  C55  1  0.97030000  0.20220000  0.81440000  1.0 -0.1496403922
C  C56  1  0.52970000  0.70220000  0.18560000  1.0 -0.1496403922
C  C57  1  0.08280000  0.83910000  0.22250000  1.0 0.1102661331
C  C58  1  0.41720000  0.33910000  0.77750000  1.0 0.1102661331
C  C59  1  0.91720000  0.16090000  0.77750000  1.0 0.1102661331
C  C60  1  0.58280000  0.66090000  0.22250000  1.0 0.1102661331
C  C61  1  0.21550000  0.83380000  0.25250000  1.0 0.1102661331
C  C62  1  0.28450000  0.33380000  0.74750000  1.0 0.1102661331
C  C63  1  0.78450000  0.16620000  0.74750000  1.0 0.1102661331
C  C64  1  0.71550000  0.66620000  0.25250000  1.0 0.1102661331
C  C65  1  0.24930000  0.78460000  0.28350000  1.0 -0.1496403922
C  C66  1  0.25070000  0.28460000  0.71650000  1.0 -0.1496403922
C  C67  1  0.75070000  0.21540000  0.71650000  1.0 -0.1496403922
C  C68  1  0.74930000  0.71540000  0.28350000  1.0 -0.1496403922
C  C69  1  0.37110000  0.78100000  0.31490000  1.0 -0.0403345072
C  C70  1  0.12890000  0.28100000  0.68510000  1.0 -0.0403345072
C  C71  1  0.62890000  0.21900000  0.68510000  1.0 -0.0403345072
C  C72  1  0.87110000  0.71900000  0.31490000  1.0 -0.0403345072
C  C73  1  0.45840000  0.82580000  0.31250000  1.0 -0.1057868249
C  C74  1  0.04160000  0.32580000  0.68750000  1.0 -0.1057868249
C  C75  1  0.54160000  0.17420000  0.68750000  1.0 -0.1057868249
C  C76  1  0.95840000  0.67420000  0.31250000  1.0 -0.1057868249
C  C77  1  0.42190000  0.87360000  0.27970000  1.0 0.0257595881
C  C78  1  0.07810000  0.37360000  0.72030000  1.0 0.0257595881
C  C79  1  0.57810000  0.12640000  0.72030000  1.0 0.0257595881
C  C80  1  0.92190000  0.62640000  0.27970000  1.0 0.0257595881
C  C81  1  0.96370000  0.47160000  0.37970000  1.0 0.0401686334
C  C82  1  0.53630000  0.97160000  0.62030000  1.0 0.0401686334
C  C83  1  0.03630000  0.52840000  0.62030000  1.0 0.0401686334
C  C84  1  0.46370000  0.02840000  0.37970000  1.0 0.0401686334
C  C85  1  0.01220000  0.43450000  0.42050000  1.0 -0.1180283741
C  C86  1  0.48780000  0.93450000  0.57950000  1.0 -0.1180283741
C  C87  1  0.98780000  0.56550000  0.57950000  1.0 -0.1180283741
C  C88  1  0.51220000  0.06550000  0.42050000  1.0 -0.1180283741
C  C89  1  0.93900000  0.41860000  0.46080000  1.0 -0.0193760026
C  C90  1  0.56100000  0.91860000  0.53920000  1.0 -0.0193760026
C  C91  1  0.06100000  0.58140000  0.53920000  1.0 -0.0193760026
C  C92  1  0.43900000  0.08140000  0.46080000  1.0 -0.0193760026
C  C93  1  0.81780000  0.44290000  0.45900000  1.0 -0.1496403922
C  C94  1  0.68220000  0.94290000  0.54100000  1.0 -0.1496403922
C  C95  1  0.18220000  0.55710000  0.54100000  1.0 -0.1496403922
C  C96  1  0.31780000  0.05710000  0.45900000  1.0 -0.1496403922
C  C97  1  0.77230000  0.48110000  0.41770000  1.0 0.1289240454
C  C98  1  0.72770000  0.98110000  0.58230000  1.0 0.1289240454
C  C99  1  0.22770000  0.51890000  0.58230000  1.0 0.1289240454
C  C100  1  0.27230000  0.01890000  0.41770000  1.0 0.1289240454
C  C101  1  0.65160000  0.51410000  0.41890000  1.0 0.1102661331
C  C102  1  0.84840000  0.01410000  0.58110000  1.0 0.1102661331
C  C103  1  0.34840000  0.48590000  0.58110000  1.0 0.1102661331
C  C104  1  0.15160000  0.98590000  0.41890000  1.0 0.1102661331
C  C105  1  0.63560000  0.54810000  0.46250000  1.0 -0.1334479746
C  C106  1  0.86440000  0.04810000  0.53750000  1.0 -0.1334479746
C  C107  1  0.36440000  0.45190000  0.53750000  1.0 -0.1334479746
C  C108  1  0.13560000  0.95190000  0.46250000  1.0 -0.1334479746
C  C109  1  0.52240000  0.57950000  0.46250000  1.0 -0.0403345072
C  C110  1  0.97760000  0.07950000  0.53750000  1.0 -0.0403345072
C  C111  1  0.47760000  0.42050000  0.53750000  1.0 -0.0403345072
C  C112  1  0.02240000  0.92050000  0.46250000  1.0 -0.0403345072
C  C113  1  0.42630000  0.57460000  0.41800000  1.0 -0.1018000845
C  C114  1  0.07370000  0.07460000  0.58200000  1.0 -0.1018000845
C  C115  1  0.57370000  0.42540000  0.58200000  1.0 -0.1018000845
C  C116  1  0.92630000  0.92540000  0.41800000  1.0 -0.1018000845
C  C117  1  0.44400000  0.53890000  0.37440000  1.0 0.0401686334
C  C118  1  0.05600000  0.03890000  0.62560000  1.0 0.0401686334
C  C119  1  0.55600000  0.46110000  0.62560000  1.0 0.0401686334
C  C120  1  0.94400000  0.96110000  0.37440000  1.0 0.0401686334
S  S1  1  0.25801000  0.79423000  0.91751000  1.0 1.1779378457
S  S2  1  0.24199000  0.29423000  0.08249000  1.0 1.173996111
S  S3  1  0.74199000  0.20577000  0.08249000  1.0 1.173996111
S  S4  1  0.75801000  0.70577000  0.91751000  1.0 1.1779378457
S  S5  1  0.11330000  0.12755000  0.00664000  1.0 1.2034411632
S  S6  1  0.38670000  0.62755000  0.99336000  1.0 1.2034411632
S  S7  1  0.88670000  0.87245000  0.99336000  1.0 1.2034411632
S  S8  1  0.61330000  0.37245000  0.00664000  1.0 1.2034411632
S  S9  1  0.83452000  0.74258000  0.11974000  1.0 1.2061715924
S  S10  1  0.66548000  0.24258000  0.88026000  1.0 1.2061715924
S  S11  1  0.16548000  0.25742000  0.88026000  1.0 1.2061715924
S  S12  1  0.33452000  0.75742000  0.11974000  1.0 1.2061715924
S  S13  1  0.40530000  0.72062000  0.35943000  1.0 1.156284114
S  S14  1  0.09470000  0.22062000  0.64057000  1.0 1.156284114
S  S15  1  0.59470000  0.27938000  0.64057000  1.0 1.156284114
S  S16  1  0.90530000  0.77938000  0.35943000  1.0 1.156284114
S  S17  1  0.51254000  0.62691000  0.51911000  1.0 1.193129798
S  S18  1  0.98746000  0.12691000  0.48089000  1.0 1.193129798
S  S19  1  0.48746000  0.37309000  0.48089000  1.0 1.193129798
S  S20  1  0.01254000  0.87309000  0.51911000  1.0 1.193129798
S  S21  1  0.00013000  0.37182000  0.51625000  1.0 1.1779378457
S  S22  1  0.49987000  0.87182000  0.48375000  1.0 1.1779378457
S  S23  1  0.99987000  0.62818000  0.48375000  1.0 1.1779378457
S  S24  1  0.50013000  0.12818000  0.51625000  1.0 1.1779378457
N  N1  1  0.09860000  0.95010000  0.81880000  1.0 0.2856962733
N  N2  1  0.40140000  0.45010000  0.18120000  1.0 0.2856962733
N  N3  1  0.90140000  0.04990000  0.18120000  1.0 0.2856962733
N  N4  1  0.59860000  0.54990000  0.81880000  1.0 0.2856962733
N  N5  1  0.90050000  0.00850000  0.87700000  1.0 0.3103918386
N  N6  1  0.59950000  0.50850000  0.12300000  1.0 0.3103918386
N  N7  1  0.09950000  0.99150000  0.12300000  1.0 0.3103918386
N  N8  1  0.40050000  0.49150000  0.87700000  1.0 0.3103918386
N  N9  1  0.00680000  0.88190000  0.23840000  1.0 0.3103918386
N  N10  1  0.49320000  0.38190000  0.76160000  1.0 0.3103918386
N  N11  1  0.99320000  0.11810000  0.76160000  1.0 0.3103918386
N  N12  1  0.50680000  0.61810000  0.23840000  1.0 0.3103918386
N  N13  1  0.30180000  0.87710000  0.25090000  1.0 0.3023827278
N  N14  1  0.19820000  0.37710000  0.74910000  1.0 0.3023827278
N  N15  1  0.69820000  0.12290000  0.74910000  1.0 0.3023827278
N  N16  1  0.80180000  0.62290000  0.25090000  1.0 0.3023827278
N  N17  1  0.84550000  0.49400000  0.37820000  1.0 0.2824688234
N  N18  1  0.65450000  0.99400000  0.62180000  1.0 0.2824688234
N  N19  1  0.15450000  0.50600000  0.62180000  1.0 0.2824688234
N  N20  1  0.34550000  0.00600000  0.37820000  1.0 0.2824688234
N  N21  1  0.55390000  0.50860000  0.37550000  1.0 0.3103918386
N  N22  1  0.94610000  0.00860000  0.62450000  1.0 0.3103918386
N  N23  1  0.44610000  0.49140000  0.62450000  1.0 0.3103918386
N  N24  1  0.05390000  0.99140000  0.37550000  1.0 0.3103918386
Cl  Cl1  1  0.85413000  0.48854000  0.73425000  1.0 -0.5305222776
Cl  Cl2  1  0.64587000  0.98854000  0.26575000  1.0 -0.5362581528
Cl  Cl3  1  0.14587000  0.51146000  0.26575000  1.0 -0.5362581528
Cl  Cl4  1  0.35413000  0.01146000  0.73425000  1.0 -0.5305222776
O  O1  1  0.05010000  0.99450000  0.78891000  1.0 -0.5305222776
O  O2  1  0.44990000  0.49450000  0.21109000  1.0 -0.5362581528
O  O3  1  0.94990000  0.00550000  0.21109000  1.0 -0.5362581528
O  O4  1  0.55010000  0.50550000  0.78891000  1.0 -0.5362581528
O  O5  1  0.83870000  0.97335000  0.83934000  1.0 -0.435671667
O  O6  1  0.66130000  0.47335000  0.16066000  1.0 -0.435671667
O  O7  1  0.16130000  0.02665000  0.16066000  1.0 -0.435671667
O  O8  1  0.33870000  0.52665000  0.83934000  1.0 -0.435671667
O  O9  1  0.05780000  0.91891000  0.27690000  1.0 -0.5305222776
O  O10  1  0.44220000  0.41891000  0.72310000  1.0 -0.5305222776
O  O11  1  0.94220000  0.08109000  0.72310000  1.0 -0.5305222776
O  O12  1  0.55780000  0.58109000  0.27690000  1.0 -0.5305222776
O  O13  1  0.26960000  0.92424000  0.22063000  1.0 -0.5497897886
O  O14  1  0.23040000  0.42424000  0.77937000  1.0 -0.5497897886
O  O15  1  0.73040000  0.07576000  0.77937000  1.0 -0.5497897886
O  O16  1  0.76960000  0.57576000  0.22063000  1.0 -0.5497897886
O  O17  1  0.80110000  0.53177000  0.33883000  1.0 -0.5166275896
O  O18  1  0.69890000  0.03177000  0.66117000  1.0 -0.5166275896
O  O19  1  0.19890000  0.46823000  0.66117000  1.0 -0.5166275896
O  O20  1  0.30110000  0.96823000  0.33883000  1.0 -0.5166275896
O  O21  1  0.56700000  0.47143000  0.33567000  1.0 -0.4488341756
O  O22  1  0.93300000  0.97143000  0.66433000  1.0 -0.4488341756
O  O23  1  0.43300000  0.52857000  0.66433000  1.0 -0.4488341756
O  O24  1  0.06700000  0.02857000  0.33567000  1.0 -0.4488341756
O  O25  1  0.37390000  0.77690000  0.89650000  1.0 -0.5684557952
O  O26  1  0.12610000  0.27690000  0.10350000  1.0 -0.5684557952
O  O27  1  0.62610000  0.22310000  0.10350000  1.0 -0.5684557952
O  O28  1  0.87390000  0.72310000  0.89650000  1.0 -0.5684557952
O  O29  1  0.15520000  0.75200000  0.90710000  1.0 -0.5684557952
O  O30  1  0.34480000  0.25200000  0.09290000  1.0 -0.5684557952
O  O31  1  0.84480000  0.24800000  0.09290000  1.0 -0.5684557952
O  O32  1  0.65520000  0.74800000  0.90710000  1.0 -0.5684557952
O  O33  1  0.28350000  0.81220000  0.97470000  1.0 -0.6400916598
O  O34  1  0.21650000  0.31220000  0.02530000  1.0 -0.6400916598
O  O35  1  0.71650000  0.18780000  0.02530000  1.0 -0.6400916598
O  O36  1  0.78350000  0.68780000  0.97470000  1.0 -0.6400916598
O  O37  1  0.14710000  0.09100000  0.05504000  1.0 -0.5497897886
O  O38  1  0.35290000  0.59100000  0.94496000  1.0 -0.5497897886
O  O39  1  0.85290000  0.90900000  0.94496000  1.0 -0.5497897886
O  O40  1  0.64710000  0.40900000  0.05504000  1.0 -0.5497897886
O  O41  1  0.02230000  0.17307000  0.01470000  1.0 -0.6220533348
O  O42  1  0.47770000  0.67307000  0.98530000  1.0 -0.6220533348
O  O43  1  0.97770000  0.82693000  0.98530000  1.0 -0.6220533348
O  O44  1  0.52230000  0.32693000  0.01470000  1.0 -0.6220533348
O  O45  1  0.22400000  0.14620000  0.98310000  1.0 -0.6400916598
O  O46  1  0.27600000  0.64620000  0.01690000  1.0 -0.6400916598
O  O47  1  0.77600000  0.85380000  0.01690000  1.0 -0.6400916598
O  O48  1  0.72400000  0.35380000  0.98310000  1.0 -0.6400916598
O  O49  1  0.70240000  0.75930000  0.10060000  1.0 -0.6400916598
O  O50  1  0.79760000  0.25930000  0.89940000  1.0 -0.6400916598
O  O51  1  0.29760000  0.24070000  0.89940000  1.0 -0.6400916598
O  O52  1  0.20240000  0.74070000  0.10060000  1.0 -0.6400916598
O  O53  1  0.91430000  0.74280000  0.07720000  1.0 -0.6400916598
O  O54  1  0.58570000  0.24280000  0.92280000  1.0 -0.6400916598
O  O55  1  0.08570000  0.25720000  0.92280000  1.0 -0.6400916598
O  O56  1  0.41430000  0.75720000  0.07720000  1.0 -0.6400916598
O  O57  1  0.84650000  0.69090000  0.15250000  1.0 -0.5802653131
O  O58  1  0.65350000  0.19090000  0.84750000  1.0 -0.5802653131
O  O59  1  0.15350000  0.30910000  0.84750000  1.0 -0.5802653131
O  O60  1  0.34650000  0.80910000  0.15250000  1.0 -0.5802653131
O  O61  1  0.28020000  0.69856000  0.36859000  1.0 -0.6266590513
O  O62  1  0.21980000  0.19856000  0.63141000  1.0 -0.6266590513
O  O63  1  0.71980000  0.30144000  0.63141000  1.0 -0.6266590513
O  O64  1  0.78020000  0.80144000  0.36859000  1.0 -0.6266590513
O  O65  1  0.47720000  0.68059000  0.33024000  1.0 -0.5126765616
O  O66  1  0.02280000  0.18059000  0.66976000  1.0 -0.5126765616
O  O67  1  0.52280000  0.31941000  0.66976000  1.0 -0.5126765616
O  O68  1  0.97720000  0.81941000  0.33024000  1.0 -0.5126765616
O  O69  1  0.47780000  0.74378000  0.41013000  1.0 -0.647120545
O  O70  1  0.02220000  0.24378000  0.58987000  1.0 -0.647120545
O  O71  1  0.52220000  0.25622000  0.58987000  1.0 -0.647120545
O  O72  1  0.97780000  0.75622000  0.41013000  1.0 -0.647120545
O  O73  1  0.39030000  0.65660000  0.50570000  1.0 -0.6220533348
O  O74  1  0.10970000  0.15660000  0.49430000  1.0 -0.6220533348
O  O75  1  0.60970000  0.34340000  0.49430000  1.0 -0.6220533348
O  O76  1  0.89030000  0.84340000  0.50570000  1.0 -0.6220533348
O  O77  1  0.62330000  0.66453000  0.52208000  1.0 -0.6101686316
O  O78  1  0.87670000  0.16453000  0.47792000  1.0 -0.6101686316
O  O79  1  0.37670000  0.33547000  0.47792000  1.0 -0.6101686316
O  O80  1  0.12330000  0.83547000  0.52208000  1.0 -0.6101686316
O  O81  1  0.51820000  0.58887000  0.56659000  1.0 -0.5591842033
O  O82  1  0.98180000  0.08887000  0.43341000  1.0 -0.5591842033
O  O83  1  0.48180000  0.41113000  0.43341000  1.0 -0.5591842033
O  O84  1  0.01820000  0.91113000  0.56659000  1.0 -0.5591842033
O  O85  1  0.09250000  0.40790000  0.55080000  1.0 -0.5305222776
O  O86  1  0.40750000  0.90790000  0.44920000  1.0 -0.5305222776
O  O87  1  0.90750000  0.59210000  0.44920000  1.0 -0.5305222776
O  O88  1  0.59250000  0.09210000  0.55080000  1.0 -0.5305222776
O  O89  1  0.89120000  0.35600000  0.54190000  1.0 -0.6101686316
O  O90  1  0.60880000  0.85600000  0.45810000  1.0 -0.6101686316
O  O91  1  0.10880000  0.64400000  0.45810000  1.0 -0.6101686316
O  O92  1  0.39120000  0.14400000  0.54190000  1.0 -0.6101686316
O  O93  1  0.05940000  0.32410000  0.49150000  1.0 -0.6101686316
O  O94  1  0.44060000  0.82410000  0.50850000  1.0 -0.6101686316
O  O95  1  0.94060000  0.67590000  0.50850000  1.0 -0.6101686316
O  O96  1  0.55940000  0.17590000  0.49150000  1.0 -0.6101686316
O  O97  1  0.62290000  0.95050000  0.74650000  1.0 -0.5802653131
O  O98  1  0.87710000  0.45050000  0.25350000  1.0 -0.5859480299
O  O99  1  0.37710000  0.04950000  0.25350000  1.0 -0.5859480299
O  O100  1  0.12290000  0.54950000  0.74650000  1.0 -0.5802653131
O  O101  1  0.87050000  0.89104000  0.74601000  1.0 -0.6266590513
O  O102  1  0.62950000  0.39104000  0.25399000  1.0 -0.6101686316
O  O103  1  0.12950000  0.10896000  0.25399000  1.0 -0.6101686316
O  O104  1  0.37050000  0.60896000  0.74601000  1.0 -0.6101686316
O  O105  1  0.21200000  0.83908000  0.39612000  1.0 -0.1334479746
O  O106  1  0.28800000  0.33908000  0.60388000  1.0 -0.1364912885
O  O107  1  0.78800000  0.16092000  0.60388000  1.0 -0.1364912885
O  O108  1  0.71200000  0.66092000  0.39612000  1.0 -0.1334479746
O  O109  1  0.23520000  0.72670000  0.58180000  1.0 -0.258340808
O  O110  1  0.26480000  0.22670000  0.41820000  1.0 -0.258340808
O  O111  1  0.76480000  0.27330000  0.41820000  1.0 -0.258340808
O  O112  1  0.73520000  0.77330000  0.58180000  1.0 -0.258340808
O  O113  1  0.55810000  0.88890000  0.92380000  1.0 -0.1612600844
O  O114  1  0.94190000  0.38890000  0.07620000  1.0 -0.1612600844
O  O115  1  0.44190000  0.11110000  0.07620000  1.0 -0.1612600844
O  O116  1  0.05810000  0.61110000  0.92380000  1.0 -0.1612600844
O  O117  1  0.49700000  0.87900000  0.07760000  1.0 0.1207170949
O  O118  1  0.00300000  0.37900000  0.92240000  1.0 0.1207170949
O  O119  1  0.50300000  0.12100000  0.92240000  1.0 0.1207170949
O  O120  1  0.99700000  0.62100000  0.07760000  1.0 0.1207170949
O  O121  1  0.51600000  0.89910000  0.04320000  1.0 0.150495676
O  O122  1  0.98400000  0.39910000  0.95680000  1.0 0.150495676
O  O123  1  0.48400000  0.10090000  0.95680000  1.0 0.150495676
O  O124  1  0.01600000  0.60090000  0.04320000  1.0 0.1429903187
