# DDEC6 charges by PACMAN v1.1 (https://github.com/mtap-research/PACMAN-charge/)
data_VEQCAW_ion_pacman
_symmetry_space_group_name_H-M   'P 1'
_cell_length_a   10.49800000
_cell_length_b   22.99500000
_cell_length_c   24.42300000
_cell_angle_alpha   90.00000000
_cell_angle_beta   98.54000000
_cell_angle_gamma   90.00000000
_symmetry_Int_Tables_number   1
_chemical_formula_structural   Ba2GdH18C30S6N6ClO31
_chemical_formula_sum   'Ba8 Gd4 H72 C120 S24 N24 Cl4 O124'
_cell_volume   5830.37955942
_cell_formula_units_Z   4
loop_
 _symmetry_equiv_pos_site_id
 _symmetry_equiv_pos_as_xyz
  1  'x, y, z'
loop_
 _atom_site_type_symbol
 _atom_site_label
 _atom_site_symmetry_multiplicity
 _atom_site_fract_x
 _atom_site_fract_y
 _atom_site_fract_z
 _atom_site_occupancy
 _atom_site_charge
Ba  Ba1  1  0.44365000  0.78824000  0.49961000  1.0 1.4430976371
Ba  Ba2  1  0.05635000  0.28824000  0.50039000  1.0 1.4430976371
Ba  Ba3  1  0.55635000  0.21176000  0.50039000  1.0 1.4430976371
Ba  Ba4  1  0.94365000  0.71176000  0.49961000  1.0 1.4430976371
Ba  Ba5  1  0.76636000  0.74891000  0.02942000  1.0 1.5120028715
Ba  Ba6  1  0.73364000  0.24891000  0.97058000  1.0 1.5120028715
Ba  Ba7  1  0.23364000  0.25109000  0.97058000  1.0 1.5120028715
Ba  Ba8  1  0.26636000  0.75109000  0.02942000  1.0 1.5120028715
Gd  Gd1  1  0.83222000  0.00329000  0.24314000  1.0 1.898140208
Gd  Gd2  1  0.66778000  0.50329000  0.75686000  1.0 1.898140208
Gd  Gd3  1  0.16778000  0.99671000  0.75686000  1.0 1.898140208
Gd  Gd4  1  0.33222000  0.49671000  0.24314000  1.0 1.898140208
H  H1  1  0.74830000  0.93960000  0.38370000  1.0 0.1501725974
H  H2  1  0.75170000  0.43960000  0.61630000  1.0 0.1501725974
H  H3  1  0.25170000  0.06040000  0.61630000  1.0 0.1501725974
H  H4  1  0.24830000  0.56040000  0.38370000  1.0 0.1501725974
H  H5  1  0.85670000  0.87740000  0.45060000  1.0 0.1613268666
H  H6  1  0.64330000  0.37740000  0.54940000  1.0 0.1613268666
H  H7  1  0.14330000  0.12260000  0.54940000  1.0 0.1613268666
H  H8  1  0.35670000  0.62260000  0.45060000  1.0 0.1613268666
H  H9  1  0.18150000  0.97410000  0.45140000  1.0 0.1613268666
H  H10  1  0.31850000  0.47410000  0.54860000  1.0 0.1613268666
H  H11  1  0.81850000  0.02590000  0.54860000  1.0 0.1613268666
H  H12  1  0.68150000  0.52590000  0.45140000  1.0 0.1613268666
H  H13  1  0.13950000  0.09980000  0.44290000  1.0 0.1613268666
H  H14  1  0.36050000  0.59980000  0.55710000  1.0 0.1613268666
H  H15  1  0.86050000  0.90020000  0.55710000  1.0 0.1613268666
H  H16  1  0.63950000  0.40020000  0.44290000  1.0 0.1613268666
H  H17  1  0.24850000  0.16870000  0.30510000  1.0 0.1391698542
H  H18  1  0.25150000  0.66870000  0.69490000  1.0 0.1501725974
H  H19  1  0.75150000  0.83130000  0.69490000  1.0 0.1391698542
H  H20  1  0.74850000  0.33130000  0.30510000  1.0 0.1501725974
H  H21  1  0.16150000  0.08920000  0.25410000  1.0 0.1613268666
H  H22  1  0.33850000  0.58920000  0.74590000  1.0 0.1501725974
H  H23  1  0.83850000  0.91080000  0.74590000  1.0 0.1613268666
H  H24  1  0.66150000  0.41080000  0.25410000  1.0 0.1613268666
H  H25  1  0.17260000  0.91350000  0.26880000  1.0 0.1501725974
H  H26  1  0.32740000  0.41350000  0.73120000  1.0 0.1501725974
H  H27  1  0.82740000  0.08650000  0.73120000  1.0 0.1501725974
H  H28  1  0.67260000  0.58650000  0.26880000  1.0 0.1501725974
H  H29  1  0.26550000  0.84600000  0.33300000  1.0 0.1501725974
H  H30  1  0.23450000  0.34600000  0.66700000  1.0 0.1501725974
H  H31  1  0.73450000  0.15400000  0.66700000  1.0 0.1501725974
H  H32  1  0.76550000  0.65400000  0.33300000  1.0 0.1501725974
H  H33  1  0.91980000  0.76690000  0.32660000  1.0 0.1613268666
H  H34  1  0.58020000  0.26690000  0.67340000  1.0 0.1613268666
H  H35  1  0.08020000  0.23310000  0.67340000  1.0 0.1613268666
H  H36  1  0.41980000  0.73310000  0.32660000  1.0 0.1613268666
H  H37  1  0.81010000  0.75350000  0.21640000  1.0 0.1501725974
H  H38  1  0.68990000  0.25350000  0.78360000  1.0 0.1501725974
H  H39  1  0.18990000  0.24650000  0.78360000  1.0 0.1501725974
H  H40  1  0.31010000  0.74650000  0.21640000  1.0 0.1501725974
H  H41  1  0.45860000  0.82360000  0.16680000  1.0 0.1613268666
H  H42  1  0.04140000  0.32360000  0.83320000  1.0 0.1613268666
H  H43  1  0.54140000  0.17640000  0.83320000  1.0 0.1613268666
H  H44  1  0.95860000  0.67640000  0.16680000  1.0 0.1613268666
H  H45  1  0.51710000  0.90380000  0.22350000  1.0 0.1501725974
H  H46  1  0.98290000  0.40380000  0.77650000  1.0 0.1501725974
H  H47  1  0.48290000  0.09620000  0.77650000  1.0 0.1501725974
H  H48  1  0.01710000  0.59620000  0.22350000  1.0 0.1501725974
H  H49  1  0.48610000  0.01550000  0.14890000  1.0 0.1501725974
H  H50  1  0.01390000  0.51550000  0.85110000  1.0 0.1501725974
H  H51  1  0.51390000  0.98450000  0.85110000  1.0 0.1501725974
H  H52  1  0.98610000  0.48450000  0.14890000  1.0 0.1501725974
H  H53  1  0.40150000  0.08040000  0.07970000  1.0 0.1613268666
H  H54  1  0.09850000  0.58040000  0.92030000  1.0 0.1613268666
H  H55  1  0.59850000  0.91960000  0.92030000  1.0 0.1613268666
H  H56  1  0.90150000  0.41960000  0.07970000  1.0 0.1613268666
H  H57  1  0.73410000  0.06710000  0.01400000  1.0 0.1613268666
H  H58  1  0.76590000  0.56710000  0.98600000  1.0 0.1613268666
H  H59  1  0.26590000  0.93290000  0.98600000  1.0 0.1613268666
H  H60  1  0.23410000  0.43290000  0.01400000  1.0 0.1613268666
H  H61  1  0.79660000  0.94870000  0.00680000  1.0 0.1501725974
H  H62  1  0.70340000  0.44870000  0.99320000  1.0 0.1501725974
H  H63  1  0.20340000  0.05130000  0.99320000  1.0 0.1501725974
H  H64  1  0.29660000  0.55130000  0.00680000  1.0 0.1501725974
H  H65  1  0.15390000  0.90430000  0.08330000  1.0 0.1687069844
H  H66  1  0.34610000  0.40430000  0.91670000  1.0 0.1687069844
H  H67  1  0.84610000  0.09570000  0.91670000  1.0 0.1687069844
H  H68  1  0.65390000  0.59570000  0.08330000  1.0 0.1687069844
H  H69  1  0.12270000  0.96490000  0.15690000  1.0 0.1501725974
H  H70  1  0.37730000  0.46490000  0.84310000  1.0 0.1501725974
H  H71  1  0.87730000  0.03510000  0.84310000  1.0 0.1501725974
H  H72  1  0.62270000  0.53510000  0.15690000  1.0 0.1501725974
C  C1  1  0.83680000  0.94590000  0.39720000  1.0 0.0125690905
C  C2  1  0.66320000  0.44590000  0.60280000  1.0 0.0125690905
C  C3  1  0.16320000  0.05410000  0.60280000  1.0 0.0125690905
C  C4  1  0.33680000  0.55410000  0.39720000  1.0 0.0125690905
C  C5  1  0.90050000  0.90930000  0.43710000  1.0 -0.1303967853
C  C6  1  0.59950000  0.40930000  0.56290000  1.0 -0.1303967853
C  C7  1  0.09950000  0.09070000  0.56290000  1.0 -0.1303967853
C  C8  1  0.40050000  0.59070000  0.43710000  1.0 -0.1303967853
C  C9  1  0.02900000  0.91960000  0.45720000  1.0 -0.0485178445
C  C10  1  0.47100000  0.41960000  0.54280000  1.0 -0.0485178445
C  C11  1  0.97100000  0.08040000  0.54280000  1.0 -0.0485178445
C  C12  1  0.52900000  0.58040000  0.45720000  1.0 -0.0485178445
C  C13  1  0.09380000  0.96650000  0.43730000  1.0 -0.1637856652
C  C14  1  0.40620000  0.46650000  0.56270000  1.0 -0.1637856652
C  C15  1  0.90620000  0.03350000  0.56270000  1.0 -0.1637856652
C  C16  1  0.59380000  0.53350000  0.43730000  1.0 -0.1637856652
C  C17  1  0.02790000  0.00130000  0.39680000  1.0 0.1068548552
C  C18  1  0.47210000  0.50130000  0.60320000  1.0 0.1068548552
C  C19  1  0.97210000  0.99870000  0.60320000  1.0 0.1068548552
C  C20  1  0.52790000  0.49870000  0.39680000  1.0 0.1068548552
C  C21  1  0.09040000  0.05140000  0.37320000  1.0 0.1068548552
C  C22  1  0.40960000  0.55140000  0.62680000  1.0 0.1068548552
C  C23  1  0.90960000  0.94860000  0.62680000  1.0 0.1068548552
C  C24  1  0.59040000  0.44860000  0.37320000  1.0 0.1068548552
C  C25  1  0.14280000  0.09810000  0.40430000  1.0 -0.1303967853
C  C26  1  0.35720000  0.59810000  0.59570000  1.0 -0.1303967853
C  C27  1  0.85720000  0.90190000  0.59570000  1.0 -0.1303967853
C  C28  1  0.64280000  0.40190000  0.40430000  1.0 -0.1303967853
C  C29  1  0.19930000  0.14200000  0.37860000  1.0 -0.0211468596
C  C30  1  0.30070000  0.64200000  0.62140000  1.0 -0.0211468596
C  C31  1  0.80070000  0.85800000  0.62140000  1.0 -0.0211468596
C  C32  1  0.69930000  0.35800000  0.37860000  1.0 -0.0211468596
C  C33  1  0.20740000  0.13860000  0.32260000  1.0 -0.1035949577
C  C34  1  0.29260000  0.63860000  0.67740000  1.0 -0.1101688074
C  C35  1  0.79260000  0.86140000  0.67740000  1.0 -0.1035949577
C  C36  1  0.70740000  0.36140000  0.32260000  1.0 -0.1035949577
C  C37  1  0.15610000  0.09180000  0.29250000  1.0 0.0306406749
C  C38  1  0.34390000  0.59180000  0.70750000  1.0 0.0306406749
C  C39  1  0.84390000  0.90820000  0.70750000  1.0 0.0306406749
C  C40  1  0.65610000  0.40820000  0.29250000  1.0 0.0306406749
C  C41  1  0.12110000  0.88370000  0.28110000  1.0 0.0189392235
C  C42  1  0.37890000  0.38370000  0.71890000  1.0 0.0189392235
C  C43  1  0.87890000  0.11630000  0.71890000  1.0 0.0189392235
C  C44  1  0.62110000  0.61630000  0.28110000  1.0 0.0189392235
C  C45  1  0.17650000  0.84330000  0.31860000  1.0 -0.1101688074
C  C46  1  0.32350000  0.34330000  0.68140000  1.0 -0.1101688074
C  C47  1  0.82350000  0.15670000  0.68140000  1.0 -0.1101688074
C  C48  1  0.67650000  0.65670000  0.31860000  1.0 -0.1101688074
C  C49  1  0.10360000  0.79900000  0.33540000  1.0 -0.0395941096
C  C50  1  0.39640000  0.29900000  0.66460000  1.0 -0.0395941096
C  C51  1  0.89640000  0.20100000  0.66460000  1.0 -0.0395941096
C  C52  1  0.60360000  0.70100000  0.33540000  1.0 -0.0395941096
C  C53  1  0.97210000  0.79680000  0.31490000  1.0 -0.1481742364
C  C54  1  0.52790000  0.29680000  0.68510000  1.0 -0.1481742364
C  C55  1  0.02790000  0.20320000  0.68510000  1.0 -0.1481742364
C  C56  1  0.47210000  0.70320000  0.31490000  1.0 -0.1481742364
C  C57  1  0.91800000  0.83870000  0.27740000  1.0 0.1190577309
C  C58  1  0.58200000  0.33870000  0.72260000  1.0 0.1190577309
C  C59  1  0.08200000  0.16130000  0.72260000  1.0 0.1190577309
C  C60  1  0.41800000  0.66130000  0.27740000  1.0 0.1190577309
C  C61  1  0.78530000  0.83320000  0.24770000  1.0 0.1068548552
C  C62  1  0.71470000  0.33320000  0.75230000  1.0 0.1068548552
C  C63  1  0.21470000  0.16680000  0.75230000  1.0 0.1068548552
C  C64  1  0.28530000  0.66680000  0.24770000  1.0 0.1068548552
C  C65  1  0.75090000  0.78480000  0.21660000  1.0 -0.1481742364
C  C66  1  0.74910000  0.28480000  0.78340000  1.0 -0.1481742364
C  C67  1  0.24910000  0.21520000  0.78340000  1.0 -0.1481742364
C  C68  1  0.25090000  0.71520000  0.21660000  1.0 -0.1481742364
C  C69  1  0.62950000  0.78120000  0.18540000  1.0 -0.0395941096
C  C70  1  0.87050000  0.28120000  0.81460000  1.0 -0.0395941096
C  C71  1  0.37050000  0.21880000  0.81460000  1.0 -0.0395941096
C  C72  1  0.12950000  0.71880000  0.18540000  1.0 -0.0301558283
C  C73  1  0.54230000  0.82580000  0.18780000  1.0 -0.1101688074
C  C74  1  0.95770000  0.32580000  0.81220000  1.0 -0.1101688074
C  C75  1  0.45770000  0.17420000  0.81220000  1.0 -0.1101688074
C  C76  1  0.04230000  0.67420000  0.18780000  1.0 -0.1101688074
C  C77  1  0.57720000  0.87340000  0.22080000  1.0 0.0189392235
C  C78  1  0.92280000  0.37340000  0.77920000  1.0 0.0189392235
C  C79  1  0.42280000  0.12660000  0.77920000  1.0 0.0189392235
C  C80  1  0.07720000  0.62660000  0.22080000  1.0 0.0189392235
C  C81  1  0.53600000  0.02660000  0.12120000  1.0 0.043966123
C  C82  1  0.96400000  0.52660000  0.87880000  1.0 0.043966123
C  C83  1  0.46400000  0.97340000  0.87880000  1.0 0.043966123
C  C84  1  0.03600000  0.47340000  0.12120000  1.0 0.043966123
C  C85  1  0.48570000  0.06500000  0.08040000  1.0 -0.1101688074
C  C86  1  0.01430000  0.56500000  0.91960000  1.0 -0.1101688074
C  C87  1  0.51430000  0.93500000  0.91960000  1.0 -0.1101688074
C  C88  1  0.98570000  0.43500000  0.08040000  1.0 -0.1101688074
C  C89  1  0.56150000  0.08120000  0.03940000  1.0 -0.0211468596
C  C90  1  0.93850000  0.58120000  0.96060000  1.0 -0.0211468596
C  C91  1  0.43850000  0.91880000  0.96060000  1.0 -0.0211468596
C  C92  1  0.06150000  0.41880000  0.03940000  1.0 -0.0211468596
C  C93  1  0.68250000  0.05710000  0.04140000  1.0 -0.1379822155
C  C94  1  0.81750000  0.55710000  0.95860000  1.0 -0.1379822155
C  C95  1  0.31750000  0.94290000  0.95860000  1.0 -0.1379822155
C  C96  1  0.18250000  0.44290000  0.04140000  1.0 -0.1379822155
C  C97  1  0.72860000  0.01890000  0.08270000  1.0 0.1190577309
C  C98  1  0.77140000  0.51890000  0.91730000  1.0 0.1190577309
C  C99  1  0.27140000  0.98110000  0.91730000  1.0 0.1190577309
C  C100  1  0.22860000  0.48110000  0.08270000  1.0 0.1190577309
C  C101  1  0.85000000  0.98580000  0.08190000  1.0 0.1190577309
C  C102  1  0.65000000  0.48580000  0.91810000  1.0 0.1190577309
C  C103  1  0.15000000  0.01420000  0.91810000  1.0 0.1190577309
C  C104  1  0.35000000  0.51420000  0.08190000  1.0 0.1190577309
C  C105  1  0.86380000  0.95150000  0.03740000  1.0 -0.1379822155
C  C106  1  0.63620000  0.45150000  0.96260000  1.0 -0.1379822155
C  C107  1  0.13620000  0.04850000  0.96260000  1.0 -0.1379822155
C  C108  1  0.36380000  0.54850000  0.03740000  1.0 -0.1379822155
C  C109  1  0.97880000  0.92040000  0.03770000  1.0 -0.0301558283
C  C110  1  0.52120000  0.42040000  0.96230000  1.0 -0.0301558283
C  C111  1  0.02120000  0.07960000  0.96230000  1.0 -0.0301558283
C  C112  1  0.47880000  0.57960000  0.03770000  1.0 -0.0301558283
C  C113  1  0.07570000  0.92520000  0.08250000  1.0 -0.1101688074
C  C114  1  0.42430000  0.42520000  0.91750000  1.0 -0.1101688074
C  C115  1  0.92430000  0.07480000  0.91750000  1.0 -0.1101688074
C  C116  1  0.57570000  0.57480000  0.08250000  1.0 -0.1101688074
C  C117  1  0.05670000  0.96120000  0.12600000  1.0 0.043966123
C  C118  1  0.44330000  0.46120000  0.87400000  1.0 0.043966123
C  C119  1  0.94330000  0.03880000  0.87400000  1.0 0.043966123
C  C120  1  0.55670000  0.53880000  0.12600000  1.0 0.043966123
S  S1  1  0.11491000  0.87248000  0.50784000  1.0 1.1993030171
S  S2  1  0.38509000  0.37248000  0.49216000  1.0 1.1993030171
S  S3  1  0.88509000  0.12752000  0.49216000  1.0 1.1993030171
S  S4  1  0.61491000  0.62752000  0.50784000  1.0 1.1993030171
S  S5  1  0.25772000  0.20546000  0.41627000  1.0 1.1713519554
S  S6  1  0.24228000  0.70546000  0.58373000  1.0 1.1713519554
S  S7  1  0.74228000  0.79454000  0.58373000  1.0 1.1713519554
S  S8  1  0.75772000  0.29454000  0.41627000  1.0 1.1713519554
S  S9  1  0.16706000  0.74274000  0.38111000  1.0 1.2095999579
S  S10  1  0.33294000  0.24274000  0.61889000  1.0 1.2095999579
S  S11  1  0.83294000  0.25726000  0.61889000  1.0 1.2095999579
S  S12  1  0.66706000  0.75726000  0.38111000  1.0 1.2095999579
S  S13  1  0.59534000  0.72054000  0.14001000  1.0 1.1516273479
S  S14  1  0.90466000  0.22054000  0.85999000  1.0 1.1516273479
S  S15  1  0.40466000  0.27946000  0.85999000  1.0 1.1516273479
S  S16  1  0.09534000  0.77946000  0.14001000  1.0 1.1516273479
S  S17  1  0.98814000  0.87325000  0.98007000  1.0 1.1918450157
S  S18  1  0.51186000  0.37325000  0.01993000  1.0 1.1918450157
S  S19  1  0.01186000  0.12675000  0.01993000  1.0 1.1918450157
S  S20  1  0.48814000  0.62675000  0.98007000  1.0 1.1918450157
S  S21  1  0.49844000  0.12781000  0.98424000  1.0 1.1795631211
S  S22  1  0.00156000  0.62781000  0.01576000  1.0 1.1795631211
S  S23  1  0.50156000  0.87219000  0.01576000  1.0 1.1795631211
S  S24  1  0.99844000  0.37219000  0.98424000  1.0 1.1795631211
N  N1  1  0.89950000  0.99040000  0.37760000  1.0 0.3028317179
N  N2  1  0.60050000  0.49040000  0.62240000  1.0 0.3028317179
N  N3  1  0.10050000  0.00960000  0.62240000  1.0 0.3028317179
N  N4  1  0.39950000  0.50960000  0.37760000  1.0 0.3028317179
N  N5  1  0.09760000  0.04940000  0.31810000  1.0 0.2915151726
N  N6  1  0.40240000  0.54940000  0.68190000  1.0 0.2915151726
N  N7  1  0.90240000  0.95060000  0.68190000  1.0 0.2915151726
N  N8  1  0.59760000  0.45060000  0.31810000  1.0 0.2915151726
N  N9  1  0.99430000  0.88150000  0.26170000  1.0 0.3028317179
N  N10  1  0.50570000  0.38150000  0.73830000  1.0 0.3028317179
N  N11  1  0.00570000  0.11850000  0.73830000  1.0 0.3028317179
N  N12  1  0.49430000  0.61850000  0.26170000  1.0 0.3028317179
N  N13  1  0.69780000  0.87670000  0.24930000  1.0 0.3075090881
N  N14  1  0.80220000  0.37670000  0.75070000  1.0 0.3075090881
N  N15  1  0.30220000  0.12330000  0.75070000  1.0 0.3075090881
N  N16  1  0.19780000  0.62330000  0.24930000  1.0 0.3075090881
N  N17  1  0.94660000  0.99060000  0.12520000  1.0 0.2915151726
N  N18  1  0.55340000  0.49060000  0.87480000  1.0 0.2915151726
N  N19  1  0.05340000  0.00940000  0.87480000  1.0 0.2915151726
N  N20  1  0.44660000  0.50940000  0.12520000  1.0 0.2915151726
N  N21  1  0.65360000  0.00490000  0.12230000  1.0 0.2808123688
N  N22  1  0.84640000  0.50490000  0.87770000  1.0 0.2808123688
N  N23  1  0.34640000  0.99510000  0.87770000  1.0 0.2808123688
N  N24  1  0.15360000  0.49510000  0.12230000  1.0 0.2808123688
Cl  Cl1  1  0.85406000  0.51218000  0.23556000  1.0 -0.5471554165
Cl  Cl2  1  0.64594000  0.01218000  0.76444000  1.0 -0.5471554165
Cl  Cl3  1  0.14594000  0.48782000  0.76444000  1.0 -0.5388579176
Cl  Cl4  1  0.35406000  0.98782000  0.23556000  1.0 -0.5471554165
O  O1  1  0.83710000  0.02550000  0.33932000  1.0 -0.4332374026
O  O2  1  0.66290000  0.52550000  0.66068000  1.0 -0.4392520576
O  O3  1  0.16290000  0.97450000  0.66068000  1.0 -0.4392520576
O  O4  1  0.33710000  0.47450000  0.33932000  1.0 -0.4332374026
O  O5  1  0.04940000  0.00446000  0.28860000  1.0 -0.5172308822
O  O6  1  0.45060000  0.50446000  0.71140000  1.0 -0.5172308822
O  O7  1  0.95060000  0.99554000  0.71140000  1.0 -0.5172308822
O  O8  1  0.54940000  0.49554000  0.28860000  1.0 -0.5172308822
O  O9  1  0.94180000  0.91874000  0.22270000  1.0 -0.5388579176
O  O10  1  0.55820000  0.41874000  0.77730000  1.0 -0.5388579176
O  O11  1  0.05820000  0.08126000  0.77730000  1.0 -0.5388579176
O  O12  1  0.44180000  0.58126000  0.22270000  1.0 -0.5388579176
O  O13  1  0.73070000  0.92397000  0.27992000  1.0 -0.5388579176
O  O14  1  0.76930000  0.42397000  0.72008000  1.0 -0.5388579176
O  O15  1  0.26930000  0.07603000  0.72008000  1.0 -0.5388579176
O  O16  1  0.23070000  0.57603000  0.27992000  1.0 -0.5388579176
O  O17  1  0.70020000  0.96730000  0.16168000  1.0 -0.5095732847
O  O18  1  0.79980000  0.46730000  0.83832000  1.0 -0.5023712356
O  O19  1  0.29980000  0.03270000  0.83832000  1.0 -0.5023712356
O  O20  1  0.20020000  0.53270000  0.16168000  1.0 -0.5095732847
O  O21  1  0.93230000  0.02790000  0.16537000  1.0 -0.4392520576
O  O22  1  0.56770000  0.52790000  0.83463000  1.0 -0.4392520576
O  O23  1  0.06770000  0.97210000  0.83463000  1.0 -0.4392520576
O  O24  1  0.43230000  0.47210000  0.16537000  1.0 -0.4392520576
O  O25  1  0.22540000  0.85280000  0.48350000  1.0 -0.6498249684
O  O26  1  0.27460000  0.35280000  0.51650000  1.0 -0.6498249684
O  O27  1  0.77460000  0.14720000  0.51650000  1.0 -0.6498249684
O  O28  1  0.72540000  0.64720000  0.48350000  1.0 -0.6498249684
O  O29  1  0.02440000  0.82680000  0.51680000  1.0 -0.6220027714
O  O30  1  0.47560000  0.32680000  0.48320000  1.0 -0.6220027714
O  O31  1  0.97560000  0.17320000  0.48320000  1.0 -0.6220027714
O  O32  1  0.52440000  0.67320000  0.51680000  1.0 -0.6220027714
O  O33  1  0.15040000  0.90900000  0.55630000  1.0 -0.5471554165
O  O34  1  0.34960000  0.40900000  0.44370000  1.0 -0.5471554165
O  O35  1  0.84960000  0.09100000  0.44370000  1.0 -0.5471554165
O  O36  1  0.65040000  0.59100000  0.55630000  1.0 -0.5471554165
O  O37  1  0.28380000  0.18740000  0.47340000  1.0 -0.6416581263
O  O38  1  0.21620000  0.68740000  0.52660000  1.0 -0.6416581263
O  O39  1  0.71620000  0.81260000  0.52660000  1.0 -0.6416581263
O  O40  1  0.78380000  0.31260000  0.47340000  1.0 -0.6416581263
O  O41  1  0.15620000  0.24760000  0.40620000  1.0 -0.5627713613
O  O42  1  0.34380000  0.74760000  0.59380000  1.0 -0.5627713613
O  O43  1  0.84380000  0.75240000  0.59380000  1.0 -0.5627713613
O  O44  1  0.65620000  0.25240000  0.40620000  1.0 -0.5627713613
O  O45  1  0.37260000  0.22320000  0.39420000  1.0 -0.5711310048
O  O46  1  0.12740000  0.72320000  0.60580000  1.0 -0.5711310048
O  O47  1  0.62740000  0.77680000  0.60580000  1.0 -0.5711310048
O  O48  1  0.87260000  0.27680000  0.39420000  1.0 -0.5711310048
O  O49  1  0.08870000  0.74410000  0.42480000  1.0 -0.6498249684
O  O50  1  0.41130000  0.24410000  0.57520000  1.0 -0.6498249684
O  O51  1  0.91130000  0.25590000  0.57520000  1.0 -0.6498249684
O  O52  1  0.58870000  0.75590000  0.42480000  1.0 -0.6498249684
O  O53  1  0.29940000  0.75940000  0.40000000  1.0 -0.6416581263
O  O54  1  0.20060000  0.25940000  0.60000000  1.0 -0.6416581263
O  O55  1  0.70060000  0.24060000  0.60000000  1.0 -0.6416581263
O  O56  1  0.79940000  0.74060000  0.40000000  1.0 -0.6416581263
O  O57  1  0.15430000  0.68980000  0.34900000  1.0 -0.5911768366
O  O58  1  0.34570000  0.18980000  0.65100000  1.0 -0.5911768366
O  O59  1  0.84570000  0.31020000  0.65100000  1.0 -0.5911768366
O  O60  1  0.65430000  0.81020000  0.34900000  1.0 -0.5911768366
O  O61  1  0.52180000  0.68070000  0.16924000  1.0 -0.5095732847
O  O62  1  0.97820000  0.18070000  0.83076000  1.0 -0.5095732847
O  O63  1  0.47820000  0.31930000  0.83076000  1.0 -0.5095732847
O  O64  1  0.02180000  0.81930000  0.16924000  1.0 -0.5095732847
O  O65  1  0.72000000  0.69830000  0.13120000  1.0 -0.6220027714
O  O66  1  0.78000000  0.19830000  0.86880000  1.0 -0.6220027714
O  O67  1  0.28000000  0.30170000  0.86880000  1.0 -0.6220027714
O  O68  1  0.22000000  0.80170000  0.13120000  1.0 -0.6220027714
O  O69  1  0.52370000  0.74393000  0.08930000  1.0 -0.6416581263
O  O70  1  0.97630000  0.24393000  0.91070000  1.0 -0.6416581263
O  O71  1  0.47630000  0.25607000  0.91070000  1.0 -0.6416581263
O  O72  1  0.02370000  0.75607000  0.08930000  1.0 -0.6416581263
O  O73  1  0.87790000  0.83530000  0.97710000  1.0 -0.6120804431
O  O74  1  0.62210000  0.33530000  0.02290000  1.0 -0.6120804431
O  O75  1  0.12210000  0.16470000  0.02290000  1.0 -0.6120804431
O  O76  1  0.37790000  0.66470000  0.97710000  1.0 -0.6120804431
O  O77  1  0.11220000  0.84410000  0.99270000  1.0 -0.6278157522
O  O78  1  0.38780000  0.34410000  0.00730000  1.0 -0.6278157522
O  O79  1  0.88780000  0.15590000  0.00730000  1.0 -0.6278157522
O  O80  1  0.61220000  0.65590000  0.99270000  1.0 -0.6278157522
O  O81  1  0.98180000  0.91150000  0.93200000  1.0 -0.5627713613
O  O82  1  0.51820000  0.41150000  0.06800000  1.0 -0.5627713613
O  O83  1  0.01820000  0.08850000  0.06800000  1.0 -0.5627713613
O  O84  1  0.48180000  0.58850000  0.93200000  1.0 -0.5627713613
O  O85  1  0.60780000  0.14400000  0.95850000  1.0 -0.6120804431
O  O86  1  0.89220000  0.64400000  0.04150000  1.0 -0.6120804431
O  O87  1  0.39220000  0.85600000  0.04150000  1.0 -0.6120804431
O  O88  1  0.10780000  0.35600000  0.95850000  1.0 -0.6220027714
O  O89  1  0.40580000  0.09220000  0.94920000  1.0 -0.5308538889
O  O90  1  0.09420000  0.59220000  0.05080000  1.0 -0.5308538889
O  O91  1  0.59420000  0.90780000  0.05080000  1.0 -0.5308538889
O  O92  1  0.90580000  0.40780000  0.94920000  1.0 -0.5308538889
O  O93  1  0.44030000  0.17620000  0.01020000  1.0 -0.6220027714
O  O94  1  0.05970000  0.67620000  0.98980000  1.0 -0.6220027714
O  O95  1  0.55970000  0.82380000  0.98980000  1.0 -0.6220027714
O  O96  1  0.94030000  0.32380000  0.01020000  1.0 -0.6220027714
O  O97  1  0.62430000  0.04750000  0.24720000  1.0 -0.5308538889
O  O98  1  0.87570000  0.54750000  0.75280000  1.0 -0.5308538889
O  O99  1  0.37570000  0.95250000  0.75280000  1.0 -0.5308538889
O  O100  1  0.12430000  0.45250000  0.24720000  1.0 -0.5308538889
O  O101  1  0.86790000  0.10670000  0.24540000  1.0 -0.5627713613
O  O102  1  0.63210000  0.60670000  0.75460000  1.0 -0.5627713613
O  O103  1  0.13210000  0.89330000  0.75460000  1.0 -0.5627713613
O  O104  1  0.36790000  0.39330000  0.24540000  1.0 -0.5471554165
O  O105  1  0.78770000  0.83830000  0.10370000  1.0 -0.1218099857
O  O106  1  0.71230000  0.33830000  0.89630000  1.0 -0.1218099857
O  O107  1  0.21230000  0.16170000  0.89630000  1.0 -0.1379822155
O  O108  1  0.28770000  0.66170000  0.10370000  1.0 -0.1379822155
O  O109  1  0.43720000  0.88850000  0.57920000  1.0 -0.1303967853
O  O110  1  0.06280000  0.38850000  0.42080000  1.0 -0.1303967853
O  O111  1  0.56280000  0.11150000  0.42080000  1.0 -0.1218099857
O  O112  1  0.93720000  0.61150000  0.57920000  1.0 -0.1101688074
O  O113  1  0.76650000  0.72540000  0.91610000  1.0 -0.231915078
O  O114  1  0.73350000  0.22540000  0.08390000  1.0 -0.231915078
O  O115  1  0.23350000  0.27460000  0.08390000  1.0 -0.231915078
O  O116  1  0.26650000  0.77460000  0.91610000  1.0 -0.231915078
O  O117  1  0.50800000  0.87970000  0.42550000  1.0 0.1391698542
O  O118  1  0.99200000  0.37970000  0.57450000  1.0 0.1314049076
O  O119  1  0.49200000  0.12030000  0.57450000  1.0 0.1391698542
O  O120  1  0.00800000  0.62030000  0.42550000  1.0 0.1391698542
O  O121  1  0.49600000  0.90170000  0.45770000  1.0 0.1391698542
O  O122  1  0.00400000  0.40170000  0.54230000  1.0 0.1314049076
O  O123  1  0.50400000  0.09830000  0.54230000  1.0 0.1391698542
O  O124  1  0.99600000  0.59830000  0.45770000  1.0 0.1391698542
