# DDEC6 charges by PACMAN v1.1 (https://github.com/mtap-research/PACMAN-charge/)
data_VEQQOB_ASR_pacman
_symmetry_space_group_name_H-M   'P 1'
_cell_length_a   14.80680000
_cell_length_b   14.80680000
_cell_length_c   16.12050000
_cell_angle_alpha   90.00000000
_cell_angle_beta   90.00000000
_cell_angle_gamma   90.00000000
_symmetry_Int_Tables_number   1
_chemical_formula_structural   Cu8H32C60N32Cl5
_chemical_formula_sum   'Cu8 H32 C60 N32 Cl5'
_cell_volume   3534.27979965
_cell_formula_units_Z   1
loop_
 _symmetry_equiv_pos_site_id
 _symmetry_equiv_pos_as_xyz
  1  'x, y, z'
loop_
 _atom_site_type_symbol
 _atom_site_label
 _atom_site_symmetry_multiplicity
 _atom_site_fract_x
 _atom_site_fract_y
 _atom_site_fract_z
 _atom_site_occupancy
 _atom_site_charge
Cu  Cu1  1  0.76521000  0.76521000  0.34802000  1.0 0.321790418
Cu  Cu2  1  0.87829000  0.87829000  0.50513000  1.0 0.5553425163
Cu  Cu3  1  0.23479000  0.23479000  0.34802000  1.0 0.321790418
Cu  Cu4  1  0.12171000  0.12171000  0.50513000  1.0 0.5553425163
Cu  Cu5  1  0.76521000  0.23479000  0.65198000  1.0 0.321790418
Cu  Cu6  1  0.87829000  0.12171000  0.49487000  1.0 0.5553425163
Cu  Cu7  1  0.23479000  0.76521000  0.65198000  1.0 0.321790418
Cu  Cu8  1  0.12171000  0.87829000  0.49487000  1.0 0.5553425163
H  H1  1  0.62035000  0.88103000  0.24780000  1.0 0.1298660602
H  H2  1  0.54111000  0.88443000  0.12712000  1.0 0.1298660602
H  H3  1  0.75285000  0.10182000  0.18184000  1.0 0.1298660602
H  H4  1  0.67384000  0.10638000  0.05820000  1.0 0.1298660602
H  H5  1  0.37965000  0.11897000  0.24780000  1.0 0.1298660602
H  H6  1  0.45889000  0.11557000  0.12712000  1.0 0.1298660602
H  H7  1  0.24715000  0.89818000  0.18184000  1.0 0.1298660602
H  H8  1  0.32616000  0.89362000  0.05820000  1.0 0.1298660602
H  H9  1  0.88103000  0.37965000  0.75220000  1.0 0.1298660602
H  H10  1  0.88443000  0.45889000  0.87288000  1.0 0.1298660602
H  H11  1  0.10182000  0.24715000  0.81816000  1.0 0.1298660602
H  H12  1  0.10638000  0.32616000  0.94180000  1.0 0.1298660602
H  H13  1  0.11897000  0.62035000  0.75220000  1.0 0.1298660602
H  H14  1  0.11557000  0.54111000  0.87288000  1.0 0.1298660602
H  H15  1  0.89818000  0.75285000  0.81816000  1.0 0.1298660602
H  H16  1  0.89362000  0.67384000  0.94180000  1.0 0.1298660602
H  H17  1  0.37965000  0.88103000  0.75220000  1.0 0.1298660602
H  H18  1  0.45889000  0.88443000  0.87288000  1.0 0.1298660602
H  H19  1  0.24715000  0.10182000  0.81816000  1.0 0.1298660602
H  H20  1  0.32616000  0.10638000  0.94180000  1.0 0.1298660602
H  H21  1  0.62035000  0.11897000  0.75220000  1.0 0.1298660602
H  H22  1  0.54111000  0.11557000  0.87288000  1.0 0.1298660602
H  H23  1  0.75285000  0.89818000  0.81816000  1.0 0.1298660602
H  H24  1  0.67384000  0.89362000  0.94180000  1.0 0.1298660602
H  H25  1  0.11897000  0.37965000  0.24780000  1.0 0.1298660602
H  H26  1  0.11557000  0.45889000  0.12712000  1.0 0.1298660602
H  H27  1  0.89818000  0.24715000  0.18184000  1.0 0.1298660602
H  H28  1  0.89362000  0.32616000  0.05820000  1.0 0.1298660602
H  H29  1  0.88103000  0.62035000  0.24780000  1.0 0.1298660602
H  H30  1  0.88443000  0.54111000  0.12712000  1.0 0.1298660602
H  H31  1  0.10182000  0.75285000  0.18184000  1.0 0.1298660602
H  H32  1  0.10638000  0.67384000  0.05820000  1.0 0.1298660602
C  C1  1  0.69420000  0.99120000  0.22740000  1.0 0.0336896911
C  C2  1  0.59810000  0.99600000  0.07870000  1.0 0.0761962937
C  C3  1  0.74530000  0.99250000  0.30640000  1.0 0.2471747439
C  C4  1  0.63120000  0.92700000  0.20980000  1.0 -0.1182124321
C  C5  1  0.58390000  0.92900000  0.13740000  1.0 -0.1501077401
C  C6  1  0.70980000  0.05770000  0.17060000  1.0 -0.1182124321
C  C7  1  0.66230000  0.06060000  0.09630000  1.0 -0.1501077401
C  C8  1  0.30580000  0.00880000  0.22740000  1.0 0.0336896911
C  C9  1  0.40190000  0.00400000  0.07870000  1.0 0.0761962937
C  C10  1  0.25470000  0.00750000  0.30640000  1.0 0.2471747439
C  C11  1  0.36880000  0.07300000  0.20980000  1.0 -0.1182124321
C  C12  1  0.41610000  0.07100000  0.13740000  1.0 -0.1501077401
C  C13  1  0.29020000  0.94230000  0.17060000  1.0 -0.1182124321
C  C14  1  0.33770000  0.93940000  0.09630000  1.0 -0.1501077401
C  C15  1  0.99120000  0.30580000  0.77260000  1.0 0.0336896911
C  C16  1  0.99600000  0.40190000  0.92130000  1.0 0.0761962937
C  C17  1  0.99250000  0.25470000  0.69360000  1.0 0.2471747439
C  C18  1  0.92700000  0.36880000  0.79020000  1.0 -0.1182124321
C  C19  1  0.92900000  0.41610000  0.86260000  1.0 -0.1501077401
C  C20  1  0.05770000  0.29020000  0.82940000  1.0 -0.1148521915
C  C21  1  0.06060000  0.33770000  0.90370000  1.0 -0.1501077401
C  C22  1  0.00880000  0.69420000  0.77260000  1.0 0.0336896911
C  C23  1  0.00400000  0.59810000  0.92130000  1.0 0.0761962937
C  C24  1  0.00750000  0.74530000  0.69360000  1.0 0.2471747439
C  C25  1  0.07300000  0.63120000  0.79020000  1.0 -0.1182124321
C  C26  1  0.07100000  0.58390000  0.86260000  1.0 -0.1501077401
C  C27  1  0.94230000  0.70980000  0.82940000  1.0 -0.1182124321
C  C28  1  0.93940000  0.66230000  0.90370000  1.0 -0.1501077401
C  C29  1  0.30580000  0.99120000  0.77260000  1.0 0.0336896911
C  C30  1  0.40190000  0.99600000  0.92130000  1.0 0.0761962937
C  C31  1  0.25470000  0.99250000  0.69360000  1.0 0.2471747439
C  C32  1  0.36880000  0.92700000  0.79020000  1.0 -0.1182124321
C  C33  1  0.41610000  0.92900000  0.86260000  1.0 -0.1501077401
C  C34  1  0.29020000  0.05770000  0.82940000  1.0 -0.1182124321
C  C35  1  0.33770000  0.06060000  0.90370000  1.0 -0.1501077401
C  C36  1  0.69420000  0.00880000  0.77260000  1.0 0.0336896911
C  C37  1  0.59810000  0.00400000  0.92130000  1.0 0.0761962937
C  C38  1  0.74530000  0.00750000  0.69360000  1.0 0.2471747439
C  C39  1  0.63120000  0.07300000  0.79020000  1.0 -0.1182124321
C  C40  1  0.58390000  0.07100000  0.86260000  1.0 -0.1501077401
C  C41  1  0.70980000  0.94230000  0.82940000  1.0 -0.1148521915
C  C42  1  0.66230000  0.93940000  0.90370000  1.0 -0.1501077401
C  C43  1  0.00880000  0.30580000  0.22740000  1.0 0.0336896911
C  C44  1  0.00400000  0.40190000  0.07870000  1.0 0.0761962937
C  C45  1  0.00750000  0.25470000  0.30640000  1.0 0.2471747439
C  C46  1  0.07300000  0.36880000  0.20980000  1.0 -0.1182124321
C  C47  1  0.07100000  0.41610000  0.13740000  1.0 -0.1501077401
C  C48  1  0.94230000  0.29020000  0.17060000  1.0 -0.1182124321
C  C49  1  0.93940000  0.33770000  0.09630000  1.0 -0.1501077401
C  C50  1  0.99120000  0.69420000  0.22740000  1.0 0.0336896911
C  C51  1  0.99600000  0.59810000  0.07870000  1.0 0.0761962937
C  C52  1  0.99250000  0.74530000  0.30640000  1.0 0.2471747439
C  C53  1  0.92700000  0.63120000  0.20980000  1.0 -0.1182124321
C  C54  1  0.92900000  0.58390000  0.13740000  1.0 -0.1501077401
C  C55  1  0.05770000  0.70980000  0.17060000  1.0 -0.1182124321
C  C56  1  0.06060000  0.66230000  0.09630000  1.0 -0.1501077401
C  C57  1  0.54570000  0.00000000  0.00000000  1.0 -0.0270992793
C  C58  1  0.45430000  0.00000000  0.00000000  1.0 -0.0270992793
C  C59  1  0.00000000  0.45430000  0.00000000  1.0 -0.0270992793
C  C60  1  0.00000000  0.54570000  0.00000000  1.0 -0.0270992793
N  N1  1  0.77460000  0.06880000  0.34090000  1.0 -0.2314588368
N  N2  1  0.81730000  0.04180000  0.41010000  1.0 -0.0201600786
N  N3  1  0.81290000  0.95350000  0.41470000  1.0 -0.0037545302
N  N4  1  0.76870000  0.91870000  0.35180000  1.0 -0.217544952
N  N5  1  0.22540000  0.93120000  0.34090000  1.0 -0.2314588368
N  N6  1  0.18270000  0.95820000  0.41010000  1.0 -0.0201600786
N  N7  1  0.18710000  0.04650000  0.41470000  1.0 -0.0037545302
N  N8  1  0.23130000  0.08130000  0.35180000  1.0 -0.217544952
N  N9  1  0.06880000  0.22540000  0.65910000  1.0 -0.2314588368
N  N10  1  0.04180000  0.18270000  0.58990000  1.0 -0.0201600786
N  N11  1  0.95350000  0.18710000  0.58530000  1.0 -0.0037545302
N  N12  1  0.91870000  0.23130000  0.64820000  1.0 -0.217544952
N  N13  1  0.93120000  0.77460000  0.65910000  1.0 -0.2314588368
N  N14  1  0.95820000  0.81730000  0.58990000  1.0 -0.0201600786
N  N15  1  0.04650000  0.81290000  0.58530000  1.0 -0.0037545302
N  N16  1  0.08130000  0.76870000  0.64820000  1.0 -0.217544952
N  N17  1  0.22540000  0.06880000  0.65910000  1.0 -0.2314588368
N  N18  1  0.18270000  0.04180000  0.58990000  1.0 -0.0201600786
N  N19  1  0.18710000  0.95350000  0.58530000  1.0 -0.0037545302
N  N20  1  0.23130000  0.91870000  0.64820000  1.0 -0.217544952
N  N21  1  0.77460000  0.93120000  0.65910000  1.0 -0.2314588368
N  N22  1  0.81730000  0.95820000  0.58990000  1.0 -0.0201600786
N  N23  1  0.81290000  0.04650000  0.58530000  1.0 -0.0037545302
N  N24  1  0.76870000  0.08130000  0.64820000  1.0 -0.217544952
N  N25  1  0.93120000  0.22540000  0.34090000  1.0 -0.2314588368
N  N26  1  0.95820000  0.18270000  0.41010000  1.0 -0.0201600786
N  N27  1  0.04650000  0.18710000  0.41470000  1.0 -0.0037545302
N  N28  1  0.08130000  0.23130000  0.35180000  1.0 -0.217544952
N  N29  1  0.06880000  0.77460000  0.34090000  1.0 -0.2314588368
N  N30  1  0.04180000  0.81730000  0.41010000  1.0 -0.0201600786
N  N31  1  0.95350000  0.81290000  0.41470000  1.0 -0.0037545302
N  N32  1  0.91870000  0.76870000  0.35180000  1.0 -0.217544952
Cl  Cl1  1  0.76006000  0.76006000  0.49090000  1.0 -0.4423220247
Cl  Cl2  1  0.23994000  0.23994000  0.49090000  1.0 -0.4423220247
Cl  Cl3  1  0.76006000  0.23994000  0.50910000  1.0 -0.4423220247
Cl  Cl4  1  0.23994000  0.76006000  0.50910000  1.0 -0.4423220247
Cl  Cl5  1  0.00000000  0.00000000  0.50000000  1.0 -0.5732968241
