# DDEC6 charges by PACMAN v1.1 (https://github.com/mtap-research/PACMAN-charge/)
data_VEQYUP_FSR_pacman
_symmetry_space_group_name_H-M   'P 1'
_cell_length_a   15.77260000
_cell_length_b   15.77260000
_cell_length_c   15.77260000
_cell_angle_alpha   120.12900000
_cell_angle_beta   120.12900000
_cell_angle_gamma   89.77620000
_symmetry_Int_Tables_number   1
_chemical_formula_structural   CuH9C9(N4O)2
_chemical_formula_sum   'Cu8 H72 C72 N64 O16'
_cell_volume   2769.14434720
_cell_formula_units_Z   8
loop_
 _symmetry_equiv_pos_site_id
 _symmetry_equiv_pos_as_xyz
  1  'x, y, z'
loop_
 _atom_site_type_symbol
 _atom_site_label
 _atom_site_symmetry_multiplicity
 _atom_site_fract_x
 _atom_site_fract_y
 _atom_site_fract_z
 _atom_site_occupancy
 _atom_site_charge
Cu  Cu1  1  0.97181000  0.70356000  0.81545000  1.0 0.6705932035
Cu  Cu2  1  0.88811000  0.15636000  0.18455000  1.0 0.6705932035
Cu  Cu3  1  0.45356000  0.13811000  0.23175000  1.0 0.6705932035
Cu  Cu4  1  0.90636000  0.22181000  0.76825000  1.0 0.6705932035
Cu  Cu5  1  0.77819000  0.54644000  0.68455000  1.0 0.6705932035
Cu  Cu6  1  0.86189000  0.09364000  0.31545000  1.0 0.6705932035
Cu  Cu7  1  0.29644000  0.11189000  0.26825000  1.0 0.6705932035
Cu  Cu8  1  0.84364000  0.02819000  0.73175000  1.0 0.6705932035
H  H1  1  0.91743000  0.50376000  0.45005000  1.0 0.0917525305
H  H2  1  0.83760000  0.40651000  0.40491000  1.0 0.1203327118
H  H3  1  0.96518000  0.90255000  0.81435000  1.0 0.1323806459
H  H4  1  0.56567000  0.58146000  0.58395000  1.0 0.0669742231
H  H5  1  0.51585000  0.81950000  0.51103000  1.0 0.1323806459
H  H6  1  0.61980000  0.89941000  0.58987000  1.0 0.2525366185
H  H7  1  0.52273000  0.85210000  0.56919000  1.0 0.1400511974
H  H8  1  0.62467000  0.91311000  0.61292000  1.0 0.2562550022
H  H9  1  0.56447000  0.54924000  0.52215000  1.0 0.0669742231
H  H10  1  0.05371000  0.46738000  0.54995000  1.0 0.0917525305
H  H11  1  0.00160000  0.43269000  0.59509000  1.0 0.1203327118
H  H12  1  0.08820000  0.15083000  0.18565000  1.0 0.1323806459
H  H13  1  0.99751000  0.98172000  0.41605000  1.0 0.0669742231
H  H14  1  0.30847000  0.00482000  0.48897000  1.0 0.1323806459
H  H15  1  0.30954000  0.02993000  0.41013000  1.0 0.2525366185
H  H16  1  0.28291000  0.95354000  0.43081000  1.0 0.1400511974
H  H17  1  0.30019000  0.01175000  0.38708000  1.0 0.2562550022
H  H18  1  0.02709000  0.04232000  0.47785000  1.0 0.0669742231
H  H19  1  0.25376000  0.30371000  0.08633000  1.0 0.0917525305
H  H20  1  0.15651000  0.25160000  0.06891000  1.0 0.1203327118
H  H21  1  0.65255000  0.33820000  0.43737000  1.0 0.1323806459
H  H22  1  0.33146000  0.24751000  0.51579000  1.0 0.0669742231
H  H23  1  0.56950000  0.55847000  0.80365000  1.0 0.1400511974
H  H24  1  0.64941000  0.55954000  0.77961000  1.0 0.2525366185
H  H25  1  0.60210000  0.53291000  0.82937000  1.0 0.1400511974
H  H26  1  0.66311000  0.55019000  0.78844000  1.0 0.2562550022
H  H27  1  0.29924000  0.27709000  0.48477000  1.0 0.0669742231
H  H28  1  0.21738000  0.16743000  0.91367000  1.0 0.0917525305
H  H29  1  0.18269000  0.08760000  0.93109000  1.0 0.1203327118
H  H30  1  0.90083000  0.21518000  0.56263000  1.0 0.1323806459
H  H31  1  0.73172000  0.81567000  0.48421000  1.0 0.0669742231
H  H32  1  0.75482000  0.76585000  0.19635000  1.0 0.1323806459
H  H33  1  0.77993000  0.86980000  0.22039000  1.0 0.2525366185
H  H34  1  0.70354000  0.77273000  0.17063000  1.0 0.1400511974
H  H35  1  0.76175000  0.87467000  0.21156000  1.0 0.2562550022
H  H36  1  0.79232000  0.81447000  0.51523000  1.0 0.0669742231
H  H37  1  0.83257000  0.74624000  0.04995000  1.0 0.0917525305
H  H38  1  0.91240000  0.84349000  0.09509000  1.0 0.1203327118
H  H39  1  0.78482000  0.34745000  0.68565000  1.0 0.1323806459
H  H40  1  0.18433000  0.66854000  0.91605000  1.0 0.0669742231
H  H41  1  0.23415000  0.43050000  0.98897000  1.0 0.1400511974
H  H42  1  0.13020000  0.35059000  0.91013000  1.0 0.2525366185
H  H43  1  0.22727000  0.39790000  0.93081000  1.0 0.1400511974
H  H44  1  0.12533000  0.33689000  0.88708000  1.0 0.2562550022
H  H45  1  0.18553000  0.70076000  0.97785000  1.0 0.0669742231
H  H46  1  0.69629000  0.78262000  0.95005000  1.0 0.0917525305
H  H47  1  0.74840000  0.81731000  0.90491000  1.0 0.1203327118
H  H48  1  0.66180000  0.09917000  0.31435000  1.0 0.1323806459
H  H49  1  0.75249000  0.26828000  0.08395000  1.0 0.0669742231
H  H50  1  0.44153000  0.24518000  0.01103000  1.0 0.1323806459
H  H51  1  0.44046000  0.22007000  0.08987000  1.0 0.2525366185
H  H52  1  0.46709000  0.29646000  0.06919000  1.0 0.1400511974
H  H53  1  0.44981000  0.23825000  0.11292000  1.0 0.2562550022
H  H54  1  0.72291000  0.20768000  0.02215000  1.0 0.0669742231
H  H55  1  0.49624000  0.94629000  0.41367000  1.0 0.0917525305
H  H56  1  0.59349000  0.99840000  0.43109000  1.0 0.1203327118
H  H57  1  0.09745000  0.91180000  0.06263000  1.0 0.1323806459
H  H58  1  0.41854000  0.00249000  0.98421000  1.0 0.0669742231
H  H59  1  0.18050000  0.69153000  0.69635000  1.0 0.1400511974
H  H60  1  0.10059000  0.69046000  0.72039000  1.0 0.2525366185
H  H61  1  0.14790000  0.71709000  0.67063000  1.0 0.1400511974
H  H62  1  0.08689000  0.69981000  0.71156000  1.0 0.2562550022
H  H63  1  0.45076000  0.97291000  0.01523000  1.0 0.0669742231
H  H64  1  0.53262000  0.08257000  0.58633000  1.0 0.0917525305
H  H65  1  0.56731000  0.16240000  0.56891000  1.0 0.1203327118
H  H66  1  0.84917000  0.03482000  0.93737000  1.0 0.1323806459
H  H67  1  0.01828000  0.43433000  0.01579000  1.0 0.0669742231
H  H68  1  0.99518000  0.48415000  0.30365000  1.0 0.1323806459
H  H69  1  0.97007000  0.38020000  0.27961000  1.0 0.2525366185
H  H70  1  0.04646000  0.47727000  0.32937000  1.0 0.1400511974
H  H71  1  0.98825000  0.37533000  0.28844000  1.0 0.2562550022
H  H72  1  0.95768000  0.43553000  0.98477000  1.0 0.0669742231
C  C1  1  0.88110000  0.53440000  0.56790000  1.0 0.5903303264
C  C2  1  0.90040000  0.46530000  0.47490000  1.0 -0.3115483099
C  C3  1  0.89700000  0.86110000  0.77050000  1.0 0.1323806459
C  C4  1  0.77280000  0.73470000  0.68850000  1.0 0.3065140782
C  C5  1  0.73400000  0.80480000  0.66666667  1.0 -0.0808078335
C  C6  1  0.61010000  0.63960000  0.60790000  1.0 0.1400511974
C  C7  1  0.63050000  0.79230000  0.61700000  1.0 0.2005978557
C  C8  1  0.60860000  0.61420000  0.55980000  1.0 0.1400511974
C  C9  1  0.62820000  0.77550000  0.58670000  1.0 0.2005978557
C  C10  1  0.96650000  0.31320000  0.43210000  1.0 0.5903303264
C  C11  1  0.99040000  0.42550000  0.52510000  1.0 -0.3115483099
C  C12  1  0.09060000  0.12650000  0.22950000  1.0 0.1323806459
C  C13  1  0.04620000  0.08430000  0.31150000  1.0 0.3065140782
C  C14  1  0.13820000  0.06740000  0.33340000  1.0 -0.0808078335
C  C15  1  0.03170000  0.00220000  0.39210000  1.0 0.1400511974
C  C16  1  0.17530000  0.01350000  0.38300000  1.0 0.2005978557
C  C17  1  0.05440000  0.04880000  0.44020000  1.0 0.1400511974
C  C18  1  0.18880000  0.04150000  0.41330000  1.0 0.2005978557
C  C19  1  0.28440000  0.21650000  0.15330000  1.0 0.5903303264
C  C20  1  0.21530000  0.24040000  0.06490000  1.0 -0.3115483099
C  C21  1  0.61110000  0.34060000  0.46410000  1.0 0.1323806459
C  C22  1  0.48470000  0.29620000  0.46190000  1.0 0.3065140782
C  C23  1  0.55480000  0.38820000  0.57080000  1.0 -0.0808078335
C  C24  1  0.38960000  0.28170000  0.52950000  1.0 0.1400511974
C  C25  1  0.54230000  0.42530000  0.66180000  1.0 0.2005978557
C  C26  1  0.36420000  0.30440000  0.50560000  1.0 0.1400511974
C  C27  1  0.52550000  0.43880000  0.64730000  1.0 0.2005978557
C  C28  1  0.06320000  0.13110000  0.84670000  1.0 0.5903303264
C  C29  1  0.17550000  0.15040000  0.93510000  1.0 -0.3115483099
C  C30  1  0.87650000  0.14700000  0.53590000  1.0 0.1323806459
C  C31  1  0.83430000  0.02280000  0.53810000  1.0 0.3065140782
C  C32  1  0.81740000  0.98400000  0.42920000  1.0 -0.0808078335
C  C33  1  0.75220000  0.86010000  0.47050000  1.0 0.1400511974
C  C34  1  0.76350000  0.88050000  0.33820000  1.0 0.2005978557
C  C35  1  0.79880000  0.85860000  0.49440000  1.0 0.1400511974
C  C36  1  0.79150000  0.87820000  0.35270000  1.0 0.2005978557
C  C37  1  0.86890000  0.71560000  0.93210000  1.0 0.5903303264
C  C38  1  0.84960000  0.78470000  0.02510000  1.0 -0.3115483099
C  C39  1  0.85300000  0.38890000  0.72950000  1.0 0.1323806459
C  C40  1  0.97720000  0.51530000  0.81150000  1.0 0.3065140782
C  C41  1  0.01600000  0.44520000  0.83340000  1.0 -0.0808078335
C  C42  1  0.13990000  0.61040000  0.89210000  1.0 0.1400511974
C  C43  1  0.11950000  0.45770000  0.88300000  1.0 0.2005978557
C  C44  1  0.14140000  0.63580000  0.94020000  1.0 0.1400511974
C  C45  1  0.12180000  0.47450000  0.91330000  1.0 0.2005978557
C  C46  1  0.78350000  0.93680000  0.06790000  1.0 0.5903303264
C  C47  1  0.75960000  0.82450000  0.97490000  1.0 -0.3115483099
C  C48  1  0.65940000  0.12350000  0.27050000  1.0 0.1323806459
C  C49  1  0.70380000  0.16570000  0.18850000  1.0 0.3065140782
C  C50  1  0.61180000  0.18260000  0.16660000  1.0 -0.0808078335
C  C51  1  0.71830000  0.24780000  0.10790000  1.0 0.1400511974
C  C52  1  0.57470000  0.23650000  0.11700000  1.0 0.2005978557
C  C53  1  0.69560000  0.20120000  0.05980000  1.0 0.1400511974
C  C54  1  0.56120000  0.20850000  0.08670000  1.0 0.2005978557
C  C55  1  0.46560000  0.03350000  0.34670000  1.0 0.5903303264
C  C56  1  0.53470000  0.00960000  0.43510000  1.0 -0.3115483099
C  C57  1  0.13890000  0.90940000  0.03590000  1.0 0.1323806459
C  C58  1  0.26530000  0.95380000  0.03810000  1.0 0.3065140782
C  C59  1  0.19520000  0.86180000  0.92920000  1.0 -0.0808078335
C  C60  1  0.36040000  0.96830000  0.97050000  1.0 0.1400511974
C  C61  1  0.20770000  0.82470000  0.83820000  1.0 0.2005978557
C  C62  1  0.38580000  0.94560000  0.99440000  1.0 0.1400511974
C  C63  1  0.22450000  0.81120000  0.85270000  1.0 0.2005978557
C  C64  1  0.68680000  0.11890000  0.65330000  1.0 0.5903303264
C  C65  1  0.57450000  0.09960000  0.56490000  1.0 -0.3115483099
C  C66  1  0.87350000  0.10300000  0.96410000  1.0 0.1323806459
C  C67  1  0.91570000  0.22720000  0.96190000  1.0 0.3065140782
C  C68  1  0.93260000  0.26600000  0.07080000  1.0 -0.0808078335
C  C69  1  0.99780000  0.38990000  0.02950000  1.0 0.1400511974
C  C70  1  0.98650000  0.36950000  0.16180000  1.0 0.2005978557
C  C71  1  0.95120000  0.39140000  0.00560000  1.0 0.1400511974
C  C72  1  0.95850000  0.37180000  0.14730000  1.0 0.2005978557
N  N1  1  0.71120000  0.64920000  0.65720000  1.0 -0.3550406383
N  N2  1  0.57020000  0.70940000  0.59180000  1.0 -0.1697962693
N  N3  1  0.58740000  0.86090000  0.59730000  1.0 -0.2111322922
N  N4  1  0.87418000  0.76988000  0.75350000  1.0 -0.3486927518
N  N5  1  0.81642000  0.88892000  0.72110000  1.0 -0.3766843589
N  N6  1  0.71170000  0.63800000  0.63530000  1.0 -0.3550406383
N  N7  1  0.56740000  0.68050000  0.53710000  1.0 -0.1644965546
N  N8  1  0.58230000  0.83920000  0.55910000  1.0 -0.2360522827
N  N9  1  0.99200000  0.05400000  0.34280000  1.0 -0.3550406383
N  N10  1  0.11760000  0.97840000  0.40820000  1.0 -0.1697962693
N  N11  1  0.26360000  0.99010000  0.40270000  1.0 -0.2111322922
N  N12  1  0.01638000  0.12068000  0.24650000  1.0 -0.3486927518
N  N13  1  0.16782000  0.09532000  0.27890000  1.0 -0.3766843589
N  N14  1  0.00270000  0.07640000  0.36470000  1.0 -0.3486927518
N  N15  1  0.14340000  0.03030000  0.46290000  1.0 -0.1644965546
N  N16  1  0.28010000  0.02320000  0.44090000  1.0 -0.2360522827
N  N17  1  0.39920000  0.24200000  0.43800000  1.0 -0.3550406383
N  N18  1  0.45940000  0.36760000  0.63920000  1.0 -0.1697962693
N  N19  1  0.61090000  0.51360000  0.77350000  1.0 -0.2111322922
N  N20  1  0.51988000  0.26638000  0.39570000  1.0 -0.3486927518
N  N21  1  0.63892000  0.41782000  0.57250000  1.0 -0.3766843589
N  N22  1  0.38800000  0.25270000  0.42630000  1.0 -0.3486927518
N  N23  1  0.43050000  0.39340000  0.61310000  1.0 -0.1644965546
N  N24  1  0.58920000  0.53010000  0.75690000  1.0 -0.2360522827
N  N25  1  0.80400000  0.96120000  0.56200000  1.0 -0.3550406383
N  N26  1  0.72840000  0.82020000  0.36080000  1.0 -0.1697962693
N  N27  1  0.74010000  0.83740000  0.22650000  1.0 -0.2111322922
N  N28  1  0.87068000  0.12418000  0.60430000  1.0 -0.3486927518
N  N29  1  0.84532000  0.06642000  0.42750000  1.0 -0.3766843589
N  N30  1  0.82640000  0.96170000  0.57370000  1.0 -0.3550406383
N  N31  1  0.78030000  0.81740000  0.38690000  1.0 -0.1697962693
N  N32  1  0.77320000  0.83230000  0.24310000  1.0 -0.2360522827
N  N33  1  0.03880000  0.60080000  0.84280000  1.0 -0.3550406383
N  N34  1  0.17980000  0.54060000  0.90820000  1.0 -0.1697962693
N  N35  1  0.16260000  0.38910000  0.90270000  1.0 -0.2111322922
N  N36  1  0.87582000  0.48012000  0.74650000  1.0 -0.3486927518
N  N37  1  0.93358000  0.36108000  0.77890000  1.0 -0.3766843589
N  N38  1  0.03830000  0.61200000  0.86470000  1.0 -0.3550406383
N  N39  1  0.18260000  0.56950000  0.96290000  1.0 -0.1697962693
N  N40  1  0.16770000  0.41080000  0.94090000  1.0 -0.2360522827
N  N41  1  0.75800000  0.19600000  0.15720000  1.0 -0.3550406383
N  N42  1  0.63240000  0.27160000  0.09180000  1.0 -0.1697962693
N  N43  1  0.48640000  0.25990000  0.09730000  1.0 -0.2111322922
N  N44  1  0.73362000  0.12932000  0.25350000  1.0 -0.3486927518
N  N45  1  0.58218000  0.15468000  0.22110000  1.0 -0.3766843589
N  N46  1  0.74730000  0.17360000  0.13530000  1.0 -0.3550406383
N  N47  1  0.60660000  0.21970000  0.03710000  1.0 -0.1644965546
N  N48  1  0.46990000  0.22680000  0.05910000  1.0 -0.2360522827
N  N49  1  0.35080000  0.00800000  0.06200000  1.0 -0.3550406383
N  N50  1  0.29060000  0.88240000  0.86080000  1.0 -0.1697962693
N  N51  1  0.13910000  0.73640000  0.72650000  1.0 -0.2111322922
N  N52  1  0.23012000  0.98362000  0.10430000  1.0 -0.3486927518
N  N53  1  0.11108000  0.83218000  0.92750000  1.0 -0.3766843589
N  N54  1  0.36200000  0.99730000  0.07370000  1.0 -0.3486927518
N  N55  1  0.31950000  0.85660000  0.88690000  1.0 -0.1697962693
N  N56  1  0.16080000  0.71990000  0.74310000  1.0 -0.2360522827
N  N57  1  0.94600000  0.28880000  0.93800000  1.0 -0.3550406383
N  N58  1  0.02160000  0.42980000  0.13920000  1.0 -0.1697962693
N  N59  1  0.00990000  0.41260000  0.27350000  1.0 -0.2111322922
N  N60  1  0.87932000  0.12582000  0.89570000  1.0 -0.3486927518
N  N61  1  0.90468000  0.18358000  0.07250000  1.0 -0.3766843589
N  N62  1  0.92360000  0.28830000  0.92630000  1.0 -0.3550406383
N  N63  1  0.96970000  0.43260000  0.11310000  1.0 -0.1697962693
N  N64  1  0.97680000  0.41770000  0.25690000  1.0 -0.2360522827
O  O1  1  0.95368000  0.61758000  0.65750000  1.0 -0.5331296758
O  O2  1  0.80215000  0.50035000  0.55660000  1.0 -0.50093961
O  O3  1  0.96008000  0.29618000  0.34250000  1.0 -0.5331296758
O  O4  1  0.94375000  0.24555000  0.44340000  1.0 -0.50093961
O  O5  1  0.36758000  0.21008000  0.16390000  1.0 -0.5331296758
O  O6  1  0.25035000  0.19375000  0.19820000  1.0 -0.50093961
O  O7  1  0.04618000  0.20368000  0.83610000  1.0 -0.5331296758
O  O8  1  0.99555000  0.05215000  0.80180000  1.0 -0.50093961
O  O9  1  0.79632000  0.63242000  0.84250000  1.0 -0.5331296758
O  O10  1  0.94785000  0.74965000  0.94340000  1.0 -0.50093961
O  O11  1  0.78992000  0.95382000  0.15750000  1.0 -0.5331296758
O  O12  1  0.80625000  0.00445000  0.05660000  1.0 -0.50093961
O  O13  1  0.38242000  0.03992000  0.33610000  1.0 -0.5331296758
O  O14  1  0.49965000  0.05625000  0.30180000  1.0 -0.50093961
O  O15  1  0.70382000  0.04632000  0.66390000  1.0 -0.5331296758
O  O16  1  0.75445000  0.19785000  0.69820000  1.0 -0.50093961
