# DDEC6 charges by PACMAN v1.1 (https://github.com/mtap-research/PACMAN-charge/)
data_VEQYOJ_FSR_pacman
_symmetry_space_group_name_H-M   'P 1'
_cell_length_a   15.85740000
_cell_length_b   15.85740000
_cell_length_c   15.85740000
_cell_angle_alpha   120.50800000
_cell_angle_beta   120.50800000
_cell_angle_gamma   89.12170000
_symmetry_Int_Tables_number   1
_chemical_formula_structural   CuH9C9N7O2
_chemical_formula_sum   'Cu8 H72 C72 N56 O16'
_cell_volume   2797.56738988
_cell_formula_units_Z   8
loop_
 _symmetry_equiv_pos_site_id
 _symmetry_equiv_pos_as_xyz
  1  'x, y, z'
loop_
 _atom_site_type_symbol
 _atom_site_label
 _atom_site_symmetry_multiplicity
 _atom_site_fract_x
 _atom_site_fract_y
 _atom_site_fract_z
 _atom_site_occupancy
 _atom_site_charge
Cu  Cu1  1  0.77806000  0.09891000  0.23261000  1.0 0.5838028117
Cu  Cu2  1  0.86630000  0.54545000  0.76739000  1.0 0.5838028117
Cu  Cu3  1  0.84891000  0.11630000  0.82085000  1.0 0.5852395561
Cu  Cu4  1  0.29545000  0.02806000  0.17915000  1.0 0.5838028117
Cu  Cu5  1  0.97194000  0.15109000  0.26739000  1.0 0.5838028117
Cu  Cu6  1  0.88370000  0.70455000  0.73261000  1.0 0.5838028117
Cu  Cu7  1  0.90109000  0.13370000  0.67915000  1.0 0.5838028117
Cu  Cu8  1  0.45455000  0.22194000  0.32085000  1.0 0.5838028117
H  H1  1  0.78361000  0.10654000  0.44013000  1.0 0.1309562143
H  H2  1  0.84306000  0.43886000  0.42896000  1.0 0.1198816881
H  H3  1  0.92428000  0.46543000  0.40985000  1.0 0.0977558316
H  H4  1  0.17653000  0.25754000  0.50923000  1.0 0.0616205525
H  H5  1  0.22950000  0.27343000  0.82275000  1.0 0.1133485291
H  H6  1  0.12451000  0.22869000  0.78460000  1.0 0.1503271185
H  H7  1  0.22685000  0.19240000  0.77661000  1.0 0.1133485291
H  H8  1  0.12314000  0.16749000  0.75171000  1.0 0.1383238225
H  H9  1  0.17846000  0.17189000  0.47073000  1.0 0.0717477989
H  H10  1  0.66641000  0.34348000  0.55987000  1.0 0.1309562143
H  H11  1  0.00990000  0.41410000  0.57104000  1.0 0.1198816881
H  H12  1  0.05558000  0.51443000  0.59015000  1.0 0.0977558316
H  H13  1  0.74831000  0.66730000  0.49077000  1.0 0.0616205525
H  H14  1  0.45068000  0.40675000  0.17725000  1.0 0.1133485291
H  H15  1  0.44409000  0.33991000  0.21540000  1.0 0.1503271185
H  H16  1  0.41579000  0.45024000  0.22339000  1.0 0.1133485291
H  H17  1  0.41578000  0.37143000  0.24829000  1.0 0.1383238225
H  H18  1  0.70116000  0.70773000  0.52927000  1.0 0.0717477989
H  H19  1  0.85654000  0.91641000  0.82293000  1.0 0.1309562143
H  H20  1  0.18886000  0.25990000  0.09580000  1.0 0.1198816881
H  H21  1  0.21543000  0.30558000  0.04115000  1.0 0.0977558316
H  H22  1  0.00754000  0.99831000  0.58101000  1.0 0.0616205525
H  H23  1  0.02343000  0.70068000  0.54393000  1.0 0.1133485291
H  H24  1  0.97869000  0.69409000  0.60418000  1.0 0.1503271185
H  H25  1  0.94240000  0.66579000  0.46555000  1.0 0.1133485291
H  H26  1  0.91749000  0.66578000  0.54435000  1.0 0.1383238225
H  H27  1  0.92189000  0.95116000  0.49343000  1.0 0.0717477989
H  H28  1  0.09348000  0.03361000  0.17707000  1.0 0.1309562143
H  H29  1  0.16410000  0.09306000  0.90420000  1.0 0.1198816881
H  H30  1  0.26443000  0.17428000  0.95885000  1.0 0.0977558316
H  H31  1  0.41730000  0.42653000  0.41899000  1.0 0.0616205525
H  H32  1  0.15675000  0.47950000  0.45607000  1.0 0.1133485291
H  H33  1  0.08991000  0.37451000  0.39582000  1.0 0.1503271185
H  H34  1  0.20024000  0.47685000  0.53445000  1.0 0.1133485291
H  H35  1  0.12143000  0.37314000  0.45565000  1.0 0.1383238225
H  H36  1  0.45773000  0.42846000  0.50657000  1.0 0.0717477989
H  H37  1  0.96639000  0.14346000  0.05987000  1.0 0.1309562143
H  H38  1  0.90694000  0.81114000  0.07104000  1.0 0.1198816881
H  H39  1  0.82572000  0.78457000  0.09015000  1.0 0.0977558316
H  H40  1  0.57347000  0.99246000  0.99077000  1.0 0.0616205525
H  H41  1  0.52050000  0.97657000  0.67725000  1.0 0.1133485291
H  H42  1  0.62549000  0.02131000  0.71540000  1.0 0.1503271185
H  H43  1  0.52315000  0.05760000  0.72339000  1.0 0.1133485291
H  H44  1  0.62686000  0.08251000  0.74829000  1.0 0.1383238225
H  H45  1  0.57154000  0.07811000  0.02927000  1.0 0.0717477989
H  H46  1  0.08359000  0.90652000  0.94013000  1.0 0.1309562143
H  H47  1  0.74010000  0.83590000  0.92896000  1.0 0.1198816881
H  H48  1  0.69442000  0.73557000  0.90985000  1.0 0.0977558316
H  H49  1  0.00169000  0.58270000  0.00923000  1.0 0.0616205525
H  H50  1  0.29932000  0.84325000  0.32275000  1.0 0.1133485291
H  H51  1  0.30591000  0.91009000  0.28460000  1.0 0.1503271185
H  H52  1  0.33421000  0.79976000  0.27661000  1.0 0.1133485291
H  H53  1  0.33422000  0.87857000  0.25171000  1.0 0.1383238225
H  H54  1  0.04884000  0.54227000  0.97073000  1.0 0.0717477989
H  H55  1  0.89346000  0.33359000  0.67707000  1.0 0.1309562143
H  H56  1  0.56114000  0.99010000  0.40420000  1.0 0.1198816881
H  H57  1  0.53457000  0.94442000  0.45885000  1.0 0.0977558316
H  H58  1  0.74246000  0.25169000  0.91899000  1.0 0.0616205525
H  H59  1  0.72657000  0.54932000  0.95607000  1.0 0.1133485291
H  H60  1  0.77131000  0.55591000  0.89582000  1.0 0.1503271185
H  H61  1  0.80760000  0.58421000  0.03445000  1.0 0.1133485291
H  H62  1  0.83251000  0.58422000  0.95565000  1.0 0.1383238225
H  H63  1  0.82811000  0.29884000  0.00657000  1.0 0.0717477989
H  H64  1  0.65652000  0.21639000  0.32293000  1.0 0.1309562143
H  H65  1  0.58590000  0.15694000  0.59580000  1.0 0.1198816881
H  H66  1  0.48557000  0.07572000  0.54115000  1.0 0.0977558316
H  H67  1  0.33270000  0.82347000  0.08101000  1.0 0.0616205525
H  H68  1  0.59325000  0.77050000  0.04393000  1.0 0.1133485291
H  H69  1  0.66009000  0.87549000  0.10418000  1.0 0.1503271185
H  H70  1  0.54976000  0.77315000  0.96555000  1.0 0.1133485291
H  H71  1  0.62857000  0.87686000  0.04435000  1.0 0.1383238225
H  H72  1  0.29227000  0.82154000  0.99343000  1.0 0.0717477989
C  C1  1  0.88700000  0.31460000  0.35360000  1.0 0.6046504643
C  C2  1  0.97700000  0.16020000  0.45980000  1.0 0.1679771286
C  C3  1  0.85130000  0.12520000  0.46430000  1.0 0.1383238225
C  C4  1  0.90570000  0.42860000  0.43470000  1.0 -0.3053865764
C  C5  1  0.01260000  0.17210000  0.56650000  1.0 -0.0163312579
C  C6  1  0.13510000  0.23040000  0.52090000  1.0 0.0977558316
C  C7  1  0.12190000  0.22650000  0.66040000  1.0 0.1679771286
C  C8  1  0.11780000  0.17300000  0.63220000  1.0 0.1503271185
C  C9  1  0.13730000  0.17850000  0.49800000  1.0 0.0905046206
C  C10  1  0.96100000  0.53340000  0.64640000  1.0 0.6046504643
C  C11  1  0.70040000  0.51720000  0.54020000  1.0 0.1679771286
C  C12  1  0.66090000  0.38700000  0.53570000  1.0 0.1383238225
C  C13  1  0.99390000  0.47100000  0.56530000  1.0 -0.3053865764
C  C14  1  0.60560000  0.44610000  0.43350000  1.0 -0.0163312579
C  C15  1  0.70950000  0.61420000  0.47910000  1.0 0.0977558316
C  C16  1  0.56610000  0.46150000  0.33960000  1.0 0.1679771286
C  C17  1  0.54080000  0.48560000  0.36780000  1.0 0.1503271185
C  C18  1  0.68050000  0.63930000  0.50200000  1.0 0.0905046206
C  C19  1  0.06460000  0.21100000  0.92760000  1.0 0.6046504643
C  C20  1  0.91020000  0.95040000  0.68320000  1.0 0.1679771286
C  C21  1  0.87520000  0.91090000  0.77390000  1.0 0.1383238225
C  C22  1  0.17860000  0.24390000  0.02290000  1.0 -0.3053865764
C  C23  1  0.92210000  0.85560000  0.65950000  1.0 -0.0163312579
C  C24  1  0.98040000  0.95950000  0.59530000  1.0 0.0977558316
C  C25  1  0.97650000  0.81610000  0.60460000  1.0 0.1679771286
C  C26  1  0.92300000  0.79080000  0.55520000  1.0 0.1503271185
C  C27  1  0.92850000  0.93050000  0.54120000  1.0 0.0905046206
C  C28  1  0.28340000  0.13700000  0.07240000  1.0 0.6046504643
C  C29  1  0.26720000  0.22700000  0.31680000  1.0 0.1679771286
C  C30  1  0.13700000  0.10130000  0.22610000  1.0 0.1383238225
C  C31  1  0.22100000  0.15570000  0.97710000  1.0 -0.3053865764
C  C32  1  0.19610000  0.26260000  0.34050000  1.0 -0.0163312579
C  C33  1  0.36420000  0.38510000  0.40470000  1.0 0.0977558316
C  C34  1  0.21150000  0.37190000  0.39540000  1.0 0.1679771286
C  C35  1  0.23560000  0.36780000  0.44480000  1.0 0.1503271185
C  C36  1  0.38930000  0.38730000  0.45880000  1.0 0.0905046206
C  C37  1  0.86300000  0.93540000  0.14640000  1.0 0.6046504643
C  C38  1  0.77300000  0.08980000  0.04020000  1.0 0.1679771286
C  C39  1  0.89870000  0.12480000  0.03570000  1.0 0.1383238225
C  C40  1  0.84430000  0.82140000  0.06530000  1.0 -0.3053865764
C  C41  1  0.73740000  0.07790000  0.93350000  1.0 -0.0163312579
C  C42  1  0.61490000  0.01960000  0.97910000  1.0 0.0977558316
C  C43  1  0.62810000  0.02350000  0.83960000  1.0 0.1679771286
C  C44  1  0.63220000  0.07700000  0.86780000  1.0 0.1503271185
C  C45  1  0.61270000  0.07150000  0.00200000  1.0 0.0905046206
C  C46  1  0.78900000  0.71660000  0.85360000  1.0 0.6046504643
C  C47  1  0.04960000  0.73280000  0.95980000  1.0 0.1679771286
C  C48  1  0.08910000  0.86300000  0.96430000  1.0 0.1383238225
C  C49  1  0.75610000  0.77900000  0.93470000  1.0 -0.3053865764
C  C50  1  0.14440000  0.80390000  0.06650000  1.0 -0.0163312579
C  C51  1  0.04050000  0.63580000  0.02090000  1.0 0.0977558316
C  C52  1  0.18390000  0.78850000  0.16040000  1.0 0.1679771286
C  C53  1  0.20920000  0.76440000  0.13220000  1.0 0.1503271185
C  C54  1  0.06950000  0.61070000  0.99800000  1.0 0.0905046206
C  C55  1  0.68540000  0.03900000  0.57240000  1.0 0.6046504643
C  C56  1  0.83980000  0.29960000  0.81680000  1.0 0.1679771286
C  C57  1  0.87480000  0.33910000  0.72610000  1.0 0.1383238225
C  C58  1  0.57140000  0.00610000  0.47710000  1.0 -0.3053865764
C  C59  1  0.82790000  0.39440000  0.84050000  1.0 -0.0163312579
C  C60  1  0.76960000  0.29050000  0.90470000  1.0 0.0977558316
C  C61  1  0.77350000  0.43390000  0.89540000  1.0 0.1679771286
C  C62  1  0.82700000  0.45920000  0.94480000  1.0 0.1503271185
C  C63  1  0.82150000  0.31950000  0.95880000  1.0 0.0905046206
C  C64  1  0.46660000  0.11300000  0.42760000  1.0 0.6046504643
C  C65  1  0.48280000  0.02300000  0.18320000  1.0 0.1679771286
C  C66  1  0.61300000  0.14870000  0.27390000  1.0 0.1383238225
C  C67  1  0.52900000  0.09430000  0.52290000  1.0 -0.3053865764
C  C68  1  0.55390000  0.98740000  0.15950000  1.0 -0.0163312579
C  C69  1  0.38580000  0.86490000  0.09530000  1.0 0.0977558316
C  C70  1  0.53850000  0.87810000  0.10460000  1.0 0.1679771286
C  C71  1  0.51440000  0.88220000  0.05520000  1.0 0.1503271185
C  C72  1  0.36070000  0.86270000  0.04120000  1.0 0.0905046206
N  N1  1  0.87390000  0.13040000  0.39530000  1.0 -0.3223180208
N  N2  1  0.03750000  0.17540000  0.42750000  1.0 -0.2497183974
N  N3  1  0.93174000  0.14824000  0.56850000  1.0 -0.3893342945
N  N4  1  0.18050000  0.25100000  0.62950000  1.0 -0.1627404574
N  N5  1  0.16370000  0.24520000  0.76910000  1.0 -0.1627404574
N  N6  1  0.16090000  0.17820000  0.73170000  1.0 -0.198873471
N  N7  1  0.17970000  0.19030000  0.60300000  1.0 -0.1681628688
N  N8  1  0.73510000  0.47860000  0.60470000  1.0 -0.3223180208
N  N9  1  0.74790000  0.61000000  0.57250000  1.0 -0.2497183974
N  N10  1  0.57974000  0.36324000  0.43150000  1.0 -0.3893342945
N  N11  1  0.62150000  0.55100000  0.37050000  1.0 -0.1627404574
N  N12  1  0.47610000  0.39460000  0.23090000  1.0 -0.1627404574
N  N13  1  0.44650000  0.42920000  0.26830000  1.0 -0.198873471
N  N14  1  0.58730000  0.57670000  0.39700000  1.0 -0.1681628688
N  N15  1  0.88040000  0.98510000  0.75650000  1.0 -0.3223180208
N  N16  1  0.92540000  0.99790000  0.63790000  1.0 -0.2497183974
N  N17  1  0.89824000  0.82974000  0.71650000  1.0 -0.3893342945
N  N18  1  0.00100000  0.87150000  0.57050000  1.0 -0.1627404574
N  N19  1  0.99520000  0.72610000  0.58150000  1.0 -0.1627404574
N  N20  1  0.92820000  0.69650000  0.51730000  1.0 -0.198873471
N  N21  1  0.94030000  0.83730000  0.51060000  1.0 -0.1681628688
N  N22  1  0.22860000  0.12390000  0.24350000  1.0 -0.3223180208
N  N23  1  0.36000000  0.28750000  0.36210000  1.0 -0.2497183974
N  N24  1  0.11324000  0.18174000  0.28350000  1.0 -0.3893342945
N  N25  1  0.30100000  0.43050000  0.42950000  1.0 -0.1627404574
N  N26  1  0.14460000  0.41370000  0.41850000  1.0 -0.1627404574
N  N27  1  0.17920000  0.41090000  0.48270000  1.0 -0.198873471
N  N28  1  0.32670000  0.42970000  0.48940000  1.0 -0.1681628688
N  N29  1  0.87610000  0.11960000  0.10470000  1.0 -0.3223180208
N  N30  1  0.71250000  0.07460000  0.07250000  1.0 -0.2497183974
N  N31  1  0.81826000  0.10176000  0.93150000  1.0 -0.3893342945
N  N32  1  0.56950000  0.99900000  0.87050000  1.0 -0.1627404574
N  N33  1  0.58630000  0.00480000  0.73090000  1.0 -0.1627404574
N  N34  1  0.58910000  0.07180000  0.76830000  1.0 -0.198873471
N  N35  1  0.57030000  0.05970000  0.89700000  1.0 -0.1681628688
N  N36  1  0.01490000  0.77140000  0.89530000  1.0 -0.3223180208
N  N37  1  0.00210000  0.64000000  0.92750000  1.0 -0.2497183974
N  N38  1  0.17026000  0.88676000  0.06850000  1.0 -0.3893342945
N  N39  1  0.12850000  0.69900000  0.12950000  1.0 -0.1627404574
N  N40  1  0.27390000  0.85540000  0.26910000  1.0 -0.1627404574
N  N41  1  0.30350000  0.82080000  0.23170000  1.0 -0.198873471
N  N42  1  0.16270000  0.67330000  0.10300000  1.0 -0.1681628688
N  N43  1  0.86960000  0.26490000  0.74350000  1.0 -0.3223180208
N  N44  1  0.82460000  0.25210000  0.86210000  1.0 -0.2497183974
N  N45  1  0.85176000  0.42026000  0.78350000  1.0 -0.3893342945
N  N46  1  0.74900000  0.37850000  0.92950000  1.0 -0.1627404574
N  N47  1  0.75480000  0.52390000  0.91850000  1.0 -0.1627404574
N  N48  1  0.82180000  0.55350000  0.98270000  1.0 -0.198873471
N  N49  1  0.80970000  0.41270000  0.98940000  1.0 -0.1681628688
N  N50  1  0.52140000  0.12610000  0.25650000  1.0 -0.3223180208
N  N51  1  0.39000000  0.96250000  0.13790000  1.0 -0.2497183974
N  N52  1  0.63676000  0.06826000  0.21650000  1.0 -0.3893342945
N  N53  1  0.44900000  0.81950000  0.07050000  1.0 -0.1627404574
N  N54  1  0.60540000  0.83630000  0.08150000  1.0 -0.1627404574
N  N55  1  0.57080000  0.83910000  0.01730000  1.0 -0.198873471
N  N56  1  0.42330000  0.82030000  0.01060000  1.0 -0.1681628688
O  O1  1  0.80561000  0.25151000  0.30810000  1.0 -0.5036863606
O  O2  1  0.95750000  0.29240000  0.34110000  1.0 -0.5195164416
O  O3  1  0.94341000  0.49751000  0.69190000  1.0 -0.5036863606
O  O4  1  0.95130000  0.61640000  0.65890000  1.0 -0.5195164416
O  O5  1  0.00151000  0.19341000  0.94590000  1.0 -0.5036863606
O  O6  1  0.04240000  0.20130000  0.83490000  1.0 -0.5195164416
O  O7  1  0.24751000  0.05561000  0.05410000  1.0 -0.5036863606
O  O8  1  0.36640000  0.20750000  0.16510000  1.0 -0.5195164416
O  O9  1  0.94439000  0.99849000  0.19190000  1.0 -0.5036863606
O  O10  1  0.79250000  0.95760000  0.15890000  1.0 -0.5195164416
O  O11  1  0.80659000  0.75249000  0.80810000  1.0 -0.5036863606
O  O12  1  0.79870000  0.63360000  0.84110000  1.0 -0.5195164416
O  O13  1  0.74849000  0.05659000  0.55410000  1.0 -0.5036863606
O  O14  1  0.70760000  0.04870000  0.66510000  1.0 -0.5195164416
O  O15  1  0.50249000  0.19439000  0.44590000  1.0 -0.5036863606
O  O16  1  0.38360000  0.04250000  0.33490000  1.0 -0.5195164416
