# DDEC6 charges by PACMAN v1.1 (https://github.com/mtap-research/PACMAN-charge/)
data_VEVHIQ_FSR_pacman
_symmetry_space_group_name_H-M   'P 1'
_cell_length_a   14.22400000
_cell_length_b   14.46690000
_cell_length_c   23.10990000
_cell_angle_alpha   90.00000000
_cell_angle_beta   116.21200000
_cell_angle_gamma   90.00000000
_symmetry_Int_Tables_number   1
_chemical_formula_structural   Cd3H64Ir2C78(N4O9)2
_chemical_formula_sum   'Cd6 H128 Ir4 C156 N16 O36'
_cell_volume   4266.46353935
_cell_formula_units_Z   2
loop_
 _symmetry_equiv_pos_site_id
 _symmetry_equiv_pos_as_xyz
  1  'x, y, z'
loop_
 _atom_site_type_symbol
 _atom_site_label
 _atom_site_symmetry_multiplicity
 _atom_site_fract_x
 _atom_site_fract_y
 _atom_site_fract_z
 _atom_site_occupancy
 _atom_site_charge
Cd  Cd1  1  0.21937000  0.11597000  0.46162000  1.0 0.9619687366
Cd  Cd2  1  0.78063000  0.61597000  0.03838000  1.0 0.9619687366
Cd  Cd3  1  0.78063000  0.88403000  0.53838000  1.0 0.9619687366
Cd  Cd4  1  0.21937000  0.38403000  0.96162000  1.0 0.9619687366
Cd  Cd5  1  0.50000000  0.50000000  0.00000000  1.0 1.0969047713
Cd  Cd6  1  0.50000000  0.00000000  0.50000000  1.0 1.0969047713
H  H1  1  0.73810000  0.36300000  0.29950000  1.0 0.119828476
H  H2  1  0.87640000  0.25560000  0.32450000  1.0 0.119828476
H  H3  1  0.99540000  0.32220000  0.51330000  1.0 0.1101865726
H  H4  1  0.00100000  0.42120000  0.58440000  1.0 0.119828476
H  H5  1  0.97850000  0.52410000  0.65410000  1.0 0.119828476
H  H6  1  0.84390000  0.62930000  0.61720000  1.0 0.1368790748
H  H7  1  0.72120000  0.62320000  0.51070000  1.0 0.1101865726
H  H8  1  0.68300000  0.27890000  0.42610000  1.0 0.119828476
H  H9  1  0.56690000  0.17470000  0.43440000  1.0 0.1101865726
H  H10  1  0.37150000  0.38500000  0.42240000  1.0 0.1101865726
H  H11  1  0.35110000  0.53410000  0.42480000  1.0 0.119828476
H  H12  1  0.33780000  0.69630000  0.41590000  1.0 0.1101865726
H  H13  1  0.46350000  0.78010000  0.39750000  1.0 0.1310566753
H  H14  1  0.59340000  0.70190000  0.38600000  1.0 0.1101865726
H  H15  1  0.48040000  0.36090000  0.29360000  1.0 0.1101865726
H  H16  1  0.38620000  0.34200000  0.18540000  1.0 0.1101865726
H  H17  1  0.54330000  0.55500000  0.15310000  1.0 0.119828476
H  H18  1  0.66130000  0.66150000  0.19510000  1.0 0.1368790748
H  H19  1  0.78070000  0.77580000  0.24670000  1.0 0.1310566753
H  H20  1  0.86060000  0.78120000  0.36110000  1.0 0.1368790748
H  H21  1  0.81630000  0.66910000  0.41690000  1.0 0.1101865726
H  H22  1  0.69680000  0.37270000  0.02990000  1.0 0.0731539968
H  H23  1  0.73800000  0.28420000  0.18840000  1.0 0.1310566753
H  H24  1  0.85940000  0.31150000  0.21810000  1.0 0.1310566753
H  H25  1  0.77210000  0.39070000  0.19830000  1.0 0.119828476
H  H26  1  0.79750000  0.27960000  0.04400000  1.0 0.1310566753
H  H27  1  0.90200000  0.32770000  0.09590000  1.0 0.119828476
H  H28  1  0.86870000  0.22770000  0.11010000  1.0 0.1310566753
H  H29  1  0.12390000  0.03710000  0.33910000  1.0 0.3212251954
H  H30  1  0.22360000  0.99860000  0.36690000  1.0 0.3212251954
H  H31  1  0.14890000  0.97490000  0.51010000  1.0 0.3427535015
H  H32  1  0.08890000  0.97040000  0.44380000  1.0 0.3212251954
H  H33  1  0.26190000  0.86300000  0.20050000  1.0 0.119828476
H  H34  1  0.12360000  0.75560000  0.17550000  1.0 0.119828476
H  H35  1  0.00460000  0.82220000  0.98670000  1.0 0.1101865726
H  H36  1  0.99900000  0.92120000  0.91560000  1.0 0.119828476
H  H37  1  0.02150000  0.02410000  0.84590000  1.0 0.119828476
H  H38  1  0.15610000  0.12930000  0.88280000  1.0 0.1368790748
H  H39  1  0.27880000  0.12320000  0.98930000  1.0 0.1101865726
H  H40  1  0.31700000  0.77890000  0.07390000  1.0 0.119828476
H  H41  1  0.43310000  0.67470000  0.06560000  1.0 0.1101865726
H  H42  1  0.62850000  0.88500000  0.07760000  1.0 0.1101865726
H  H43  1  0.64890000  0.03410000  0.07520000  1.0 0.119828476
H  H44  1  0.66220000  0.19630000  0.08410000  1.0 0.1101865726
H  H45  1  0.53650000  0.28010000  0.10250000  1.0 0.1310566753
H  H46  1  0.40660000  0.20190000  0.11400000  1.0 0.1101865726
H  H47  1  0.51960000  0.86090000  0.20640000  1.0 0.1101865726
H  H48  1  0.61380000  0.84200000  0.31460000  1.0 0.1101865726
H  H49  1  0.45670000  0.05500000  0.34690000  1.0 0.119828476
H  H50  1  0.33870000  0.16150000  0.30490000  1.0 0.1368790748
H  H51  1  0.21930000  0.27580000  0.25330000  1.0 0.1310566753
H  H52  1  0.13940000  0.28120000  0.13890000  1.0 0.1368790748
H  H53  1  0.18370000  0.16910000  0.08310000  1.0 0.1101865726
H  H54  1  0.30320000  0.87270000  0.47010000  1.0 0.0731539968
H  H55  1  0.26200000  0.78420000  0.31160000  1.0 0.1310566753
H  H56  1  0.14060000  0.81150000  0.28190000  1.0 0.1310566753
H  H57  1  0.22790000  0.89070000  0.30170000  1.0 0.119828476
H  H58  1  0.20250000  0.77960000  0.45600000  1.0 0.1310566753
H  H59  1  0.09800000  0.82770000  0.40410000  1.0 0.119828476
H  H60  1  0.13130000  0.72770000  0.38990000  1.0 0.1310566753
H  H61  1  0.87610000  0.53710000  0.16090000  1.0 0.3212251954
H  H62  1  0.77640000  0.49860000  0.13310000  1.0 0.3212251954
H  H63  1  0.85110000  0.47490000  0.98990000  1.0 0.3427535015
H  H64  1  0.91110000  0.47040000  0.05620000  1.0 0.3212251954
H  H65  1  0.26190000  0.63700000  0.70050000  1.0 0.119828476
H  H66  1  0.12360000  0.74440000  0.67550000  1.0 0.119828476
H  H67  1  0.00460000  0.67780000  0.48670000  1.0 0.1101865726
H  H68  1  0.99900000  0.57880000  0.41560000  1.0 0.119828476
H  H69  1  0.02150000  0.47590000  0.34590000  1.0 0.119828476
H  H70  1  0.15610000  0.37070000  0.38280000  1.0 0.1368790748
H  H71  1  0.27880000  0.37680000  0.48930000  1.0 0.1101865726
H  H72  1  0.31700000  0.72110000  0.57390000  1.0 0.119828476
H  H73  1  0.43310000  0.82530000  0.56560000  1.0 0.1101865726
H  H74  1  0.62850000  0.61500000  0.57760000  1.0 0.1101865726
H  H75  1  0.64890000  0.46590000  0.57520000  1.0 0.119828476
H  H76  1  0.66220000  0.30370000  0.58410000  1.0 0.1101865726
H  H77  1  0.53650000  0.21990000  0.60250000  1.0 0.1310566753
H  H78  1  0.40660000  0.29810000  0.61400000  1.0 0.1101865726
H  H79  1  0.51960000  0.63910000  0.70640000  1.0 0.1101865726
H  H80  1  0.61380000  0.65800000  0.81460000  1.0 0.1101865726
H  H81  1  0.45670000  0.44500000  0.84690000  1.0 0.119828476
H  H82  1  0.33870000  0.33850000  0.80490000  1.0 0.1368790748
H  H83  1  0.21930000  0.22420000  0.75330000  1.0 0.1310566753
H  H84  1  0.13940000  0.21880000  0.63890000  1.0 0.1310566753
H  H85  1  0.18370000  0.33090000  0.58310000  1.0 0.1101865726
H  H86  1  0.30320000  0.62730000  0.97010000  1.0 0.0731539968
H  H87  1  0.26200000  0.71580000  0.81160000  1.0 0.1310566753
H  H88  1  0.14060000  0.68850000  0.78190000  1.0 0.1310566753
H  H89  1  0.22790000  0.60930000  0.80170000  1.0 0.119828476
H  H90  1  0.20250000  0.72040000  0.95600000  1.0 0.1310566753
H  H91  1  0.09800000  0.67230000  0.90410000  1.0 0.119828476
H  H92  1  0.13130000  0.77230000  0.88990000  1.0 0.1310566753
H  H93  1  0.87610000  0.96290000  0.66090000  1.0 0.3212251954
H  H94  1  0.77640000  0.00140000  0.63310000  1.0 0.3212251954
H  H95  1  0.85110000  0.02510000  0.48990000  1.0 0.3427535015
H  H96  1  0.91110000  0.02960000  0.55620000  1.0 0.3212251954
H  H97  1  0.73810000  0.13700000  0.79950000  1.0 0.119828476
H  H98  1  0.87640000  0.24440000  0.82450000  1.0 0.119828476
H  H99  1  0.99540000  0.17780000  0.01330000  1.0 0.1101865726
H  H100  1  0.00100000  0.07880000  0.08440000  1.0 0.119828476
H  H101  1  0.97850000  0.97590000  0.15410000  1.0 0.119828476
H  H102  1  0.84390000  0.87070000  0.11720000  1.0 0.1368790748
H  H103  1  0.72120000  0.87680000  0.01070000  1.0 0.1101865726
H  H104  1  0.68300000  0.22110000  0.92610000  1.0 0.119828476
H  H105  1  0.56690000  0.32530000  0.93440000  1.0 0.1101865726
H  H106  1  0.37150000  0.11500000  0.92240000  1.0 0.1101865726
H  H107  1  0.35110000  0.96590000  0.92480000  1.0 0.119828476
H  H108  1  0.33780000  0.80370000  0.91590000  1.0 0.1101865726
H  H109  1  0.46350000  0.71990000  0.89750000  1.0 0.1310566753
H  H110  1  0.59340000  0.79810000  0.88600000  1.0 0.1101865726
H  H111  1  0.48040000  0.13910000  0.79360000  1.0 0.1101865726
H  H112  1  0.38620000  0.15800000  0.68540000  1.0 0.1101865726
H  H113  1  0.54330000  0.94500000  0.65310000  1.0 0.119828476
H  H114  1  0.66130000  0.83850000  0.69510000  1.0 0.1368790748
H  H115  1  0.78070000  0.72420000  0.74670000  1.0 0.1310566753
H  H116  1  0.86060000  0.71880000  0.86110000  1.0 0.1368790748
H  H117  1  0.81630000  0.83090000  0.91690000  1.0 0.1101865726
H  H118  1  0.69680000  0.12730000  0.52990000  1.0 0.0731539968
H  H119  1  0.73800000  0.21580000  0.68840000  1.0 0.1310566753
H  H120  1  0.85940000  0.18850000  0.71810000  1.0 0.1310566753
H  H121  1  0.77210000  0.10930000  0.69830000  1.0 0.119828476
H  H122  1  0.79750000  0.22040000  0.54400000  1.0 0.1310566753
H  H123  1  0.90200000  0.17230000  0.59590000  1.0 0.119828476
H  H124  1  0.86870000  0.27230000  0.61010000  1.0 0.1310566753
H  H125  1  0.12390000  0.46290000  0.83910000  1.0 0.3212251954
H  H126  1  0.22360000  0.50140000  0.86690000  1.0 0.3212251954
H  H127  1  0.14890000  0.52510000  0.01010000  1.0 0.3427535015
H  H128  1  0.08890000  0.52960000  0.94380000  1.0 0.3212251954
Ir  Ir1  1  0.66841000  0.49359000  0.38625000  1.0 0.5990918148
Ir  Ir2  1  0.33159000  0.99359000  0.11375000  1.0 0.5990918148
Ir  Ir3  1  0.33159000  0.50641000  0.61375000  1.0 0.5990918148
Ir  Ir4  1  0.66841000  0.00641000  0.88625000  1.0 0.5990918148
C  C1  1  0.78130000  0.40760000  0.39100000  1.0 -0.1603119281
C  C2  1  0.78900000  0.35570000  0.34300000  1.0 -0.1082631509
C  C3  1  0.87270000  0.29110000  0.35800000  1.0 -0.1082631509
C  C4  1  0.94820000  0.27970000  0.42090000  1.0 0.0001510362
C  C5  1  0.94470000  0.33140000  0.47000000  1.0 -0.1500490867
C  C6  1  0.86580000  0.39750000  0.45550000  1.0 -0.0079920723
C  C7  1  0.86340000  0.45780000  0.50430000  1.0 0.2024863231
C  C8  1  0.94190000  0.46120000  0.56950000  1.0 -0.18733049
C  C9  1  0.92940000  0.52370000  0.60980000  1.0 -0.0404036375
C  C10  1  0.84980000  0.58460000  0.58880000  1.0 -0.1337909532
C  C11  1  0.77790000  0.58060000  0.52580000  1.0 0.0130619922
C  C12  1  0.03980000  0.21380000  0.43470000  1.0 0.5259584355
C  C13  1  0.59640000  0.39560000  0.41400000  1.0 -0.171234658
C  C14  1  0.61860000  0.30100000  0.42380000  1.0 -0.1082631509
C  C15  1  0.55020000  0.23860000  0.43020000  1.0 -0.1216126998
C  C16  1  0.45710000  0.26800000  0.43050000  1.0 -0.0323529561
C  C17  1  0.43460000  0.36290000  0.42270000  1.0 -0.1603119281
C  C18  1  0.50230000  0.42480000  0.41540000  1.0 0.0188447269
C  C19  1  0.48120000  0.52480000  0.40800000  1.0 0.187974656
C  C20  1  0.40020000  0.56890000  0.41620000  1.0 -0.1809713561
C  C21  1  0.39300000  0.66500000  0.41150000  1.0 -0.0404036375
C  C22  1  0.46660000  0.71460000  0.40030000  1.0 -0.1383727548
C  C23  1  0.54280000  0.66750000  0.39340000  1.0 0.0514838937
C  C24  1  0.38190000  0.20230000  0.43710000  1.0 0.5624948013
C  C25  1  0.57520000  0.46750000  0.29420000  1.0 -0.171234658
C  C26  1  0.49500000  0.40040000  0.26570000  1.0 -0.1082631509
C  C27  1  0.43790000  0.38920000  0.20110000  1.0 -0.102703115
C  C28  1  0.45430000  0.44670000  0.15690000  1.0 -0.046163004
C  C29  1  0.53150000  0.51490000  0.18180000  1.0 -0.1216126998
C  C30  1  0.59160000  0.52480000  0.24830000  1.0 0.0130619922
C  C31  1  0.66860000  0.59790000  0.27590000  1.0 0.187974656
C  C32  1  0.69410000  0.66410000  0.24090000  1.0 -0.1603119281
C  C33  1  0.76380000  0.73120000  0.27080000  1.0 -0.0404036375
C  C34  1  0.81140000  0.73430000  0.33840000  1.0 -0.1500490867
C  C35  1  0.78480000  0.66710000  0.37120000  1.0 0.0444464701
C  C36  1  0.38810000  0.43760000  0.08770000  1.0 0.5624948013
C  C37  1  0.69890000  0.37350000  0.07160000  1.0 0.2436127904
C  C38  1  0.78810000  0.32900000  0.18710000  1.0 -0.3427508977
C  C39  1  0.84270000  0.28800000  0.09010000  1.0 -0.3746453655
C  C40  1  0.21870000  0.90760000  0.10900000  1.0 -0.1603119281
C  C41  1  0.21100000  0.85570000  0.15700000  1.0 -0.1082631509
C  C42  1  0.12730000  0.79110000  0.14200000  1.0 -0.1082631509
C  C43  1  0.05180000  0.77970000  0.07910000  1.0 0.0001510362
C  C44  1  0.05530000  0.83140000  0.03000000  1.0 -0.1500490867
C  C45  1  0.13420000  0.89750000  0.04450000  1.0 -0.0079920723
C  C46  1  0.13660000  0.95780000  0.99570000  1.0 0.2024863231
C  C47  1  0.05810000  0.96120000  0.93050000  1.0 -0.18733049
C  C48  1  0.07060000  0.02370000  0.89020000  1.0 -0.0404036375
C  C49  1  0.15020000  0.08460000  0.91120000  1.0 -0.1337909532
C  C50  1  0.22210000  0.08060000  0.97420000  1.0 0.0130619922
C  C51  1  0.96020000  0.71380000  0.06530000  1.0 0.5259584355
C  C52  1  0.40360000  0.89560000  0.08600000  1.0 -0.171234658
C  C53  1  0.38140000  0.80100000  0.07620000  1.0 -0.1082631509
C  C54  1  0.44980000  0.73860000  0.06980000  1.0 -0.1216126998
C  C55  1  0.54290000  0.76800000  0.06950000  1.0 -0.0323529561
C  C56  1  0.56540000  0.86290000  0.07730000  1.0 -0.1603119281
C  C57  1  0.49770000  0.92480000  0.08460000  1.0 0.0188447269
C  C58  1  0.51880000  0.02480000  0.09200000  1.0 0.187974656
C  C59  1  0.59980000  0.06890000  0.08380000  1.0 -0.1809713561
C  C60  1  0.60700000  0.16500000  0.08850000  1.0 -0.0404036375
C  C61  1  0.53340000  0.21460000  0.09970000  1.0 -0.1383727548
C  C62  1  0.45720000  0.16750000  0.10660000  1.0 0.0514838937
C  C63  1  0.61810000  0.70230000  0.06290000  1.0 0.5624948013
C  C64  1  0.42480000  0.96750000  0.20580000  1.0 -0.171234658
C  C65  1  0.50500000  0.90040000  0.23430000  1.0 -0.1082631509
C  C66  1  0.56210000  0.88920000  0.29890000  1.0 -0.102703115
C  C67  1  0.54570000  0.94670000  0.34310000  1.0 -0.046163004
C  C68  1  0.46850000  0.01490000  0.31820000  1.0 -0.1216126998
C  C69  1  0.40840000  0.02480000  0.25170000  1.0 0.0130619922
C  C70  1  0.33140000  0.09790000  0.22410000  1.0 0.187974656
C  C71  1  0.30590000  0.16410000  0.25910000  1.0 -0.1603119281
C  C72  1  0.23620000  0.23120000  0.22920000  1.0 -0.0404036375
C  C73  1  0.18860000  0.23430000  0.16160000  1.0 -0.1500490867
C  C74  1  0.21520000  0.16710000  0.12880000  1.0 0.0444464701
C  C75  1  0.61190000  0.93760000  0.41230000  1.0 0.5624948013
C  C76  1  0.30110000  0.87350000  0.42840000  1.0 0.2436127904
C  C77  1  0.21190000  0.82900000  0.31290000  1.0 -0.3427508977
C  C78  1  0.15730000  0.78800000  0.40990000  1.0 -0.3746453655
C  C79  1  0.21870000  0.59240000  0.60900000  1.0 -0.1603119281
C  C80  1  0.21100000  0.64430000  0.65700000  1.0 -0.1082631509
C  C81  1  0.12730000  0.70890000  0.64200000  1.0 -0.1082631509
C  C82  1  0.05180000  0.72030000  0.57910000  1.0 0.0001510362
C  C83  1  0.05530000  0.66860000  0.53000000  1.0 -0.1500490867
C  C84  1  0.13420000  0.60250000  0.54450000  1.0 -0.0079920723
C  C85  1  0.13660000  0.54220000  0.49570000  1.0 0.2024863231
C  C86  1  0.05810000  0.53880000  0.43050000  1.0 -0.18733049
C  C87  1  0.07060000  0.47630000  0.39020000  1.0 -0.0404036375
C  C88  1  0.15020000  0.41540000  0.41120000  1.0 -0.1337909532
C  C89  1  0.22210000  0.41940000  0.47420000  1.0 0.0130619922
C  C90  1  0.96020000  0.78620000  0.56530000  1.0 0.5259584355
C  C91  1  0.40360000  0.60440000  0.58600000  1.0 -0.171234658
C  C92  1  0.38140000  0.69900000  0.57620000  1.0 -0.1082631509
C  C93  1  0.44980000  0.76140000  0.56980000  1.0 -0.1216126998
C  C94  1  0.54290000  0.73200000  0.56950000  1.0 -0.0323529561
C  C95  1  0.56540000  0.63710000  0.57730000  1.0 -0.1603119281
C  C96  1  0.49770000  0.57520000  0.58460000  1.0 0.0188447269
C  C97  1  0.51880000  0.47520000  0.59200000  1.0 0.187974656
C  C98  1  0.59980000  0.43110000  0.58380000  1.0 -0.1809713561
C  C99  1  0.60700000  0.33500000  0.58850000  1.0 -0.0404036375
C  C100  1  0.53340000  0.28540000  0.59970000  1.0 -0.1383727548
C  C101  1  0.45720000  0.33250000  0.60660000  1.0 0.0514838937
C  C102  1  0.61810000  0.79770000  0.56290000  1.0 0.5624948013
C  C103  1  0.42480000  0.53250000  0.70580000  1.0 -0.171234658
C  C104  1  0.50500000  0.59960000  0.73430000  1.0 -0.1082631509
C  C105  1  0.56210000  0.61080000  0.79890000  1.0 -0.102703115
C  C106  1  0.54570000  0.55330000  0.84310000  1.0 -0.046163004
C  C107  1  0.46850000  0.48510000  0.81820000  1.0 -0.1216126998
C  C108  1  0.40840000  0.47520000  0.75170000  1.0 0.0130619922
C  C109  1  0.33140000  0.40210000  0.72410000  1.0 0.187974656
C  C110  1  0.30590000  0.33590000  0.75910000  1.0 -0.1603119281
C  C111  1  0.23620000  0.26880000  0.72920000  1.0 -0.0404036375
C  C112  1  0.18860000  0.26570000  0.66160000  1.0 -0.1500490867
C  C113  1  0.21520000  0.33290000  0.62880000  1.0 0.0444464701
C  C114  1  0.61190000  0.56240000  0.91230000  1.0 0.5624948013
C  C115  1  0.30110000  0.62650000  0.92840000  1.0 0.2436127904
C  C116  1  0.21190000  0.67100000  0.81290000  1.0 -0.3427508977
C  C117  1  0.15730000  0.71200000  0.90990000  1.0 -0.3746453655
C  C118  1  0.78130000  0.09240000  0.89100000  1.0 -0.1603119281
C  C119  1  0.78900000  0.14430000  0.84300000  1.0 -0.1082631509
C  C120  1  0.87270000  0.20890000  0.85800000  1.0 -0.1082631509
C  C121  1  0.94820000  0.22030000  0.92090000  1.0 0.0001510362
C  C122  1  0.94470000  0.16860000  0.97000000  1.0 -0.1500490867
C  C123  1  0.86580000  0.10250000  0.95550000  1.0 -0.0079920723
C  C124  1  0.86340000  0.04220000  0.00430000  1.0 0.2024863231
C  C125  1  0.94190000  0.03880000  0.06950000  1.0 -0.18733049
C  C126  1  0.92940000  0.97630000  0.10980000  1.0 -0.0404036375
C  C127  1  0.84980000  0.91540000  0.08880000  1.0 -0.1337909532
C  C128  1  0.77790000  0.91940000  0.02580000  1.0 0.0188447269
C  C129  1  0.03980000  0.28620000  0.93470000  1.0 0.5259584355
C  C130  1  0.59640000  0.10440000  0.91400000  1.0 -0.171234658
C  C131  1  0.61860000  0.19900000  0.92380000  1.0 -0.1082631509
C  C132  1  0.55020000  0.26140000  0.93020000  1.0 -0.1216126998
C  C133  1  0.45710000  0.23200000  0.93050000  1.0 -0.0323529561
C  C134  1  0.43460000  0.13710000  0.92270000  1.0 -0.1603119281
C  C135  1  0.50230000  0.07520000  0.91540000  1.0 0.0188447269
C  C136  1  0.48120000  0.97520000  0.90800000  1.0 0.187974656
C  C137  1  0.40020000  0.93110000  0.91620000  1.0 -0.1809713561
C  C138  1  0.39300000  0.83500000  0.91150000  1.0 -0.0404036375
C  C139  1  0.46660000  0.78540000  0.90030000  1.0 -0.1383727548
C  C140  1  0.54280000  0.83250000  0.89340000  1.0 0.0514838937
C  C141  1  0.38190000  0.29770000  0.93710000  1.0 0.5624948013
C  C142  1  0.57520000  0.03250000  0.79420000  1.0 -0.171234658
C  C143  1  0.49500000  0.09960000  0.76570000  1.0 -0.1082631509
C  C144  1  0.43790000  0.11080000  0.70110000  1.0 -0.102703115
C  C145  1  0.45430000  0.05330000  0.65690000  1.0 -0.046163004
C  C146  1  0.53150000  0.98510000  0.68180000  1.0 -0.1216126998
C  C147  1  0.59160000  0.97520000  0.74830000  1.0 0.0130619922
C  C148  1  0.66860000  0.90210000  0.77590000  1.0 0.187974656
C  C149  1  0.69410000  0.83590000  0.74090000  1.0 -0.1603119281
C  C150  1  0.76380000  0.76880000  0.77080000  1.0 -0.0404036375
C  C151  1  0.81140000  0.76570000  0.83840000  1.0 -0.1500490867
C  C152  1  0.78480000  0.83290000  0.87120000  1.0 0.0444464701
C  C153  1  0.38810000  0.06240000  0.58770000  1.0 0.5624948013
C  C154  1  0.69890000  0.12650000  0.57160000  1.0 0.2436127904
C  C155  1  0.78810000  0.17100000  0.68710000  1.0 -0.3427508977
C  C156  1  0.84270000  0.21200000  0.59010000  1.0 -0.3746453655
N  N1  1  0.78370000  0.51730000  0.48300000  1.0 -0.2540836241
N  N2  1  0.55190000  0.57470000  0.39640000  1.0 -0.2161670086
N  N3  1  0.71640000  0.59950000  0.34110000  1.0 -0.232700361
N  N4  1  0.78190000  0.33190000  0.12100000  1.0 -0.0010613721
N  N5  1  0.21630000  0.01730000  0.01700000  1.0 -0.2540836241
N  N6  1  0.44810000  0.07470000  0.10360000  1.0 -0.2161670086
N  N7  1  0.28360000  0.09950000  0.15890000  1.0 -0.232700361
N  N8  1  0.21810000  0.83190000  0.37900000  1.0 -0.0010613721
N  N9  1  0.21630000  0.48270000  0.51700000  1.0 -0.2540836241
N  N10  1  0.44810000  0.42530000  0.60360000  1.0 -0.2161670086
N  N11  1  0.28360000  0.40050000  0.65890000  1.0 -0.232700361
N  N12  1  0.21810000  0.66810000  0.87900000  1.0 -0.0010613721
N  N13  1  0.78370000  0.98270000  0.98300000  1.0 -0.2540836241
N  N14  1  0.55190000  0.92530000  0.89640000  1.0 -0.2161670086
N  N15  1  0.71640000  0.90050000  0.84110000  1.0 -0.232700361
N  N16  1  0.78190000  0.16810000  0.62100000  1.0 -0.0010613721
O  O1  1  0.05030000  0.17990000  0.39170000  1.0 -0.5128934216
O  O2  1  0.09920000  0.19770000  0.49470000  1.0 -0.6012283471
O  O3  1  0.40090000  0.11690000  0.43960000  1.0 -0.6012283471
O  O4  1  0.30050000  0.23280000  0.43780000  1.0 -0.5346048307
O  O5  1  0.32150000  0.37280000  0.06670000  1.0 -0.5483881962
O  O6  1  0.39430000  0.49760000  0.04910000  1.0 -0.6118565035
O  O7  1  0.62790000  0.41120000  0.07770000  1.0 -0.4606734645
O  O8  1  0.18890000  0.04860000  0.36050000  1.0 -0.6671581101
O  O9  1  0.15070000  0.97590000  0.47380000  1.0 -0.6601366532
O  O10  1  0.94970000  0.67990000  0.10830000  1.0 -0.5128934216
O  O11  1  0.90080000  0.69770000  0.00530000  1.0 -0.6012283471
O  O12  1  0.59910000  0.61690000  0.06040000  1.0 -0.6012283471
O  O13  1  0.69950000  0.73280000  0.06220000  1.0 -0.5346048307
O  O14  1  0.67850000  0.87280000  0.43330000  1.0 -0.5483881962
O  O15  1  0.60570000  0.99760000  0.45090000  1.0 -0.6118565035
O  O16  1  0.37210000  0.91120000  0.42230000  1.0 -0.4606734645
O  O17  1  0.81110000  0.54860000  0.13950000  1.0 -0.6671581101
O  O18  1  0.84930000  0.47590000  0.02620000  1.0 -0.6601366532
O  O19  1  0.94970000  0.82010000  0.60830000  1.0 -0.5128934216
O  O20  1  0.90080000  0.80230000  0.50530000  1.0 -0.6012283471
O  O21  1  0.59910000  0.88310000  0.56040000  1.0 -0.6012283471
O  O22  1  0.69950000  0.76720000  0.56220000  1.0 -0.5346048307
O  O23  1  0.67850000  0.62720000  0.93330000  1.0 -0.5483881962
O  O24  1  0.60570000  0.50240000  0.95090000  1.0 -0.6118565035
O  O25  1  0.37210000  0.58880000  0.92230000  1.0 -0.4606734645
O  O26  1  0.81110000  0.95140000  0.63950000  1.0 -0.6671581101
O  O27  1  0.84930000  0.02410000  0.52620000  1.0 -0.6601366532
O  O28  1  0.05030000  0.32010000  0.89170000  1.0 -0.5128934216
O  O29  1  0.09920000  0.30230000  0.99470000  1.0 -0.6012283471
O  O30  1  0.40090000  0.38310000  0.93960000  1.0 -0.6012283471
O  O31  1  0.30050000  0.26720000  0.93780000  1.0 -0.5346048307
O  O32  1  0.32150000  0.12720000  0.56670000  1.0 -0.5483881962
O  O33  1  0.39430000  0.00240000  0.54910000  1.0 -0.6118565035
O  O34  1  0.62790000  0.08880000  0.57770000  1.0 -0.4606734645
O  O35  1  0.18890000  0.45140000  0.86050000  1.0 -0.6671581101
O  O36  1  0.15070000  0.52410000  0.97380000  1.0 -0.6601366532
