# DDEC6 charges by PACMAN v1.1 (https://github.com/mtap-research/PACMAN-charge/)
data_VEVJUE_ASR_pacman
_symmetry_space_group_name_H-M   'P 1'
_cell_length_a   18.71900000
_cell_length_b   18.71900000
_cell_length_c   6.81370000
_cell_angle_alpha   90.00000000
_cell_angle_beta   90.00000000
_cell_angle_gamma   120.00000000
_symmetry_Int_Tables_number   1
_chemical_formula_structural   CuH9C11O4
_chemical_formula_sum   'Cu6 H54 C66 O24'
_cell_volume   2067.65905844
_cell_formula_units_Z   6
loop_
 _symmetry_equiv_pos_site_id
 _symmetry_equiv_pos_as_xyz
  1  'x, y, z'
loop_
 _atom_site_type_symbol
 _atom_site_label
 _atom_site_symmetry_multiplicity
 _atom_site_fract_x
 _atom_site_fract_y
 _atom_site_fract_z
 _atom_site_occupancy
 _atom_site_charge
Cu  Cu1  1  0.47568000  0.52432000  0.84546000  1.0 0.8431113291
Cu  Cu2  1  0.04864000  0.52432000  0.84546000  1.0 0.8431113291
Cu  Cu3  1  0.47568000  0.95136000  0.84546000  1.0 0.8431113291
Cu  Cu4  1  0.95136000  0.47568000  0.15454000  1.0 0.8431113291
Cu  Cu5  1  0.52432000  0.47568000  0.15454000  1.0 0.8431113291
Cu  Cu6  1  0.52432000  0.04864000  0.15454000  1.0 0.8431113291
H  H1  1  0.37360000  0.29560000  0.49020000  1.0 0.1373991795
H  H2  1  0.31600000  0.20320000  0.20500000  1.0 0.0939365603
H  H3  1  0.28670000  0.04430000  0.22680000  1.0 0.1035753334
H  H4  1  0.26010000  0.08640000  0.05020000  1.0 0.1093556915
H  H5  1  0.92200000  0.62640000  0.49020000  1.0 0.1373991795
H  H6  1  0.88720000  0.68400000  0.20500000  1.0 0.0939365603
H  H7  1  0.75760000  0.71330000  0.22680000  1.0 0.1035753334
H  H8  1  0.82630000  0.73990000  0.05020000  1.0 0.1093556915
H  H9  1  0.70440000  0.07800000  0.49020000  1.0 0.1373991795
H  H10  1  0.79680000  0.11280000  0.20500000  1.0 0.0939365603
H  H11  1  0.95570000  0.24240000  0.22680000  1.0 0.1035753334
H  H12  1  0.91360000  0.17370000  0.05020000  1.0 0.1093556915
H  H13  1  0.07800000  0.70440000  0.50980000  1.0 0.1373991795
H  H14  1  0.11280000  0.79680000  0.79500000  1.0 0.0939365603
H  H15  1  0.24240000  0.95570000  0.77320000  1.0 0.1035753334
H  H16  1  0.17370000  0.91360000  0.94980000  1.0 0.1093556915
H  H17  1  0.29560000  0.37360000  0.50980000  1.0 0.1373991795
H  H18  1  0.20320000  0.31600000  0.79500000  1.0 0.0939365603
H  H19  1  0.04430000  0.28670000  0.77320000  1.0 0.1035753334
H  H20  1  0.08640000  0.26010000  0.94980000  1.0 0.1093556915
H  H21  1  0.62640000  0.92200000  0.50980000  1.0 0.1373991795
H  H22  1  0.68400000  0.88720000  0.79500000  1.0 0.0939365603
H  H23  1  0.71330000  0.75760000  0.77320000  1.0 0.1035753334
H  H24  1  0.73990000  0.82630000  0.94980000  1.0 0.1093556915
H  H25  1  0.62640000  0.70440000  0.50980000  1.0 0.1373991795
H  H26  1  0.68400000  0.79680000  0.79500000  1.0 0.0939365603
H  H27  1  0.71330000  0.95570000  0.77320000  1.0 0.1035753334
H  H28  1  0.73990000  0.91360000  0.94980000  1.0 0.1093556915
H  H29  1  0.07800000  0.37360000  0.50980000  1.0 0.1373991795
H  H30  1  0.11280000  0.31600000  0.79500000  1.0 0.0939365603
H  H31  1  0.24240000  0.28670000  0.77320000  1.0 0.1035753334
H  H32  1  0.17370000  0.26010000  0.94980000  1.0 0.1093556915
H  H33  1  0.29560000  0.92200000  0.50980000  1.0 0.1373991795
H  H34  1  0.20320000  0.88720000  0.79500000  1.0 0.0939365603
H  H35  1  0.04430000  0.75760000  0.77320000  1.0 0.1035753334
H  H36  1  0.08640000  0.82630000  0.94980000  1.0 0.1093556915
H  H37  1  0.92200000  0.29560000  0.49020000  1.0 0.1373991795
H  H38  1  0.88720000  0.20320000  0.20500000  1.0 0.0939365603
H  H39  1  0.75760000  0.04430000  0.22680000  1.0 0.1035753334
H  H40  1  0.82630000  0.08640000  0.05020000  1.0 0.1093556915
H  H41  1  0.70440000  0.62640000  0.49020000  1.0 0.1373991795
H  H42  1  0.79680000  0.68400000  0.20500000  1.0 0.0939365603
H  H43  1  0.95570000  0.71330000  0.22680000  1.0 0.1035753334
H  H44  1  0.91360000  0.73990000  0.05020000  1.0 0.1093556915
H  H45  1  0.37360000  0.07800000  0.49020000  1.0 0.1373991795
H  H46  1  0.31600000  0.11280000  0.20500000  1.0 0.0939365603
H  H47  1  0.28670000  0.24240000  0.22680000  1.0 0.1035753334
H  H48  1  0.26010000  0.17370000  0.05020000  1.0 0.1093556915
H  H49  1  0.46620000  0.23310000  0.95930000  1.0 0.1373991795
H  H50  1  0.76690000  0.53380000  0.95930000  1.0 0.1373991795
H  H51  1  0.76690000  0.23310000  0.95930000  1.0 0.1373991795
H  H52  1  0.23310000  0.76690000  0.04070000  1.0 0.1373991795
H  H53  1  0.23310000  0.46620000  0.04070000  1.0 0.1373991795
H  H54  1  0.53380000  0.76690000  0.04070000  1.0 0.1373991795
C  C1  1  0.45020000  0.35960000  0.83870000  1.0 0.5621083208
C  C2  1  0.38500000  0.25730000  0.55410000  1.0 -0.2006462338
C  C3  1  0.42350000  0.27710000  0.73980000  1.0 0.0035482937
C  C4  1  0.28580000  0.09080000  0.17330000  1.0 -0.2190331814
C  C5  1  0.90940000  0.54980000  0.83870000  1.0 0.5621083208
C  C6  1  0.87230000  0.61500000  0.55410000  1.0 -0.2006462338
C  C7  1  0.85360000  0.57650000  0.73980000  1.0 0.0035482937
C  C8  1  0.80500000  0.71420000  0.17330000  1.0 -0.2190331814
C  C9  1  0.64040000  0.09060000  0.83870000  1.0 0.5621083208
C  C10  1  0.74270000  0.12770000  0.55410000  1.0 -0.2006462338
C  C11  1  0.72290000  0.14640000  0.73980000  1.0 0.0035482937
C  C12  1  0.90920000  0.19500000  0.17330000  1.0 -0.2190331814
C  C13  1  0.09060000  0.64040000  0.16130000  1.0 0.5621083208
C  C14  1  0.12770000  0.74270000  0.44590000  1.0 -0.2006462338
C  C15  1  0.14640000  0.72290000  0.26020000  1.0 0.0035482937
C  C16  1  0.19500000  0.90920000  0.82670000  1.0 -0.2190331814
C  C17  1  0.35960000  0.45020000  0.16130000  1.0 0.5621083208
C  C18  1  0.25730000  0.38500000  0.44590000  1.0 -0.2006462338
C  C19  1  0.27710000  0.42350000  0.26020000  1.0 0.0035482937
C  C20  1  0.09080000  0.28580000  0.82670000  1.0 -0.2190331814
C  C21  1  0.54980000  0.90940000  0.16130000  1.0 0.5621083208
C  C22  1  0.61500000  0.87230000  0.44590000  1.0 -0.2006462338
C  C23  1  0.57650000  0.85360000  0.26020000  1.0 0.0035482937
C  C24  1  0.71420000  0.80500000  0.82670000  1.0 -0.2190331814
C  C25  1  0.54980000  0.64040000  0.16130000  1.0 0.5621083208
C  C26  1  0.61500000  0.74270000  0.44590000  1.0 -0.2006462338
C  C27  1  0.57650000  0.72290000  0.26020000  1.0 0.0035482937
C  C28  1  0.71420000  0.90920000  0.82670000  1.0 -0.2190331814
C  C29  1  0.09060000  0.45020000  0.16130000  1.0 0.5621083208
C  C30  1  0.12770000  0.38500000  0.44590000  1.0 -0.2006462338
C  C31  1  0.14640000  0.42350000  0.26020000  1.0 0.0035482937
C  C32  1  0.19500000  0.28580000  0.82670000  1.0 -0.2190331814
C  C33  1  0.35960000  0.90940000  0.16130000  1.0 0.5621083208
C  C34  1  0.25730000  0.87230000  0.44590000  1.0 -0.2006462338
C  C35  1  0.27710000  0.85360000  0.26020000  1.0 0.0035482937
C  C36  1  0.09080000  0.80500000  0.82670000  1.0 -0.2190331814
C  C37  1  0.90940000  0.35960000  0.83870000  1.0 0.5621083208
C  C38  1  0.87230000  0.25730000  0.55410000  1.0 -0.2006462338
C  C39  1  0.85360000  0.27710000  0.73980000  1.0 0.0035482937
C  C40  1  0.80500000  0.09080000  0.17330000  1.0 -0.2190331814
C  C41  1  0.64040000  0.54980000  0.83870000  1.0 0.5621083208
C  C42  1  0.74270000  0.61500000  0.55410000  1.0 -0.2006462338
C  C43  1  0.72290000  0.57650000  0.73980000  1.0 0.0035482937
C  C44  1  0.90920000  0.71420000  0.17330000  1.0 -0.2190331814
C  C45  1  0.45020000  0.09060000  0.83870000  1.0 0.5621083208
C  C46  1  0.38500000  0.12770000  0.55410000  1.0 -0.2006462338
C  C47  1  0.42350000  0.14640000  0.73980000  1.0 0.0035482937
C  C48  1  0.28580000  0.19500000  0.17330000  1.0 -0.2190331814
C  C49  1  0.31940000  0.15970000  0.26780000  1.0 -0.0590665698
C  C50  1  0.36290000  0.18145000  0.46110000  1.0 0.1035753334
C  C51  1  0.44160000  0.22080000  0.83280000  1.0 -0.1378595553
C  C52  1  0.84030000  0.68060000  0.26780000  1.0 -0.0590665698
C  C53  1  0.81855000  0.63710000  0.46110000  1.0 0.1035753334
C  C54  1  0.77920000  0.55840000  0.83280000  1.0 -0.1378595553
C  C55  1  0.84030000  0.15970000  0.26780000  1.0 -0.0590665698
C  C56  1  0.81855000  0.18145000  0.46110000  1.0 0.1035753334
C  C57  1  0.77920000  0.22080000  0.83280000  1.0 -0.1378595553
C  C58  1  0.15970000  0.84030000  0.73220000  1.0 -0.0590665698
C  C59  1  0.18145000  0.81855000  0.53890000  1.0 0.1035753334
C  C60  1  0.22080000  0.77920000  0.16720000  1.0 -0.1378595553
C  C61  1  0.15970000  0.31940000  0.73220000  1.0 -0.0590665698
C  C62  1  0.18145000  0.36290000  0.53890000  1.0 0.1035753334
C  C63  1  0.22080000  0.44160000  0.16720000  1.0 -0.1378595553
C  C64  1  0.68060000  0.84030000  0.73220000  1.0 -0.0590665698
C  C65  1  0.63710000  0.81855000  0.53890000  1.0 0.1035753334
C  C66  1  0.55840000  0.77920000  0.16720000  1.0 -0.1378595553
O  O1  1  0.43970000  0.41210000  0.74270000  1.0 -0.5169119112
O  O2  1  0.48040000  0.37110000  0.00780000  1.0 -0.5169119112
O  O3  1  0.97240000  0.56030000  0.74270000  1.0 -0.5169119112
O  O4  1  0.89070000  0.51960000  0.00780000  1.0 -0.5169119112
O  O5  1  0.58790000  0.02760000  0.74270000  1.0 -0.5169119112
O  O6  1  0.62890000  0.10930000  0.00780000  1.0 -0.5169119112
O  O7  1  0.02760000  0.58790000  0.25730000  1.0 -0.5169119112
O  O8  1  0.10930000  0.62890000  0.99220000  1.0 -0.5169119112
O  O9  1  0.41210000  0.43970000  0.25730000  1.0 -0.5169119112
O  O10  1  0.37110000  0.48040000  0.99220000  1.0 -0.5169119112
O  O11  1  0.56030000  0.97240000  0.25730000  1.0 -0.5169119112
O  O12  1  0.51960000  0.89070000  0.99220000  1.0 -0.5169119112
O  O13  1  0.56030000  0.58790000  0.25730000  1.0 -0.5169119112
O  O14  1  0.51960000  0.62890000  0.99220000  1.0 -0.5169119112
O  O15  1  0.02760000  0.43970000  0.25730000  1.0 -0.5169119112
O  O16  1  0.10930000  0.48040000  0.99220000  1.0 -0.5169119112
O  O17  1  0.41210000  0.97240000  0.25730000  1.0 -0.5169119112
O  O18  1  0.37110000  0.89070000  0.99220000  1.0 -0.5169119112
O  O19  1  0.97240000  0.41210000  0.74270000  1.0 -0.5169119112
O  O20  1  0.89070000  0.37110000  0.00780000  1.0 -0.5169119112
O  O21  1  0.58790000  0.56030000  0.74270000  1.0 -0.5169119112
O  O22  1  0.62890000  0.51960000  0.00780000  1.0 -0.5169119112
O  O23  1  0.43970000  0.02760000  0.74270000  1.0 -0.5169119112
O  O24  1  0.48040000  0.10930000  0.00780000  1.0 -0.5169119112
