# DDEC6 charges by PACMAN v1.1 (https://github.com/mtap-research/PACMAN-charge/)
data_VEWKUF_ASR_pacman
_symmetry_space_group_name_H-M   'P 1'
_cell_length_a   20.65360000
_cell_length_b   33.49740000
_cell_length_c   20.79260000
_cell_angle_alpha   90.00000000
_cell_angle_beta   118.61900000
_cell_angle_gamma   90.00000000
_symmetry_Int_Tables_number   1
_chemical_formula_structural   Zn3(C53O8)2
_chemical_formula_sum   'Zn6 C212 O32'
_cell_volume   12627.66938623
_cell_formula_units_Z   2
loop_
 _symmetry_equiv_pos_site_id
 _symmetry_equiv_pos_as_xyz
  1  'x, y, z'
loop_
 _atom_site_type_symbol
 _atom_site_label
 _atom_site_symmetry_multiplicity
 _atom_site_fract_x
 _atom_site_fract_y
 _atom_site_fract_z
 _atom_site_occupancy
 _atom_site_charge
Zn  Zn1  1  0.65136000  0.00194000  0.80815000  1.0 0.952955953
Zn  Zn2  1  0.34864000  0.50194000  0.19185000  1.0 0.955468845
Zn  Zn3  1  0.84797000  0.93903000  0.19625000  1.0 0.952955953
Zn  Zn4  1  0.15203000  0.43903000  0.80375000  1.0 0.952955953
Zn  Zn5  1  0.74727000  0.97003000  0.00521000  1.0 1.0637463447
Zn  Zn6  1  0.25273000  0.47003000  0.99479000  1.0 1.0637463447
C  C1  1  0.79040000  0.01350000  0.14410000  1.0 0.6416157103
C  C2  1  0.20960000  0.51350000  0.85590000  1.0 0.6416157103
C  C3  1  0.79120000  0.05910000  0.14440000  1.0 -0.0198297045
C  C4  1  0.20880000  0.55910000  0.85560000  1.0 -0.0198297045
C  C5  1  0.85050000  0.08000000  0.20040000  1.0 0.0024904349
C  C6  1  0.14950000  0.58000000  0.79960000  1.0 0.0024904349
C  C7  1  0.85450000  0.11910000  0.19900000  1.0 -0.0801007464
C  C8  1  0.14550000  0.61910000  0.80100000  1.0 -0.0801007464
C  C9  1  0.79850000  0.14220000  0.14450000  1.0 0.100749382
C  C10  1  0.20150000  0.64220000  0.85550000  1.0 0.100749382
C  C11  1  0.74300000  0.12260000  0.08980000  1.0 -0.0604175701
C  C12  1  0.25700000  0.62260000  0.91020000  1.0 -0.0604175701
C  C13  1  0.73830000  0.08010000  0.09010000  1.0 0.0502244626
C  C14  1  0.26170000  0.58010000  0.90990000  1.0 0.0502244626
C  C15  1  0.28490000  0.40830000  0.91100000  1.0 0.6479211565
C  C16  1  0.71510000  0.90830000  0.08900000  1.0 0.6479211565
C  C17  1  0.36040000  0.39250000  0.94170000  1.0 -0.0703033756
C  C18  1  0.63960000  0.89250000  0.05830000  1.0 -0.0703033756
C  C19  1  0.38750000  0.38670000  0.89380000  1.0 0.100749382
C  C20  1  0.61250000  0.88670000  0.10620000  1.0 0.0897466489
C  C21  1  0.46810000  0.37480000  0.92810000  1.0 -0.029012594
C  C22  1  0.53190000  0.87480000  0.07190000  1.0 -0.0198297045
C  C23  1  0.50530000  0.36470000  0.00020000  1.0 0.0897466489
C  C24  1  0.49470000  0.86470000  0.99980000  1.0 0.0897466489
C  C25  1  0.47350000  0.36930000  0.04330000  1.0 -0.0801007464
C  C26  1  0.52650000  0.86930000  0.95670000  1.0 -0.0801007464
C  C27  1  0.40140000  0.38350000  0.01450000  1.0 0.0385272988
C  C28  1  0.59860000  0.88350000  0.98550000  1.0 0.0385272988
C  C29  1  0.29940000  0.42460000  0.14080000  1.0 0.6158366915
C  C30  1  0.70060000  0.92460000  0.85920000  1.0 0.6099848267
C  C31  1  0.30520000  0.38280000  0.14170000  1.0 -0.0873076142
C  C32  1  0.69480000  0.88280000  0.85830000  1.0 -0.0873076142
C  C33  1  0.24460000  0.35860000  0.08720000  1.0 0.0502244626
C  C34  1  0.75540000  0.85860000  0.91280000  1.0 0.0502244626
C  C35  1  0.24630000  0.31850000  0.08650000  1.0 -0.0873076142
C  C36  1  0.75370000  0.81850000  0.91350000  1.0 -0.0873076142
C  C37  1  0.31090000  0.29800000  0.14320000  1.0 0.1093935877
C  C38  1  0.68910000  0.79800000  0.85680000  1.0 0.1093935877
C  C39  1  0.36790000  0.32030000  0.19280000  1.0 -0.0703033756
C  C40  1  0.63210000  0.82030000  0.80720000  1.0 -0.0801007464
C  C41  1  0.36300000  0.36350000  0.19350000  1.0 0.071162251
C  C42  1  0.63700000  0.86350000  0.80650000  1.0 0.071162251
C  C43  1  0.78010000  0.03540000  0.91940000  1.0 0.6416157103
C  C44  1  0.21990000  0.53540000  0.08060000  1.0 0.6416157103
C  C45  1  0.85550000  0.05140000  0.94960000  1.0 -0.0703033756
C  C46  1  0.14450000  0.55140000  0.05040000  1.0 -0.0703033756
C  C47  1  0.89160000  0.05740000  0.90540000  1.0 0.0385272988
C  C48  1  0.10840000  0.55740000  0.09460000  1.0 0.0385272988
C  C49  1  0.96050000  0.07180000  0.93210000  1.0 -0.0801007464
C  C50  1  0.03950000  0.57180000  0.06790000  1.0 -0.0873076142
C  C51  1  0.00320000  0.07840000  0.00960000  1.0 0.100749382
C  C52  1  0.99680000  0.57840000  0.99040000  1.0 0.1093935877
C  C53  1  0.96830000  0.07510000  0.05330000  1.0 -0.0604175701
C  C54  1  0.03170000  0.57510000  0.94670000  1.0 -0.0604175701
C  C55  1  0.89490000  0.06160000  0.02510000  1.0 0.0502244626
C  C56  1  0.10510000  0.56160000  0.97490000  1.0 0.0502244626
C  C57  1  0.07970000  0.09040000  0.04310000  1.0 0.0605597819
C  C58  1  0.92030000  0.59040000  0.95690000  1.0 0.0605597819
C  C59  1  0.12490000  0.07420000  0.01570000  1.0 0.0070886805
C  C60  1  0.87510000  0.57420000  0.98430000  1.0 0.0024904349
C  C61  1  0.20140000  0.08520000  0.04980000  1.0 -0.0198297045
C  C62  1  0.79860000  0.58520000  0.95020000  1.0 -0.0198297045
C  C63  1  0.23110000  0.11059000  0.11030000  1.0 0.0605597819
C  C64  1  0.76890000  0.61059000  0.88970000  1.0 0.071162251
C  C65  1  0.18630000  0.12880000  0.13360000  1.0 -0.0703033756
C  C66  1  0.81370000  0.62880000  0.86640000  1.0 -0.0703033756
C  C67  1  0.11200000  0.11860000  0.09870000  1.0 -0.0112203409
C  C68  1  0.88800000  0.61860000  0.90130000  1.0 -0.0112203409
C  C69  1  0.80460000  0.18610000  0.14550000  1.0 0.0897466489
C  C70  1  0.19540000  0.68610000  0.85450000  1.0 0.079406042
C  C71  1  0.83530000  0.20990000  0.21030000  1.0 -0.0365311269
C  C72  1  0.16470000  0.70990000  0.78970000  1.0 -0.0365311269
C  C73  1  0.84430000  0.24780000  0.21140000  1.0 -0.0703033756
C  C74  1  0.15570000  0.74780000  0.78860000  1.0 -0.0703033756
C  C75  1  0.81490000  0.27100000  0.14570000  1.0 0.071162251
C  C76  1  0.18510000  0.77100000  0.85430000  1.0 0.071162251
C  C77  1  0.77910000  0.24940000  0.07930000  1.0 -0.0112203409
C  C78  1  0.22090000  0.74940000  0.92070000  1.0 -0.0112203409
C  C79  1  0.77690000  0.20770000  0.07890000  1.0 0.0024904349
C  C80  1  0.22310000  0.70770000  0.92110000  1.0 0.0070886805
C  C81  1  0.85340000  0.33333333  0.22170000  1.0 0.0605597819
C  C82  1  0.14660000  0.83333000  0.77830000  1.0 0.0605597819
C  C83  1  0.92340000  0.33100000  0.26190000  1.0 -0.029012594
C  C84  1  0.07660000  0.83100000  0.73810000  1.0 -0.0198297045
C  C85  1  0.96290000  0.34580000  0.33750000  1.0 -0.0112203409
C  C86  1  0.03710000  0.84580000  0.66250000  1.0 -0.0112203409
C  C87  1  0.92110000  0.36460000  0.36510000  1.0 0.0605597819
C  C88  1  0.07890000  0.86460000  0.63490000  1.0 0.0605597819
C  C89  1  0.84730000  0.36960000  0.32130000  1.0 -0.029012594
C  C90  1  0.15270000  0.86960000  0.67870000  1.0 -0.029012594
C  C91  1  0.81130000  0.35490000  0.24950000  1.0 -0.0112203409
C  C92  1  0.18870000  0.85490000  0.75050000  1.0 -0.0112203409
C  C93  1  0.73450000  0.33070000  0.09940000  1.0 0.071162251
C  C94  1  0.26550000  0.83070000  0.90060000  1.0 0.071162251
C  C95  1  0.68460000  0.31300000  0.12330000  1.0 -0.0112203409
C  C96  1  0.31540000  0.81300000  0.87670000  1.0 -0.0112203409
C  C97  1  0.70700000  0.35410000  0.04290000  1.0 -0.0801007464
C  C98  1  0.29300000  0.85410000  0.95710000  1.0 -0.0801007464
C  C99  1  0.31310000  0.12280000  0.14940000  1.0 0.1093935877
C  C100  1  0.68690000  0.62280000  0.85060000  1.0 0.1093935877
C  C101  1  0.35240000  0.10580000  0.10920000  1.0 0.0605597819
C  C102  1  0.64760000  0.60580000  0.89080000  1.0 0.0605597819
C  C103  1  0.36740000  0.06390000  0.11220000  1.0 -0.0198297045
C  C104  1  0.63260000  0.56390000  0.88780000  1.0 -0.0198297045
C  C105  1  0.40290000  0.04780000  0.07590000  1.0 -0.0604175701
C  C106  1  0.59710000  0.54780000  0.92410000  1.0 -0.0604175701
C  C107  1  0.42480000  0.06930000  0.03650000  1.0 0.0897466489
C  C108  1  0.57520000  0.56930000  0.96350000  1.0 0.0897466489
C  C109  1  0.41280000  0.11220000  0.02980000  1.0 0.0070886805
C  C110  1  0.58720000  0.61220000  0.97020000  1.0 0.0070886805
C  C111  1  0.37470000  0.12810000  0.06380000  1.0 -0.0198297045
C  C112  1  0.62530000  0.62810000  0.93620000  1.0 -0.0198297045
C  C113  1  0.35400000  0.10460000  0.22700000  1.0 0.0605597819
C  C114  1  0.64600000  0.60460000  0.77300000  1.0 0.0605597819
C  C115  1  0.32240000  0.08790000  0.26100000  1.0 -0.0604175701
C  C116  1  0.67760000  0.58790000  0.73900000  1.0 -0.0508814003
C  C117  1  0.36250000  0.07340000  0.33300000  1.0 0.0024904349
C  C118  1  0.63750000  0.57340000  0.66700000  1.0 0.0070886805
C  C119  1  0.43950000  0.07620000  0.37190000  1.0 0.0605597819
C  C120  1  0.56050000  0.57620000  0.62810000  1.0 0.0605597819
C  C121  1  0.47440000  0.09430000  0.33600000  1.0 -0.0198297045
C  C122  1  0.52560000  0.59430000  0.66400000  1.0 -0.0198297045
C  C123  1  0.43340000  0.11060000  0.26640000  1.0 -0.0198297045
C  C124  1  0.56660000  0.61060000  0.73360000  1.0 -0.0198297045
C  C125  1  0.48410000  0.05930000  0.44390000  1.0 0.0605597819
C  C126  1  0.51590000  0.55930000  0.55610000  1.0 0.0502244626
C  C127  1  0.45270000  0.05970000  0.49460000  1.0 -0.0365311269
C  C128  1  0.54730000  0.55970000  0.50540000  1.0 -0.0365311269
C  C129  1  0.49870000  0.04420000  0.56680000  1.0 0.0605597819
C  C130  1  0.50130000  0.54420000  0.43320000  1.0 0.0605597819
C  C131  1  0.56760000  0.03080000  0.58490000  1.0 -0.0508814003
C  C132  1  0.43240000  0.53080000  0.41510000  1.0 -0.0508814003
C  C133  1  0.59550000  0.02970000  0.53840000  1.0 0.0385272988
C  C134  1  0.40450000  0.52970000  0.46160000  1.0 0.0385272988
C  C135  1  0.55170000  0.04490000  0.46690000  1.0 -0.0801007464
C  C136  1  0.44830000  0.54490000  0.53310000  1.0 -0.0604175701
C  C137  1  0.31300000  0.25350000  0.14360000  1.0 0.0897466489
C  C138  1  0.68700000  0.75350000  0.85640000  1.0 0.0897466489
C  C139  1  0.27060000  0.22760000  0.08060000  1.0 -0.0365311269
C  C140  1  0.72940000  0.72760000  0.91940000  1.0 -0.0365311269
C  C141  1  0.35430000  0.23310000  0.20940000  1.0 -0.0112203409
C  C142  1  0.64570000  0.73310000  0.79060000  1.0 -0.0112203409
C  C143  1  0.58200000  0.35020000  0.02980000  1.0 0.079406042
C  C144  1  0.41800000  0.85020000  0.97020000  1.0 0.079406042
C  C145  1  0.60870000  0.32290000  0.08860000  1.0 -0.029012594
C  C146  1  0.39130000  0.82290000  0.91140000  1.0 -0.0198297045
C  C147  1  0.63270000  0.36640000  0.00710000  1.0 0.0024904349
C  C148  1  0.36730000  0.86640000  0.99290000  1.0 -0.0011912962
C  C149  1  0.81680000  0.31700000  0.14440000  1.0 0.1160400142
C  C150  1  0.18320000  0.81700000  0.85560000  1.0 0.1160400142
C  C151  1  0.85800000  0.33420000  0.10520000  1.0 0.0502244626
C  C152  1  0.14200000  0.83420000  0.89480000  1.0 0.0502244626
C  C153  1  0.87040000  0.37420000  0.10840000  1.0 -0.0508814003
C  C154  1  0.12960000  0.87420000  0.89160000  1.0 -0.0508814003
C  C155  1  0.90730000  0.39220000  0.07480000  1.0 -0.0112203409
C  C156  1  0.09270000  0.89220000  0.92520000  1.0 -0.0112203409
C  C157  1  0.93750000  0.36830000  0.04080000  1.0 0.071162251
C  C158  1  0.06250000  0.86830000  0.95920000  1.0 0.0605597819
C  C159  1  0.92830000  0.32870000  0.04110000  1.0 -0.0198297045
C  C160  1  0.07170000  0.82870000  0.95890000  1.0 -0.0198297045
C  C161  1  0.89190000  0.30960000  0.07590000  1.0 -0.029012594
C  C162  1  0.10810000  0.80960000  0.92410000  1.0 -0.029012594
C  C163  1  0.97580000  0.38580000  0.00210000  1.0 0.1093935877
C  C164  1  0.02420000  0.88580000  0.99790000  1.0 0.100749382
C  C165  1  0.97620000  0.36800000  0.94300000  1.0 -0.0801007464
C  C166  1  0.02380000  0.86800000  0.05700000  1.0 -0.0801007464
C  C167  1  0.46680000  0.05110000  0.00060000  1.0 0.1093935877
C  C168  1  0.53320000  0.55110000  0.99940000  1.0 0.1093935877
C  C169  1  0.45860000  0.06480000  0.93370000  1.0 -0.0873076142
C  C170  1  0.54140000  0.56480000  0.06630000  1.0 -0.0801007464
C  C171  1  0.31580000  0.16830000  0.14850000  1.0 0.071162251
C  C172  1  0.68420000  0.66830000  0.85150000  1.0 0.071162251
C  C173  1  0.35450000  0.19070000  0.21090000  1.0 -0.0112203409
C  C174  1  0.64550000  0.69070000  0.78910000  1.0 -0.0112203409
C  C175  1  0.27420000  0.19110000  0.08180000  1.0 -0.0604175701
C  C176  1  0.72580000  0.69110000  0.91820000  1.0 -0.0604175701
C  C177  1  0.59200000  0.00250000  0.90500000  1.0 0.6416157103
C  C178  1  0.40800000  0.50250000  0.09500000  1.0 0.6416157103
C  C179  1  0.49600000  0.05040000  0.90270000  1.0 0.0199506799
C  C180  1  0.50400000  0.55040000  0.09730000  1.0 0.0199506799
C  C181  1  0.54580000  0.01780000  0.93650000  1.0 -0.0508814003
C  C182  1  0.45420000  0.51780000  0.06350000  1.0 -0.0508814003
C  C183  1  0.55510000  0.00280000  0.00300000  1.0 0.0502244626
C  C184  1  0.44490000  0.50280000  0.99700000  1.0 0.0502244626
C  C185  1  0.51410000  0.02030000  0.03260000  1.0 -0.0604175701
C  C186  1  0.48590000  0.52030000  0.96740000  1.0 -0.0604175701
C  C187  1  0.10000000  0.43870000  0.90440000  1.0 0.6340046641
C  C188  1  0.90000000  0.93870000  0.09560000  1.0 0.6340046641
C  C189  1  0.01740000  0.38350000  0.91100000  1.0 0.071162251
C  C190  1  0.98260000  0.88350000  0.08900000  1.0 0.0605597819
C  C191  1  0.05760000  0.41860000  0.93740000  1.0 -0.0508814003
C  C192  1  0.94240000  0.91860000  0.06260000  1.0 -0.0508814003
C  C193  1  0.05820000  0.43810000  0.99990000  1.0 0.0502244626
C  C194  1  0.94180000  0.93810000  0.00010000  1.0 0.0502244626
C  C195  1  0.01610000  0.42220000  0.02940000  1.0 -0.0604175701
C  C196  1  0.98390000  0.92220000  0.97060000  1.0 -0.0604175701
C  C197  1  0.95370000  0.38450000  0.43660000  1.0 0.0502244626
C  C198  1  0.04630000  0.88450000  0.56340000  1.0 0.0605597819
C  C199  1  0.92070000  0.41810000  0.44770000  1.0 -0.029012594
C  C200  1  0.07930000  0.91810000  0.55230000  1.0 -0.0508814003
C  C201  1  0.94900000  0.43460000  0.51730000  1.0 0.0199506799
C  C202  1  0.05100000  0.93460000  0.48270000  1.0 0.0317451902
C  C203  1  0.01040000  0.41760000  0.57580000  1.0 -0.0604175701
C  C204  1  0.98960000  0.91760000  0.42420000  1.0 -0.0508814003
C  C205  1  0.04330000  0.38410000  0.56470000  1.0 -0.0112203409
C  C206  1  0.95670000  0.88410000  0.43530000  1.0 0.0024904349
C  C207  1  0.01500000  0.36750000  0.49510000  1.0 -0.029012594
C  C208  1  0.98500000  0.86750000  0.50490000  1.0 -0.029012594
C  C209  1  0.61680000  0.01710000  0.66960000  1.0 0.5591928181
C  C210  1  0.38320000  0.51710000  0.33040000  1.0 0.5591928181
C  C211  1  0.04860000  0.43300000  0.65650000  1.0 0.6099848267
C  C212  1  0.95140000  0.93300000  0.34350000  1.0 0.6099848267
O  O1  1  0.34910000  0.44547000  0.19840000  1.0 -0.538970578
O  O2  1  0.65090000  0.94547000  0.80160000  1.0 -0.538970578
O  O3  1  0.24890000  0.44310000  0.08550000  1.0 -0.5714270952
O  O4  1  0.75110000  0.94310000  0.91450000  1.0 -0.5714270952
O  O5  1  0.24540000  0.41080000  0.84170000  1.0 -0.5076105032
O  O6  1  0.75460000  0.91080000  0.15830000  1.0 -0.5076105032
O  O7  1  0.26060000  0.41646000  0.95610000  1.0 -0.5861644033
O  O8  1  0.73940000  0.91646000  0.04390000  1.0 -0.5861644033
O  O9  1  0.14060000  0.46606000  0.93650000  1.0 -0.5076105032
O  O10  1  0.85940000  0.96606000  0.06350000  1.0 -0.5029839758
O  O11  1  0.09210000  0.42038000  0.84530000  1.0 -0.5262932661
O  O12  1  0.90790000  0.92038000  0.15470000  1.0 -0.5262932661
O  O13  1  0.58720000  0.01788000  0.84870000  1.0 -0.4904782656
O  O14  1  0.41280000  0.51788000  0.15130000  1.0 -0.4904782656
O  O15  1  0.63610000  0.97509000  0.93970000  1.0 -0.5515879277
O  O16  1  0.36390000  0.47509000  0.06030000  1.0 -0.5515879277
O  O17  1  0.74230000  0.99757000  0.08790000  1.0 -0.5515879277
O  O18  1  0.25770000  0.49757000  0.91210000  1.0 -0.5515879277
O  O19  1  0.83760000  0.99609000  0.20080000  1.0 -0.5076105032
O  O20  1  0.16240000  0.49609000  0.79920000  1.0 -0.5076105032
O  O21  1  0.74290000  0.03201000  0.84950000  1.0 -0.5076105032
O  O22  1  0.25710000  0.53201000  0.15050000  1.0 -0.5076105032
O  O23  1  0.75740000  0.02565000  0.96430000  1.0 -0.5714270952
O  O24  1  0.24260000  0.52565000  0.03570000  1.0 -0.5714270952
O  O25  1  0.10470000  0.41906000  0.70540000  1.0 -0.5029839758
O  O26  1  0.89530000  0.91906000  0.29460000  1.0 -0.5076105032
O  O27  1  0.59160000  0.02244000  0.70880000  1.0 -0.4784960482
O  O28  1  0.40840000  0.52244000  0.29120000  1.0 -0.4904782656
O  O29  1  0.67310000  0.99853000  0.68150000  1.0 -0.474831808
O  O30  1  0.32690000  0.49853000  0.31850000  1.0 -0.4784960482
O  O31  1  0.01350000  0.46460000  0.66810000  1.0 -0.5515879277
O  O32  1  0.98650000  0.96460000  0.33190000  1.0 -0.5602056864
