# DDEC6 charges by PACMAN v1.1 (https://github.com/mtap-research/PACMAN-charge/)
data_VEWLAM_ASR_pacman
_symmetry_space_group_name_H-M   'P 1'
_cell_length_a   19.37720000
_cell_length_b   34.37440000
_cell_length_c   20.73080000
_cell_angle_alpha   90.00000000
_cell_angle_beta   115.43200000
_cell_angle_gamma   90.00000000
_symmetry_Int_Tables_number   1
_chemical_formula_structural   Co5(C53O8)3
_chemical_formula_sum   'Co10 C318 O48'
_cell_volume   12470.27214012
_cell_formula_units_Z   2
loop_
 _symmetry_equiv_pos_site_id
 _symmetry_equiv_pos_as_xyz
  1  'x, y, z'
loop_
 _atom_site_type_symbol
 _atom_site_label
 _atom_site_symmetry_multiplicity
 _atom_site_fract_x
 _atom_site_fract_y
 _atom_site_fract_z
 _atom_site_occupancy
 _atom_site_charge
Co  Co1  1  0.71608000  0.57047000  0.33956000  1.0 0.9477607348
Co  Co2  1  0.28392000  0.07047000  0.66044000  1.0 0.9477607348
Co  Co3  1  0.85774000  0.44364000  0.19140000  1.0 0.9376450517
Co  Co4  1  0.14226000  0.94364000  0.80860000  1.0 0.9376450517
Co  Co5  1  0.75011000  0.48386000  0.27923000  1.0 1.0937566796
Co  Co6  1  0.24989000  0.98386000  0.72077000  1.0 1.0937566796
Co  Co7  1  0.52931000  0.57638000  0.28715000  1.0 1.0513813534
Co  Co8  1  0.47069000  0.07638000  0.71285000  1.0 1.0513813534
Co  Co9  1  0.35004000  0.59125000  0.23564000  1.0 0.9004831055
Co  Co10  1  0.64996000  0.09125000  0.76436000  1.0 0.9004831055
C  C1  1  0.18230000  0.18430000  0.82140000  1.0 0.0506776915
C  C2  1  0.81770000  0.68430000  0.17860000  1.0 0.0506776915
C  C3  1  0.22000000  0.20600000  0.78670000  1.0 0.0093754155
C  C4  1  0.78000000  0.70600000  0.21330000  1.0 0.0093754155
C  C5  1  0.15120000  0.20360000  0.86200000  1.0 0.0217537123
C  C6  1  0.84880000  0.70360000  0.13800000  1.0 0.0217537123
C  C7  1  0.05680000  0.37800000  0.00670000  1.0 0.0609274507
C  C8  1  0.94320000  0.87800000  0.99330000  1.0 0.0609274507
C  C9  1  0.11100000  0.39320000  0.07420000  1.0 -0.0496560871
C  C10  1  0.88900000  0.89320000  0.92580000  1.0 -0.058936594
C  C11  1  0.07720000  0.40920000  0.12040000  1.0 0.0506776915
C  C12  1  0.92280000  0.90920000  0.87960000  1.0 0.0506776915
C  C13  1  0.62790000  0.38340000  0.04610000  1.0 0.0609274507
C  C14  1  0.37210000  0.88340000  0.95390000  1.0 0.0609274507
C  C15  1  0.62070000  0.41450000  0.08930000  1.0 -0.0496560871
C  C16  1  0.37930000  0.91450000  0.91070000  1.0 -0.0496560871
C  C17  1  0.55090000  0.42520000  0.08880000  1.0 0.0022573942
C  C18  1  0.44910000  0.92520000  0.91120000  1.0 0.0022573942
C  C19  1  0.48660000  0.37980000  0.99280000  1.0 0.0506776915
C  C20  1  0.51340000  0.87980000  0.00720000  1.0 0.0506776915
C  C21  1  0.48450000  0.40880000  0.03930000  1.0 -0.0691770973
C  C22  1  0.51550000  0.90880000  0.96070000  1.0 -0.0691770973
C  C23  1  0.55690000  0.36770000  0.99670000  1.0 -0.029923531
C  C24  1  0.44310000  0.86770000  0.00330000  1.0 -0.029923531
C  C25  1  0.69820000  0.43270000  0.14430000  1.0 0.6114156616
C  C26  1  0.30180000  0.93270000  0.85570000  1.0 0.6114156616
C  C27  1  0.33400000  0.30240000  0.89260000  1.0 -0.0884310962
C  C28  1  0.66600000  0.80240000  0.10740000  1.0 -0.0884310962
C  C29  1  0.26940000  0.32700000  0.85890000  1.0 0.0609274507
C  C30  1  0.73060000  0.82700000  0.14110000  1.0 0.0609274507
C  C31  1  0.41330000  0.36140000  0.94060000  1.0 0.0506776915
C  C32  1  0.58670000  0.86140000  0.05940000  1.0 0.0506776915
C  C33  1  0.27880000  0.36920000  0.86300000  1.0 -0.029923531
C  C34  1  0.72120000  0.86920000  0.13700000  1.0 -0.029923531
C  C35  1  0.40680000  0.31970000  0.93350000  1.0 0.0311446826
C  C36  1  0.59320000  0.81970000  0.06650000  1.0 0.0311446826
C  C37  1  0.35040000  0.38490000  0.90600000  1.0 -0.029923531
C  C38  1  0.64960000  0.88490000  0.09400000  1.0 -0.029923531
C  C39  1  0.18920000  0.30960000  0.82610000  1.0 0.0700591713
C  C40  1  0.81080000  0.80960000  0.17390000  1.0 0.0700591713
C  C41  1  0.17630000  0.34130000  0.70470000  1.0 -0.058936594
C  C42  1  0.82370000  0.84130000  0.29530000  1.0 -0.058936594
C  C43  1  0.14240000  0.32270000  0.74180000  1.0 0.041229191
C  C44  1  0.85760000  0.82270000  0.25820000  1.0 0.041229191
C  C45  1  0.06910000  0.30870000  0.71040000  1.0 -0.0496560871
C  C46  1  0.93090000  0.80870000  0.28960000  1.0 -0.0496560871
C  C47  1  0.13170000  0.35240000  0.63350000  1.0 -0.0406099321
C  C48  1  0.86830000  0.85240000  0.36650000  1.0 -0.0406099321
C  C49  1  0.91580000  0.39210000  0.39480000  1.0 -0.0496560871
C  C50  1  0.08420000  0.89210000  0.60520000  1.0 -0.058936594
C  C51  1  0.93350000  0.36810000  0.51200000  1.0 -0.058936594
C  C52  1  0.06650000  0.86810000  0.48800000  1.0 -0.0691770973
C  C53  1  0.02140000  0.32050000  0.63690000  1.0 0.041229191
C  C54  1  0.97860000  0.82050000  0.36310000  1.0 0.041229191
C  C55  1  0.98720000  0.37730000  0.40870000  1.0 0.041229191
C  C56  1  0.01280000  0.87730000  0.59130000  1.0 0.041229191
C  C57  1  0.05720000  0.34190000  0.60030000  1.0 0.0506776915
C  C58  1  0.94280000  0.84190000  0.39970000  1.0 0.0506776915
C  C59  1  0.88410000  0.38680000  0.44390000  1.0 0.078727553
C  C60  1  0.11590000  0.88680000  0.55610000  1.0 0.078727553
C  C61  1  0.03590000  0.36020000  0.47650000  1.0 -0.0496560871
C  C62  1  0.96410000  0.86020000  0.52350000  1.0 -0.0496560871
C  C63  1  0.00730000  0.35600000  0.52830000  1.0 0.078727553
C  C64  1  0.99270000  0.85600000  0.47170000  1.0 0.078727553
C  C65  1  0.15120000  0.32730000  0.87020000  1.0 0.0311446826
C  C66  1  0.84880000  0.82730000  0.12980000  1.0 0.0311446826
C  C67  1  0.15940000  0.33900000  0.99090000  1.0 -0.029923531
C  C68  1  0.84060000  0.83900000  0.00910000  1.0 -0.029923531
C  C69  1  0.08360000  0.35280000  0.84350000  1.0 -0.018863439
C  C70  1  0.91640000  0.85280000  0.15650000  1.0 -0.0095521586
C  C71  1  0.09190000  0.36180000  0.96170000  1.0 0.0609274507
C  C72  1  0.90810000  0.86180000  0.03830000  1.0 0.0609274507
C  C73  1  0.18870000  0.32350000  0.94560000  1.0 -0.058936594
C  C74  1  0.81130000  0.82350000  0.05440000  1.0 -0.058936594
C  C75  1  0.05440000  0.36970000  0.88940000  1.0 -0.0095521586
C  C76  1  0.94560000  0.86970000  0.11060000  1.0 -0.018863439
C  C77  1  0.94630000  0.39380000  0.03260000  1.0 0.078727553
C  C78  1  0.05370000  0.89380000  0.96740000  1.0 0.078727553
C  C79  1  0.99670000  0.40720000  0.10050000  1.0 -0.0691770973
C  C80  1  0.00330000  0.90720000  0.89950000  1.0 -0.0691770973
C  C81  1  0.95050000  0.42280000  0.14470000  1.0 0.5259624162
C  C82  1  0.04950000  0.92280000  0.85530000  1.0 0.5231043139
C  C83  1  0.84570000  0.54050000  0.40240000  1.0 0.6205712992
C  C84  1  0.15430000  0.04050000  0.59760000  1.0 0.6114156616
C  C85  1  0.29950000  0.45270000  0.65360000  1.0 0.0311446826
C  C86  1  0.70050000  0.95270000  0.34640000  1.0 0.0311446826
C  C87  1  0.15290000  0.48420000  0.57630000  1.0 0.0700591713
C  C88  1  0.84710000  0.98420000  0.42370000  1.0 0.0700591713
C  C89  1  0.21360000  0.49800000  0.56320000  1.0 -0.018863439
C  C90  1  0.78640000  0.99800000  0.43680000  1.0 -0.018863439
C  C91  1  0.29070000  0.48360000  0.60510000  1.0 -0.0095521586
C  C92  1  0.70930000  0.98360000  0.39490000  1.0 -0.0095521586
C  C93  1  0.24390000  0.44090000  0.66930000  1.0 -0.0406099321
C  C94  1  0.75610000  0.94090000  0.33070000  1.0 -0.0406099321
C  C95  1  0.16480000  0.45470000  0.63160000  1.0 -0.018863439
C  C96  1  0.83520000  0.95470000  0.36840000  1.0 -0.018863439
C  C97  1  0.41210000  0.45440000  0.77250000  1.0 0.0506776915
C  C98  1  0.58790000  0.95440000  0.22750000  1.0 0.0506776915
C  C99  1  0.40380000  0.49740000  0.86760000  1.0 -0.0095521586
C  C100  1  0.59620000  0.99740000  0.13240000  1.0 -0.0095521586
C  C101  1  0.37050000  0.47960000  0.79830000  1.0 -0.0095521586
C  C102  1  0.62950000  0.97960000  0.20170000  1.0 -0.0095521586
C  C103  1  0.48140000  0.48690000  0.91480000  1.0 0.0609274507
C  C104  1  0.51860000  0.98690000  0.08520000  1.0 0.0609274507
C  C105  1  0.52840000  0.46050000  0.89290000  1.0 -0.029923531
C  C106  1  0.47160000  0.96050000  0.10710000  1.0 -0.029923531
C  C107  1  0.49240000  0.44590000  0.82230000  1.0 -0.0406099321
C  C108  1  0.50760000  0.94590000  0.17770000  1.0 -0.0406099321
C  C109  1  0.37400000  0.39450000  0.69900000  1.0 0.0311446826
C  C110  1  0.62600000  0.89450000  0.30100000  1.0 0.0311446826
C  C111  1  0.40140000  0.32850000  0.75250000  1.0 -0.029923531
C  C112  1  0.59860000  0.82850000  0.24750000  1.0 -0.029923531
C  C113  1  0.35910000  0.31140000  0.68990000  1.0 0.0506776915
C  C114  1  0.64090000  0.81140000  0.31010000  1.0 0.0506776915
C  C115  1  0.32420000  0.37580000  0.63480000  1.0 -0.0095521586
C  C116  1  0.67580000  0.87580000  0.36520000  1.0 -0.0095521586
C  C117  1  0.40970000  0.36990000  0.75880000  1.0 -0.0095521586
C  C118  1  0.59030000  0.86990000  0.24120000  1.0 -0.0095521586
C  C119  1  0.32040000  0.33470000  0.62860000  1.0 0.0217537123
C  C120  1  0.67960000  0.83470000  0.37140000  1.0 0.0217537123
C  C121  1  0.37840000  0.43760000  0.69600000  1.0 0.0609274507
C  C122  1  0.62160000  0.93760000  0.30400000  1.0 0.0700591713
C  C123  1  0.50600000  0.52560000  0.09340000  1.0 0.0506776915
C  C124  1  0.49400000  0.02560000  0.90660000  1.0 0.0506776915
C  C125  1  0.58620000  0.53290000  0.12380000  1.0 -0.0406099321
C  C126  1  0.41380000  0.03290000  0.87620000  1.0 -0.0406099321
C  C127  1  0.63240000  0.52720000  0.09270000  1.0 0.0093754155
C  C128  1  0.36760000  0.02720000  0.90730000  1.0 0.0093754155
C  C129  1  0.51780000  0.50500000  0.98850000  1.0 0.041229191
C  C130  1  0.48220000  0.00500000  0.01150000  1.0 0.041229191
C  C131  1  0.47280000  0.50970000  0.02420000  1.0 -0.0406099321
C  C132  1  0.52720000  0.00970000  0.97580000  1.0 -0.0406099321
C  C133  1  0.59630000  0.51190000  0.02210000  1.0 -0.018863439
C  C134  1  0.40370000  0.01190000  0.97790000  1.0 -0.018863439
C  C135  1  0.43410000  0.44840000  0.66310000  1.0 0.0700591713
C  C136  1  0.56590000  0.94840000  0.33690000  1.0 0.0700591713
C  C137  1  0.52290000  0.47810000  0.59770000  1.0 0.078727553
C  C138  1  0.47710000  0.97810000  0.40230000  1.0 0.078727553
C  C139  1  0.51160000  0.50100000  0.64490000  1.0 -0.1008750404
C  C140  1  0.48840000  0.00100000  0.35510000  1.0 -0.1008750404
C  C141  1  0.46610000  0.48850000  0.67720000  1.0 -0.004031958
C  C142  1  0.53390000  0.98850000  0.32280000  1.0 -0.004031958
C  C143  1  0.45090000  0.42580000  0.61910000  1.0 -0.1008750404
C  C144  1  0.54910000  0.92580000  0.38090000  1.0 -0.1077984272
C  C145  1  0.49530000  0.43790000  0.58620000  1.0 0.0093754155
C  C146  1  0.50470000  0.93790000  0.41380000  1.0 0.0093754155
C  C147  1  0.62810000  0.52630000  0.47170000  1.0 -0.0406099321
C  C148  1  0.37190000  0.02630000  0.52830000  1.0 -0.0406099321
C  C149  1  0.57020000  0.50180000  0.43760000  1.0 -0.0095521586
C  C150  1  0.42980000  0.00180000  0.56240000  1.0 -0.0095521586
C  C151  1  0.56340000  0.49380000  0.55180000  1.0 0.1069879421
C  C152  1  0.43660000  0.99380000  0.44820000  1.0 0.1069879421
C  C153  1  0.65710000  0.53500000  0.54410000  1.0 0.0311446826
C  C154  1  0.34290000  0.03500000  0.45590000  1.0 0.0311446826
C  C155  1  0.53540000  0.48740000  0.47750000  1.0 -0.0823751187
C  C156  1  0.46460000  0.98740000  0.52250000  1.0 -0.0823751187
C  C157  1  0.62980000  0.51830000  0.59020000  1.0 -0.0691770973
C  C158  1  0.37020000  0.01830000  0.40980000  1.0 -0.0691770973
C  C159  1  0.36050000  0.18890000  0.67690000  1.0 -0.0406099321
C  C160  1  0.63950000  0.68890000  0.32310000  1.0 -0.0406099321
C  C161  1  0.28810000  0.20750000  0.65060000  1.0 0.0609274507
C  C162  1  0.71190000  0.70750000  0.34940000  1.0 0.0609274507
C  C163  1  0.35470000  0.26860000  0.68190000  1.0 0.0506776915
C  C164  1  0.64530000  0.76860000  0.31810000  1.0 0.0609274507
C  C165  1  0.43000000  0.20590000  0.70300000  1.0 -0.0095521586
C  C166  1  0.57000000  0.70590000  0.29700000  1.0 -0.0095521586
C  C167  1  0.28700000  0.24830000  0.65140000  1.0 -0.0691770973
C  C168  1  0.71300000  0.74830000  0.34860000  1.0 -0.0691770973
C  C169  1  0.92370000  0.52490000  0.45030000  1.0 -0.0406099321
C  C170  1  0.07630000  0.02490000  0.54970000  1.0 -0.0496560871
C  C171  1  0.93700000  0.48590000  0.46610000  1.0 0.0217537123
C  C172  1  0.06300000  0.98590000  0.53390000  1.0 0.0217537123
C  C173  1  0.07160000  0.49860000  0.53280000  1.0 0.078727553
C  C174  1  0.92840000  0.99860000  0.46720000  1.0 0.078727553
C  C175  1  0.01300000  0.47500000  0.51270000  1.0 -0.0823751187
C  C176  1  0.98700000  0.97500000  0.48730000  1.0 -0.0884310962
C  C177  1  0.98440000  0.55200000  0.47180000  1.0 0.0871216979
C  C178  1  0.01560000  0.05200000  0.52820000  1.0 0.0871216979
C  C179  1  0.06120000  0.53740000  0.51300000  1.0 -0.029923531
C  C180  1  0.93880000  0.03740000  0.48700000  1.0 -0.029923531
C  C181  1  0.66280000  0.54650000  0.42800000  1.0 0.6205712992
C  C182  1  0.33720000  0.04650000  0.57200000  1.0 0.6205712992
C  C183  1  0.35990000  0.14270000  0.67580000  1.0 0.6205712992
C  C184  1  0.64010000  0.64270000  0.32420000  1.0 0.6205712992
C  C185  1  0.86830000  0.41780000  0.32740000  1.0 0.6205712992
C  C186  1  0.13170000  0.91780000  0.67260000  1.0 0.6205712992
C  C187  1  0.21890000  0.24610000  0.78810000  1.0 -0.0406099321
C  C188  1  0.78110000  0.74610000  0.21190000  1.0 -0.0406099321
C  C189  1  0.18770000  0.26500000  0.82790000  1.0 0.0506776915
C  C190  1  0.81230000  0.76500000  0.17210000  1.0 0.041229191
C  C191  1  0.15070000  0.24700000  0.86430000  1.0 0.0022573942
C  C192  1  0.84930000  0.74700000  0.13570000  1.0 0.0022573942
C  C193  1  0.15650000  0.01630000  0.80130000  1.0 0.6114156616
C  C194  1  0.84350000  0.51630000  0.19870000  1.0 0.6114156616
C  C195  1  0.17790000  0.14080000  0.81790000  1.0 0.0311446826
C  C196  1  0.82210000  0.64080000  0.18210000  1.0 0.0311446826
C  C197  1  0.17860000  0.07720000  0.87200000  1.0 0.041229191
C  C198  1  0.82140000  0.57720000  0.12800000  1.0 0.041229191
C  C199  1  0.18730000  0.11920000  0.88030000  1.0 -0.0691770973
C  C200  1  0.81270000  0.61920000  0.11970000  1.0 -0.0691770973
C  C201  1  0.15870000  0.08090000  0.75120000  1.0 0.0609274507
C  C202  1  0.84130000  0.58090000  0.24880000  1.0 0.0609274507
C  C203  1  0.16660000  0.06150000  0.80910000  1.0 -0.0095521586
C  C204  1  0.83340000  0.56150000  0.19090000  1.0 -0.0095521586
C  C205  1  0.61860000  0.54980000  0.20040000  1.0 0.6406654158
C  C206  1  0.38140000  0.04980000  0.79960000  1.0 0.6406654158
C  C207  1  0.98050000  0.37810000  0.98760000  1.0 -0.0691770973
C  C208  1  0.01950000  0.87810000  0.01240000  1.0 -0.058936594
C  C209  1  0.16660000  0.12340000  0.75460000  1.0 0.0217537123
C  C210  1  0.83340000  0.62340000  0.24540000  1.0 0.0217537123
C  C211  1  0.42510000  0.24840000  0.70710000  1.0 0.0217537123
C  C212  1  0.57490000  0.74840000  0.29290000  1.0 0.0217537123
C  C213  1  0.12850000  0.62770000  0.13520000  1.0 -0.1077984272
C  C214  1  0.87150000  0.12770000  0.86480000  1.0 -0.1077984272
C  C215  1  0.12940000  0.65930000  0.09000000  1.0 0.130544413
C  C216  1  0.87060000  0.15930000  0.91000000  1.0 0.130544413
C  C217  1  0.06550000  0.61490000  0.14210000  1.0 0.0871216979
C  C218  1  0.93450000  0.11490000  0.85790000  1.0 0.0871216979
C  C219  1  0.44440000  0.60570000  0.36980000  1.0 0.6114156616
C  C220  1  0.55560000  0.10570000  0.63020000  1.0 0.6114156616
C  C221  1  0.40900000  0.60270000  0.13890000  1.0 0.6114156616
C  C222  1  0.59100000  0.10270000  0.86110000  1.0 0.6114156616
C  C223  1  0.55860000  0.67810000  0.98290000  1.0 0.078727553
C  C224  1  0.44140000  0.17810000  0.01710000  1.0 0.078727553
C  C225  1  0.52430000  0.67350000  0.91040000  1.0 -0.0691770973
C  C226  1  0.47570000  0.17350000  0.08960000  1.0 -0.0691770973
C  C227  1  0.63890000  0.70910000  0.90900000  1.0 0.0700591713
C  C228  1  0.36110000  0.20910000  0.09100000  1.0 0.0700591713
C  C229  1  0.62910000  0.69870000  0.02060000  1.0 -0.0496560871
C  C230  1  0.37090000  0.19870000  0.97940000  1.0 -0.0496560871
C  C231  1  0.66580000  0.71270000  0.98570000  1.0 -0.0823751187
C  C232  1  0.33420000  0.21270000  0.01430000  1.0 -0.0823751187
C  C233  1  0.56610000  0.68700000  0.87540000  1.0 0.0022573942
C  C234  1  0.43390000  0.18700000  0.12460000  1.0 0.0022573942
C  C235  1  0.51570000  0.65660000  0.02590000  1.0 0.0609274507
C  C236  1  0.48430000  0.15660000  0.97410000  1.0 0.0609274507
C  C237  1  0.49880000  0.64600000  0.13110000  1.0 0.0700591713
C  C238  1  0.50120000  0.14600000  0.86890000  1.0 0.0700591713
C  C239  1  0.41800000  0.60900000  0.02670000  1.0 0.0996092019
C  C240  1  0.58200000  0.10900000  0.97330000  1.0 0.0996092019
C  C241  1  0.53870000  0.67020000  0.09440000  1.0 -0.0496560871
C  C242  1  0.46130000  0.17020000  0.90560000  1.0 -0.0496560871
C  C243  1  0.44790000  0.62130000  0.10040000  1.0 -0.058936594
C  C244  1  0.55210000  0.12130000  0.89960000  1.0 -0.058936594
C  C245  1  0.65060000  0.70700000  0.79180000  1.0 0.041229191
C  C246  1  0.34940000  0.20700000  0.20820000  1.0 0.041229191
C  C247  1  0.54620000  0.70660000  0.67240000  1.0 -0.018863439
C  C248  1  0.45380000  0.20660000  0.32760000  1.0 -0.018863439
C  C249  1  0.57810000  0.72280000  0.74200000  1.0 -0.0406099321
C  C250  1  0.42190000  0.22280000  0.25800000  1.0 -0.0406099321
C  C251  1  0.58410000  0.67900000  0.65350000  1.0 0.0700591713
C  C252  1  0.41590000  0.17900000  0.34650000  1.0 0.0700591713
C  C253  1  0.65480000  0.66790000  0.69580000  1.0 -0.058936594
C  C254  1  0.34520000  0.16790000  0.30420000  1.0 -0.058936594
C  C255  1  0.68630000  0.68090000  0.76680000  1.0 -0.058936594
C  C256  1  0.31370000  0.18090000  0.23320000  1.0 -0.058936594
C  C257  1  0.68260000  0.72330000  0.86990000  1.0 0.0609274507
C  C258  1  0.31740000  0.22330000  0.13010000  1.0 0.0609274507
C  C259  1  0.54990000  0.66430000  0.57570000  1.0 0.0996092019
C  C260  1  0.45010000  0.16430000  0.42430000  1.0 0.0996092019
C  C261  1  0.47550000  0.67443000  0.52920000  1.0 -0.0823751187
C  C262  1  0.52450000  0.17443000  0.47080000  1.0 -0.0823751187
C  C263  1  0.44010000  0.65670000  0.46270000  1.0 0.041229191
C  C264  1  0.55990000  0.15670000  0.53730000  1.0 0.041229191
C  C265  1  0.47900000  0.62870000  0.44270000  1.0 -0.018863439
C  C266  1  0.52100000  0.12870000  0.55730000  1.0 -0.018863439
C  C267  1  0.55330000  0.61850000  0.48910000  1.0 0.0093754155
C  C268  1  0.44670000  0.11850000  0.51090000  1.0 0.0093754155
C  C269  1  0.58870000  0.63630000  0.55560000  1.0 -0.0691770973
C  C270  1  0.41130000  0.13630000  0.44440000  1.0 -0.0691770973
C  C271  1  0.65290000  0.84830000  0.83650000  1.0 0.0506776915
C  C272  1  0.34710000  0.34830000  0.16350000  1.0 0.0506776915
C  C273  1  0.63780000  0.79080000  0.89360000  1.0 -0.0095521586
C  C274  1  0.36220000  0.29080000  0.10640000  1.0 -0.0095521586
C  C275  1  0.67690000  0.76870000  0.86480000  1.0 0.0700591713
C  C276  1  0.32310000  0.26870000  0.13520000  1.0 0.0700591713
C  C277  1  0.62850000  0.83300000  0.87890000  1.0 -0.058936594
C  C278  1  0.37150000  0.33300000  0.12110000  1.0 -0.058936594
C  C279  1  0.69170000  0.82420000  0.80240000  1.0 0.041229191
C  C280  1  0.30830000  0.32420000  0.19760000  1.0 0.041229191
C  C281  1  0.70600000  0.78490000  0.81780000  1.0 -0.058936594
C  C282  1  0.29400000  0.28490000  0.18220000  1.0 -0.058936594
C  C283  1  0.55700000  0.94860000  0.79290000  1.0 0.0700591713
C  C284  1  0.44300000  0.44860000  0.20710000  1.0 0.0700591713
C  C285  1  0.60910000  0.97070000  0.77670000  1.0 -0.0823751187
C  C286  1  0.39090000  0.47070000  0.22330000  1.0 -0.0823751187
C  C287  1  0.67640000  0.95480000  0.77930000  1.0 0.041229191
C  C288  1  0.32360000  0.45480000  0.22070000  1.0 0.041229191
C  C289  1  0.63620000  0.89060000  0.81360000  1.0 0.0871216979
C  C290  1  0.36380000  0.39060000  0.18640000  1.0 0.0871216979
C  C291  1  0.56960000  0.90790000  0.81240000  1.0 -0.0496560871
C  C292  1  0.43040000  0.40790000  0.18760000  1.0 -0.0496560871
C  C293  1  0.68880000  0.91420000  0.79770000  1.0 -0.0406099321
C  C294  1  0.31120000  0.41420000  0.20230000  1.0 -0.0406099321
C  C295  1  0.76380000  0.70950000  0.91410000  1.0 0.041229191
C  C296  1  0.23620000  0.20950000  0.08590000  1.0 0.041229191
C  C297  1  0.77440000  0.67000000  0.92930000  1.0 0.0093754155
C  C298  1  0.22560000  0.17000000  0.07070000  1.0 0.0093754155
C  C299  1  0.85110000  0.65480000  0.97090000  1.0 -0.018863439
C  C300  1  0.14890000  0.15480000  0.02910000  1.0 -0.0095521586
C  C301  1  0.91080000  0.67940000  0.99610000  1.0 0.0700591713
C  C302  1  0.08920000  0.17940000  0.00390000  1.0 0.0609274507
C  C303  1  0.90180000  0.71760000  0.98290000  1.0 -0.004031958
C  C304  1  0.09820000  0.21760000  0.01710000  1.0 0.0022573942
C  C305  1  0.82730000  0.73610000  0.94060000  1.0 -0.1077984272
C  C306  1  0.17270000  0.23610000  0.05940000  1.0 -0.1008750404
C  C307  1  0.99180000  0.66440000  0.04820000  1.0 0.078727553
C  C308  1  0.00820000  0.16440000  0.95180000  1.0 0.078727553
C  C309  1  0.98910000  0.63430000  0.09160000  1.0 -0.0496560871
C  C310  1  0.01090000  0.13430000  0.90840000  1.0 -0.0496560871
C  C311  1  0.59210000  0.01270000  0.76140000  1.0 0.6205712992
C  C312  1  0.40790000  0.51270000  0.23860000  1.0 0.6205712992
C  C313  1  0.45960000  0.62980000  0.99370000  1.0 -0.0691770973
C  C314  1  0.54040000  0.12980000  0.00630000  1.0 -0.0691770973
C  C315  1  0.05260000  0.68020000  0.03670000  1.0 -0.058936594
C  C316  1  0.94740000  0.18020000  0.96330000  1.0 -0.058936594
C  C317  1  0.22140000  0.60380000  0.18400000  1.0 0.464507077
C  C318  1  0.77860000  0.10380000  0.81600000  1.0 0.466026161
O  O1  1  0.30010000  0.12711000  0.67170000  1.0 -0.5204985625
O  O2  1  0.69990000  0.62711000  0.32830000  1.0 -0.5204985625
O  O3  1  0.68940000  0.54128000  0.24250000  1.0 -0.6255170069
O  O4  1  0.31060000  0.04128000  0.75750000  1.0 -0.6225200555
O  O5  1  0.57710000  0.57035000  0.21830000  1.0 -0.552938378
O  O6  1  0.42290000  0.07035000  0.78170000  1.0 -0.552938378
O  O7  1  0.42080000  0.12760000  0.67730000  1.0 -0.552938378
O  O8  1  0.57920000  0.62760000  0.32270000  1.0 -0.5556718073
O  O9  1  0.83310000  0.57480000  0.39730000  1.0 -0.4425358734
O  O10  1  0.16690000  0.07480000  0.60270000  1.0 -0.4425358734
O  O11  1  0.63050000  0.54206000  0.35920000  1.0 -0.5896748465
O  O12  1  0.36950000  0.04206000  0.64080000  1.0 -0.5896748465
O  O13  1  0.71970000  0.56830000  0.45490000  1.0 -0.4911826215
O  O14  1  0.28030000  0.06830000  0.54510000  1.0 -0.4911826215
O  O15  1  0.90360000  0.41850000  0.28790000  1.0 -0.5402683081
O  O16  1  0.09640000  0.91850000  0.71210000  1.0 -0.5402683081
O  O17  1  0.79280000  0.51450000  0.37490000  1.0 -0.6225200555
O  O18  1  0.20720000  0.01450000  0.62510000  1.0 -0.6142599544
O  O19  1  0.81290000  0.43404000  0.32660000  1.0 -0.5402683081
O  O20  1  0.18710000  0.93404000  0.67340000  1.0 -0.5402683081
O  O21  1  0.16280000  0.00180000  0.74980000  1.0 -0.6001793306
O  O22  1  0.83720000  0.50180000  0.25020000  1.0 -0.6001793306
O  O23  1  0.75050000  0.42390000  0.13640000  1.0 -0.4572294018
O  O24  1  0.24950000  0.92390000  0.86360000  1.0 -0.4572294018
O  O25  1  0.89250000  0.41340000  0.12780000  1.0 -0.4306659362
O  O26  1  0.10750000  0.91340000  0.87220000  1.0 -0.4306659362
O  O27  1  0.68330000  0.45400000  0.18870000  1.0 -0.6225200555
O  O28  1  0.31670000  0.95400000  0.81130000  1.0 -0.6225200555
O  O29  1  0.00050000  0.44110000  0.19590000  1.0 -0.4991007359
O  O30  1  0.99950000  0.94110000  0.80410000  1.0 -0.4991007359
O  O31  1  0.14200000  0.99770000  0.84630000  1.0 -0.5204985625
O  O32  1  0.85800000  0.49770000  0.15370000  1.0 -0.5204985625
O  O33  1  0.52600000  0.02302000  0.74710000  1.0 -0.5204985625
O  O34  1  0.47400000  0.52302000  0.25290000  1.0 -0.5204985625
O  O35  1  0.64540000  0.03147000  0.76000000  1.0 -0.4991007359
O  O36  1  0.35460000  0.53147000  0.24000000  1.0 -0.4991007359
O  O37  1  0.43140000  0.60816000  0.20640000  1.0 -0.6001793306
O  O38  1  0.56860000  0.10816000  0.79360000  1.0 -0.5896748465
O  O39  1  0.48490000  0.58252000  0.35960000  1.0 -0.5402683081
O  O40  1  0.51510000  0.08252000  0.64040000  1.0 -0.5402683081
O  O41  1  0.37870000  0.61680000  0.32930000  1.0 -0.4991007359
O  O42  1  0.62130000  0.11680000  0.67070000  1.0 -0.4991007359
O  O43  1  0.35380000  0.57950000  0.10610000  1.0 -0.5204985625
O  O44  1  0.64620000  0.07950000  0.89390000  1.0 -0.5204985625
O  O45  1  0.25470000  0.62130000  0.16710000  1.0 -0.3583987541
O  O46  1  0.74530000  0.12130000  0.83290000  1.0 -0.3583987541
O  O47  1  0.20970000  0.58710000  0.22550000  1.0 -0.3583987541
O  O48  1  0.79030000  0.08710000  0.77450000  1.0 -0.3583987541
