# DDEC6 charges by PACMAN v1.1 (https://github.com/mtap-research/PACMAN-charge/)
data_VEYREX_ion_pacman
_symmetry_space_group_name_H-M   'P 1'
_cell_length_a   11.84890000
_cell_length_b   11.84890000
_cell_length_c   12.11300000
_cell_angle_alpha   86.46410000
_cell_angle_beta   93.53590000
_cell_angle_gamma   87.71240000
_symmetry_Int_Tables_number   1
_chemical_formula_structural   CoH8C10N7ClO4
_chemical_formula_sum   'Co4 H32 C40 N28 Cl4 O16'
_cell_volume   1692.52110899
_cell_formula_units_Z   4
loop_
 _symmetry_equiv_pos_site_id
 _symmetry_equiv_pos_as_xyz
  1  'x, y, z'
loop_
 _atom_site_type_symbol
 _atom_site_label
 _atom_site_symmetry_multiplicity
 _atom_site_fract_x
 _atom_site_fract_y
 _atom_site_fract_z
 _atom_site_occupancy
 _atom_site_charge
Co  Co1  1  0.47102000  0.23758000  0.93858000  1.0 0.6936060846
Co  Co2  1  0.23758000  0.47102000  0.56142000  1.0 0.6936060846
Co  Co3  1  0.52898000  0.76242000  0.06142000  1.0 0.6950465501
Co  Co4  1  0.76242000  0.52898000  0.43858000  1.0 0.6936060846
H  H1  1  0.74200000  0.18260000  0.95250000  1.0 0.1190196723
H  H2  1  0.18260000  0.74200000  0.54750000  1.0 0.1258602622
H  H3  1  0.25800000  0.81740000  0.04750000  1.0 0.1258602622
H  H4  1  0.81740000  0.25800000  0.45250000  1.0 0.1258602622
H  H5  1  0.86210000  0.02770000  0.00420000  1.0 0.1670628995
H  H6  1  0.02770000  0.86210000  0.49580000  1.0 0.1670628995
H  H7  1  0.13790000  0.97230000  0.99580000  1.0 0.1670628995
H  H8  1  0.97230000  0.13790000  0.50420000  1.0 0.1670628995
H  H9  1  0.78410000  0.85790000  0.05500000  1.0 0.1258602622
H  H10  1  0.85790000  0.78410000  0.44500000  1.0 0.1258602622
H  H11  1  0.21590000  0.14210000  0.94500000  1.0 0.1258602622
H  H12  1  0.14210000  0.21590000  0.55500000  1.0 0.1258602622
H  H13  1  0.11390000  0.56110000  0.77880000  1.0 0.1258602622
H  H14  1  0.56110000  0.11390000  0.72120000  1.0 0.1258602622
H  H15  1  0.88610000  0.43890000  0.22120000  1.0 0.1258602622
H  H16  1  0.43890000  0.88610000  0.27880000  1.0 0.1258602622
H  H17  1  0.14310000  0.52990000  0.96950000  1.0 0.1670628995
H  H18  1  0.52990000  0.14310000  0.53050000  1.0 0.1670628995
H  H19  1  0.85690000  0.47010000  0.03050000  1.0 0.1670628995
H  H20  1  0.47010000  0.85690000  0.46950000  1.0 0.1670628995
H  H21  1  0.27470000  0.39110000  0.03980000  1.0 0.1190196723
H  H22  1  0.39110000  0.27470000  0.46020000  1.0 0.1190196723
H  H23  1  0.72530000  0.60890000  0.96020000  1.0 0.1190196723
H  H24  1  0.60890000  0.72530000  0.53980000  1.0 0.1190196723
H  H25  1  0.51580000  0.00140000  0.00130000  1.0 0.1475018211
H  H26  1  0.00140000  0.51580000  0.49870000  1.0 0.1475018211
H  H27  1  0.48420000  0.99860000  0.99870000  1.0 0.1475018211
H  H28  1  0.99860000  0.48420000  0.50130000  1.0 0.1475018211
H  H29  1  0.34320000  0.32640000  0.73960000  1.0 0.1475018211
H  H30  1  0.32640000  0.34320000  0.76040000  1.0 0.1475018211
H  H31  1  0.65680000  0.67360000  0.26040000  1.0 0.1475018211
H  H32  1  0.67360000  0.65680000  0.23960000  1.0 0.1475018211
C  C1  1  0.56490000  0.00470000  0.00010000  1.0 0.078936568
C  C2  1  0.00470000  0.56490000  0.49990000  1.0 0.078936568
C  C3  1  0.43510000  0.99530000  0.99990000  1.0 0.078936568
C  C4  1  0.99530000  0.43510000  0.50010000  1.0 0.078936568
C  C5  1  0.71210000  0.11350000  0.97250000  1.0 0.1058402587
C  C6  1  0.11350000  0.71210000  0.52750000  1.0 0.1058402587
C  C7  1  0.28790000  0.88650000  0.02750000  1.0 0.1058402587
C  C8  1  0.88650000  0.28790000  0.47250000  1.0 0.1058402587
C  C9  1  0.78410000  0.02190000  0.00330000  1.0 -0.1694052234
C  C10  1  0.02190000  0.78410000  0.49670000  1.0 -0.1694052234
C  C11  1  0.21590000  0.97810000  0.99670000  1.0 -0.1694052234
C  C12  1  0.97810000  0.21590000  0.50330000  1.0 -0.1694052234
C  C13  1  0.73690000  0.92090000  0.03280000  1.0 0.0908076109
C  C14  1  0.92090000  0.73690000  0.46720000  1.0 0.0908076109
C  C15  1  0.26310000  0.07910000  0.96720000  1.0 0.0908076109
C  C16  1  0.07910000  0.26310000  0.53280000  1.0 0.0908076109
C  C17  1  0.30050000  0.36990000  0.78830000  1.0 0.0691636861
C  C18  1  0.36990000  0.30050000  0.71170000  1.0 0.0691636861
C  C19  1  0.69950000  0.63010000  0.21170000  1.0 0.0691636861
C  C20  1  0.63010000  0.69950000  0.28830000  1.0 0.0691636861
C  C21  1  0.16700000  0.50580000  0.80840000  1.0 0.0908076109
C  C22  1  0.50580000  0.16700000  0.69160000  1.0 0.0908076109
C  C23  1  0.83300000  0.49420000  0.19160000  1.0 0.0908076109
C  C24  1  0.49420000  0.83300000  0.30840000  1.0 0.0908076109
C  C25  1  0.18410000  0.48770000  0.92220000  1.0 -0.1618568278
C  C26  1  0.48770000  0.18410000  0.57780000  1.0 -0.1618568278
C  C27  1  0.81590000  0.51230000  0.07780000  1.0 -0.1618568278
C  C28  1  0.51230000  0.81590000  0.42220000  1.0 -0.1618568278
C  C29  1  0.26330000  0.40570000  0.96350000  1.0 0.0908076109
C  C30  1  0.40570000  0.26330000  0.53650000  1.0 0.0908076109
C  C31  1  0.73670000  0.59430000  0.03650000  1.0 0.0908076109
C  C32  1  0.59430000  0.73670000  0.46350000  1.0 0.0908076109
C  C33  1  0.63540000  0.42100000  0.84310000  1.0 0.4389424086
C  C34  1  0.42100000  0.63540000  0.65690000  1.0 0.4389424086
C  C35  1  0.36460000  0.57900000  0.15690000  1.0 0.4389424086
C  C36  1  0.57900000  0.36460000  0.34310000  1.0 0.4389424086
C  C37  1  0.71120000  0.50520000  0.69360000  1.0 0.4181209192
C  C38  1  0.50520000  0.71120000  0.80640000  1.0 0.4181209192
C  C39  1  0.28880000  0.49480000  0.30640000  1.0 0.4181209192
C  C40  1  0.49480000  0.28880000  0.19360000  1.0 0.4181209192
N  N1  1  0.59980000  0.10520000  0.97070000  1.0 -0.2207963835
N  N2  1  0.10520000  0.59980000  0.52930000  1.0 -0.2207963835
N  N3  1  0.40020000  0.89480000  0.02930000  1.0 -0.2207963835
N  N4  1  0.89480000  0.40020000  0.47070000  1.0 -0.2207963835
N  N5  1  0.62480000  0.91140000  0.03030000  1.0 -0.2273607585
N  N6  1  0.91140000  0.62480000  0.46970000  1.0 -0.2273607585
N  N7  1  0.37520000  0.08860000  0.96970000  1.0 -0.2273607585
N  N8  1  0.08860000  0.37520000  0.53030000  1.0 -0.2273607585
N  N9  1  0.32440000  0.34640000  0.89600000  1.0 -0.2273607585
N  N10  1  0.34640000  0.32440000  0.60400000  1.0 -0.2273607585
N  N11  1  0.67560000  0.65360000  0.10400000  1.0 -0.2273607585
N  N12  1  0.65360000  0.67560000  0.39600000  1.0 -0.2273607585
N  N13  1  0.22570000  0.44470000  0.74030000  1.0 -0.2207963835
N  N14  1  0.44470000  0.22570000  0.75970000  1.0 -0.2207963835
N  N15  1  0.77430000  0.55530000  0.25970000  1.0 -0.2207963835
N  N16  1  0.55530000  0.77430000  0.24030000  1.0 -0.2207963835
N  N17  1  0.58470000  0.35850000  0.89350000  1.0 -0.5019734367
N  N18  1  0.35850000  0.58470000  0.60650000  1.0 -0.5019734367
N  N19  1  0.41530000  0.64150000  0.10650000  1.0 -0.5019734367
N  N20  1  0.64150000  0.41530000  0.39350000  1.0 -0.5019734367
N  N21  1  0.69630000  0.49630000  0.79850000  1.0 -0.3714870303
N  N22  1  0.49630000  0.69630000  0.70150000  1.0 -0.3714870303
N  N23  1  0.30370000  0.50370000  0.20150000  1.0 -0.3714870303
N  N24  1  0.50370000  0.30370000  0.29850000  1.0 -0.3714870303
N  N25  1  0.72780000  0.52360000  0.60200000  1.0 -0.5019734367
N  N26  1  0.52360000  0.72780000  0.89800000  1.0 -0.5019734367
N  N27  1  0.27220000  0.47640000  0.39800000  1.0 -0.5019734367
N  N28  1  0.47640000  0.27220000  0.10200000  1.0 -0.5019734367
Cl  Cl1  1  0.95513000  0.27947000  0.82390000  1.0 1.2591470242
Cl  Cl2  1  0.27947000  0.95513000  0.67610000  1.0 1.2591470242
Cl  Cl3  1  0.04487000  0.72053000  0.17610000  1.0 1.2591470242
Cl  Cl4  1  0.72053000  0.04487000  0.32390000  1.0 1.2591470242
O  O1  1  0.94740000  0.38100000  0.74760000  1.0 -0.4839872285
O  O2  1  0.86930000  0.21630000  0.77730000  1.0 -0.4585321485
O  O3  1  0.06670000  0.24150000  0.81190000  1.0 -0.4693133994
O  O4  1  0.92790000  0.31090000  0.92520000  1.0 -0.4457166358
O  O5  1  0.38100000  0.94740000  0.75240000  1.0 -0.4839872285
O  O6  1  0.21630000  0.86930000  0.72270000  1.0 -0.4585321485
O  O7  1  0.24150000  0.06670000  0.68810000  1.0 -0.4693133994
O  O8  1  0.31090000  0.92790000  0.57480000  1.0 -0.4457166358
O  O9  1  0.05260000  0.61900000  0.25240000  1.0 -0.4839872285
O  O10  1  0.13070000  0.78370000  0.22270000  1.0 -0.4585321485
O  O11  1  0.93330000  0.75850000  0.18810000  1.0 -0.4693133994
O  O12  1  0.07210000  0.68910000  0.07480000  1.0 -0.4457166358
O  O13  1  0.61900000  0.05260000  0.24760000  1.0 -0.4839872285
O  O14  1  0.78370000  0.13070000  0.27730000  1.0 -0.4585321485
O  O15  1  0.75850000  0.93330000  0.31190000  1.0 -0.4693133994
O  O16  1  0.68910000  0.07210000  0.42520000  1.0 -0.4457166358
