# DDEC6 charges by PACMAN v1.1 (https://github.com/mtap-research/PACMAN-charge/)
data_VEYVEC_ASR_pacman
_symmetry_space_group_name_H-M   'P 1'
_cell_length_a   17.80690000
_cell_length_b   17.80690000
_cell_length_c   11.38160000
_cell_angle_alpha   90.00000000
_cell_angle_beta   90.00000000
_cell_angle_gamma   129.39400000
_symmetry_Int_Tables_number   1
_chemical_formula_structural   CoH5C11NO6
_chemical_formula_sum   'Co8 H40 C88 N8 O48'
_cell_volume   2788.99087216
_cell_formula_units_Z   8
loop_
 _symmetry_equiv_pos_site_id
 _symmetry_equiv_pos_as_xyz
  1  'x, y, z'
loop_
 _atom_site_type_symbol
 _atom_site_label
 _atom_site_symmetry_multiplicity
 _atom_site_fract_x
 _atom_site_fract_y
 _atom_site_fract_z
 _atom_site_occupancy
 _atom_site_charge
Co  Co1  1  0.13899000  0.13899000  0.70680000  1.0 1.0420030984
Co  Co2  1  0.86101000  0.86101000  0.29320000  1.0 1.0462935599
Co  Co3  1  0.11905000  0.88095000  0.00000000  1.0 0.8832517299
Co  Co4  1  0.88095000  0.11905000  0.00000000  1.0 0.8832517299
Co  Co5  1  0.36101000  0.36101000  0.20680000  1.0 1.0462935599
Co  Co6  1  0.63899000  0.63899000  0.79320000  1.0 1.0420030984
Co  Co7  1  0.38095000  0.61905000  0.50000000  1.0 0.8832517299
Co  Co8  1  0.61905000  0.38095000  0.50000000  1.0 0.8832517299
H  H1  1  0.34350000  0.08970000  0.75230000  1.0 0.3569439683
H  H2  1  0.91030000  0.65650000  0.24770000  1.0 0.3569439683
H  H3  1  0.65650000  0.91030000  0.24770000  1.0 0.3569439683
H  H4  1  0.08970000  0.34350000  0.75230000  1.0 0.3569439683
H  H5  1  0.98690000  0.68990000  0.86820000  1.0 0.1203890662
H  H6  1  0.31010000  0.01310000  0.13180000  1.0 0.1203890662
H  H7  1  0.01310000  0.31010000  0.13180000  1.0 0.1203890662
H  H8  1  0.68990000  0.98690000  0.86820000  1.0 0.1203890662
H  H9  1  0.93940000  0.53620000  0.86100000  1.0 0.1321908828
H  H10  1  0.46380000  0.06060000  0.13900000  1.0 0.1321908828
H  H11  1  0.06060000  0.46380000  0.13900000  1.0 0.1321908828
H  H12  1  0.53620000  0.93940000  0.86100000  1.0 0.1321908828
H  H13  1  0.09360000  0.59740000  0.15070000  1.0 0.1203890662
H  H14  1  0.40260000  0.90640000  0.84930000  1.0 0.1203890662
H  H15  1  0.90640000  0.40260000  0.84930000  1.0 0.1203890662
H  H16  1  0.59740000  0.09360000  0.15070000  1.0 0.1203890662
H  H17  1  0.13530000  0.74850000  0.15170000  1.0 0.1109852644
H  H18  1  0.25150000  0.86470000  0.84830000  1.0 0.1109852644
H  H19  1  0.86470000  0.25150000  0.84830000  1.0 0.1109852644
H  H20  1  0.74850000  0.13530000  0.15170000  1.0 0.1109852644
H  H21  1  0.15650000  0.41030000  0.25230000  1.0 0.3569439683
H  H22  1  0.58970000  0.84350000  0.74770000  1.0 0.3569439683
H  H23  1  0.84350000  0.58970000  0.74770000  1.0 0.3569439683
H  H24  1  0.41030000  0.15650000  0.25230000  1.0 0.3569439683
H  H25  1  0.51310000  0.81010000  0.36820000  1.0 0.1203890662
H  H26  1  0.18990000  0.48690000  0.63180000  1.0 0.1203890662
H  H27  1  0.48690000  0.18990000  0.63180000  1.0 0.1203890662
H  H28  1  0.81010000  0.51310000  0.36820000  1.0 0.1203890662
H  H29  1  0.56060000  0.96380000  0.36100000  1.0 0.1321908828
H  H30  1  0.03620000  0.43940000  0.63900000  1.0 0.1321908828
H  H31  1  0.43940000  0.03620000  0.63900000  1.0 0.1321908828
H  H32  1  0.96380000  0.56060000  0.36100000  1.0 0.1321908828
H  H33  1  0.40640000  0.90260000  0.65070000  1.0 0.1203890662
H  H34  1  0.09740000  0.59360000  0.34930000  1.0 0.1203890662
H  H35  1  0.59360000  0.09740000  0.34930000  1.0 0.1203890662
H  H36  1  0.90260000  0.40640000  0.65070000  1.0 0.1203890662
H  H37  1  0.36470000  0.75150000  0.65170000  1.0 0.1109852644
H  H38  1  0.24850000  0.63530000  0.34830000  1.0 0.1109852644
H  H39  1  0.63530000  0.24850000  0.34830000  1.0 0.1109852644
H  H40  1  0.75150000  0.36470000  0.65170000  1.0 0.1109852644
C  C1  1  0.23538000  0.04030000  0.67660000  1.0 0.6106770518
C  C2  1  0.95970000  0.76462000  0.32340000  1.0 0.6106770518
C  C3  1  0.76462000  0.95970000  0.32340000  1.0 0.6106770518
C  C4  1  0.04030000  0.23538000  0.67660000  1.0 0.6106770518
C  C5  1  0.05215000  0.86453000  0.74730000  1.0 0.5678831744
C  C6  1  0.13547000  0.94785000  0.25270000  1.0 0.5678831744
C  C7  1  0.94785000  0.13547000  0.25270000  1.0 0.5678831744
C  C8  1  0.86453000  0.05215000  0.74730000  1.0 0.5678831744
C  C9  1  0.28527000  0.07963000  0.42240000  1.0 0.5641360614
C  C10  1  0.92037000  0.71473000  0.57760000  1.0 0.5641360614
C  C11  1  0.71473000  0.92037000  0.57760000  1.0 0.5641360614
C  C12  1  0.07963000  0.28527000  0.42240000  1.0 0.5641360614
C  C13  1  0.16764000  0.96668000  0.58350000  1.0 -0.0803167675
C  C14  1  0.03332000  0.83236000  0.41650000  1.0 -0.0803167675
C  C15  1  0.83236000  0.03332000  0.41650000  1.0 -0.0803167675
C  C16  1  0.96668000  0.16764000  0.58350000  1.0 -0.0803167675
C  C17  1  0.07962000  0.87978000  0.61910000  1.0 -0.0406262577
C  C18  1  0.12022000  0.92038000  0.38090000  1.0 -0.0406262577
C  C19  1  0.92038000  0.12022000  0.38090000  1.0 -0.0406262577
C  C20  1  0.87978000  0.07962000  0.61910000  1.0 -0.0406262577
C  C21  1  0.18934000  0.98658000  0.46370000  1.0 -0.0406262577
C  C22  1  0.01342000  0.81066000  0.53630000  1.0 -0.0406262577
C  C23  1  0.81066000  0.01342000  0.53630000  1.0 -0.0406262577
C  C24  1  0.98658000  0.18934000  0.46370000  1.0 -0.0406262577
C  C25  1  0.01064000  0.67176000  0.92680000  1.0 0.1109852644
C  C26  1  0.32824000  0.98936000  0.07320000  1.0 0.1109852644
C  C27  1  0.98936000  0.32824000  0.07320000  1.0 0.1109852644
C  C28  1  0.67176000  0.01064000  0.92680000  1.0 0.1109852644
C  C29  1  0.98212000  0.57928000  0.92160000  1.0 -0.1701804217
C  C30  1  0.42072000  0.01788000  0.07840000  1.0 -0.1701804217
C  C31  1  0.01788000  0.42072000  0.07840000  1.0 -0.1701804217
C  C32  1  0.57928000  0.98212000  0.92160000  1.0 -0.1701804217
C  C33  1  0.01435000  0.54925000  0.00180000  1.0 0.1109852644
C  C34  1  0.45075000  0.98565000  0.99820000  1.0 0.1109852644
C  C35  1  0.98565000  0.45075000  0.99820000  1.0 0.1109852644
C  C36  1  0.54925000  0.01435000  0.00180000  1.0 0.1109852644
C  C37  1  0.07103000  0.61477000  0.08920000  1.0 -0.1993869845
C  C38  1  0.38523000  0.92897000  0.91080000  1.0 -0.1993869845
C  C39  1  0.92897000  0.38523000  0.91080000  1.0 -0.1993869845
C  C40  1  0.61477000  0.07103000  0.08920000  1.0 -0.1993869845
C  C41  1  0.09598000  0.70542000  0.08930000  1.0 0.083411369
C  C42  1  0.29458000  0.90402000  0.91070000  1.0 0.083411369
C  C43  1  0.90402000  0.29458000  0.91070000  1.0 0.083411369
C  C44  1  0.70542000  0.09598000  0.08930000  1.0 0.083411369
C  C45  1  0.26462000  0.45970000  0.17660000  1.0 0.6106770518
C  C46  1  0.54030000  0.73538000  0.82340000  1.0 0.6106770518
C  C47  1  0.73538000  0.54030000  0.82340000  1.0 0.6106770518
C  C48  1  0.45970000  0.26462000  0.17660000  1.0 0.6106770518
C  C49  1  0.44785000  0.63547000  0.24730000  1.0 0.5678831744
C  C50  1  0.36453000  0.55215000  0.75270000  1.0 0.5678831744
C  C51  1  0.55215000  0.36453000  0.75270000  1.0 0.5678831744
C  C52  1  0.63547000  0.44785000  0.24730000  1.0 0.5678831744
C  C53  1  0.21473000  0.42037000  0.92240000  1.0 0.5641360614
C  C54  1  0.57963000  0.78527000  0.07760000  1.0 0.5641360614
C  C55  1  0.78527000  0.57963000  0.07760000  1.0 0.5641360614
C  C56  1  0.42037000  0.21473000  0.92240000  1.0 0.5641360614
C  C57  1  0.33236000  0.53332000  0.08350000  1.0 -0.0803167675
C  C58  1  0.46668000  0.66764000  0.91650000  1.0 -0.0803167675
C  C59  1  0.66764000  0.46668000  0.91650000  1.0 -0.0803167675
C  C60  1  0.53332000  0.33236000  0.08350000  1.0 -0.0803167675
C  C61  1  0.42038000  0.62022000  0.11910000  1.0 -0.0406262577
C  C62  1  0.37978000  0.57962000  0.88090000  1.0 -0.0406262577
C  C63  1  0.57962000  0.37978000  0.88090000  1.0 -0.0406262577
C  C64  1  0.62022000  0.42038000  0.11910000  1.0 -0.0406262577
C  C65  1  0.31066000  0.51342000  0.96370000  1.0 -0.0406262577
C  C66  1  0.48658000  0.68934000  0.03630000  1.0 -0.0406262577
C  C67  1  0.68934000  0.48658000  0.03630000  1.0 -0.0406262577
C  C68  1  0.51342000  0.31066000  0.96370000  1.0 -0.0406262577
C  C69  1  0.48936000  0.82824000  0.42680000  1.0 0.1109852644
C  C70  1  0.17176000  0.51064000  0.57320000  1.0 0.1109852644
C  C71  1  0.51064000  0.17176000  0.57320000  1.0 0.1109852644
C  C72  1  0.82824000  0.48936000  0.42680000  1.0 0.1109852644
C  C73  1  0.51788000  0.92072000  0.42160000  1.0 -0.1701804217
C  C74  1  0.07928000  0.48212000  0.57840000  1.0 -0.1701804217
C  C75  1  0.48212000  0.07928000  0.57840000  1.0 -0.1701804217
C  C76  1  0.92072000  0.51788000  0.42160000  1.0 -0.1701804217
C  C77  1  0.48565000  0.95075000  0.50180000  1.0 0.1109852644
C  C78  1  0.04925000  0.51435000  0.49820000  1.0 0.1109852644
C  C79  1  0.51435000  0.04925000  0.49820000  1.0 0.1109852644
C  C80  1  0.95075000  0.48565000  0.50180000  1.0 0.1109852644
C  C81  1  0.42897000  0.88523000  0.58920000  1.0 -0.1993869845
C  C82  1  0.11477000  0.57103000  0.41080000  1.0 -0.1993869845
C  C83  1  0.57103000  0.11477000  0.41080000  1.0 -0.1993869845
C  C84  1  0.88523000  0.42897000  0.58920000  1.0 -0.1993869845
C  C85  1  0.40402000  0.79458000  0.58930000  1.0 0.083411369
C  C86  1  0.20542000  0.59598000  0.41070000  1.0 0.083411369
C  C87  1  0.59598000  0.20542000  0.41070000  1.0 0.083411369
C  C88  1  0.79458000  0.40402000  0.58930000  1.0 0.083411369
N  N1  1  0.06821000  0.73555000  0.00750000  1.0 -0.2159553137
N  N2  1  0.26445000  0.93179000  0.99250000  1.0 -0.2159553137
N  N3  1  0.93179000  0.26445000  0.99250000  1.0 -0.2159553137
N  N4  1  0.73555000  0.06821000  0.00750000  1.0 -0.2159553137
N  N5  1  0.43179000  0.76445000  0.50750000  1.0 -0.2159553137
N  N6  1  0.23555000  0.56821000  0.49250000  1.0 -0.2159553137
N  N7  1  0.56821000  0.23555000  0.49250000  1.0 -0.2159553137
N  N8  1  0.76445000  0.43179000  0.50750000  1.0 -0.2159553137
O  O1  1  0.21657000  0.08829000  0.72601000  1.0 -0.5131472763
O  O2  1  0.91171000  0.78343000  0.27399000  1.0 -0.5131472763
O  O3  1  0.78343000  0.91171000  0.27399000  1.0 -0.5131472763
O  O4  1  0.08829000  0.21657000  0.72601000  1.0 -0.5131472763
O  O5  1  0.30933000  0.04637000  0.70133000  1.0 -0.4536777063
O  O6  1  0.95363000  0.69067000  0.29867000  1.0 -0.4536777063
O  O7  1  0.69067000  0.95363000  0.29867000  1.0 -0.4555104342
O  O8  1  0.04637000  0.30933000  0.70133000  1.0 -0.4536777063
O  O9  1  0.11188000  0.87468000  0.81845000  1.0 -0.5827955124
O  O10  1  0.12532000  0.88812000  0.18155000  1.0 -0.5827955124
O  O11  1  0.88812000  0.12532000  0.18155000  1.0 -0.5827955124
O  O12  1  0.87468000  0.11188000  0.81845000  1.0 -0.5827955124
O  O13  1  0.97355000  0.84693000  0.77256000  1.0 -0.4893410881
O  O14  1  0.15307000  0.02645000  0.22744000  1.0 -0.4893410881
O  O15  1  0.02645000  0.15307000  0.22744000  1.0 -0.4893410881
O  O16  1  0.84693000  0.97355000  0.77256000  1.0 -0.4893410881
O  O17  1  0.32900000  0.06976000  0.34459000  1.0 -0.5532465097
O  O18  1  0.93024000  0.67100000  0.65541000  1.0 -0.5532465097
O  O19  1  0.67100000  0.93024000  0.65541000  1.0 -0.5532465097
O  O20  1  0.06976000  0.32900000  0.34459000  1.0 -0.5532465097
O  O21  1  0.31311000  0.15713000  0.46831000  1.0 -0.5131472763
O  O22  1  0.84287000  0.68689000  0.53169000  1.0 -0.5131472763
O  O23  1  0.68689000  0.84287000  0.53169000  1.0 -0.5131472763
O  O24  1  0.15713000  0.31311000  0.46831000  1.0 -0.5131472763
O  O25  1  0.28343000  0.41171000  0.22601000  1.0 -0.5131472763
O  O26  1  0.58829000  0.71657000  0.77399000  1.0 -0.5131472763
O  O27  1  0.71657000  0.58829000  0.77399000  1.0 -0.5131472763
O  O28  1  0.41171000  0.28343000  0.22601000  1.0 -0.5131472763
O  O29  1  0.19067000  0.45363000  0.20133000  1.0 -0.4536777063
O  O30  1  0.54637000  0.80933000  0.79867000  1.0 -0.4536777063
O  O31  1  0.80933000  0.54637000  0.79867000  1.0 -0.4536777063
O  O32  1  0.45363000  0.19067000  0.20133000  1.0 -0.4536777063
O  O33  1  0.38812000  0.62532000  0.31845000  1.0 -0.5827955124
O  O34  1  0.37468000  0.61188000  0.68155000  1.0 -0.5827955124
O  O35  1  0.61188000  0.37468000  0.68155000  1.0 -0.5827955124
O  O36  1  0.62532000  0.38812000  0.31845000  1.0 -0.5827955124
O  O37  1  0.52645000  0.65307000  0.27256000  1.0 -0.4893410881
O  O38  1  0.34693000  0.47355000  0.72744000  1.0 -0.4893410881
O  O39  1  0.47355000  0.34693000  0.72744000  1.0 -0.4893410881
O  O40  1  0.65307000  0.52645000  0.27256000  1.0 -0.4893410881
O  O41  1  0.17100000  0.43024000  0.84459000  1.0 -0.5532465097
O  O42  1  0.56976000  0.82900000  0.15541000  1.0 -0.5532465097
O  O43  1  0.82900000  0.56976000  0.15541000  1.0 -0.5532465097
O  O44  1  0.43024000  0.17100000  0.84459000  1.0 -0.5532465097
O  O45  1  0.18689000  0.34287000  0.96831000  1.0 -0.5131472763
O  O46  1  0.65713000  0.81311000  0.03169000  1.0 -0.5131472763
O  O47  1  0.81311000  0.65713000  0.03169000  1.0 -0.5131472763
O  O48  1  0.34287000  0.18689000  0.96831000  1.0 -0.5131472763
