# DDEC6 charges by PACMAN v1.1 (https://github.com/mtap-research/PACMAN-charge/)
data_VEZQEX_ASR_pacman
_symmetry_space_group_name_H-M   'P 1'
_cell_length_a   10.16380000
_cell_length_b   10.16380000
_cell_length_c   16.22100000
_cell_angle_alpha   70.54280000
_cell_angle_beta   109.45700000
_cell_angle_gamma   128.55200000
_symmetry_Int_Tables_number   1
_chemical_formula_structural   InP2(HO4)2
_chemical_formula_sum   'In6 P12 H12 O48'
_cell_volume   1217.58286533
_cell_formula_units_Z   6
loop_
 _symmetry_equiv_pos_site_id
 _symmetry_equiv_pos_as_xyz
  1  'x, y, z'
loop_
 _atom_site_type_symbol
 _atom_site_label
 _atom_site_symmetry_multiplicity
 _atom_site_fract_x
 _atom_site_fract_y
 _atom_site_fract_z
 _atom_site_occupancy
 _atom_site_charge
In  In1  1  0.28588000  0.28588000  0.75000000  1.0 1.6950500799
In  In2  1  0.71412000  0.71412000  0.25000000  1.0 1.6922235084
In  In3  1  0.01581000  0.54505000  0.66022000  1.0 1.7257573199
In  In4  1  0.54505000  0.01581000  0.83978000  1.0 1.7257573199
In  In5  1  0.98419000  0.45495000  0.33978000  1.0 1.7257573199
In  In6  1  0.45495000  0.98419000  0.16022000  1.0 1.7257573199
P  P1  1  0.01050000  0.28652000  0.56848000  1.0 1.5888738011
P  P2  1  0.28652000  0.01050000  0.93152000  1.0 1.5888738011
P  P3  1  0.98950000  0.71348000  0.43152000  1.0 1.5888738011
P  P4  1  0.71348000  0.98950000  0.06848000  1.0 1.5888738011
P  P5  1  0.20218000  0.94950000  0.68625000  1.0 1.5888738011
P  P6  1  0.94950000  0.20218000  0.81375000  1.0 1.5836523366
P  P7  1  0.79782000  0.05050000  0.31375000  1.0 1.5888738011
P  P8  1  0.05050000  0.79782000  0.18625000  1.0 1.5888738011
P  P9  1  0.41601000  0.67895000  0.75864000  1.0 1.5888738011
P  P10  1  0.67895000  0.41601000  0.74136000  1.0 1.5888738011
P  P11  1  0.58399000  0.32105000  0.24136000  1.0 1.5888738011
P  P12  1  0.32105000  0.58399000  0.25864000  1.0 1.5888738011
H  H1  1  0.91160000  0.06320000  0.65320000  1.0 0.4200632614
H  H2  1  0.06320000  0.91160000  0.84680000  1.0 0.4200632614
H  H3  1  0.08840000  0.93680000  0.34680000  1.0 0.4200632614
H  H4  1  0.93680000  0.08840000  0.15320000  1.0 0.4200632614
H  H5  1  0.64960000  0.89080000  0.74040000  1.0 0.4113652301
H  H6  1  0.89080000  0.64960000  0.75960000  1.0 0.4113652301
H  H7  1  0.35040000  0.10920000  0.25960000  1.0 0.4113652301
H  H8  1  0.10920000  0.35040000  0.24040000  1.0 0.4113652301
H  H9  1  0.12050000  0.91430000  0.55940000  1.0 0.4200632614
H  H10  1  0.91430000  0.12050000  0.94060000  1.0 0.4200632614
H  H11  1  0.87950000  0.08570000  0.44060000  1.0 0.4200632614
H  H12  1  0.08570000  0.87950000  0.05940000  1.0 0.4200632614
O  O1  1  0.28150000  0.66890000  0.67776000  1.0 -0.7810993227
O  O2  1  0.66890000  0.28150000  0.82224000  1.0 -0.7810993227
O  O3  1  0.71850000  0.33110000  0.32224000  1.0 -0.7810993227
O  O4  1  0.33110000  0.71850000  0.17776000  1.0 -0.7810993227
O  O5  1  0.89841000  0.08579000  0.59886000  1.0 -0.5571986672
O  O6  1  0.08579000  0.89841000  0.90114000  1.0 -0.5571986672
O  O7  1  0.10159000  0.91421000  0.40114000  1.0 -0.5571986672
O  O8  1  0.91421000  0.10159000  0.09886000  1.0 -0.5571986672
O  O9  1  0.92832000  0.35448000  0.58847000  1.0 -0.7810993227
O  O10  1  0.35448000  0.92832000  0.91153000  1.0 -0.7810993227
O  O11  1  0.07168000  0.64552000  0.41153000  1.0 -0.7810993227
O  O12  1  0.64552000  0.07168000  0.08847000  1.0 -0.7810993227
O  O13  1  0.43488000  0.75612000  0.83231000  1.0 -0.7535714614
O  O14  1  0.75612000  0.43488000  0.66769000  1.0 -0.7535714614
O  O15  1  0.56512000  0.24388000  0.16769000  1.0 -0.7535714614
O  O16  1  0.24388000  0.56512000  0.33231000  1.0 -0.7535714614
O  O17  1  0.15763000  0.03477000  0.72243000  1.0 -0.7957180547
O  O18  1  0.03477000  0.15763000  0.77757000  1.0 -0.7957180547
O  O19  1  0.84237000  0.96523000  0.27757000  1.0 -0.7947944808
O  O20  1  0.96523000  0.84237000  0.22243000  1.0 -0.7957180547
O  O21  1  0.39020000  0.01780000  0.71260000  1.0 -0.7704594391
O  O22  1  0.01780000  0.39020000  0.78740000  1.0 -0.7704594391
O  O23  1  0.60980000  0.98220000  0.28740000  1.0 -0.7704594391
O  O24  1  0.98220000  0.60980000  0.21260000  1.0 -0.7704594391
O  O25  1  0.19371000  0.36089000  0.61640000  1.0 -0.7704594391
O  O26  1  0.36089000  0.19371000  0.88360000  1.0 -0.7704594391
O  O27  1  0.80629000  0.63911000  0.38360000  1.0 -0.7704594391
O  O28  1  0.63911000  0.80629000  0.11640000  1.0 -0.7704594391
O  O29  1  0.08194000  0.75546000  0.71179000  1.0 -0.7704594391
O  O30  1  0.75546000  0.08194000  0.78821000  1.0 -0.7704594391
O  O31  1  0.91806000  0.24454000  0.28821000  1.0 -0.7704594391
O  O32  1  0.24454000  0.91806000  0.21179000  1.0 -0.7704594391
O  O33  1  0.38727000  0.50553000  0.79842000  1.0 -0.7535714614
O  O34  1  0.50553000  0.38727000  0.70158000  1.0 -0.7535714614
O  O35  1  0.61273000  0.49447000  0.20158000  1.0 -0.7535714614
O  O36  1  0.49447000  0.61273000  0.29842000  1.0 -0.7535714614
O  O37  1  0.59072000  0.79948000  0.72270000  1.0 -0.5571986672
O  O38  1  0.79948000  0.59072000  0.77730000  1.0 -0.5571986672
O  O39  1  0.40928000  0.20052000  0.27730000  1.0 -0.5534048485
O  O40  1  0.20052000  0.40928000  0.22270000  1.0 -0.5571986672
O  O41  1  0.99729000  0.30631000  0.46901000  1.0 -0.7618192541
O  O42  1  0.30631000  0.99729000  0.03099000  1.0 -0.7618192541
O  O43  1  0.00271000  0.69369000  0.53099000  1.0 -0.7618192541
O  O44  1  0.69369000  0.00271000  0.96901000  1.0 -0.7618192541
O  O45  1  0.17183000  0.99937000  0.58187000  1.0 -0.5379083264
O  O46  1  0.99937000  0.17183000  0.91813000  1.0 -0.5379083264
O  O47  1  0.82817000  0.00063000  0.41813000  1.0 -0.5379083264
O  O48  1  0.00063000  0.82817000  0.08187000  1.0 -0.5379083264
