# DDEC6 charges by PACMAN v1.1 (https://github.com/mtap-research/PACMAN-charge/)
data_VICYOX_ion_pacman
_symmetry_space_group_name_H-M   'P 1'
_cell_length_a   9.55930000
_cell_length_b   10.21310000
_cell_length_c   11.94240000
_cell_angle_alpha   110.09100000
_cell_angle_beta   99.94300000
_cell_angle_gamma   95.80000000
_symmetry_Int_Tables_number   1
_chemical_formula_structural   Zn3H26C42(N4O9)2
_chemical_formula_sum   'Zn3 H26 C42 N8 O18'
_cell_volume   1062.20980536
_cell_formula_units_Z   1
loop_
 _symmetry_equiv_pos_site_id
 _symmetry_equiv_pos_as_xyz
  1  'x, y, z'
loop_
 _atom_site_type_symbol
 _atom_site_label
 _atom_site_symmetry_multiplicity
 _atom_site_fract_x
 _atom_site_fract_y
 _atom_site_fract_z
 _atom_site_occupancy
 _atom_site_charge
Zn  Zn1  1  0.00000000  0.00000000  0.50000000  1.0 1.0103601613
Zn  Zn2  1  0.03414000  0.29728000  0.73249000  1.0 0.89174966
Zn  Zn3  1  0.96586000  0.70272000  0.26751000  1.0 0.89174966
H  H1  1  0.55550000  0.26450000  0.68120000  1.0 0.1219294616
H  H2  1  0.44450000  0.73550000  0.31880000  1.0 0.1219294616
H  H3  1  0.21840000  0.14430000  0.39600000  1.0 0.139217306
H  H4  1  0.78160000  0.85570000  0.60400000  1.0 0.139217306
H  H5  1  0.60690000  0.06260000  0.34050000  1.0 0.139217306
H  H6  1  0.39310000  0.93740000  0.65950000  1.0 0.139217306
H  H7  1  0.19450000  0.73260000  0.02650000  1.0 0.139217306
H  H8  1  0.80550000  0.26740000  0.97350000  1.0 0.139217306
H  H9  1  0.03750000  0.77370000  0.70980000  1.0 0.139217306
H  H10  1  0.96250000  0.22630000  0.29020000  1.0 0.139217306
H  H11  1  0.18350000  0.11830000  0.01260000  1.0 0.1318516978
H  H12  1  0.81650000  0.88170000  0.98740000  1.0 0.1318516978
H  H13  1  0.80970000  0.54330000  0.95910000  1.0 0.1318516978
H  H14  1  0.76320000  0.51580000  0.76070000  1.0 0.149444724
H  H15  1  0.40860000  0.69020000  0.80880000  1.0 0.149444724
H  H16  1  0.46970000  0.71690000  0.01230000  1.0 0.1219294616
H  H17  1  0.66400000  0.63770000  0.07590000  1.0 0.289813717
H  H18  1  0.46850000  0.60160000  0.61150000  1.0 0.289813717
H  H19  1  0.60190000  0.54010000  0.59570000  1.0 0.289813717
H  H20  1  0.19030000  0.45670000  0.04090000  1.0 0.1318516978
H  H21  1  0.23680000  0.48420000  0.23930000  1.0 0.149444724
H  H22  1  0.59140000  0.30980000  0.19120000  1.0 0.149444724
H  H23  1  0.53030000  0.28310000  0.98770000  1.0 0.1219294616
H  H24  1  0.33600000  0.36230000  0.92410000  1.0 0.289813717
H  H25  1  0.53150000  0.39840000  0.38850000  1.0 0.289813717
H  H26  1  0.39810000  0.45990000  0.40430000  1.0 0.289813717
C  C1  1  0.76380000  0.17400000  0.56500000  1.0 0.5888958969
C  C2  1  0.23620000  0.82600000  0.43500000  1.0 0.5888958969
C  C3  1  0.60680000  0.16940000  0.51880000  1.0 -0.0262895949
C  C4  1  0.39320000  0.83060000  0.48120000  1.0 -0.0262895949
C  C5  1  0.51690000  0.22100000  0.59760000  1.0 -0.1162129841
C  C6  1  0.48310000  0.77900000  0.40240000  1.0 -0.1162129841
C  C7  1  0.37150000  0.20860000  0.55320000  1.0 -0.0094975395
C  C8  1  0.62850000  0.79140000  0.44680000  1.0 -0.0094975395
C  C9  1  0.31540000  0.14870000  0.42780000  1.0 -0.1458832524
C  C10  1  0.68460000  0.85130000  0.57220000  1.0 -0.1458832524
C  C11  1  0.40550000  0.09610000  0.35150000  1.0 0.0635743537
C  C12  1  0.59450000  0.90390000  0.64850000  1.0 0.0635743537
C  C13  1  0.54910000  0.10230000  0.39390000  1.0 -0.1458832524
C  C14  1  0.45090000  0.89770000  0.60610000  1.0 -0.1458832524
C  C15  1  0.27430000  0.25540000  0.64050000  1.0 0.5814365544
C  C16  1  0.72570000  0.74460000  0.35950000  1.0 0.5814365544
C  C17  1  0.20480000  0.93380000  0.03520000  1.0 0.139217306
C  C18  1  0.79520000  0.06620000  0.96480000  1.0 0.139217306
C  C19  1  0.17300000  0.78880000  0.98110000  1.0 -0.1434851713
C  C20  1  0.82700000  0.21120000  0.01890000  1.0 -0.1434851713
C  C21  1  0.10910000  0.72850000  0.85910000  1.0 -0.0094975395
C  C22  1  0.89090000  0.27150000  0.14090000  1.0 -0.0094975395
C  C23  1  0.07700000  0.81460000  0.79340000  1.0 -0.1162129841
C  C24  1  0.92300000  0.18540000  0.20660000  1.0 -0.1162129841
C  C25  1  0.10290000  0.96000000  0.85070000  1.0 -0.0094975395
C  C26  1  0.89710000  0.04000000  0.14930000  1.0 -0.0094975395
C  C27  1  0.16650000  0.02050000  0.97260000  1.0 -0.1593093179
C  C28  1  0.83350000  0.97950000  0.02740000  1.0 -0.1593093179
C  C29  1  0.07610000  0.56830000  0.79400000  1.0 0.5335368314
C  C30  1  0.92390000  0.43170000  0.20600000  1.0 0.5335368314
C  C31  1  0.05730000  0.04940000  0.77750000  1.0 0.5814365544
C  C32  1  0.94270000  0.95060000  0.22250000  1.0 0.5814365544
C  C33  1  0.72830000  0.57270000  0.92720000  1.0 0.0811312334
C  C34  1  0.70150000  0.55600000  0.81000000  1.0 -0.252508027
C  C35  1  0.57860000  0.59980000  0.76170000  1.0 0.3117498555
C  C36  1  0.49080000  0.66010000  0.83830000  1.0 -0.252508027
C  C37  1  0.52700000  0.67500000  0.95930000  1.0 0.0811312334
C  C38  1  0.27170000  0.42730000  0.07280000  1.0 0.0811312334
C  C39  1  0.29850000  0.44400000  0.19000000  1.0 -0.252508027
C  C40  1  0.42140000  0.40020000  0.23830000  1.0 0.3117498555
C  C41  1  0.50920000  0.33990000  0.16170000  1.0 -0.252508027
C  C42  1  0.47300000  0.32500000  0.04070000  1.0 0.0811312334
N  N1  1  0.35790000  0.00300000  0.21700000  1.0 0.3993677892
N  N2  1  0.64210000  0.99700000  0.78300000  1.0 0.3993677892
N  N3  1  0.24430000  0.02720000  0.17740000  1.0 -0.1669453881
N  N4  1  0.75570000  0.97280000  0.82260000  1.0 -0.1669453881
N  N5  1  0.64340000  0.62980000  0.00060000  1.0 -0.132826244
N  N6  1  0.54570000  0.57790000  0.64190000  1.0 -0.5431105457
N  N7  1  0.35660000  0.37020000  0.99940000  1.0 -0.132826244
N  N8  1  0.45430000  0.42210000  0.35810000  1.0 -0.5431105457
O  O1  1  0.82580000  0.09390000  0.49300000  1.0 -0.5431105457
O  O2  1  0.17420000  0.90610000  0.50700000  1.0 -0.5431105457
O  O3  1  0.82310000  0.25940000  0.67200000  1.0 -0.5431105457
O  O4  1  0.17690000  0.74060000  0.32800000  1.0 -0.5431105457
O  O5  1  0.13660000  0.21570000  0.59820000  1.0 -0.576722642
O  O6  1  0.86340000  0.78430000  0.40180000  1.0 -0.576722642
O  O7  1  0.32670000  0.32930000  0.74870000  1.0 -0.5291495424
O  O8  1  0.67330000  0.67070000  0.25130000  1.0 -0.5291495424
O  O9  1  0.08120000  0.49500000  0.85790000  1.0 -0.5291495424
O  O10  1  0.91880000  0.50500000  0.14210000  1.0 -0.5291495424
O  O11  1  0.04250000  0.51660000  0.67910000  1.0 -0.5291495424
O  O12  1  0.95750000  0.48340000  0.32090000  1.0 -0.5291495424
O  O13  1  0.00330000  0.98880000  0.66780000  1.0 -0.5431105457
O  O14  1  0.99670000  0.01120000  0.33220000  1.0 -0.5431105457
O  O15  1  0.07900000  0.18250000  0.83540000  1.0 -0.5431105457
O  O16  1  0.92100000  0.81750000  0.16460000  1.0 -0.5431105457
O  O17  1  0.42610000  0.90780000  0.16700000  1.0 -0.4237114988
O  O18  1  0.57390000  0.09220000  0.83300000  1.0 -0.426065763
