# DDEC6 charges by PACMAN v1.1 (https://github.com/mtap-research/PACMAN-charge/)
data_VICYUD_ASR_pacman
_symmetry_space_group_name_H-M   'P 1'
_cell_length_a   13.83590000
_cell_length_b   12.99700000
_cell_length_c   24.90000000
_cell_angle_alpha   90.00000000
_cell_angle_beta   118.68900000
_cell_angle_gamma   90.00000000
_symmetry_Int_Tables_number   1
_chemical_formula_structural   Zn2H14C28N4O9
_chemical_formula_sum   'Zn8 H56 C112 N16 O36'
_cell_volume   3927.96389143
_cell_formula_units_Z   4
loop_
 _symmetry_equiv_pos_site_id
 _symmetry_equiv_pos_as_xyz
  1  'x, y, z'
loop_
 _atom_site_type_symbol
 _atom_site_label
 _atom_site_symmetry_multiplicity
 _atom_site_fract_x
 _atom_site_fract_y
 _atom_site_fract_z
 _atom_site_occupancy
 _atom_site_charge
Zn  Zn1  1  0.26552000  0.27667000  0.83873000  1.0 0.8085089087
Zn  Zn2  1  0.73448000  0.77667000  0.66127000  1.0 0.8085089087
Zn  Zn3  1  0.73448000  0.72333000  0.16127000  1.0 0.8085089087
Zn  Zn4  1  0.26552000  0.22333000  0.33873000  1.0 0.8085089087
Zn  Zn5  1  0.77697000  0.60640000  0.77175000  1.0 0.8966156155
Zn  Zn6  1  0.22303000  0.10640000  0.72825000  1.0 0.8966156155
Zn  Zn7  1  0.22303000  0.39360000  0.22825000  1.0 0.8966156155
Zn  Zn8  1  0.77697000  0.89360000  0.27175000  1.0 0.8966156155
H  H1  1  0.52120000  0.34080000  0.74950000  1.0 0.1211428627
H  H2  1  0.47880000  0.84080000  0.75050000  1.0 0.1211428627
H  H3  1  0.47880000  0.65920000  0.25050000  1.0 0.1211428627
H  H4  1  0.52120000  0.15920000  0.24950000  1.0 0.1211428627
H  H5  1  0.79900000  0.36370000  0.90470000  1.0 0.1401565232
H  H6  1  0.20100000  0.86370000  0.59530000  1.0 0.1401565232
H  H7  1  0.20100000  0.63630000  0.09530000  1.0 0.1401565232
H  H8  1  0.79900000  0.13630000  0.40470000  1.0 0.1401565232
H  H9  1  0.55270000  0.16140000  0.88630000  1.0 0.1401565232
H  H10  1  0.44730000  0.66140000  0.61370000  1.0 0.1401565232
H  H11  1  0.44730000  0.83860000  0.11370000  1.0 0.1401565232
H  H12  1  0.55270000  0.33860000  0.38630000  1.0 0.1401565232
H  H13  1  0.74000000  0.99940000  0.05480000  1.0 0.1401565232
H  H14  1  0.26000000  0.49940000  0.44520000  1.0 0.1465958483
H  H15  1  0.26000000  0.00060000  0.94520000  1.0 0.1401565232
H  H16  1  0.74000000  0.50060000  0.55480000  1.0 0.1401565232
H  H17  1  0.98940000  0.07180000  0.22200000  1.0 0.1288352469
H  H18  1  0.01060000  0.57180000  0.27800000  1.0 0.1401565232
H  H19  1  0.01060000  0.92820000  0.77800000  1.0 0.1401565232
H  H20  1  0.98940000  0.42820000  0.72200000  1.0 0.1401565232
H  H21  1  0.93790000  0.24420000  0.07830000  1.0 0.1401565232
H  H22  1  0.06210000  0.74420000  0.42170000  1.0 0.1401565232
H  H23  1  0.06210000  0.75580000  0.92170000  1.0 0.1401565232
H  H24  1  0.93790000  0.25580000  0.57830000  1.0 0.1401565232
H  H25  1  0.39820000  0.17690000  0.97120000  1.0 0.1211428627
H  H26  1  0.60180000  0.67690000  0.52880000  1.0 0.1211428627
H  H27  1  0.60180000  0.82310000  0.02880000  1.0 0.1211428627
H  H28  1  0.39820000  0.32310000  0.47120000  1.0 0.1211428627
H  H29  1  0.55830000  0.19930000  0.05720000  1.0 0.159118405
H  H30  1  0.44170000  0.69930000  0.44280000  1.0 0.159118405
H  H31  1  0.44170000  0.80070000  0.94280000  1.0 0.159118405
H  H32  1  0.55830000  0.30070000  0.55720000  1.0 0.159118405
H  H33  1  0.65660000  0.32730000  0.07520000  1.0 0.1401565232
H  H34  1  0.34340000  0.82730000  0.42480000  1.0 0.1401565232
H  H35  1  0.34340000  0.67270000  0.92480000  1.0 0.1401565232
H  H36  1  0.65660000  0.17270000  0.57520000  1.0 0.1401565232
H  H37  1  0.70260000  0.50400000  0.01630000  1.0 0.1288352469
H  H38  1  0.29740000  0.00400000  0.48370000  1.0 0.1288352469
H  H39  1  0.29740000  0.49600000  0.98370000  1.0 0.1288352469
H  H40  1  0.70260000  0.99600000  0.51630000  1.0 0.1288352469
H  H41  1  0.64760000  0.59550000  0.93190000  1.0 0.1401565232
H  H42  1  0.35240000  0.09550000  0.56810000  1.0 0.1401565232
H  H43  1  0.35240000  0.40450000  0.06810000  1.0 0.1401565232
H  H44  1  0.64760000  0.90450000  0.43190000  1.0 0.1401565232
H  H45  1  0.52420000  0.62580000  0.82440000  1.0 0.1465958483
H  H46  1  0.47580000  0.12580000  0.67560000  1.0 0.1465958483
H  H47  1  0.47580000  0.37420000  0.17560000  1.0 0.1465958483
H  H48  1  0.52420000  0.87420000  0.32440000  1.0 0.1465958483
H  H49  1  0.36710000  0.58030000  0.73780000  1.0 0.1465958483
H  H50  1  0.63290000  0.08030000  0.76220000  1.0 0.1465958483
H  H51  1  0.63290000  0.41970000  0.26220000  1.0 0.1465958483
H  H52  1  0.36710000  0.91970000  0.23780000  1.0 0.1465958483
H  H53  1  0.25220000  0.44950000  0.74260000  1.0 0.1211428627
H  H54  1  0.74780000  0.94950000  0.75740000  1.0 0.1211428627
H  H55  1  0.74780000  0.55050000  0.25740000  1.0 0.1211428627
H  H56  1  0.25220000  0.05050000  0.24260000  1.0 0.1211428627
C  C1  1  0.40780000  0.21550000  0.77490000  1.0 0.5198946953
C  C2  1  0.59220000  0.71550000  0.72510000  1.0 0.5198946953
C  C3  1  0.59220000  0.78450000  0.22510000  1.0 0.5198946953
C  C4  1  0.40780000  0.28450000  0.27490000  1.0 0.5198946953
C  C5  1  0.51680000  0.24670000  0.81240000  1.0 -0.079186061
C  C6  1  0.48320000  0.74670000  0.68760000  1.0 -0.079186061
C  C7  1  0.48320000  0.75330000  0.18760000  1.0 -0.079186061
C  C8  1  0.51680000  0.25330000  0.31240000  1.0 -0.079186061
C  C9  1  0.56340000  0.32010000  0.79000000  1.0 -0.0998536065
C  C10  1  0.43660000  0.82010000  0.71000000  1.0 -0.0998536065
C  C11  1  0.43660000  0.67990000  0.21000000  1.0 -0.0998536065
C  C12  1  0.56340000  0.17990000  0.29000000  1.0 -0.0998536065
C  C13  1  0.66500000  0.36350000  0.82240000  1.0 -0.0539451859
C  C14  1  0.33500000  0.86350000  0.67760000  1.0 -0.0539451859
C  C15  1  0.33500000  0.63650000  0.17760000  1.0 -0.0552622542
C  C16  1  0.66500000  0.13650000  0.32240000  1.0 -0.0552622542
C  C17  1  0.73100000  0.33240000  0.88110000  1.0 -0.1849246413
C  C18  1  0.26900000  0.83240000  0.61890000  1.0 -0.1853747308
C  C19  1  0.26900000  0.66760000  0.11890000  1.0 -0.1853747308
C  C20  1  0.73100000  0.16760000  0.38110000  1.0 -0.1849246413
C  C21  1  0.69500000  0.25060000  0.90630000  1.0 0.2065662056
C  C22  1  0.30500000  0.75060000  0.59370000  1.0 0.2065662056
C  C23  1  0.30500000  0.74940000  0.09370000  1.0 0.2065662056
C  C24  1  0.69500000  0.24940000  0.40630000  1.0 0.2065662056
C  C25  1  0.58010000  0.21040000  0.86980000  1.0 -0.1380032986
C  C26  1  0.41990000  0.71040000  0.63020000  1.0 -0.1380032986
C  C27  1  0.41990000  0.78960000  0.13020000  1.0 -0.1380032986
C  C28  1  0.58010000  0.28960000  0.36980000  1.0 -0.1380032986
C  C29  1  0.82350000  0.12740000  0.05710000  1.0 0.1014665621
C  C30  1  0.17650000  0.62740000  0.44290000  1.0 0.1014665621
C  C31  1  0.17650000  0.87260000  0.94290000  1.0 0.1014665621
C  C32  1  0.82350000  0.37260000  0.55710000  1.0 0.1014665621
C  C33  1  0.79770000  0.04220000  0.08050000  1.0 -0.1483502254
C  C34  1  0.20230000  0.54220000  0.41950000  1.0 -0.1483502254
C  C35  1  0.20230000  0.95780000  0.91950000  1.0 -0.1483502254
C  C36  1  0.79770000  0.45780000  0.58050000  1.0 -0.1483502254
C  C37  1  0.85770000  0.02050000  0.14210000  1.0 -0.0539451859
C  C38  1  0.14230000  0.52050000  0.35790000  1.0 -0.0539451859
C  C39  1  0.14230000  0.97950000  0.85790000  1.0 -0.0539451859
C  C40  1  0.85770000  0.47950000  0.64210000  1.0 -0.0539451859
C  C41  1  0.95010000  0.08450000  0.18020000  1.0 -0.0911797365
C  C42  1  0.04990000  0.58450000  0.31980000  1.0 -0.0911797365
C  C43  1  0.04990000  0.91550000  0.81980000  1.0 -0.0911797365
C  C44  1  0.95010000  0.41550000  0.68020000  1.0 -0.0911797365
C  C45  1  0.98170000  0.16510000  0.15530000  1.0 -0.0181197194
C  C46  1  0.01830000  0.66510000  0.34470000  1.0 -0.0181197194
C  C47  1  0.01830000  0.83490000  0.84470000  1.0 -0.0181197194
C  C48  1  0.98170000  0.33490000  0.65530000  1.0 -0.0181197194
C  C49  1  0.91910000  0.18870000  0.09500000  1.0 -0.1483502254
C  C50  1  0.08090000  0.68870000  0.40500000  1.0 -0.1483502254
C  C51  1  0.08090000  0.81130000  0.90500000  1.0 -0.1483502254
C  C52  1  0.91910000  0.31130000  0.59500000  1.0 -0.1483502254
C  C53  1  0.70100000  0.44770000  0.79980000  1.0 0.5301326275
C  C54  1  0.29900000  0.94770000  0.70020000  1.0 0.5301326275
C  C55  1  0.29900000  0.55230000  0.20020000  1.0 0.5301326275
C  C56  1  0.70100000  0.05230000  0.29980000  1.0 0.5301326275
C  C57  1  0.08020000  0.22800000  0.19770000  1.0 0.5907727763
C  C58  1  0.91980000  0.72800000  0.30230000  1.0 0.5907727763
C  C59  1  0.91980000  0.77200000  0.80230000  1.0 0.5907727763
C  C60  1  0.08020000  0.27200000  0.69770000  1.0 0.5907727763
C  C61  1  0.82350000  0.93830000  0.16900000  1.0 0.5907727763
C  C62  1  0.17650000  0.43830000  0.33100000  1.0 0.5907727763
C  C63  1  0.17650000  0.06170000  0.83100000  1.0 0.5907727763
C  C64  1  0.82350000  0.56170000  0.66900000  1.0 0.5907727763
C  C65  1  0.44240000  0.23210000  0.97280000  1.0 0.0858797434
C  C66  1  0.55760000  0.73210000  0.52720000  1.0 0.0858797434
C  C67  1  0.55760000  0.76790000  0.02720000  1.0 0.0858797434
C  C68  1  0.44240000  0.26790000  0.47280000  1.0 0.0858797434
C  C69  1  0.53850000  0.24830000  0.02650000  1.0 -0.1483502254
C  C70  1  0.46150000  0.74830000  0.47350000  1.0 -0.1483502254
C  C71  1  0.46150000  0.75170000  0.97350000  1.0 -0.1483502254
C  C72  1  0.53850000  0.25170000  0.52650000  1.0 -0.1483502254
C  C73  1  0.59650000  0.31760000  0.03650000  1.0 -0.079186061
C  C74  1  0.40350000  0.81760000  0.46350000  1.0 -0.079186061
C  C75  1  0.40350000  0.68240000  0.96350000  1.0 -0.079186061
C  C76  1  0.59650000  0.18240000  0.53650000  1.0 -0.079186061
C  C77  1  0.57350000  0.38850000  0.98770000  1.0 0.0079538174
C  C78  1  0.42650000  0.88850000  0.51230000  1.0 0.0079538174
C  C79  1  0.42650000  0.61150000  0.01230000  1.0 0.0079538174
C  C80  1  0.57350000  0.11150000  0.48770000  1.0 0.0079538174
C  C81  1  0.63740000  0.48500000  0.98200000  1.0 -0.1293424606
C  C82  1  0.36260000  0.98500000  0.51800000  1.0 -0.1293424606
C  C83  1  0.36260000  0.51500000  0.01800000  1.0 -0.1293424606
C  C84  1  0.63740000  0.01500000  0.48200000  1.0 -0.1293424606
C  C85  1  0.60400000  0.54060000  0.93170000  1.0 -0.1483502254
C  C86  1  0.39600000  0.04060000  0.56830000  1.0 -0.1483502254
C  C87  1  0.39600000  0.45940000  0.06830000  1.0 -0.1483502254
C  C88  1  0.60400000  0.95940000  0.43170000  1.0 -0.1483502254
C  C89  1  0.50750000  0.51980000  0.87890000  1.0 0.0507206064
C  C90  1  0.49250000  0.01980000  0.62110000  1.0 0.0507206064
C  C91  1  0.49250000  0.48020000  0.12110000  1.0 0.0507206064
C  C92  1  0.50750000  0.98020000  0.37890000  1.0 0.0507206064
C  C93  1  0.48000000  0.57280000  0.82530000  1.0 -0.0911797365
C  C94  1  0.52000000  0.07280000  0.67470000  1.0 -0.0911797365
C  C95  1  0.52000000  0.42720000  0.17470000  1.0 -0.0911797365
C  C96  1  0.48000000  0.92720000  0.32530000  1.0 -0.0911797365
C  C97  1  0.38700000  0.54630000  0.77460000  1.0 -0.1293424606
C  C98  1  0.61300000  0.04630000  0.72540000  1.0 -0.1293424606
C  C99  1  0.61300000  0.45370000  0.22540000  1.0 -0.1293424606
C  C100  1  0.38700000  0.95370000  0.27460000  1.0 -0.1293424606
C  C101  1  0.31850000  0.46390000  0.77750000  1.0 0.1211428627
C  C102  1  0.68150000  0.96390000  0.72250000  1.0 0.1211428627
C  C103  1  0.68150000  0.53610000  0.22250000  1.0 0.1211428627
C  C104  1  0.31850000  0.03610000  0.27750000  1.0 0.1211428627
C  C105  1  0.44110000  0.43200000  0.87800000  1.0 0.1288352469
C  C106  1  0.55890000  0.93200000  0.62200000  1.0 0.1288352469
C  C107  1  0.55890000  0.56800000  0.12200000  1.0 0.1288352469
C  C108  1  0.44110000  0.06800000  0.37800000  1.0 0.1288352469
C  C109  1  0.47340000  0.36940000  0.93090000  1.0 0.1014665621
C  C110  1  0.52660000  0.86940000  0.56910000  1.0 0.1014665621
C  C111  1  0.52660000  0.63060000  0.06910000  1.0 0.1014665621
C  C112  1  0.47340000  0.13060000  0.43090000  1.0 0.1014665621
N  N1  1  0.41060000  0.28760000  0.92580000  1.0 -0.2396028932
N  N2  1  0.58940000  0.78760000  0.57420000  1.0 -0.2396028932
N  N3  1  0.58940000  0.71240000  0.07420000  1.0 -0.2396028932
N  N4  1  0.41060000  0.21240000  0.42580000  1.0 -0.2396028932
N  N5  1  0.34570000  0.40930000  0.82670000  1.0 -0.2680679351
N  N6  1  0.65430000  0.90930000  0.67330000  1.0 -0.2680679351
N  N7  1  0.65430000  0.59070000  0.17330000  1.0 -0.2680679351
N  N8  1  0.34570000  0.09070000  0.32670000  1.0 -0.2680679351
N  N9  1  0.77280000  0.22620000  0.97040000  1.0 -0.2396028932
N  N10  1  0.22720000  0.72620000  0.52960000  1.0 -0.2396028932
N  N11  1  0.22720000  0.77380000  0.02960000  1.0 -0.2396028932
N  N12  1  0.77280000  0.27380000  0.47040000  1.0 -0.2396028932
N  N13  1  0.75130000  0.15350000  0.99140000  1.0 0.3559904233
N  N14  1  0.24870000  0.65350000  0.50860000  1.0 0.3559904233
N  N15  1  0.24870000  0.84650000  0.00860000  1.0 0.3559904233
N  N16  1  0.75130000  0.34650000  0.49140000  1.0 0.3559904233
O  O1  1  0.35340000  0.18060000  0.79990000  1.0 -0.5201339215
O  O2  1  0.64660000  0.68060000  0.70010000  1.0 -0.5201339215
O  O3  1  0.64660000  0.81940000  0.20010000  1.0 -0.5201339215
O  O4  1  0.35340000  0.31940000  0.29990000  1.0 -0.5201339215
O  O5  1  0.36520000  0.20930000  0.71970000  1.0 -0.4746481419
O  O6  1  0.63480000  0.70930000  0.78030000  1.0 -0.4746481419
O  O7  1  0.63480000  0.79070000  0.28030000  1.0 -0.4752249658
O  O8  1  0.36520000  0.29070000  0.21970000  1.0 -0.4746481419
O  O9  1  0.63930000  0.47080000  0.74310000  1.0 -0.5036894173
O  O10  1  0.36070000  0.97080000  0.75690000  1.0 -0.5036894173
O  O11  1  0.36070000  0.52920000  0.25690000  1.0 -0.5036894173
O  O12  1  0.63930000  0.02920000  0.24310000  1.0 -0.5036894173
O  O13  1  0.78050000  0.49130000  0.82810000  1.0 -0.347509408
O  O14  1  0.21950000  0.99130000  0.67190000  1.0 -0.347509408
O  O15  1  0.21950000  0.50870000  0.17190000  1.0 -0.3433400333
O  O16  1  0.78050000  0.00870000  0.32810000  1.0 -0.3433400333
O  O17  1  0.10290000  0.30240000  0.17280000  1.0 -0.5286023184
O  O18  1  0.89710000  0.80240000  0.32720000  1.0 -0.5286023184
O  O19  1  0.89710000  0.69760000  0.82720000  1.0 -0.5286023184
O  O20  1  0.10290000  0.19760000  0.67280000  1.0 -0.5286023184
O  O21  1  0.13310000  0.20150000  0.25140000  1.0 -0.5475654244
O  O22  1  0.86690000  0.70150000  0.24860000  1.0 -0.5475654244
O  O23  1  0.86690000  0.79850000  0.74860000  1.0 -0.5475654244
O  O24  1  0.13310000  0.29850000  0.75140000  1.0 -0.5475654244
O  O25  1  0.77690000  0.86200000  0.13820000  1.0 -0.5201339215
O  O26  1  0.22310000  0.36200000  0.36180000  1.0 -0.5201339215
O  O27  1  0.22310000  0.13800000  0.86180000  1.0 -0.5201339215
O  O28  1  0.77690000  0.63800000  0.63820000  1.0 -0.5201339215
O  O29  1  0.84640000  0.95200000  0.22420000  1.0 -0.5286023184
O  O30  1  0.15360000  0.45200000  0.27580000  1.0 -0.5286023184
O  O31  1  0.15360000  0.04800000  0.77580000  1.0 -0.5286023184
O  O32  1  0.84640000  0.54800000  0.72420000  1.0 -0.5286023184
O  O33  1  0.67510000  0.07260000  0.96420000  1.0 -0.562457794
O  O34  1  0.32490000  0.57260000  0.53580000  1.0 -0.562457794
O  O35  1  0.32490000  0.92740000  0.03580000  1.0 -0.562457794
O  O36  1  0.67510000  0.42740000  0.46420000  1.0 -0.562457794
