# DDEC6 charges by PACMAN v1.1 (https://github.com/mtap-research/PACMAN-charge/)
data_VIDJID_ASR_pacman
_symmetry_space_group_name_H-M   'P 1'
_cell_length_a   15.92950000
_cell_length_b   15.92950000
_cell_length_c   19.72000000
_cell_angle_alpha   90.00000000
_cell_angle_beta   90.00000000
_cell_angle_gamma   120.00000000
_symmetry_Int_Tables_number   1
_chemical_formula_structural   Co3H30C39N9O7
_chemical_formula_sum   'Co6 H60 C78 N18 O14'
_cell_volume   4333.53023318
_cell_formula_units_Z   2
loop_
 _symmetry_equiv_pos_site_id
 _symmetry_equiv_pos_as_xyz
  1  'x, y, z'
loop_
 _atom_site_type_symbol
 _atom_site_label
 _atom_site_symmetry_multiplicity
 _atom_site_fract_x
 _atom_site_fract_y
 _atom_site_fract_z
 _atom_site_occupancy
 _atom_site_charge
Co  Co1  1  0.47672000  0.73836000  0.31710000  1.0 0.8884812036
Co  Co2  1  0.26164000  0.73836000  0.31710000  1.0 0.8884812036
Co  Co3  1  0.26164000  0.52328000  0.31710000  1.0 0.8884812036
Co  Co4  1  0.52328000  0.26164000  0.81710000  1.0 0.8884812036
Co  Co5  1  0.73836000  0.26164000  0.81710000  1.0 0.8884812036
Co  Co6  1  0.73836000  0.47672000  0.81710000  1.0 0.8884812036
H  H1  1  0.57130000  0.90130000  0.50100000  1.0 0.0706872434
H  H2  1  0.09870000  0.67000000  0.50100000  1.0 0.0706872434
H  H3  1  0.33000000  0.42870000  0.50100000  1.0 0.0706872434
H  H4  1  0.42870000  0.09870000  0.00100000  1.0 0.0706872434
H  H5  1  0.90130000  0.33000000  0.00100000  1.0 0.0706872434
H  H6  1  0.67000000  0.57130000  0.00100000  1.0 0.0706872434
H  H7  1  0.09870000  0.42870000  0.50100000  1.0 0.0706872434
H  H8  1  0.33000000  0.90130000  0.50100000  1.0 0.0706872434
H  H9  1  0.57130000  0.67000000  0.50100000  1.0 0.0706872434
H  H10  1  0.90130000  0.57130000  0.00100000  1.0 0.0706872434
H  H11  1  0.67000000  0.09870000  0.00100000  1.0 0.0706872434
H  H12  1  0.42870000  0.33000000  0.00100000  1.0 0.0706872434
H  H13  1  0.62250000  0.99800000  0.59720000  1.0 0.0706872434
H  H14  1  0.00200000  0.62450000  0.59720000  1.0 0.0706872434
H  H15  1  0.37550000  0.37750000  0.59720000  1.0 0.0706872434
H  H16  1  0.37750000  0.00200000  0.09720000  1.0 0.0706872434
H  H17  1  0.99800000  0.37550000  0.09720000  1.0 0.0706872434
H  H18  1  0.62450000  0.62250000  0.09720000  1.0 0.0706872434
H  H19  1  0.00200000  0.37750000  0.59720000  1.0 0.0706872434
H  H20  1  0.37550000  0.99800000  0.59720000  1.0 0.0706872434
H  H21  1  0.62250000  0.62450000  0.59720000  1.0 0.0706872434
H  H22  1  0.99800000  0.62250000  0.09720000  1.0 0.0706872434
H  H23  1  0.62450000  0.00200000  0.09720000  1.0 0.0706872434
H  H24  1  0.37750000  0.37550000  0.09720000  1.0 0.0706872434
H  H25  1  0.68580000  0.12320000  0.67320000  1.0 0.1035162529
H  H26  1  0.87680000  0.56260000  0.67320000  1.0 0.1035162529
H  H27  1  0.43740000  0.31420000  0.67320000  1.0 0.1035162529
H  H28  1  0.31420000  0.87680000  0.17320000  1.0 0.1035162529
H  H29  1  0.12320000  0.43740000  0.17320000  1.0 0.1035162529
H  H30  1  0.56260000  0.68580000  0.17320000  1.0 0.1035162529
H  H31  1  0.87680000  0.31420000  0.67320000  1.0 0.1035162529
H  H32  1  0.43740000  0.12320000  0.67320000  1.0 0.1035162529
H  H33  1  0.68580000  0.56260000  0.67320000  1.0 0.1035162529
H  H34  1  0.12320000  0.68580000  0.17320000  1.0 0.1035162529
H  H35  1  0.56260000  0.87680000  0.17320000  1.0 0.1035162529
H  H36  1  0.31420000  0.43740000  0.17320000  1.0 0.1035162529
H  H37  1  0.65560000  0.08060000  0.55910000  1.0 0.0706872434
H  H38  1  0.91940000  0.57500000  0.55910000  1.0 0.0706872434
H  H39  1  0.42500000  0.34440000  0.55910000  1.0 0.0706872434
H  H40  1  0.34440000  0.91940000  0.05910000  1.0 0.0706872434
H  H41  1  0.08060000  0.42500000  0.05910000  1.0 0.0706872434
H  H42  1  0.57500000  0.65560000  0.05910000  1.0 0.0706872434
H  H43  1  0.91940000  0.34440000  0.55910000  1.0 0.0706872434
H  H44  1  0.42500000  0.08060000  0.55910000  1.0 0.0706872434
H  H45  1  0.65560000  0.57500000  0.55910000  1.0 0.0706872434
H  H46  1  0.08060000  0.65560000  0.05910000  1.0 0.0706872434
H  H47  1  0.57500000  0.91940000  0.05910000  1.0 0.0706872434
H  H48  1  0.34440000  0.42500000  0.05910000  1.0 0.0706872434
H  H49  1  0.60840000  0.97560000  0.46740000  1.0 0.0596423224
H  H50  1  0.02440000  0.63280000  0.46740000  1.0 0.0596423224
H  H51  1  0.36720000  0.39160000  0.46740000  1.0 0.0596423224
H  H52  1  0.39160000  0.02440000  0.96740000  1.0 0.0596423224
H  H53  1  0.97560000  0.36720000  0.96740000  1.0 0.0596423224
H  H54  1  0.63280000  0.60840000  0.96740000  1.0 0.0596423224
H  H55  1  0.02440000  0.39160000  0.46740000  1.0 0.0596423224
H  H56  1  0.36720000  0.97560000  0.46740000  1.0 0.0596423224
H  H57  1  0.60840000  0.63280000  0.46740000  1.0 0.0596423224
H  H58  1  0.97560000  0.60840000  0.96740000  1.0 0.0596423224
H  H59  1  0.63280000  0.02440000  0.96740000  1.0 0.0596423224
H  H60  1  0.39160000  0.36720000  0.96740000  1.0 0.0596423224
C  C1  1  0.43185000  0.86370000  0.41290000  1.0 0.523118619
C  C2  1  0.13630000  0.56815000  0.41290000  1.0 0.523118619
C  C3  1  0.43185000  0.56815000  0.41290000  1.0 0.523118619
C  C4  1  0.56815000  0.13630000  0.91290000  1.0 0.523118619
C  C5  1  0.86370000  0.43185000  0.91290000  1.0 0.523118619
C  C6  1  0.56815000  0.43185000  0.91290000  1.0 0.523118619
C  C7  1  0.46495000  0.92990000  0.47420000  1.0 -0.0605951062
C  C8  1  0.07010000  0.53505000  0.47420000  1.0 -0.0605951062
C  C9  1  0.46495000  0.53505000  0.47420000  1.0 -0.0605951062
C  C10  1  0.53505000  0.07010000  0.97420000  1.0 -0.0605951062
C  C11  1  0.92990000  0.46495000  0.97420000  1.0 -0.0605951062
C  C12  1  0.53505000  0.46495000  0.97420000  1.0 -0.0605951062
C  C13  1  0.54000000  0.93640000  0.51380000  1.0 -0.0605951062
C  C14  1  0.06360000  0.60360000  0.51380000  1.0 -0.0605951062
C  C15  1  0.39640000  0.46000000  0.51380000  1.0 -0.0655577032
C  C16  1  0.46000000  0.06360000  0.01380000  1.0 -0.0605951062
C  C17  1  0.93640000  0.39640000  0.01380000  1.0 -0.0605951062
C  C18  1  0.60360000  0.54000000  0.01380000  1.0 -0.0605951062
C  C19  1  0.06360000  0.46000000  0.51380000  1.0 -0.0605951062
C  C20  1  0.39640000  0.93640000  0.51380000  1.0 -0.0605951062
C  C21  1  0.54000000  0.60360000  0.51380000  1.0 -0.0605951062
C  C22  1  0.93640000  0.54000000  0.01380000  1.0 -0.0605951062
C  C23  1  0.60360000  0.06360000  0.01380000  1.0 -0.0605951062
C  C24  1  0.46000000  0.39640000  0.01380000  1.0 -0.0605951062
C  C25  1  0.56980000  0.99260000  0.57120000  1.0 -0.0182678688
C  C26  1  0.00740000  0.57720000  0.57120000  1.0 -0.0182678688
C  C27  1  0.42280000  0.43020000  0.57120000  1.0 -0.0182678688
C  C28  1  0.43020000  0.00740000  0.07120000  1.0 -0.0182678688
C  C29  1  0.99260000  0.42280000  0.07120000  1.0 -0.0141300632
C  C30  1  0.57720000  0.56980000  0.07120000  1.0 -0.0141300632
C  C31  1  0.00740000  0.43020000  0.57120000  1.0 -0.0182678688
C  C32  1  0.42280000  0.99260000  0.57120000  1.0 -0.0182678688
C  C33  1  0.56980000  0.57720000  0.57120000  1.0 -0.0182678688
C  C34  1  0.99260000  0.56980000  0.07120000  1.0 -0.0182678688
C  C35  1  0.57720000  0.00740000  0.07120000  1.0 -0.0182678688
C  C36  1  0.43020000  0.42280000  0.07120000  1.0 -0.0182678688
C  C37  1  0.52125000  0.04250000  0.59120000  1.0 0.0596423224
C  C38  1  0.95750000  0.47875000  0.59120000  1.0 0.0596423224
C  C39  1  0.52125000  0.47875000  0.59120000  1.0 0.0596423224
C  C40  1  0.47875000  0.95750000  0.09120000  1.0 0.0596423224
C  C41  1  0.04250000  0.52125000  0.09120000  1.0 0.0596423224
C  C42  1  0.47875000  0.52125000  0.09120000  1.0 0.0596423224
C  C43  1  0.63360000  0.13240000  0.68660000  1.0 0.0596423224
C  C44  1  0.86760000  0.50120000  0.68660000  1.0 0.0596423224
C  C45  1  0.49880000  0.36640000  0.68660000  1.0 0.0596423224
C  C46  1  0.36640000  0.86760000  0.18660000  1.0 0.0596423224
C  C47  1  0.13240000  0.49880000  0.18660000  1.0 0.0537441188
C  C48  1  0.50120000  0.63360000  0.18660000  1.0 0.0596423224
C  C49  1  0.86760000  0.36640000  0.68660000  1.0 0.0596423224
C  C50  1  0.49880000  0.13240000  0.68660000  1.0 0.0596423224
C  C51  1  0.63360000  0.50120000  0.68660000  1.0 0.0596423224
C  C52  1  0.13240000  0.63360000  0.18660000  1.0 0.0537441188
C  C53  1  0.50120000  0.86760000  0.18660000  1.0 0.0596423224
C  C54  1  0.36640000  0.49880000  0.18660000  1.0 0.0537441188
C  C55  1  0.58870000  0.04040000  0.54930000  1.0 -0.0605951062
C  C56  1  0.95960000  0.54830000  0.54930000  1.0 -0.0605951062
C  C57  1  0.45170000  0.41130000  0.54930000  1.0 -0.0605951062
C  C58  1  0.41130000  0.95960000  0.04930000  1.0 -0.0605951062
C  C59  1  0.04040000  0.45170000  0.04930000  1.0 -0.0605951062
C  C60  1  0.54830000  0.58870000  0.04930000  1.0 -0.0605951062
C  C61  1  0.95960000  0.41130000  0.54930000  1.0 -0.0605951062
C  C62  1  0.45170000  0.04040000  0.54930000  1.0 -0.0605951062
C  C63  1  0.58870000  0.54830000  0.54930000  1.0 -0.0605951062
C  C64  1  0.04040000  0.58870000  0.04930000  1.0 -0.0605951062
C  C65  1  0.54830000  0.95960000  0.04930000  1.0 -0.0605951062
C  C66  1  0.41130000  0.45170000  0.04930000  1.0 -0.0605951062
C  C67  1  0.56100000  0.98120000  0.49320000  1.0 -0.0520929187
C  C68  1  0.01880000  0.57980000  0.49320000  1.0 -0.0520929187
C  C69  1  0.42020000  0.43900000  0.49320000  1.0 -0.0520929187
C  C70  1  0.43900000  0.01880000  0.99320000  1.0 -0.0520929187
C  C71  1  0.98120000  0.42020000  0.99320000  1.0 -0.0520929187
C  C72  1  0.57980000  0.56100000  0.99320000  1.0 -0.0520929187
C  C73  1  0.01880000  0.43900000  0.49320000  1.0 -0.0520929187
C  C74  1  0.42020000  0.98120000  0.49320000  1.0 -0.0520929187
C  C75  1  0.56100000  0.57980000  0.49320000  1.0 -0.0520929187
C  C76  1  0.98120000  0.56100000  0.99320000  1.0 -0.0520929187
C  C77  1  0.57980000  0.01880000  0.99320000  1.0 -0.0520929187
C  C78  1  0.43900000  0.42020000  0.99320000  1.0 -0.0520929187
N  N1  1  0.63420000  0.18020000  0.74060000  1.0 -0.2080338223
N  N2  1  0.81980000  0.45400000  0.74060000  1.0 -0.2080338223
N  N3  1  0.54600000  0.36580000  0.74060000  1.0 -0.2080338223
N  N4  1  0.36580000  0.81980000  0.24060000  1.0 -0.2080338223
N  N5  1  0.18020000  0.54600000  0.24060000  1.0 -0.2080338223
N  N6  1  0.45400000  0.63420000  0.24060000  1.0 -0.2080338223
N  N7  1  0.81980000  0.36580000  0.74060000  1.0 -0.2080338223
N  N8  1  0.54600000  0.18020000  0.74060000  1.0 -0.2080338223
N  N9  1  0.63420000  0.45400000  0.74060000  1.0 -0.2080338223
N  N10  1  0.18020000  0.63420000  0.24060000  1.0 -0.2080338223
N  N11  1  0.45400000  0.81980000  0.24060000  1.0 -0.2080338223
N  N12  1  0.36580000  0.54600000  0.24060000  1.0 -0.2080338223
N  N13  1  0.54870000  0.09740000  0.65190000  1.0 -0.1790664753
N  N14  1  0.90260000  0.45130000  0.65190000  1.0 -0.1790664753
N  N15  1  0.54870000  0.45130000  0.65190000  1.0 -0.1790664753
N  N16  1  0.45130000  0.90260000  0.15190000  1.0 -0.1790664753
N  N17  1  0.09740000  0.54870000  0.15190000  1.0 -0.1790664753
N  N18  1  0.45130000  0.54870000  0.15190000  1.0 -0.1790664753
O  O1  1  0.49110000  0.83940000  0.39110000  1.0 -0.508153082
O  O2  1  0.16060000  0.65170000  0.39110000  1.0 -0.508153082
O  O3  1  0.34830000  0.50890000  0.39110000  1.0 -0.508153082
O  O4  1  0.50890000  0.16060000  0.89110000  1.0 -0.508153082
O  O5  1  0.83940000  0.34830000  0.89110000  1.0 -0.508153082
O  O6  1  0.65170000  0.49110000  0.89110000  1.0 -0.508153082
O  O7  1  0.16060000  0.50890000  0.39110000  1.0 -0.508153082
O  O8  1  0.34830000  0.83940000  0.39110000  1.0 -0.508153082
O  O9  1  0.49110000  0.65170000  0.39110000  1.0 -0.508153082
O  O10  1  0.83940000  0.49110000  0.89110000  1.0 -0.508153082
O  O11  1  0.65170000  0.16060000  0.89110000  1.0 -0.508153082
O  O12  1  0.50890000  0.34830000  0.89110000  1.0 -0.508153082
O  O13  1  0.33333333  0.66666667  0.33840000  1.0 -0.8502992353
O  O14  1  0.66666667  0.33333333  0.83840000  1.0 -0.8502992353
