# DDEC6 charges by PACMAN v1.1 (https://github.com/mtap-research/PACMAN-charge/)
data_VIDPAC_FSR_pacman
_symmetry_space_group_name_H-M   'P 1'
_cell_length_a   10.93360000
_cell_length_b   10.93360000
_cell_length_c   29.59800000
_cell_angle_alpha   89.57370000
_cell_angle_beta   90.42630000
_cell_angle_gamma   118.92400000
_symmetry_Int_Tables_number   1
_chemical_formula_structural   Co2H14C24O13
_chemical_formula_sum   'Co8 H56 C96 O52'
_cell_volume   3096.78178697
_cell_formula_units_Z   4
loop_
 _symmetry_equiv_pos_site_id
 _symmetry_equiv_pos_as_xyz
  1  'x, y, z'
loop_
 _atom_site_type_symbol
 _atom_site_label
 _atom_site_symmetry_multiplicity
 _atom_site_fract_x
 _atom_site_fract_y
 _atom_site_fract_z
 _atom_site_occupancy
 _atom_site_charge
Co  Co1  1  0.12647000  0.07787000  0.35412000  1.0 1.1843095078
Co  Co2  1  0.07787000  0.12647000  0.14588000  1.0 1.1843095078
Co  Co3  1  0.95791000  0.95791000  0.25000000  1.0 1.1678816631
Co  Co4  1  0.24483000  0.24483000  0.25000000  1.0 1.186762686
Co  Co5  1  0.87353000  0.92213000  0.64588000  1.0 1.186762686
Co  Co6  1  0.92213000  0.87353000  0.85412000  1.0 1.1843095078
Co  Co7  1  0.04209000  0.04209000  0.75000000  1.0 1.1678816631
Co  Co8  1  0.75517000  0.75517000  0.75000000  1.0 1.1843095078
H  H1  1  0.57450000  0.63210000  0.19440000  1.0 0.1398682158
H  H2  1  0.37360000  0.47080000  0.07720000  1.0 0.1398682158
H  H3  1  0.70410000  0.85590000  0.07950000  1.0 0.1284412473
H  H4  1  0.66450000  0.82190000  0.99180000  1.0 0.1197137638
H  H5  1  0.59610000  0.87950000  0.02620000  1.0 0.099708411
H  H6  1  0.60010000  0.80430000  0.91560000  1.0 0.1398682158
H  H7  1  0.47720000  0.83820000  0.85770000  1.0 0.1284412473
H  H8  1  0.28180000  0.86000000  0.87340000  1.0 0.1284412473
H  H9  1  0.21100000  0.84780000  0.94710000  1.0 0.1398682158
H  H10  1  0.40530000  0.89290000  0.04250000  1.0 0.099708411
H  H11  1  0.26370000  0.87890000  0.02420000  1.0 0.1095322847
H  H12  1  0.14040000  0.47840000  0.08620000  1.0 0.1398682158
H  H13  1  0.01980000  0.60160000  0.19650000  1.0 0.1398682158
H  H14  1  0.23020000  0.87900000  0.09810000  1.0 0.1284412473
H  H15  1  0.63210000  0.57450000  0.30560000  1.0 0.1398682158
H  H16  1  0.47080000  0.37360000  0.42280000  1.0 0.1398682158
H  H17  1  0.85590000  0.70410000  0.42050000  1.0 0.1284412473
H  H18  1  0.82190000  0.66450000  0.50820000  1.0 0.1197137638
H  H19  1  0.87950000  0.59610000  0.47380000  1.0 0.099708411
H  H20  1  0.80430000  0.60010000  0.58440000  1.0 0.1398682158
H  H21  1  0.83820000  0.47720000  0.64230000  1.0 0.1284412473
H  H22  1  0.86000000  0.28180000  0.62660000  1.0 0.1284412473
H  H23  1  0.84780000  0.21100000  0.55290000  1.0 0.1398682158
H  H24  1  0.89290000  0.40530000  0.45750000  1.0 0.099708411
H  H25  1  0.87890000  0.26370000  0.47580000  1.0 0.1095322847
H  H26  1  0.47840000  0.14040000  0.41380000  1.0 0.1398682158
H  H27  1  0.60160000  0.01980000  0.30350000  1.0 0.1398682158
H  H28  1  0.87900000  0.23020000  0.40190000  1.0 0.1284412473
H  H29  1  0.42550000  0.36790000  0.80560000  1.0 0.1398682158
H  H30  1  0.62640000  0.52920000  0.92280000  1.0 0.1398682158
H  H31  1  0.29590000  0.14410000  0.92050000  1.0 0.1284412473
H  H32  1  0.33550000  0.17810000  0.00820000  1.0 0.1197137638
H  H33  1  0.40390000  0.12050000  0.97380000  1.0 0.099708411
H  H34  1  0.39990000  0.19570000  0.08440000  1.0 0.1398682158
H  H35  1  0.52280000  0.16180000  0.14230000  1.0 0.1284412473
H  H36  1  0.71820000  0.14000000  0.12660000  1.0 0.1284412473
H  H37  1  0.78900000  0.15220000  0.05290000  1.0 0.1398682158
H  H38  1  0.59470000  0.10710000  0.95750000  1.0 0.099708411
H  H39  1  0.73630000  0.12110000  0.97580000  1.0 0.1095322847
H  H40  1  0.85960000  0.52160000  0.91380000  1.0 0.1398682158
H  H41  1  0.98020000  0.39840000  0.80350000  1.0 0.1398682158
H  H42  1  0.76980000  0.12100000  0.90190000  1.0 0.1284412473
H  H43  1  0.36790000  0.42550000  0.69440000  1.0 0.1398682158
H  H44  1  0.52920000  0.62640000  0.57720000  1.0 0.1398682158
H  H45  1  0.14410000  0.29590000  0.57950000  1.0 0.1284412473
H  H46  1  0.17810000  0.33550000  0.49180000  1.0 0.1197137638
H  H47  1  0.12050000  0.40390000  0.52620000  1.0 0.099708411
H  H48  1  0.19570000  0.39990000  0.41560000  1.0 0.1398682158
H  H49  1  0.16180000  0.52280000  0.35770000  1.0 0.1284412473
H  H50  1  0.14000000  0.71820000  0.37340000  1.0 0.1284412473
H  H51  1  0.15220000  0.78900000  0.44710000  1.0 0.1398682158
H  H52  1  0.10710000  0.59470000  0.54250000  1.0 0.099708411
H  H53  1  0.12110000  0.73630000  0.52420000  1.0 0.1095322847
H  H54  1  0.52160000  0.85960000  0.58620000  1.0 0.1398682158
H  H55  1  0.39840000  0.98020000  0.69650000  1.0 0.1398682158
H  H56  1  0.12100000  0.76980000  0.59810000  1.0 0.1284412473
C  C1  1  0.78475000  0.87365000  0.16482000  1.0 0.5903021648
C  C2  1  0.65946000  0.76034000  0.14073000  1.0 0.017279686
C  C3  1  0.56513000  0.64027000  0.16342000  1.0 -0.1120157809
C  C4  1  0.45612000  0.53168000  0.13970000  1.0 0.0034641611
C  C5  1  0.35121000  0.40239000  0.16388000  1.0 0.5586285248
C  C6  1  0.44302000  0.54478000  0.09331000  1.0 -0.2075106249
C  C7  1  0.53252000  0.66708000  0.07109000  1.0 0.2540013447
C  C8  1  0.64224000  0.77456000  0.09461000  1.0 -0.2409024552
C  C9  1  0.57640000  0.80680000  0.00425000  1.0 -0.0706847604
C  C10  1  0.48517000  0.81443000  0.96685000  1.0 0.0333800643
C  C11  1  0.52327000  0.81593000  0.92223000  1.0 -0.1342328888
C  C12  1  0.44870000  0.83450000  0.88746000  1.0 -0.0856192902
C  C13  1  0.33230000  0.84770000  0.89673000  1.0 -0.0706847604
C  C14  1  0.29146000  0.84214000  0.94096000  1.0 -0.1491842352
C  C15  1  0.36698000  0.82842000  0.97645000  1.0 0.0363464236
C  C16  1  0.32340000  0.83620000  0.02419000  1.0 -0.0706847604
C  C17  1  0.19386000  0.68294000  0.08433000  1.0 0.255670841
C  C18  1  0.13601000  0.54839000  0.10254000  1.0 -0.2036699549
C  C19  1  0.07271000  0.51729000  0.14407000  1.0 0.0034641611
C  C20  1  0.01826000  0.37234000  0.16222000  1.0 0.5586285248
C  C21  1  0.06350000  0.62190000  0.16845000  1.0 -0.1038528745
C  C22  1  0.12007000  0.75633000  0.15055000  1.0 0.017279686
C  C23  1  0.18828000  0.78792000  0.10915000  1.0 -0.2349247233
C  C24  1  0.10508000  0.87032000  0.17447000  1.0 0.5776431068
C  C25  1  0.87365000  0.78475000  0.33518000  1.0 0.5903021648
C  C26  1  0.76034000  0.65946000  0.35927000  1.0 0.017279686
C  C27  1  0.64027000  0.56513000  0.33658000  1.0 -0.1120157809
C  C28  1  0.53168000  0.45612000  0.36030000  1.0 0.0034641611
C  C29  1  0.40239000  0.35121000  0.33612000  1.0 0.5586285248
C  C30  1  0.54478000  0.44302000  0.40669000  1.0 -0.2075106249
C  C31  1  0.66708000  0.53252000  0.42891000  1.0 0.2540013447
C  C32  1  0.77456000  0.64224000  0.40539000  1.0 -0.2409024552
C  C33  1  0.80680000  0.57640000  0.49575000  1.0 -0.0706847604
C  C34  1  0.81443000  0.48517000  0.53315000  1.0 0.0333800643
C  C35  1  0.81593000  0.52327000  0.57777000  1.0 -0.1342328888
C  C36  1  0.83450000  0.44870000  0.61254000  1.0 -0.0856192902
C  C37  1  0.84770000  0.33230000  0.60327000  1.0 -0.0706847604
C  C38  1  0.84214000  0.29146000  0.55904000  1.0 -0.1491842352
C  C39  1  0.82842000  0.36698000  0.52355000  1.0 0.0363464236
C  C40  1  0.83620000  0.32340000  0.47581000  1.0 -0.0706847604
C  C41  1  0.68294000  0.19386000  0.41567000  1.0 0.255670841
C  C42  1  0.54839000  0.13601000  0.39746000  1.0 -0.2036699549
C  C43  1  0.51729000  0.07271000  0.35593000  1.0 0.0034641611
C  C44  1  0.37234000  0.01826000  0.33778000  1.0 0.5586285248
C  C45  1  0.62190000  0.06350000  0.33155000  1.0 -0.1038528745
C  C46  1  0.75633000  0.12007000  0.34945000  1.0 0.017279686
C  C47  1  0.78792000  0.18828000  0.39085000  1.0 -0.2349247233
C  C48  1  0.87032000  0.10508000  0.32553000  1.0 0.5776431068
C  C49  1  0.21525000  0.12635000  0.83518000  1.0 0.5903021648
C  C50  1  0.34054000  0.23966000  0.85927000  1.0 0.017279686
C  C51  1  0.43487000  0.35973000  0.83658000  1.0 -0.1120157809
C  C52  1  0.54388000  0.46832000  0.86030000  1.0 0.0034641611
C  C53  1  0.64879000  0.59761000  0.83612000  1.0 0.5586285248
C  C54  1  0.55698000  0.45522000  0.90669000  1.0 -0.2075106249
C  C55  1  0.46748000  0.33292000  0.92891000  1.0 0.2540013447
C  C56  1  0.35776000  0.22544000  0.90539000  1.0 -0.2409024552
C  C57  1  0.42360000  0.19320000  0.99575000  1.0 -0.0706847604
C  C58  1  0.51483000  0.18557000  0.03315000  1.0 0.0333800643
C  C59  1  0.47673000  0.18407000  0.07777000  1.0 -0.1342328888
C  C60  1  0.55130000  0.16550000  0.11254000  1.0 -0.0856192902
C  C61  1  0.66770000  0.15230000  0.10327000  1.0 -0.0706847604
C  C62  1  0.70854000  0.15786000  0.05904000  1.0 -0.1491842352
C  C63  1  0.63302000  0.17158000  0.02355000  1.0 0.0363464236
C  C64  1  0.67660000  0.16380000  0.97581000  1.0 -0.0706847604
C  C65  1  0.80614000  0.31706000  0.91567000  1.0 0.255670841
C  C66  1  0.86399000  0.45161000  0.89746000  1.0 -0.2036699549
C  C67  1  0.92729000  0.48271000  0.85593000  1.0 0.0034641611
C  C68  1  0.98174000  0.62766000  0.83778000  1.0 0.5586285248
C  C69  1  0.93650000  0.37810000  0.83155000  1.0 -0.1038528745
C  C70  1  0.87993000  0.24367000  0.84945000  1.0 0.017279686
C  C71  1  0.81172000  0.21208000  0.89085000  1.0 -0.2409024552
C  C72  1  0.89492000  0.12968000  0.82553000  1.0 0.5776431068
C  C73  1  0.12635000  0.21525000  0.66482000  1.0 0.5903021648
C  C74  1  0.23966000  0.34054000  0.64073000  1.0 0.017279686
C  C75  1  0.35973000  0.43487000  0.66342000  1.0 -0.1120157809
C  C76  1  0.46832000  0.54388000  0.63970000  1.0 0.0034641611
C  C77  1  0.59761000  0.64879000  0.66388000  1.0 0.5586285248
C  C78  1  0.45522000  0.55698000  0.59331000  1.0 -0.2075106249
C  C79  1  0.33292000  0.46748000  0.57109000  1.0 0.2540013447
C  C80  1  0.22544000  0.35776000  0.59461000  1.0 -0.2409024552
C  C81  1  0.19320000  0.42360000  0.50425000  1.0 -0.0706847604
C  C82  1  0.18557000  0.51483000  0.46685000  1.0 0.0333800643
C  C83  1  0.18407000  0.47673000  0.42223000  1.0 -0.1342328888
C  C84  1  0.16550000  0.55130000  0.38746000  1.0 -0.0856192902
C  C85  1  0.15230000  0.66770000  0.39673000  1.0 -0.0706847604
C  C86  1  0.15786000  0.70854000  0.44096000  1.0 -0.1491842352
C  C87  1  0.17158000  0.63302000  0.47645000  1.0 0.0363464236
C  C88  1  0.16380000  0.67660000  0.52419000  1.0 -0.0706847604
C  C89  1  0.31706000  0.80614000  0.58433000  1.0 0.255670841
C  C90  1  0.45161000  0.86399000  0.60254000  1.0 -0.2036699549
C  C91  1  0.48271000  0.92729000  0.64407000  1.0 0.0034641611
C  C92  1  0.62766000  0.98174000  0.66222000  1.0 0.5586285248
C  C93  1  0.37810000  0.93650000  0.66845000  1.0 -0.1038528745
C  C94  1  0.24367000  0.87993000  0.65055000  1.0 0.017279686
C  C95  1  0.21208000  0.81172000  0.60915000  1.0 -0.2349247233
C  C96  1  0.12968000  0.89492000  0.67447000  1.0 0.5776431068
O  O1  1  0.25017000  0.69863000  0.04249000  1.0 -0.1342328888
O  O2  1  0.01545000  0.28175000  0.13549000  1.0 -0.5490515948
O  O3  1  0.97883000  0.34917000  0.20314000  1.0 -0.4229916082
O  O4  1  0.16107000  0.98829000  0.15490000  1.0 -0.5358376251
O  O5  1  0.04086000  0.84174000  0.21118000  1.0 -0.5085994306
O  O6  1  0.14191000  0.06185000  0.28692000  1.0 -0.7897246674
O  O7  1  0.11478000  0.09182000  0.42609000  1.0 -0.3173213125
O  O8  1  0.36529000  0.15211000  0.21884000  1.0 0.1630046471
O  O9  1  0.50700000  0.67240000  0.02604000  1.0 -0.1491842352
O  O10  1  0.28493000  0.29305000  0.14154000  1.0 -0.5321357742
O  O11  1  0.33685000  0.41515000  0.20609000  1.0 -0.5490515948
O  O12  1  0.78490000  0.86958000  0.20750000  1.0 -0.5085994306
O  O13  1  0.87882000  0.96054000  0.13989000  1.0 -0.5321357742
O  O14  1  0.69863000  0.25017000  0.45751000  1.0 -0.1342328888
O  O15  1  0.28175000  0.01545000  0.36451000  1.0 -0.5490515948
O  O16  1  0.34917000  0.97883000  0.29686000  1.0 -0.4229916082
O  O17  1  0.98829000  0.16107000  0.34510000  1.0 -0.5358376251
O  O18  1  0.84174000  0.04086000  0.28882000  1.0 -0.504862313
O  O19  1  0.06185000  0.14191000  0.21308000  1.0 -0.7897246674
O  O20  1  0.09182000  0.11478000  0.07391000  1.0 -0.3173213125
O  O21  1  0.15211000  0.36529000  0.28116000  1.0 0.1630046471
O  O22  1  0.67240000  0.50700000  0.47396000  1.0 -0.1491842352
O  O23  1  0.29305000  0.28493000  0.35846000  1.0 -0.5321357742
O  O24  1  0.41515000  0.33685000  0.29391000  1.0 -0.5490515948
O  O25  1  0.86958000  0.78490000  0.29250000  1.0 -0.5085994306
O  O26  1  0.96054000  0.87882000  0.36011000  1.0 -0.5321357742
O  O27  1  0.74983000  0.30137000  0.95751000  1.0 -0.1342328888
O  O28  1  0.98455000  0.71825000  0.86451000  1.0 -0.5490515948
O  O29  1  0.02117000  0.65083000  0.79686000  1.0 -0.4229916082
O  O30  1  0.83893000  0.01171000  0.84510000  1.0 -0.5358376251
O  O31  1  0.95914000  0.15826000  0.78882000  1.0 -0.5085994306
O  O32  1  0.85809000  0.93815000  0.71308000  1.0 -0.7897246674
O  O33  1  0.88522000  0.90818000  0.57391000  1.0 -0.3173213125
O  O34  1  0.63471000  0.84789000  0.78116000  1.0 0.1650666996
O  O35  1  0.49300000  0.32760000  0.97396000  1.0 -0.1491842352
O  O36  1  0.71507000  0.70695000  0.85846000  1.0 -0.5321357742
O  O37  1  0.66315000  0.58485000  0.79391000  1.0 -0.5490515948
O  O38  1  0.21510000  0.13042000  0.79250000  1.0 -0.5085994306
O  O39  1  0.12118000  0.03946000  0.86011000  1.0 -0.5321357742
O  O40  1  0.30137000  0.74983000  0.54249000  1.0 -0.1342328888
O  O41  1  0.71825000  0.98455000  0.63549000  1.0 -0.5490515948
O  O42  1  0.65083000  0.02117000  0.70314000  1.0 -0.4229916082
O  O43  1  0.01171000  0.83893000  0.65490000  1.0 -0.5358376251
O  O44  1  0.15826000  0.95914000  0.71118000  1.0 -0.5085994306
O  O45  1  0.93815000  0.85809000  0.78692000  1.0 -0.7897246674
O  O46  1  0.90818000  0.88522000  0.92609000  1.0 -0.3173213125
O  O47  1  0.84789000  0.63471000  0.71884000  1.0 0.1650666996
O  O48  1  0.32760000  0.49300000  0.52604000  1.0 -0.1491842352
O  O49  1  0.70695000  0.71507000  0.64154000  1.0 -0.5321357742
O  O50  1  0.58485000  0.66315000  0.70609000  1.0 -0.5490515948
O  O51  1  0.13042000  0.21510000  0.70750000  1.0 -0.5085994306
O  O52  1  0.03946000  0.12118000  0.63989000  1.0 -0.5321357742
