# DDEC6 charges by PACMAN v1.1 (https://github.com/mtap-research/PACMAN-charge/)
data_VIDVUB_ASR_pacman
_symmetry_space_group_name_H-M   'P 1'
_cell_length_a   14.27100000
_cell_length_b   14.43200000
_cell_length_c   22.54900000
_cell_angle_alpha   90.00000000
_cell_angle_beta   99.86000000
_cell_angle_gamma   90.00000000
_symmetry_Int_Tables_number   1
_chemical_formula_structural   CdH5C9O5
_chemical_formula_sum   'Cd8 H40 C72 O40'
_cell_volume   4575.57259817
_cell_formula_units_Z   8
loop_
 _symmetry_equiv_pos_site_id
 _symmetry_equiv_pos_as_xyz
  1  'x, y, z'
loop_
 _atom_site_type_symbol
 _atom_site_label
 _atom_site_symmetry_multiplicity
 _atom_site_fract_x
 _atom_site_fract_y
 _atom_site_fract_z
 _atom_site_occupancy
 _atom_site_charge
Cd  Cd1  1  0.75512000  0.74589000  0.74146000  1.0 0.970332537
Cd  Cd2  1  0.24488000  0.24589000  0.75854000  1.0 0.970332537
Cd  Cd3  1  0.24488000  0.25411000  0.25854000  1.0 0.970332537
Cd  Cd4  1  0.75512000  0.75411000  0.24146000  1.0 0.970332537
Cd  Cd5  1  0.68379000  0.62528000  0.86106000  1.0 1.0431975166
Cd  Cd6  1  0.31621000  0.12528000  0.63894000  1.0 1.0431975166
Cd  Cd7  1  0.31621000  0.37472000  0.13894000  1.0 1.0431975166
Cd  Cd8  1  0.68379000  0.87472000  0.36106000  1.0 1.0431975166
H  H1  1  0.99710000  0.48690000  0.75650000  1.0 0.1307206789
H  H2  1  0.00290000  0.98690000  0.74350000  1.0 0.1307206789
H  H3  1  0.00290000  0.51310000  0.24350000  1.0 0.1307206789
H  H4  1  0.99710000  0.01310000  0.25650000  1.0 0.1307206789
H  H5  1  0.91150000  0.57190000  0.90870000  1.0 0.0726665744
H  H6  1  0.08850000  0.07190000  0.59130000  1.0 0.0726665744
H  H7  1  0.08850000  0.42810000  0.09130000  1.0 0.0726665744
H  H8  1  0.91150000  0.92810000  0.40870000  1.0 0.0726665744
H  H9  1  0.12150000  0.38570000  0.91670000  1.0 0.1105444351
H  H10  1  0.87850000  0.88570000  0.58330000  1.0 0.1105444351
H  H11  1  0.87850000  0.61430000  0.08330000  1.0 0.1105444351
H  H12  1  0.12150000  0.11430000  0.41670000  1.0 0.1105444351
H  H13  1  0.09520000  0.48920000  0.00760000  1.0 0.0985419529
H  H14  1  0.90480000  0.98920000  0.49240000  1.0 0.0985419529
H  H15  1  0.90480000  0.51080000  0.99240000  1.0 0.0985419529
H  H16  1  0.09520000  0.01080000  0.50760000  1.0 0.0985419529
H  H17  1  0.02980000  0.40080000  0.00080000  1.0 0.1571099648
H  H18  1  0.97020000  0.90080000  0.49920000  1.0 0.1571099648
H  H19  1  0.97020000  0.59920000  0.99920000  1.0 0.1571099648
H  H20  1  0.02980000  0.09920000  0.50080000  1.0 0.1571099648
H  H21  1  0.57100000  0.57660000  0.59440000  1.0 0.0985419529
H  H22  1  0.42900000  0.07660000  0.90560000  1.0 0.0920676529
H  H23  1  0.42900000  0.42340000  0.40560000  1.0 0.0985419529
H  H24  1  0.57100000  0.92340000  0.09440000  1.0 0.0920676529
H  H25  1  0.38490000  0.36620000  0.57670000  1.0 0.0985419529
H  H26  1  0.61510000  0.86620000  0.92330000  1.0 0.0985419529
H  H27  1  0.61510000  0.63380000  0.42330000  1.0 0.0985419529
H  H28  1  0.38490000  0.13380000  0.07670000  1.0 0.0985419529
H  H29  1  0.48610000  0.46810000  0.74070000  1.0 0.1205717918
H  H30  1  0.51390000  0.96810000  0.75930000  1.0 0.1205717918
H  H31  1  0.51390000  0.53190000  0.25930000  1.0 0.1205717918
H  H32  1  0.48610000  0.03190000  0.24070000  1.0 0.1205717918
H  H33  1  0.40290000  0.46000000  0.48930000  1.0 0.1684449931
H  H34  1  0.59710000  0.96000000  0.01070000  1.0 0.1684449931
H  H35  1  0.59710000  0.54000000  0.51070000  1.0 0.1684449931
H  H36  1  0.40290000  0.04000000  0.98930000  1.0 0.1684449931
H  H37  1  0.48950000  0.39070000  0.50120000  1.0 0.1205717918
H  H38  1  0.51050000  0.89070000  0.99880000  1.0 0.1205717918
H  H39  1  0.51050000  0.60930000  0.49880000  1.0 0.1205717918
H  H40  1  0.48950000  0.10930000  0.00120000  1.0 0.1105444351
C  C1  1  0.13290000  0.36590000  0.80273000  1.0 0.5415956417
C  C2  1  0.86710000  0.86590000  0.69727000  1.0 0.5415956417
C  C3  1  0.86710000  0.63410000  0.19727000  1.0 0.5415956417
C  C4  1  0.13290000  0.13410000  0.30273000  1.0 0.5415956417
C  C5  1  0.06900000  0.42750000  0.83188000  1.0 -0.0306867975
C  C6  1  0.93100000  0.92750000  0.66812000  1.0 -0.0306867975
C  C7  1  0.93100000  0.57250000  0.16812000  1.0 -0.0306867975
C  C8  1  0.06900000  0.07250000  0.33188000  1.0 -0.0306867975
C  C9  1  0.00290000  0.48550000  0.79825000  1.0 -0.1141782811
C  C10  1  0.99710000  0.98550000  0.70175000  1.0 -0.1141782811
C  C11  1  0.99710000  0.51450000  0.20175000  1.0 -0.1168581221
C  C12  1  0.00290000  0.01450000  0.29825000  1.0 -0.1168581221
C  C13  1  0.94560000  0.54130000  0.82693000  1.0 -0.0306867975
C  C14  1  0.05440000  0.04130000  0.67307000  1.0 -0.0306867975
C  C15  1  0.05440000  0.45870000  0.17307000  1.0 -0.0306867975
C  C16  1  0.94560000  0.95870000  0.32693000  1.0 -0.0306867975
C  C17  1  0.95180000  0.53630000  0.88962000  1.0 -0.2532253301
C  C18  1  0.04820000  0.03630000  0.61038000  1.0 -0.2555222472
C  C19  1  0.04820000  0.46370000  0.11038000  1.0 -0.2555222472
C  C20  1  0.95180000  0.96370000  0.38962000  1.0 -0.2532253301
C  C21  1  0.01770000  0.47870000  0.92268000  1.0 0.1884006785
C  C22  1  0.98230000  0.97870000  0.57732000  1.0 0.1884006785
C  C23  1  0.98230000  0.52130000  0.07732000  1.0 0.1884006785
C  C24  1  0.01770000  0.02130000  0.42268000  1.0 0.1884006785
C  C25  1  0.07680000  0.42430000  0.89414000  1.0 -0.2301281928
C  C26  1  0.92320000  0.92430000  0.60586000  1.0 -0.2301281928
C  C27  1  0.92320000  0.57570000  0.10586000  1.0 -0.2301281928
C  C28  1  0.07680000  0.07570000  0.39414000  1.0 -0.2239581009
C  C29  1  0.87640000  0.60700000  0.79163000  1.0 0.5661211798
C  C30  1  0.12360000  0.10700000  0.70837000  1.0 0.5661211798
C  C31  1  0.12360000  0.39300000  0.20837000  1.0 0.5661211798
C  C32  1  0.87640000  0.89300000  0.29163000  1.0 0.5661211798
C  C33  1  0.01750000  0.45130000  0.98820000  1.0 0.0808795506
C  C34  1  0.98250000  0.95130000  0.51180000  1.0 0.0920676529
C  C35  1  0.98250000  0.54870000  0.01180000  1.0 0.0808795506
C  C36  1  0.01750000  0.04870000  0.48820000  1.0 0.0808795506
C  C37  1  0.60500000  0.59700000  0.71358000  1.0 0.596937705
C  C38  1  0.39500000  0.09700000  0.78642000  1.0 0.596937705
C  C39  1  0.39500000  0.40300000  0.28642000  1.0 0.596937705
C  C40  1  0.60500000  0.90300000  0.21358000  1.0 0.596937705
C  C41  1  0.54010000  0.53180000  0.67417000  1.0 -0.0491226724
C  C42  1  0.45990000  0.03180000  0.82583000  1.0 -0.0491226724
C  C43  1  0.45990000  0.46820000  0.32583000  1.0 -0.0491226724
C  C44  1  0.54010000  0.96820000  0.17417000  1.0 -0.0491226724
C  C45  1  0.53560000  0.53330000  0.61181000  1.0 -0.2417952901
C  C46  1  0.46440000  0.03330000  0.88819000  1.0 -0.2417952901
C  C47  1  0.46440000  0.46670000  0.38819000  1.0 -0.2417952901
C  C48  1  0.53560000  0.96670000  0.11181000  1.0 -0.2417952901
C  C49  1  0.47860000  0.47050000  0.57587000  1.0 0.1684449931
C  C50  1  0.52140000  0.97050000  0.92413000  1.0 0.1684449931
C  C51  1  0.52140000  0.52950000  0.42413000  1.0 0.1684449931
C  C52  1  0.47860000  0.02950000  0.07587000  1.0 0.1684449931
C  C53  1  0.42370000  0.40800000  0.60100000  1.0 -0.2301281928
C  C54  1  0.57630000  0.90800000  0.89900000  1.0 -0.2301281928
C  C55  1  0.57630000  0.59200000  0.39900000  1.0 -0.2301281928
C  C56  1  0.42370000  0.09200000  0.10100000  1.0 -0.2301281928
C  C57  1  0.42660000  0.40790000  0.66266000  1.0 -0.0306867975
C  C58  1  0.57340000  0.90790000  0.83734000  1.0 -0.0306867975
C  C59  1  0.57340000  0.59210000  0.33734000  1.0 -0.0306867975
C  C60  1  0.42660000  0.09210000  0.16266000  1.0 -0.0306867975
C  C61  1  0.48450000  0.46900000  0.69926000  1.0 -0.1168581221
C  C62  1  0.51550000  0.96900000  0.80074000  1.0 -0.1168581221
C  C63  1  0.51550000  0.53100000  0.30074000  1.0 -0.1168581221
C  C64  1  0.48450000  0.03100000  0.19926000  1.0 -0.1168581221
C  C65  1  0.36450000  0.34190000  0.69010000  1.0 0.5769291261
C  C66  1  0.63550000  0.84190000  0.80990000  1.0 0.5769291261
C  C67  1  0.63550000  0.65810000  0.30990000  1.0 0.5769291261
C  C68  1  0.36450000  0.15810000  0.19010000  1.0 0.5769291261
C  C69  1  0.46860000  0.45290000  0.50880000  1.0 -0.0208071896
C  C70  1  0.53140000  0.95290000  0.99120000  1.0 -0.0208071896
C  C71  1  0.53140000  0.54710000  0.49120000  1.0 -0.0208071896
C  C72  1  0.46860000  0.04710000  0.00880000  1.0 -0.0208071896
O  O1  1  0.12190000  0.36210000  0.74608000  1.0 -0.5533946117
O  O2  1  0.87810000  0.86210000  0.75392000  1.0 -0.5533946117
O  O3  1  0.87810000  0.63790000  0.25392000  1.0 -0.5533946117
O  O4  1  0.12190000  0.13790000  0.24608000  1.0 -0.5533946117
O  O5  1  0.19395000  0.31890000  0.83614000  1.0 -0.5438406875
O  O6  1  0.80605000  0.81890000  0.66386000  1.0 -0.5438406875
O  O7  1  0.80605000  0.68110000  0.16386000  1.0 -0.5438406875
O  O8  1  0.19395000  0.18110000  0.33614000  1.0 -0.5438406875
O  O9  1  0.87810000  0.62130000  0.73779000  1.0 -0.5009323916
O  O10  1  0.12190000  0.12130000  0.76221000  1.0 -0.5009323916
O  O11  1  0.12190000  0.37870000  0.26221000  1.0 -0.5009323916
O  O12  1  0.87810000  0.87870000  0.23779000  1.0 -0.5009323916
O  O13  1  0.81976000  0.65118000  0.82007000  1.0 -0.6236391624
O  O14  1  0.18024000  0.15118000  0.67993000  1.0 -0.6236391624
O  O15  1  0.18024000  0.34882000  0.17993000  1.0 -0.6236391624
O  O16  1  0.81976000  0.84882000  0.32007000  1.0 -0.6236391624
O  O17  1  0.65040000  0.65370000  0.68748000  1.0 -0.5343613287
O  O18  1  0.34960000  0.15370000  0.81252000  1.0 -0.5343613287
O  O19  1  0.34960000  0.34630000  0.31252000  1.0 -0.5343613287
O  O20  1  0.65040000  0.84630000  0.18748000  1.0 -0.5343613287
O  O21  1  0.60810000  0.59030000  0.76879000  1.0 -0.6017664185
O  O22  1  0.39190000  0.09030000  0.73121000  1.0 -0.6017664185
O  O23  1  0.39190000  0.40970000  0.23121000  1.0 -0.6017664185
O  O24  1  0.60810000  0.90970000  0.26879000  1.0 -0.6017664185
O  O25  1  0.35840000  0.35080000  0.74390000  1.0 -0.5228402278
O  O26  1  0.64160000  0.85080000  0.75610000  1.0 -0.5228402278
O  O27  1  0.64160000  0.64920000  0.25610000  1.0 -0.5228402278
O  O28  1  0.35840000  0.14920000  0.24390000  1.0 -0.5228402278
O  O29  1  0.32120000  0.28040000  0.65580000  1.0 -0.6265945594
O  O30  1  0.67880000  0.78040000  0.84420000  1.0 -0.6265945594
O  O31  1  0.67880000  0.71960000  0.34420000  1.0 -0.6265945594
O  O32  1  0.32120000  0.21960000  0.15580000  1.0 -0.6236391624
O  O33  1  0.47340000  0.48060000  0.51280000  1.0 -0.0050821396
O  O34  1  0.52660000  0.98060000  0.98720000  1.0 -0.0028840721
O  O35  1  0.52660000  0.51940000  0.48720000  1.0 0.0062689913
O  O36  1  0.47340000  0.01940000  0.01280000  1.0 -0.0028840721
O  O37  1  0.03620000  0.48340000  0.98470000  1.0 -0.0491226724
O  O38  1  0.96380000  0.98340000  0.51530000  1.0 -0.0491226724
O  O39  1  0.96380000  0.51660000  0.01530000  1.0 -0.0491226724
O  O40  1  0.03620000  0.01660000  0.48470000  1.0 -0.0491226724
