# DDEC6 charges by PACMAN v1.1 (https://github.com/mtap-research/PACMAN-charge/)
data_VIDWIQ_ASR_pacman
_symmetry_space_group_name_H-M   'P 1'
_cell_length_a   11.06080000
_cell_length_b   11.06080000
_cell_length_c   11.97700000
_cell_angle_alpha   68.96690000
_cell_angle_beta   111.03300000
_cell_angle_gamma   99.06040000
_symmetry_Int_Tables_number   1
_chemical_formula_structural   Mg2H12C18O11
_chemical_formula_sum   'Mg4 H24 C36 O22'
_cell_volume   1275.84214940
_cell_formula_units_Z   2
loop_
 _symmetry_equiv_pos_site_id
 _symmetry_equiv_pos_as_xyz
  1  'x, y, z'
loop_
 _atom_site_type_symbol
 _atom_site_label
 _atom_site_symmetry_multiplicity
 _atom_site_fract_x
 _atom_site_fract_y
 _atom_site_fract_z
 _atom_site_occupancy
 _atom_site_charge
Mg  Mg1  1  0.27422000  0.07938000  0.90281000  1.0 1.3489935353
Mg  Mg2  1  0.07938000  0.27422000  0.59719000  1.0 1.3489935353
Mg  Mg3  1  0.72578000  0.92062000  0.09719000  1.0 1.3449355319
Mg  Mg4  1  0.92062000  0.72578000  0.40281000  1.0 1.3449355319
H  H1  1  0.16750000  0.63070000  0.74800000  1.0 0.1329496905
H  H2  1  0.63070000  0.16750000  0.75200000  1.0 0.1329496905
H  H3  1  0.38690000  0.69550000  0.07310000  1.0 0.1174195476
H  H4  1  0.69550000  0.38690000  0.42690000  1.0 0.1174195476
H  H5  1  0.36480000  0.34160000  0.04520000  1.0 0.1357545473
H  H6  1  0.34160000  0.36480000  0.45480000  1.0 0.1357545473
H  H7  1  0.55510000  0.40690000  0.21470000  1.0 0.1935823441
H  H8  1  0.40690000  0.55510000  0.28530000  1.0 0.1935823441
H  H9  1  0.56360000  0.55240000  0.21120000  1.0 0.109985362
H  H10  1  0.55240000  0.56360000  0.28880000  1.0 0.109985362
H  H11  1  0.08340000  0.01520000  0.73920000  1.0 0.3354107097
H  H12  1  0.01520000  0.08340000  0.76080000  1.0 0.3354107097
H  H13  1  0.83250000  0.36930000  0.25200000  1.0 0.1329496905
H  H14  1  0.36930000  0.83250000  0.24800000  1.0 0.1329496905
H  H15  1  0.61310000  0.30450000  0.92690000  1.0 0.1174195476
H  H16  1  0.30450000  0.61310000  0.57310000  1.0 0.1174195476
H  H17  1  0.63520000  0.65840000  0.95480000  1.0 0.1357545473
H  H18  1  0.65840000  0.63520000  0.54520000  1.0 0.1357545473
H  H19  1  0.44490000  0.59310000  0.78530000  1.0 0.1935823441
H  H20  1  0.59310000  0.44490000  0.71470000  1.0 0.1935823441
H  H21  1  0.43640000  0.44760000  0.78880000  1.0 0.109985362
H  H22  1  0.44760000  0.43640000  0.71120000  1.0 0.109985362
H  H23  1  0.91660000  0.98480000  0.26080000  1.0 0.3354107097
H  H24  1  0.98480000  0.91660000  0.23920000  1.0 0.3354107097
C  C1  1  0.21183000  0.37297000  0.81640000  1.0 0.6015797362
C  C2  1  0.37297000  0.21183000  0.68360000  1.0 0.6015797362
C  C3  1  0.25902000  0.47118000  0.88550000  1.0 -0.0397225896
C  C4  1  0.47118000  0.25902000  0.61450000  1.0 -0.0397225896
C  C5  1  0.22288000  0.60052000  0.83110000  1.0 -0.1708302803
C  C6  1  0.60052000  0.22288000  0.66890000  1.0 -0.1708302803
C  C7  1  0.27024000  0.68362000  0.90180000  1.0 -0.0005343516
C  C8  1  0.68362000  0.27024000  0.59820000  1.0 -0.0005343516
C  C9  1  0.35454000  0.63926000  0.02630000  1.0 -0.3143023297
C  C10  1  0.63926000  0.35454000  0.47370000  1.0 -0.3143023297
C  C11  1  0.38990000  0.50990000  0.07990000  1.0 0.1454416916
C  C12  1  0.50990000  0.38990000  0.42010000  1.0 0.1454416916
C  C13  1  0.34145000  0.42775000  0.00910000  1.0 -0.2679281056
C  C14  1  0.42775000  0.34145000  0.49090000  1.0 -0.2679281056
C  C15  1  0.22979000  0.82253000  0.84920000  1.0 0.6015797362
C  C16  1  0.82253000  0.22979000  0.65080000  1.0 0.6015797362
C  C17  1  0.50610000  0.47750000  0.20530000  1.0 0.0199488021
C  C18  1  0.47750000  0.50610000  0.29470000  1.0 0.0199488021
C  C19  1  0.78817000  0.62703000  0.18360000  1.0 0.6015797362
C  C20  1  0.62703000  0.78817000  0.31640000  1.0 0.6015797362
C  C21  1  0.74098000  0.52882000  0.11450000  1.0 -0.0397225896
C  C22  1  0.52882000  0.74098000  0.38550000  1.0 -0.0397225896
C  C23  1  0.77712000  0.39948000  0.16890000  1.0 -0.1708302803
C  C24  1  0.39948000  0.77712000  0.33110000  1.0 -0.1708302803
C  C25  1  0.72976000  0.31638000  0.09820000  1.0 -0.0005343516
C  C26  1  0.31638000  0.72976000  0.40180000  1.0 -0.0005343516
C  C27  1  0.64546000  0.36074000  0.97370000  1.0 -0.3143023297
C  C28  1  0.36074000  0.64546000  0.52630000  1.0 -0.3143023297
C  C29  1  0.61010000  0.49010000  0.92010000  1.0 0.1454416916
C  C30  1  0.49010000  0.61010000  0.57990000  1.0 0.1454416916
C  C31  1  0.65855000  0.57225000  0.99090000  1.0 -0.2679281056
C  C32  1  0.57225000  0.65855000  0.50910000  1.0 -0.2679281056
C  C33  1  0.77021000  0.17747000  0.15080000  1.0 0.6015797362
C  C34  1  0.17747000  0.77021000  0.34920000  1.0 0.6015797362
C  C35  1  0.49390000  0.52250000  0.79470000  1.0 0.0199488021
C  C36  1  0.52250000  0.49390000  0.70530000  1.0 0.0199488021
O  O1  1  0.25262000  0.26208000  0.87980000  1.0 -0.6812000121
O  O2  1  0.26208000  0.25262000  0.62020000  1.0 -0.6812000121
O  O3  1  0.13827000  0.40517000  0.70396000  1.0 -0.6171119704
O  O4  1  0.40517000  0.13827000  0.79604000  1.0 -0.6171119704
O  O5  1  0.14041000  0.85999000  0.74690000  1.0 -0.536580731
O  O6  1  0.85999000  0.14041000  0.75310000  1.0 -0.536580731
O  O7  1  0.28982000  0.89374000  0.91540000  1.0 -0.685402964
O  O8  1  0.89374000  0.28982000  0.58460000  1.0 -0.685402964
O  O9  1  0.08758000  0.08758000  0.75000000  1.0 -0.8428084299
O  O10  1  0.44141000  0.44141000  0.20721000  1.0 -0.0077006274
O  O11  1  0.44141000  0.44141000  0.29279000  1.0 -0.0077006274
O  O12  1  0.74738000  0.73792000  0.12020000  1.0 -0.6812000121
O  O13  1  0.73792000  0.74738000  0.37980000  1.0 -0.6812000121
O  O14  1  0.86173000  0.59483000  0.29604000  1.0 -0.6171119704
O  O15  1  0.59483000  0.86173000  0.20396000  1.0 -0.6171119704
O  O16  1  0.85959000  0.14001000  0.25310000  1.0 -0.536580731
O  O17  1  0.14001000  0.85959000  0.24690000  1.0 -0.536580731
O  O18  1  0.71018000  0.10626000  0.08460000  1.0 -0.6812000121
O  O19  1  0.10626000  0.71018000  0.41540000  1.0 -0.6812000121
O  O20  1  0.91242000  0.91242000  0.25000000  1.0 -0.8428084299
O  O21  1  0.55859000  0.55859000  0.79279000  1.0 -0.0077006274
O  O22  1  0.55859000  0.55859000  0.70721000  1.0 -0.0077006274
