# DDEC6 charges by PACMAN v1.1 (https://github.com/mtap-research/PACMAN-charge/)
data_VIDWAI_ion_pacman
_symmetry_space_group_name_H-M   'P 1'
_cell_length_a   9.94200000
_cell_length_b   10.42600000
_cell_length_c   12.77000000
_cell_angle_alpha   109.99600000
_cell_angle_beta   107.30300000
_cell_angle_gamma   92.14100000
_symmetry_Int_Tables_number   1
_chemical_formula_structural   Cd3H36C40(NO10)2
_chemical_formula_sum   'Cd3 H36 C40 N2 O20'
_cell_volume   1173.23782928
_cell_formula_units_Z   1
loop_
 _symmetry_equiv_pos_site_id
 _symmetry_equiv_pos_as_xyz
  1  'x, y, z'
loop_
 _atom_site_type_symbol
 _atom_site_label
 _atom_site_symmetry_multiplicity
 _atom_site_fract_x
 _atom_site_fract_y
 _atom_site_fract_z
 _atom_site_occupancy
 _atom_site_charge
Cd  Cd1  1  0.57202000  0.81567000  0.23648000  1.0 0.9594451818
Cd  Cd2  1  0.42798000  0.18433000  0.76352000  1.0 0.9594451818
Cd  Cd3  1  0.50000000  0.50000000  0.00000000  1.0 1.128196809
H  H1  1  0.06870000  0.78780000  0.19470000  1.0 0.1202228773
H  H2  1  0.93130000  0.21220000  0.80530000  1.0 0.1202228773
H  H3  1  0.11640000  0.58080000  0.88180000  1.0 0.1374673936
H  H4  1  0.88360000  0.41920000  0.11820000  1.0 0.1374673936
H  H5  1  0.72450000  0.61930000  0.90290000  1.0 0.1097577446
H  H6  1  0.27550000  0.38070000  0.09710000  1.0 0.1097577446
H  H7  1  0.67060000  0.60650000  0.71200000  1.0 0.1768361214
H  H8  1  0.32940000  0.39350000  0.28800000  1.0 0.1768361214
H  H9  1  0.66500000  0.45740000  0.71800000  1.0 0.1038974407
H  H10  1  0.33500000  0.54260000  0.28200000  1.0 0.1038974407
H  H11  1  0.69080000  0.26210000  0.55780000  1.0 0.1313131753
H  H12  1  0.30920000  0.73790000  0.44220000  1.0 0.1313131753
H  H13  1  0.57710000  0.27960000  0.23260000  1.0 0.1313131753
H  H14  1  0.42290000  0.72040000  0.76740000  1.0 0.1313131753
H  H15  1  0.68600000  0.63010000  0.52150000  1.0 0.1313131753
H  H16  1  0.31400000  0.36990000  0.47850000  1.0 0.1313131753
H  H17  1  0.91410000  0.42000000  0.72580000  1.0 0.165937047
H  H18  1  0.08590000  0.58000000  0.27420000  1.0 0.165937047
H  H19  1  0.76730000  0.41290000  0.74920000  1.0 0.1097577446
H  H20  1  0.23270000  0.58710000  0.25080000  1.0 0.1097577446
H  H21  1  0.10930000  0.77280000  0.67550000  1.0 0.1374673936
H  H22  1  0.04230000  0.82970000  0.77590000  1.0 0.1374673936
H  H23  1  0.95080000  0.71740000  0.65380000  1.0 0.1097577446
H  H24  1  0.88860000  0.86980000  0.45750000  1.0 0.1374673936
H  H25  1  0.05340000  0.92080000  0.50600000  1.0 0.1313131753
H  H26  1  0.97830000  0.76450000  0.47790000  1.0 0.1202228773
H  H27  1  0.88500000  0.92090000  0.64770000  1.0 0.2633976522
H  H28  1  0.03220000  0.99080000  0.69310000  1.0 0.2784011397
H  H29  1  0.89070000  0.22720000  0.32450000  1.0 0.1374673936
H  H30  1  0.95770000  0.17030000  0.22410000  1.0 0.1374673936
H  H31  1  0.04920000  0.28260000  0.34620000  1.0 0.1097577446
H  H32  1  0.11140000  0.13020000  0.54250000  1.0 0.1374673936
H  H33  1  0.94660000  0.07920000  0.49400000  1.0 0.1313131753
H  H34  1  0.02170000  0.23550000  0.52210000  1.0 0.1202228773
H  H35  1  0.11500000  0.07910000  0.35230000  1.0 0.2633976522
H  H36  1  0.96780000  0.00920000  0.30690000  1.0 0.2784011397
C  C1  1  0.78770000  0.75800000  0.13180000  1.0 0.5763765905
C  C2  1  0.21230000  0.24200000  0.86820000  1.0 0.5763765905
C  C3  1  0.88330000  0.71000000  0.06020000  1.0 0.0028348067
C  C4  1  0.11670000  0.29000000  0.93980000  1.0 0.0028348067
C  C5  1  0.02920000  0.73720000  0.11400000  1.0 -0.191630837
C  C6  1  0.97080000  0.26280000  0.88600000  1.0 -0.191630837
C  C7  1  0.11790000  0.68830000  0.04650000  1.0 -0.0039599759
C  C8  1  0.88210000  0.31170000  0.95350000  1.0 -0.0039599759
C  C9  1  0.05780000  0.61440000  0.92660000  1.0 -0.2423282605
C  C10  1  0.94220000  0.38560000  0.07340000  1.0 -0.2423282605
C  C11  1  0.91170000  0.59010000  0.87270000  1.0 0.1374673936
C  C12  1  0.08830000  0.40990000  0.12730000  1.0 0.1374673936
C  C13  1  0.82300000  0.63670000  0.93890000  1.0 -0.2924837735
C  C14  1  0.17700000  0.36330000  0.06110000  1.0 -0.2924837735
C  C15  1  0.27740000  0.71200000  0.10220000  1.0 0.5588185224
C  C16  1  0.72260000  0.28800000  0.89780000  1.0 0.5588185224
C  C17  1  0.71030000  0.52120000  0.69370000  1.0 0.0398458126
C  C18  1  0.28970000  0.47880000  0.30630000  1.0 0.0398458126
C  C19  1  0.69360000  0.45610000  0.55910000  1.0 0.1313131753
C  C20  1  0.30640000  0.54390000  0.44090000  1.0 0.1313131753
C  C21  1  0.67400000  0.31350000  0.50960000  1.0 -0.2968982127
C  C22  1  0.32600000  0.68650000  0.49040000  1.0 -0.2968982127
C  C23  1  0.62900000  0.24670000  0.38680000  1.0 0.0163599174
C  C24  1  0.37100000  0.75330000  0.61320000  1.0 0.0163599174
C  C25  1  0.60650000  0.32380000  0.31430000  1.0 -0.1732689705
C  C26  1  0.39350000  0.67620000  0.68570000  1.0 -0.1732689705
C  C27  1  0.62870000  0.46970000  0.36600000  1.0 -0.0177263696
C  C28  1  0.37130000  0.53030000  0.63400000  1.0 -0.0177263696
C  C29  1  0.67160000  0.53420000  0.48740000  1.0 -0.2615532544
C  C30  1  0.32840000  0.46580000  0.51260000  1.0 -0.2615532544
C  C31  1  0.60920000  0.09170000  0.33260000  1.0 0.5499793026
C  C32  1  0.39080000  0.90830000  0.66740000  1.0 0.5499793026
C  C33  1  0.60150000  0.55170000  0.28670000  1.0 0.5588185224
C  C34  1  0.39850000  0.44830000  0.71330000  1.0 0.5588185224
C  C35  1  0.84330000  0.47400000  0.74910000  1.0 0.0610051784
C  C36  1  0.15670000  0.52600000  0.25090000  1.0 0.0610051784
C  C37  1  0.02400000  0.79700000  0.69220000  1.0 -0.318093982
C  C38  1  0.97800000  0.86240000  0.50850000  1.0 -0.4095821348
C  C39  1  0.97600000  0.20300000  0.30780000  1.0 -0.318093982
C  C40  1  0.02200000  0.13760000  0.49150000  1.0 -0.4095821348
N  N1  1  0.97420000  0.91010000  0.64700000  1.0 -0.0919831399
N  N2  1  0.02580000  0.08990000  0.35300000  1.0 -0.0919831399
O  O1  1  0.83560000  0.84220000  0.23610000  1.0 -0.5401804613
O  O2  1  0.16440000  0.15780000  0.76390000  1.0 -0.5401804613
O  O3  1  0.65450000  0.70580000  0.08560000  1.0 -0.5950713423
O  O4  1  0.34550000  0.29420000  0.91440000  1.0 -0.5950713423
O  O5  1  0.33380000  0.79140000  0.21210000  1.0 -0.569875535
O  O6  1  0.66620000  0.20860000  0.78790000  1.0 -0.569875535
O  O7  1  0.35100000  0.65860000  0.04000000  1.0 -0.569875535
O  O8  1  0.64900000  0.34140000  0.96000000  1.0 -0.569875535
O  O9  1  0.86460000  0.54610000  0.74910000  1.0 -0.0051961864
O  O10  1  0.13540000  0.45390000  0.25090000  1.0 -0.0051961864
O  O11  1  0.63500000  0.02370000  0.39870000  1.0 -0.5401804613
O  O12  1  0.36500000  0.97630000  0.60130000  1.0 -0.5401804613
O  O13  1  0.56360000  0.03350000  0.22170000  1.0 -0.5401804613
O  O14  1  0.43640000  0.96650000  0.77830000  1.0 -0.5401804613
O  O15  1  0.54450000  0.48690000  0.17820000  1.0 -0.5809327629
O  O16  1  0.45550000  0.51310000  0.82180000  1.0 -0.5809327629
O  O17  1  0.63330000  0.68130000  0.33730000  1.0 -0.5309454467
O  O18  1  0.36670000  0.31870000  0.66270000  1.0 -0.5309454467
O  O19  1  0.79070000  0.54210000  0.67460000  1.0 -0.0177263696
O  O20  1  0.20930000  0.45790000  0.32540000  1.0 -0.0177263696
