# DDEC6 charges by PACMAN v1.1 (https://github.com/mtap-research/PACMAN-charge/)
data_VIKTOB_ASR_pacman
_symmetry_space_group_name_H-M   'P 1'
_cell_length_a   14.04720000
_cell_length_b   14.04720000
_cell_length_c   22.23000000
_cell_angle_alpha   71.05500000
_cell_angle_beta   108.94500000
_cell_angle_gamma   135.47300000
_symmetry_Int_Tables_number   1
_chemical_formula_structural   Tb4H17C29(NO9)2
_chemical_formula_sum   'Tb8 H34 C58 N4 O36'
_cell_volume   2880.52382895
_cell_formula_units_Z   2
loop_
 _symmetry_equiv_pos_site_id
 _symmetry_equiv_pos_as_xyz
  1  'x, y, z'
loop_
 _atom_site_type_symbol
 _atom_site_label
 _atom_site_symmetry_multiplicity
 _atom_site_fract_x
 _atom_site_fract_y
 _atom_site_fract_z
 _atom_site_occupancy
 _atom_site_charge
Tb  Tb1  1  0.74930000  0.60022000  0.81612000  1.0 2.1687874094
Tb  Tb2  1  0.89299000  0.95779000  0.81744000  1.0 2.0452102915
Tb  Tb3  1  0.60022000  0.74930000  0.68388000  1.0 2.1687874094
Tb  Tb4  1  0.95779000  0.89299000  0.68256000  1.0 2.0452102915
Tb  Tb5  1  0.25070000  0.39978000  0.18388000  1.0 2.1687874094
Tb  Tb6  1  0.10701000  0.04221000  0.18256000  1.0 2.0452102915
Tb  Tb7  1  0.39978000  0.25070000  0.31612000  1.0 2.1687874094
Tb  Tb8  1  0.04221000  0.10701000  0.31744000  1.0 2.0443403021
H  H1  1  0.61610000  0.68970000  0.82330000  1.0 0.40102714
H  H2  1  0.05510000  0.97070000  0.53430000  1.0 0.0840060923
H  H3  1  0.82550000  0.23970000  0.78280000  1.0 0.1069938884
H  H4  1  0.77900000  0.36960000  0.77760000  1.0 0.1027680233
H  H5  1  0.50080000  0.02380000  0.65120000  1.0 0.1069938884
H  H6  1  0.29730000  0.07090000  0.69990000  1.0 0.0924125731
H  H7  1  0.45320000  0.17100000  0.54120000  1.0 0.1171336964
H  H8  1  0.86960000  0.01820000  0.68440000  1.0 0.4125567174
H  H9  1  0.68970000  0.61610000  0.67670000  1.0 0.40102714
H  H10  1  0.97070000  0.05510000  0.96570000  1.0 0.0840060923
H  H11  1  0.23970000  0.82550000  0.71720000  1.0 0.1069938884
H  H12  1  0.36960000  0.77900000  0.72240000  1.0 0.1027680233
H  H13  1  0.02380000  0.50080000  0.84880000  1.0 0.1069938884
H  H14  1  0.07090000  0.29730000  0.80010000  1.0 0.0924125731
H  H15  1  0.17100000  0.45320000  0.95880000  1.0 0.1171336964
H  H16  1  0.01820000  0.86960000  0.81560000  1.0 0.4125567174
H  H17  1  0.38390000  0.31030000  0.17670000  1.0 0.40102714
H  H18  1  0.94490000  0.02930000  0.46570000  1.0 0.0840060923
H  H19  1  0.17450000  0.76030000  0.21720000  1.0 0.1069938884
H  H20  1  0.22100000  0.63040000  0.22240000  1.0 0.1027680233
H  H21  1  0.49920000  0.97620000  0.34880000  1.0 0.1069938884
H  H22  1  0.70270000  0.92910000  0.30010000  1.0 0.0924125731
H  H23  1  0.54680000  0.82900000  0.45880000  1.0 0.1171336964
H  H24  1  0.13040000  0.98180000  0.31560000  1.0 0.4154116705
H  H25  1  0.31030000  0.38390000  0.32330000  1.0 0.40102714
H  H26  1  0.02930000  0.94490000  0.03430000  1.0 0.0840060923
H  H27  1  0.76030000  0.17450000  0.28280000  1.0 0.1069938884
H  H28  1  0.63040000  0.22100000  0.27760000  1.0 0.1027680233
H  H29  1  0.97620000  0.49920000  0.15120000  1.0 0.1069938884
H  H30  1  0.92910000  0.70270000  0.19990000  1.0 0.0924125731
H  H31  1  0.82900000  0.54680000  0.04120000  1.0 0.1171336964
H  H32  1  0.98180000  0.13040000  0.18440000  1.0 0.4125567174
H  H33  1  0.27000000  0.27000000  0.75000000  1.0 0.1027680233
H  H34  1  0.73000000  0.73000000  0.25000000  1.0 0.1027680233
C  C1  1  0.69850000  0.02930000  0.72530000  1.0 0.6339729325
C  C2  1  0.14450000  0.01610000  0.55770000  1.0 0.0588710148
C  C3  1  0.67430000  0.12310000  0.71660000  1.0 -0.0262957212
C  C4  1  0.74950000  0.22230000  0.75360000  1.0 -0.1211566669
C  C5  1  0.72160000  0.29980000  0.75090000  1.0 -0.113370486
C  C6  1  0.60930000  0.27710000  0.70930000  1.0 -0.0583396909
C  C7  1  0.52900000  0.17600000  0.66840000  1.0 0.0340385026
C  C8  1  0.55980000  0.09780000  0.67540000  1.0 -0.1755218237
C  C9  1  0.58500000  0.36840000  0.70840000  1.0 0.6004034773
C  C10  1  0.28410000  0.07150000  0.65510000  1.0 0.0408445306
C  C11  1  0.25100000  0.07920000  0.52210000  1.0 -0.0583396909
C  C12  1  0.37940000  0.13340000  0.56060000  1.0 -0.113370486
C  C13  1  0.39790000  0.13210000  0.62580000  1.0 0.0408445306
C  C14  1  0.22600000  0.09300000  0.44850000  1.0 0.6178645238
C  C15  1  0.02930000  0.69850000  0.77470000  1.0 0.6339729325
C  C16  1  0.01610000  0.14450000  0.94230000  1.0 0.0588710148
C  C17  1  0.12310000  0.67430000  0.78340000  1.0 -0.0262957212
C  C18  1  0.22230000  0.74950000  0.74640000  1.0 -0.1211566669
C  C19  1  0.29980000  0.72160000  0.74910000  1.0 -0.113370486
C  C20  1  0.27710000  0.60930000  0.79070000  1.0 -0.0583396909
C  C21  1  0.17600000  0.52900000  0.83160000  1.0 0.0340385026
C  C22  1  0.09780000  0.55980000  0.82460000  1.0 -0.1755218237
C  C23  1  0.36840000  0.58500000  0.79160000  1.0 0.6004034773
C  C24  1  0.07150000  0.28410000  0.84490000  1.0 0.0408445306
C  C25  1  0.07920000  0.25100000  0.97790000  1.0 -0.0583396909
C  C26  1  0.13340000  0.37940000  0.93940000  1.0 -0.1211566669
C  C27  1  0.13210000  0.39790000  0.87420000  1.0 0.0408445306
C  C28  1  0.09300000  0.22600000  0.05150000  1.0 0.6178645238
C  C29  1  0.30150000  0.97070000  0.27470000  1.0 0.6339729325
C  C30  1  0.85550000  0.98390000  0.44230000  1.0 0.0588710148
C  C31  1  0.32570000  0.87690000  0.28340000  1.0 -0.0262957212
C  C32  1  0.25050000  0.77770000  0.24640000  1.0 -0.1211566669
C  C33  1  0.27840000  0.70020000  0.24910000  1.0 -0.113370486
C  C34  1  0.39070000  0.72290000  0.29070000  1.0 -0.0583396909
C  C35  1  0.47100000  0.82400000  0.33160000  1.0 0.0340385026
C  C36  1  0.44020000  0.90220000  0.32460000  1.0 -0.1755218237
C  C37  1  0.41500000  0.63160000  0.29160000  1.0 0.6004034773
C  C38  1  0.71590000  0.92850000  0.34490000  1.0 0.0408445306
C  C39  1  0.74900000  0.92080000  0.47790000  1.0 -0.0583396909
C  C40  1  0.62060000  0.86660000  0.43940000  1.0 -0.1211566669
C  C41  1  0.60210000  0.86790000  0.37420000  1.0 0.0408445306
C  C42  1  0.77400000  0.90700000  0.55150000  1.0 0.6178645238
C  C43  1  0.97070000  0.30150000  0.22530000  1.0 0.6339729325
C  C44  1  0.98390000  0.85550000  0.05770000  1.0 0.0588710148
C  C45  1  0.87690000  0.32570000  0.21660000  1.0 -0.0262957212
C  C46  1  0.77770000  0.25050000  0.25360000  1.0 -0.1211566669
C  C47  1  0.70020000  0.27840000  0.25090000  1.0 -0.113370486
C  C48  1  0.72290000  0.39070000  0.20930000  1.0 -0.0583396909
C  C49  1  0.82400000  0.47100000  0.16840000  1.0 0.0340385026
C  C50  1  0.90220000  0.44020000  0.17540000  1.0 -0.1755218237
C  C51  1  0.63160000  0.41500000  0.20840000  1.0 0.6004034773
C  C52  1  0.92850000  0.71590000  0.15510000  1.0 0.0408445306
C  C53  1  0.92080000  0.74900000  0.02210000  1.0 -0.0583396909
C  C54  1  0.86660000  0.62060000  0.06060000  1.0 -0.113370486
C  C55  1  0.86790000  0.60210000  0.12580000  1.0 0.0408445306
C  C56  1  0.90700000  0.77400000  0.94850000  1.0 0.6178645238
C  C57  1  0.18100000  0.18100000  0.75000000  1.0 0.5546722904
C  C58  1  0.81900000  0.81900000  0.25000000  1.0 0.5550309912
N  N1  1  0.15860000  0.01500000  0.62080000  1.0 -0.3568181499
N  N2  1  0.01500000  0.15860000  0.87920000  1.0 -0.3568181499
N  N3  1  0.84140000  0.98500000  0.37920000  1.0 -0.3568181499
N  N4  1  0.98500000  0.84140000  0.12080000  1.0 -0.3568181499
O  O1  1  0.53200000  0.39560000  0.65640000  1.0 -0.5635990008
O  O2  1  0.11330000  0.15010000  0.79130000  1.0 -0.6496061191
O  O3  1  0.62400000  0.41320000  0.75970000  1.0 -0.7106478617
O  O4  1  0.62040000  0.93280000  0.69130000  1.0 -0.6804600859
O  O5  1  0.32830000  0.16450000  0.42150000  1.0 -0.6867182359
O  O6  1  0.10350000  0.02730000  0.42090000  1.0 -0.6804600859
O  O7  1  0.79780000  0.05400000  0.76800000  1.0 -0.6867182359
O  O8  1  0.84420000  0.94600000  0.70480000  1.0 -1.1141903703
O  O9  1  0.68480000  0.73160000  0.79560000  1.0 -1.1933041915
O  O10  1  0.39560000  0.53200000  0.84360000  1.0 -0.566030016
O  O11  1  0.15010000  0.11330000  0.70870000  1.0 -0.6496061191
O  O12  1  0.41320000  0.62400000  0.74030000  1.0 -0.7106478617
O  O13  1  0.93280000  0.62040000  0.80870000  1.0 -0.6804600859
O  O14  1  0.16450000  0.32830000  0.07850000  1.0 -0.6867182359
O  O15  1  0.02730000  0.10350000  0.07910000  1.0 -0.6804600859
O  O16  1  0.05400000  0.79780000  0.73200000  1.0 -0.6867182359
O  O17  1  0.94600000  0.84420000  0.79520000  1.0 -1.1141903703
O  O18  1  0.73160000  0.68480000  0.70440000  1.0 -1.1933041915
O  O19  1  0.46800000  0.60440000  0.34360000  1.0 -0.566030016
O  O20  1  0.88670000  0.84990000  0.20870000  1.0 -0.6496061191
O  O21  1  0.37600000  0.58680000  0.24030000  1.0 -0.7106478617
O  O22  1  0.37960000  0.06720000  0.30870000  1.0 -0.6804600859
O  O23  1  0.67170000  0.83550000  0.57850000  1.0 -0.6867182359
O  O24  1  0.89650000  0.97270000  0.57910000  1.0 -0.6804600859
O  O25  1  0.20220000  0.94600000  0.23200000  1.0 -0.6804600859
O  O26  1  0.15580000  0.05400000  0.29520000  1.0 -1.1141903703
O  O27  1  0.31520000  0.26840000  0.20440000  1.0 -1.1933041915
O  O28  1  0.60440000  0.46800000  0.15640000  1.0 -0.566030016
O  O29  1  0.84990000  0.88670000  0.29130000  1.0 -0.6496061191
O  O30  1  0.58680000  0.37600000  0.25970000  1.0 -0.7106478617
O  O31  1  0.06720000  0.37960000  0.19130000  1.0 -0.6804600859
O  O32  1  0.83550000  0.67170000  0.92150000  1.0 -0.6867182359
O  O33  1  0.97270000  0.89650000  0.92090000  1.0 -0.6804600859
O  O34  1  0.94600000  0.20220000  0.26800000  1.0 -0.6867182359
O  O35  1  0.05400000  0.15580000  0.20480000  1.0 -1.1180567249
O  O36  1  0.26840000  0.31520000  0.29560000  1.0 -1.1933041915
