# DDEC6 charges by PACMAN v1.1 (https://github.com/mtap-research/PACMAN-charge/)
data_VIMZUQ01_ASR_pacman
_symmetry_space_group_name_H-M   'P 1'
_cell_length_a   15.02260000
_cell_length_b   15.02260000
_cell_length_c   24.81700000
_cell_angle_alpha   90.00000000
_cell_angle_beta   90.00000000
_cell_angle_gamma   116.87700000
_symmetry_Int_Tables_number   1
_chemical_formula_structural   Zr3H24C48(NO3)4
_chemical_formula_sum   'Zr6 H48 C96 N8 O24'
_cell_volume   4995.67474809
_cell_formula_units_Z   2
loop_
 _symmetry_equiv_pos_site_id
 _symmetry_equiv_pos_as_xyz
  1  'x, y, z'
loop_
 _atom_site_type_symbol
 _atom_site_label
 _atom_site_symmetry_multiplicity
 _atom_site_fract_x
 _atom_site_fract_y
 _atom_site_fract_z
 _atom_site_occupancy
 _atom_site_charge
Zr  Zr1  1  0.00000000  0.00000000  0.40185000  1.0 2.3247350254
Zr  Zr2  1  0.00000000  0.00000000  0.59815000  1.0 2.3247350254
Zr  Zr3  1  0.04323000  0.18137000  0.50000000  1.0 2.4633623161
Zr  Zr4  1  0.95677000  0.81863000  0.50000000  1.0 2.4633623161
Zr  Zr5  1  0.81863000  0.95677000  0.50000000  1.0 2.46821175
Zr  Zr6  1  0.18137000  0.04323000  0.50000000  1.0 2.46821175
H  H1  1  0.05066000  0.73206000  0.20664000  1.0 0.1317605772
H  H2  1  0.94934000  0.26794000  0.20664000  1.0 0.1317605772
H  H3  1  0.26794000  0.94934000  0.79336000  1.0 0.1317605772
H  H4  1  0.73206000  0.05066000  0.79336000  1.0 0.1317605772
H  H5  1  0.94934000  0.26794000  0.79336000  1.0 0.1317605772
H  H6  1  0.05066000  0.73206000  0.79336000  1.0 0.1317605772
H  H7  1  0.73206000  0.05066000  0.20664000  1.0 0.1317605772
H  H8  1  0.26794000  0.94934000  0.20664000  1.0 0.1317605772
H  H9  1  0.88137000  0.58529000  0.36177000  1.0 0.104010614
H  H10  1  0.11863000  0.41471000  0.36177000  1.0 0.104010614
H  H11  1  0.41471000  0.11863000  0.63823000  1.0 0.1109310414
H  H12  1  0.58529000  0.88137000  0.63823000  1.0 0.104010614
H  H13  1  0.11863000  0.41471000  0.63823000  1.0 0.104010614
H  H14  1  0.88137000  0.58529000  0.63823000  1.0 0.104010614
H  H15  1  0.58529000  0.88137000  0.36177000  1.0 0.104010614
H  H16  1  0.41471000  0.11863000  0.36177000  1.0 0.1109310414
H  H17  1  0.91089000  0.48643000  0.29741000  1.0 0.1109310414
H  H18  1  0.08911000  0.51357000  0.29741000  1.0 0.1109310414
H  H19  1  0.51357000  0.08911000  0.70259000  1.0 0.1109310414
H  H20  1  0.48643000  0.91089000  0.70259000  1.0 0.1109310414
H  H21  1  0.08911000  0.51357000  0.70259000  1.0 0.1109310414
H  H22  1  0.91089000  0.48643000  0.70259000  1.0 0.1109310414
H  H23  1  0.48643000  0.91089000  0.29741000  1.0 0.1109310414
H  H24  1  0.51357000  0.08911000  0.29741000  1.0 0.1109310414
H  H25  1  0.02062000  0.82610000  0.26694000  1.0 0.1109310414
H  H26  1  0.97938000  0.17390000  0.26694000  1.0 0.1109310414
H  H27  1  0.17390000  0.97938000  0.73306000  1.0 0.1109310414
H  H28  1  0.82610000  0.02062000  0.73306000  1.0 0.1109310414
H  H29  1  0.97938000  0.17390000  0.73306000  1.0 0.1109310414
H  H30  1  0.02062000  0.82610000  0.73306000  1.0 0.1109310414
H  H31  1  0.82610000  0.02062000  0.26694000  1.0 0.1109310414
H  H32  1  0.17390000  0.97938000  0.26694000  1.0 0.1109310414
H  H33  1  0.31850000  0.53960000  0.04883000  1.0 0.1109310414
H  H34  1  0.68150000  0.46040000  0.04883000  1.0 0.1109310414
H  H35  1  0.46040000  0.68150000  0.95117000  1.0 0.1109310414
H  H36  1  0.53960000  0.31850000  0.95117000  1.0 0.1109310414
H  H37  1  0.68150000  0.46040000  0.95117000  1.0 0.1109310414
H  H38  1  0.31850000  0.53960000  0.95117000  1.0 0.1109310414
H  H39  1  0.53960000  0.31850000  0.04883000  1.0 0.104010614
H  H40  1  0.46040000  0.68150000  0.04883000  1.0 0.1109310414
H  H41  1  0.17677000  0.53391000  0.09491000  1.0 0.1109310414
H  H42  1  0.82323000  0.46609000  0.09491000  1.0 0.1109310414
H  H43  1  0.46609000  0.82323000  0.90509000  1.0 0.1109310414
H  H44  1  0.53391000  0.17677000  0.90509000  1.0 0.1109310414
H  H45  1  0.82323000  0.46609000  0.90509000  1.0 0.1109310414
H  H46  1  0.17677000  0.53391000  0.90509000  1.0 0.1109310414
H  H47  1  0.53391000  0.17677000  0.09491000  1.0 0.1109310414
H  H48  1  0.46609000  0.82323000  0.09491000  1.0 0.1109310414
C  C1  1  0.96070000  0.71630000  0.32770000  1.0 -0.1085090316
C  C2  1  0.03930000  0.28370000  0.32770000  1.0 -0.1085090316
C  C3  1  0.28370000  0.03930000  0.67230000  1.0 -0.1085090316
C  C4  1  0.71630000  0.96070000  0.67230000  1.0 -0.1085090316
C  C5  1  0.03930000  0.28370000  0.67230000  1.0 -0.1085090316
C  C6  1  0.96070000  0.71630000  0.67230000  1.0 -0.1085090316
C  C7  1  0.71630000  0.96070000  0.32770000  1.0 -0.1085090316
C  C8  1  0.28370000  0.03930000  0.32770000  1.0 -0.1085090316
C  C9  1  0.95120000  0.77800000  0.36810000  1.0 0.6111635663
C  C10  1  0.04880000  0.22200000  0.36810000  1.0 0.6111635663
C  C11  1  0.22200000  0.04880000  0.63190000  1.0 0.6111635663
C  C12  1  0.77800000  0.95120000  0.63190000  1.0 0.6111635663
C  C13  1  0.04880000  0.22200000  0.63190000  1.0 0.6111635663
C  C14  1  0.95120000  0.77800000  0.63190000  1.0 0.6111635663
C  C15  1  0.77800000  0.95120000  0.36810000  1.0 0.6111635663
C  C16  1  0.22200000  0.04880000  0.36810000  1.0 0.6111635663
C  C17  1  0.01440000  0.70200000  0.23750000  1.0 -0.1363907061
C  C18  1  0.98560000  0.29800000  0.23750000  1.0 -0.1363907061
C  C19  1  0.29800000  0.98560000  0.76250000  1.0 -0.1363907061
C  C20  1  0.70200000  0.01440000  0.76250000  1.0 -0.1363907061
C  C21  1  0.98560000  0.29800000  0.76250000  1.0 -0.1363907061
C  C22  1  0.01440000  0.70200000  0.76250000  1.0 -0.1363907061
C  C23  1  0.70200000  0.01440000  0.23750000  1.0 -0.1363907061
C  C24  1  0.29800000  0.98560000  0.23750000  1.0 -0.1363907061
C  C25  1  0.91940000  0.61580000  0.33150000  1.0 -0.0631854946
C  C26  1  0.08060000  0.38420000  0.33150000  1.0 -0.0631854946
C  C27  1  0.38420000  0.08060000  0.66850000  1.0 -0.0709744952
C  C28  1  0.61580000  0.91940000  0.66850000  1.0 -0.0631854946
C  C29  1  0.08060000  0.38420000  0.66850000  1.0 -0.0631854946
C  C30  1  0.91940000  0.61580000  0.66850000  1.0 -0.0631854946
C  C31  1  0.61580000  0.91940000  0.33150000  1.0 -0.0631854946
C  C32  1  0.38420000  0.08060000  0.33150000  1.0 -0.0709744952
C  C33  1  0.97470000  0.59770000  0.24270000  1.0 0.0862165294
C  C34  1  0.02530000  0.40230000  0.24270000  1.0 0.0862165294
C  C35  1  0.40230000  0.02530000  0.75730000  1.0 0.0862165294
C  C36  1  0.59770000  0.97470000  0.75730000  1.0 0.0862165294
C  C37  1  0.02530000  0.40230000  0.75730000  1.0 0.0862165294
C  C38  1  0.97470000  0.59770000  0.75730000  1.0 0.0862165294
C  C39  1  0.59770000  0.97470000  0.24270000  1.0 0.0862165294
C  C40  1  0.40230000  0.02530000  0.24270000  1.0 0.0862165294
C  C41  1  0.93140000  0.55400000  0.29120000  1.0 -0.1669694274
C  C42  1  0.06860000  0.44600000  0.29120000  1.0 -0.1669694274
C  C43  1  0.44600000  0.06860000  0.70880000  1.0 -0.1669694274
C  C44  1  0.55400000  0.93140000  0.70880000  1.0 -0.1669694274
C  C45  1  0.06860000  0.44600000  0.70880000  1.0 -0.1669694274
C  C46  1  0.93140000  0.55400000  0.70880000  1.0 -0.1669694274
C  C47  1  0.55400000  0.93140000  0.29120000  1.0 -0.1669694274
C  C48  1  0.44600000  0.06860000  0.29120000  1.0 -0.1669694274
C  C49  1  0.00270000  0.75950000  0.27440000  1.0 -0.0709744952
C  C50  1  0.99730000  0.24050000  0.27440000  1.0 -0.0709744952
C  C51  1  0.24050000  0.99730000  0.72560000  1.0 -0.0709744952
C  C52  1  0.75950000  0.00270000  0.72560000  1.0 -0.0709744952
C  C53  1  0.99730000  0.24050000  0.72560000  1.0 -0.0709744952
C  C54  1  0.00270000  0.75950000  0.72560000  1.0 -0.0709744952
C  C55  1  0.75950000  0.00270000  0.27440000  1.0 -0.0709744952
C  C56  1  0.24050000  0.99730000  0.27440000  1.0 -0.0709744952
C  C57  1  0.98970000  0.53990000  0.19830000  1.0 0.0639729895
C  C58  1  0.01030000  0.46010000  0.19830000  1.0 0.0654822835
C  C59  1  0.46010000  0.01030000  0.80170000  1.0 0.0654822835
C  C60  1  0.53990000  0.98970000  0.80170000  1.0 0.0654822835
C  C61  1  0.01030000  0.46010000  0.80170000  1.0 0.0654822835
C  C62  1  0.98970000  0.53990000  0.80170000  1.0 0.0639729895
C  C63  1  0.53990000  0.98970000  0.19830000  1.0 0.0654822835
C  C64  1  0.46010000  0.01030000  0.19830000  1.0 0.0654822835
C  C65  1  0.00000000  0.50000000  0.05660000  1.0 -0.0390508161
C  C66  1  0.50000000  0.00000000  0.94340000  1.0 -0.0390508161
C  C67  1  0.00000000  0.50000000  0.94340000  1.0 -0.0390508161
C  C68  1  0.50000000  0.00000000  0.05660000  1.0 -0.0390508161
C  C69  1  0.00000000  0.50000000  0.11500000  1.0 0.285251657
C  C70  1  0.50000000  0.00000000  0.88500000  1.0 0.285251657
C  C71  1  0.00000000  0.50000000  0.88500000  1.0 0.2849540212
C  C72  1  0.50000000  0.00000000  0.11500000  1.0 0.285251657
C  C73  1  0.08590000  0.50810000  0.02840000  1.0 0.0471873521
C  C74  1  0.91410000  0.49190000  0.02840000  1.0 0.0471873521
C  C75  1  0.49190000  0.91410000  0.97160000  1.0 0.0471873521
C  C76  1  0.50810000  0.08590000  0.97160000  1.0 0.0471873521
C  C77  1  0.91410000  0.49190000  0.97160000  1.0 0.0471873521
C  C78  1  0.08590000  0.50810000  0.97160000  1.0 0.0471873521
C  C79  1  0.50810000  0.08590000  0.02840000  1.0 0.0471873521
C  C80  1  0.49190000  0.91410000  0.02840000  1.0 0.0471873521
C  C81  1  0.26320000  0.53460000  0.02970000  1.0 -0.1010292373
C  C82  1  0.73680000  0.46540000  0.02970000  1.0 -0.1010292373
C  C83  1  0.46540000  0.73680000  0.97030000  1.0 -0.1010292373
C  C84  1  0.53460000  0.26320000  0.97030000  1.0 -0.1010292373
C  C85  1  0.73680000  0.46540000  0.97030000  1.0 -0.1010292373
C  C86  1  0.26320000  0.53460000  0.97030000  1.0 -0.1010292373
C  C87  1  0.53460000  0.26320000  0.02970000  1.0 -0.1010292373
C  C88  1  0.46540000  0.73680000  0.02970000  1.0 -0.1010292373
C  C89  1  0.17540000  0.52680000  0.05760000  1.0 -0.1363907061
C  C90  1  0.82460000  0.47320000  0.05760000  1.0 -0.1363907061
C  C91  1  0.47320000  0.82460000  0.94240000  1.0 -0.1363907061
C  C92  1  0.52680000  0.17540000  0.94240000  1.0 -0.1363907061
C  C93  1  0.82460000  0.47320000  0.94240000  1.0 -0.1363907061
C  C94  1  0.17540000  0.52680000  0.94240000  1.0 -0.1363907061
C  C95  1  0.52680000  0.17540000  0.05760000  1.0 -0.1363907061
C  C96  1  0.47320000  0.82460000  0.05760000  1.0 -0.1363907061
N  N1  1  0.98600000  0.56660000  0.14630000  1.0 -0.3810962341
N  N2  1  0.01400000  0.43340000  0.14630000  1.0 -0.3868589528
N  N3  1  0.43340000  0.01400000  0.85370000  1.0 -0.3810962341
N  N4  1  0.56660000  0.98600000  0.85370000  1.0 -0.3868589528
N  N5  1  0.01400000  0.43340000  0.85370000  1.0 -0.3868589528
N  N6  1  0.98600000  0.56660000  0.85370000  1.0 -0.3810962341
N  N7  1  0.56660000  0.98600000  0.14630000  1.0 -0.3868589528
N  N8  1  0.43340000  0.01400000  0.14630000  1.0 -0.3810962341
O  O1  1  0.96870000  0.86290000  0.35710000  1.0 -0.5203521899
O  O2  1  0.03130000  0.13710000  0.35710000  1.0 -0.5203521899
O  O3  1  0.13710000  0.03130000  0.64290000  1.0 -0.5203521899
O  O4  1  0.86290000  0.96870000  0.64290000  1.0 -0.5203521899
O  O5  1  0.03130000  0.13710000  0.64290000  1.0 -0.5203521899
O  O6  1  0.96870000  0.86290000  0.64290000  1.0 -0.5203521899
O  O7  1  0.86290000  0.96870000  0.35710000  1.0 -0.5203521899
O  O8  1  0.13710000  0.03130000  0.35710000  1.0 -0.5203521899
O  O9  1  0.93500000  0.74920000  0.41720000  1.0 -0.576232498
O  O10  1  0.06500000  0.25080000  0.41720000  1.0 -0.5731570921
O  O11  1  0.25080000  0.06500000  0.58280000  1.0 -0.576232498
O  O12  1  0.74920000  0.93500000  0.58280000  1.0 -0.5731570921
O  O13  1  0.06500000  0.25080000  0.58280000  1.0 -0.5731570921
O  O14  1  0.93500000  0.74920000  0.58280000  1.0 -0.576232498
O  O15  1  0.74920000  0.93500000  0.41720000  1.0 -0.5731570921
O  O16  1  0.25080000  0.06500000  0.41720000  1.0 -0.576232498
O  O17  1  0.11340000  0.11340000  0.45250000  1.0 -1.1608158948
O  O18  1  0.88660000  0.88660000  0.45250000  1.0 -1.1608158948
O  O19  1  0.88660000  0.88660000  0.54750000  1.0 -1.1608158948
O  O20  1  0.11340000  0.11340000  0.54750000  1.0 -1.1608158948
O  O21  1  0.93150000  0.06850000  0.45180000  1.0 -1.1685618363
O  O22  1  0.06850000  0.93150000  0.45180000  1.0 -1.1608158948
O  O23  1  0.93150000  0.06850000  0.54820000  1.0 -1.1685618363
O  O24  1  0.06850000  0.93150000  0.54820000  1.0 -1.1608158948
