# DDEC6 charges by PACMAN v1.1 (https://github.com/mtap-research/PACMAN-charge/)
data_VIMZUQ06_ASR_pacman
_symmetry_space_group_name_H-M   'P 1'
_cell_length_a   14.81120000
_cell_length_b   14.81120000
_cell_length_c   24.90000000
_cell_angle_alpha   90.00000000
_cell_angle_beta   90.00000000
_cell_angle_gamma   135.86100000
_symmetry_Int_Tables_number   1
_chemical_formula_structural   Zr3H16C48(NO3)4
_chemical_formula_sum   'Zr6 H32 C96 N8 O24'
_cell_volume   3803.99121742
_cell_formula_units_Z   2
loop_
 _symmetry_equiv_pos_site_id
 _symmetry_equiv_pos_as_xyz
  1  'x, y, z'
loop_
 _atom_site_type_symbol
 _atom_site_label
 _atom_site_symmetry_multiplicity
 _atom_site_fract_x
 _atom_site_fract_y
 _atom_site_fract_z
 _atom_site_occupancy
 _atom_site_charge
Zr  Zr1  1  0.50000000  0.50000000  0.59960000  1.0 2.3347249715
Zr  Zr2  1  0.50000000  0.50000000  0.40040000  1.0 2.3347249715
Zr  Zr3  1  0.60020000  0.73360000  0.50000000  1.0 2.3872657507
Zr  Zr4  1  0.39980000  0.26640000  0.50000000  1.0 2.3872657507
Zr  Zr5  1  0.73360000  0.60020000  0.50000000  1.0 2.3872657507
Zr  Zr6  1  0.26640000  0.39980000  0.50000000  1.0 2.3872657507
H  H1  1  0.50100000  0.78460000  0.20380000  1.0 0.1218333369
H  H2  1  0.49900000  0.21540000  0.20380000  1.0 0.1218333369
H  H3  1  0.78460000  0.50100000  0.79620000  1.0 0.1218333369
H  H4  1  0.21540000  0.49900000  0.79620000  1.0 0.1218333369
H  H5  1  0.49900000  0.21540000  0.79620000  1.0 0.1218333369
H  H6  1  0.50100000  0.78460000  0.79620000  1.0 0.1218333369
H  H7  1  0.21540000  0.49900000  0.20380000  1.0 0.1218333369
H  H8  1  0.78460000  0.50100000  0.20380000  1.0 0.1218333369
H  H9  1  0.61630000  0.06850000  0.30090000  1.0 0.1118071242
H  H10  1  0.38370000  0.93150000  0.30090000  1.0 0.1118071242
H  H11  1  0.06850000  0.61630000  0.69910000  1.0 0.1118071242
H  H12  1  0.93150000  0.38370000  0.69910000  1.0 0.1118071242
H  H13  1  0.38370000  0.93150000  0.69910000  1.0 0.1118071242
H  H14  1  0.61630000  0.06850000  0.69910000  1.0 0.1118071242
H  H15  1  0.93150000  0.38370000  0.30090000  1.0 0.1118071242
H  H16  1  0.06850000  0.61630000  0.30090000  1.0 0.1118071242
H  H17  1  0.65060000  0.99000000  0.36960000  1.0 0.1218333369
H  H18  1  0.34940000  0.01000000  0.36960000  1.0 0.1218333369
H  H19  1  0.99000000  0.65060000  0.63040000  1.0 0.1218333369
H  H20  1  0.01000000  0.34940000  0.63040000  1.0 0.1218333369
H  H21  1  0.34940000  0.01000000  0.63040000  1.0 0.1218333369
H  H22  1  0.65060000  0.99000000  0.63040000  1.0 0.1218333369
H  H23  1  0.01000000  0.34940000  0.36960000  1.0 0.1218333369
H  H24  1  0.99000000  0.65060000  0.36960000  1.0 0.1218333369
H  H25  1  0.53520000  0.70600000  0.27250000  1.0 0.1218333369
H  H26  1  0.46480000  0.29400000  0.27250000  1.0 0.1218333369
H  H27  1  0.70600000  0.53520000  0.72750000  1.0 0.1218333369
H  H28  1  0.29400000  0.46480000  0.72750000  1.0 0.1218333369
H  H29  1  0.46480000  0.29400000  0.72750000  1.0 0.1218333369
H  H30  1  0.53520000  0.70600000  0.72750000  1.0 0.1218333369
H  H31  1  0.29400000  0.46480000  0.27250000  1.0 0.1218333369
H  H32  1  0.70600000  0.53520000  0.27250000  1.0 0.1218333369
C  C1  1  0.50000000  0.00000000  0.06200000  1.0 -0.0282378331
C  C2  1  0.00000000  0.50000000  0.93800000  1.0 -0.0282378331
C  C3  1  0.50000000  0.00000000  0.93800000  1.0 -0.0282378331
C  C4  1  0.00000000  0.50000000  0.06200000  1.0 -0.0282378331
C  C5  1  0.50000000  0.00000000  0.11900000  1.0 0.3123272745
C  C6  1  0.00000000  0.50000000  0.88100000  1.0 0.3123272745
C  C7  1  0.50000000  0.00000000  0.88100000  1.0 0.3123272745
C  C8  1  0.00000000  0.50000000  0.11900000  1.0 0.3123272745
C  C9  1  0.61420000  0.78380000  0.36520000  1.0 0.5883047668
C  C10  1  0.38580000  0.21620000  0.36520000  1.0 0.5883047668
C  C11  1  0.78380000  0.61420000  0.63480000  1.0 0.5883047668
C  C12  1  0.21620000  0.38580000  0.63480000  1.0 0.5883047668
C  C13  1  0.38580000  0.21620000  0.63480000  1.0 0.5883047668
C  C14  1  0.61420000  0.78380000  0.63480000  1.0 0.5883047668
C  C15  1  0.21620000  0.38580000  0.36520000  1.0 0.5883047668
C  C16  1  0.78380000  0.61420000  0.36520000  1.0 0.5883047668
C  C17  1  0.53060000  0.82540000  0.23700000  1.0 -0.1319711866
C  C18  1  0.46940000  0.17460000  0.23700000  1.0 -0.1319711866
C  C19  1  0.82540000  0.53060000  0.76300000  1.0 -0.1319711866
C  C20  1  0.17460000  0.46940000  0.76300000  1.0 -0.1319711866
C  C21  1  0.46940000  0.17460000  0.76300000  1.0 -0.1319711866
C  C22  1  0.53060000  0.82540000  0.76300000  1.0 -0.1319711866
C  C23  1  0.17460000  0.46940000  0.23700000  1.0 -0.1319711866
C  C24  1  0.82540000  0.53060000  0.23700000  1.0 -0.1319711866
C  C25  1  0.55540000  0.93460000  0.24550000  1.0 0.0428075922
C  C26  1  0.44460000  0.06540000  0.24550000  1.0 0.0428075922
C  C27  1  0.93460000  0.55540000  0.75450000  1.0 0.0428075922
C  C28  1  0.06540000  0.44460000  0.75450000  1.0 0.0428075922
C  C29  1  0.44460000  0.06540000  0.75450000  1.0 0.0428075922
C  C30  1  0.55540000  0.93460000  0.75450000  1.0 0.0428075922
C  C31  1  0.06540000  0.44460000  0.24550000  1.0 0.0428075922
C  C32  1  0.93460000  0.55540000  0.24550000  1.0 0.0428075922
C  C33  1  0.60010000  0.99590000  0.29520000  1.0 -0.1539317151
C  C34  1  0.39990000  0.00410000  0.29520000  1.0 -0.1539317151
C  C35  1  0.99590000  0.60010000  0.70480000  1.0 -0.1539317151
C  C36  1  0.00410000  0.39990000  0.70480000  1.0 -0.1539317151
C  C37  1  0.39990000  0.00410000  0.70480000  1.0 -0.1539317151
C  C38  1  0.60010000  0.99590000  0.70480000  1.0 -0.1539317151
C  C39  1  0.00410000  0.39990000  0.29520000  1.0 -0.1539317151
C  C40  1  0.99590000  0.60010000  0.29520000  1.0 -0.1539317151
C  C41  1  0.62090000  0.94910000  0.33630000  1.0 -0.0801079614
C  C42  1  0.37910000  0.05090000  0.33630000  1.0 -0.0801079614
C  C43  1  0.94910000  0.62090000  0.66370000  1.0 -0.0801079614
C  C44  1  0.05090000  0.37910000  0.66370000  1.0 -0.0801079614
C  C45  1  0.37910000  0.05090000  0.66370000  1.0 -0.0801079614
C  C46  1  0.62090000  0.94910000  0.66370000  1.0 -0.0801079614
C  C47  1  0.05090000  0.37910000  0.33630000  1.0 -0.0801079614
C  C48  1  0.94910000  0.62090000  0.33630000  1.0 -0.0801079614
C  C49  1  0.59600000  0.84000000  0.32780000  1.0 -0.0801079614
C  C50  1  0.40400000  0.16000000  0.32780000  1.0 -0.0801079614
C  C51  1  0.84000000  0.59600000  0.67220000  1.0 -0.0801079614
C  C52  1  0.16000000  0.40400000  0.67220000  1.0 -0.0801079614
C  C53  1  0.40400000  0.16000000  0.67220000  1.0 -0.0801079614
C  C54  1  0.59600000  0.84000000  0.67220000  1.0 -0.0801079614
C  C55  1  0.16000000  0.40400000  0.32780000  1.0 -0.0801079614
C  C56  1  0.84000000  0.59600000  0.32780000  1.0 -0.0801079614
C  C57  1  0.55140000  0.77860000  0.27820000  1.0 -0.0801079614
C  C58  1  0.44860000  0.22140000  0.27820000  1.0 -0.0801079614
C  C59  1  0.77860000  0.55140000  0.72180000  1.0 -0.0801079614
C  C60  1  0.22140000  0.44860000  0.72180000  1.0 -0.0801079614
C  C61  1  0.44860000  0.22140000  0.72180000  1.0 -0.0801079614
C  C62  1  0.55140000  0.77860000  0.72180000  1.0 -0.0801079614
C  C63  1  0.22140000  0.44860000  0.27820000  1.0 -0.0801079614
C  C64  1  0.77860000  0.55140000  0.27820000  1.0 -0.0801079614
C  C65  1  0.53530000  0.98070000  0.20430000  1.0 0.1026955894
C  C66  1  0.46470000  0.01930000  0.20430000  1.0 0.1026955894
C  C67  1  0.98070000  0.53530000  0.79570000  1.0 0.1026955894
C  C68  1  0.01930000  0.46470000  0.79570000  1.0 0.1026955894
C  C69  1  0.46470000  0.01930000  0.79570000  1.0 0.1026955894
C  C70  1  0.53530000  0.98070000  0.79570000  1.0 0.1026955894
C  C71  1  0.01930000  0.46470000  0.20430000  1.0 0.1026955894
C  C72  1  0.98070000  0.53530000  0.20430000  1.0 0.1026955894
C  C73  1  0.60300000  0.11100000  0.03700000  1.0 -0.0282378331
C  C74  1  0.39700000  0.88900000  0.03700000  1.0 -0.0282378331
C  C75  1  0.11100000  0.60300000  0.96300000  1.0 -0.0282378331
C  C76  1  0.88900000  0.39700000  0.96300000  1.0 -0.0282378331
C  C77  1  0.39700000  0.88900000  0.96300000  1.0 -0.0282378331
C  C78  1  0.60300000  0.11100000  0.96300000  1.0 -0.0282378331
C  C79  1  0.88900000  0.39700000  0.03700000  1.0 -0.0282378331
C  C80  1  0.11100000  0.60300000  0.03700000  1.0 -0.0282378331
C  C81  1  0.83400000  0.16600000  0.03220000  1.0 0.057844032
C  C82  1  0.16600000  0.83400000  0.03220000  1.0 0.057844032
C  C83  1  0.16600000  0.83400000  0.96780000  1.0 0.057844032
C  C84  1  0.83400000  0.16600000  0.96780000  1.0 0.057844032
C  C85  1  0.65700000  0.34300000  0.03000000  1.0 0.0428075922
C  C86  1  0.34300000  0.65700000  0.03000000  1.0 0.0428075922
C  C87  1  0.34300000  0.65700000  0.97000000  1.0 0.0428075922
C  C88  1  0.65700000  0.34300000  0.97000000  1.0 0.0428075922
C  C89  1  0.77700000  0.22300000  0.05010000  1.0 -0.0021451218
C  C90  1  0.22300000  0.77700000  0.05010000  1.0 -0.0021451218
C  C91  1  0.22300000  0.77700000  0.94990000  1.0 -0.0021451218
C  C92  1  0.77700000  0.22300000  0.94990000  1.0 -0.0021451218
C  C93  1  0.71200000  0.28800000  0.05030000  1.0 -0.0021451218
C  C94  1  0.28800000  0.71200000  0.05030000  1.0 -0.0021451218
C  C95  1  0.28800000  0.71200000  0.94970000  1.0 -0.0021451218
C  C96  1  0.71200000  0.28800000  0.94970000  1.0 -0.0021451218
N  N1  1  0.54850000  0.95750000  0.14780000  1.0 -0.3733501011
N  N2  1  0.45150000  0.04250000  0.14780000  1.0 -0.3733501011
N  N3  1  0.95750000  0.54850000  0.85220000  1.0 -0.3733501011
N  N4  1  0.04250000  0.45150000  0.85220000  1.0 -0.3733501011
N  N5  1  0.45150000  0.04250000  0.85220000  1.0 -0.3733501011
N  N6  1  0.54850000  0.95750000  0.85220000  1.0 -0.3733501011
N  N7  1  0.04250000  0.45150000  0.14780000  1.0 -0.3733501011
N  N8  1  0.95750000  0.54850000  0.14780000  1.0 -0.3733501011
O  O1  1  0.44240000  0.55760000  0.47200000  1.0 -0.6536029132
O  O2  1  0.55760000  0.44240000  0.47200000  1.0 -0.6608438523
O  O3  1  0.55760000  0.44240000  0.52800000  1.0 -0.6608438523
O  O4  1  0.44240000  0.55760000  0.52800000  1.0 -0.6536029132
O  O5  1  0.56710000  0.66290000  0.35500000  1.0 -0.6608438523
O  O6  1  0.43290000  0.33710000  0.35500000  1.0 -0.6608438523
O  O7  1  0.66290000  0.56710000  0.64500000  1.0 -0.6608438523
O  O8  1  0.33710000  0.43290000  0.64500000  1.0 -0.6608438523
O  O9  1  0.43290000  0.33710000  0.64500000  1.0 -0.6608438523
O  O10  1  0.56710000  0.66290000  0.64500000  1.0 -0.6608438523
O  O11  1  0.33710000  0.43290000  0.35500000  1.0 -0.6608438523
O  O12  1  0.66290000  0.56710000  0.35500000  1.0 -0.6608438523
O  O13  1  0.63680000  0.81920000  0.41670000  1.0 -0.6536029132
O  O14  1  0.36320000  0.18080000  0.41670000  1.0 -0.6536029132
O  O15  1  0.81920000  0.63680000  0.58330000  1.0 -0.6536029132
O  O16  1  0.18080000  0.36320000  0.58330000  1.0 -0.6536029132
O  O17  1  0.36320000  0.18080000  0.58330000  1.0 -0.6536029132
O  O18  1  0.63680000  0.81920000  0.58330000  1.0 -0.6536029132
O  O19  1  0.18080000  0.36320000  0.41670000  1.0 -0.6536029132
O  O20  1  0.81920000  0.63680000  0.41670000  1.0 -0.6536029132
O  O21  1  0.65700000  0.65700000  0.55350000  1.0 -1.218926719
O  O22  1  0.34300000  0.34300000  0.55350000  1.0 -1.2121990235
O  O23  1  0.65700000  0.65700000  0.44650000  1.0 -1.218926719
O  O24  1  0.34300000  0.34300000  0.44650000  1.0 -1.2121990235
