# DDEC6 charges by PACMAN v1.1 (https://github.com/mtap-research/PACMAN-charge/)
data_VIMZUQ03_ASR_pacman
_symmetry_space_group_name_H-M   'P 1'
_cell_length_a   15.07730000
_cell_length_b   15.07730000
_cell_length_c   24.66900000
_cell_angle_alpha   90.00000000
_cell_angle_beta   90.00000000
_cell_angle_gamma   124.17100000
_symmetry_Int_Tables_number   1
_chemical_formula_structural   Zr3H24C48(NO4)4
_chemical_formula_sum   'Zr6 H48 C96 N8 O32'
_cell_volume   4639.76328320
_cell_formula_units_Z   2
loop_
 _symmetry_equiv_pos_site_id
 _symmetry_equiv_pos_as_xyz
  1  'x, y, z'
loop_
 _atom_site_type_symbol
 _atom_site_label
 _atom_site_symmetry_multiplicity
 _atom_site_fract_x
 _atom_site_fract_y
 _atom_site_fract_z
 _atom_site_occupancy
 _atom_site_charge
Zr  Zr1  1  0.00000000  0.00000000  0.40079000  1.0 2.3622448829
Zr  Zr2  1  0.00000000  0.00000000  0.59921000  1.0 2.3622448829
Zr  Zr3  1  0.05856000  0.19124000  0.50000000  1.0 2.4746122745
Zr  Zr4  1  0.94144000  0.80876000  0.50000000  1.0 2.4788298197
Zr  Zr5  1  0.80876000  0.94144000  0.50000000  1.0 2.4788298197
Zr  Zr6  1  0.19124000  0.05856000  0.50000000  1.0 2.4788298197
H  H1  1  0.88389000  0.56525000  0.36608000  1.0 0.1209039772
H  H2  1  0.11611000  0.43475000  0.36608000  1.0 0.1209039772
H  H3  1  0.43475000  0.11611000  0.63392000  1.0 0.1209039772
H  H4  1  0.56525000  0.88389000  0.63392000  1.0 0.1209039772
H  H5  1  0.11611000  0.43475000  0.63392000  1.0 0.1209039772
H  H6  1  0.88389000  0.56525000  0.63392000  1.0 0.1209039772
H  H7  1  0.56525000  0.88389000  0.36608000  1.0 0.1209039772
H  H8  1  0.43475000  0.11611000  0.36608000  1.0 0.1209039772
H  H9  1  0.91118000  0.47938000  0.30100000  1.0 0.1209039772
H  H10  1  0.08882000  0.52062000  0.30100000  1.0 0.1209039772
H  H11  1  0.52062000  0.08882000  0.69900000  1.0 0.1209039772
H  H12  1  0.47938000  0.91118000  0.69900000  1.0 0.1209039772
H  H13  1  0.08882000  0.52062000  0.69900000  1.0 0.1209039772
H  H14  1  0.91118000  0.47938000  0.69900000  1.0 0.1209039772
H  H15  1  0.47938000  0.91118000  0.30100000  1.0 0.1209039772
H  H16  1  0.52062000  0.08882000  0.30100000  1.0 0.1209039772
H  H17  1  0.00268000  0.81946000  0.26705000  1.0 0.1209039772
H  H18  1  0.99732000  0.18054000  0.26705000  1.0 0.1209039772
H  H19  1  0.18054000  0.99732000  0.73295000  1.0 0.1209039772
H  H20  1  0.81946000  0.00268000  0.73295000  1.0 0.1209039772
H  H21  1  0.99732000  0.18054000  0.73295000  1.0 0.1209039772
H  H22  1  0.00268000  0.81946000  0.73295000  1.0 0.1209039772
H  H23  1  0.81946000  0.00268000  0.26705000  1.0 0.1209039772
H  H24  1  0.18054000  0.99732000  0.26705000  1.0 0.1209039772
H  H25  1  0.03127000  0.73241000  0.20307000  1.0 0.1329984305
H  H26  1  0.96873000  0.26759000  0.20307000  1.0 0.1329984305
H  H27  1  0.26759000  0.96873000  0.79693000  1.0 0.1329984305
H  H28  1  0.73241000  0.03127000  0.79693000  1.0 0.1329984305
H  H29  1  0.96873000  0.26759000  0.79693000  1.0 0.1329984305
H  H30  1  0.03127000  0.73241000  0.79693000  1.0 0.1329984305
H  H31  1  0.73241000  0.03127000  0.20307000  1.0 0.1329984305
H  H32  1  0.26759000  0.96873000  0.20307000  1.0 0.1329984305
H  H33  1  0.32973000  0.56489000  0.04858000  1.0 0.0992846338
H  H34  1  0.67027000  0.43511000  0.04858000  1.0 0.0992846338
H  H35  1  0.43511000  0.67027000  0.95142000  1.0 0.0992846338
H  H36  1  0.56489000  0.32973000  0.95142000  1.0 0.0992846338
H  H37  1  0.67027000  0.43511000  0.95142000  1.0 0.0992846338
H  H38  1  0.32973000  0.56489000  0.95142000  1.0 0.0992846338
H  H39  1  0.56489000  0.32973000  0.04858000  1.0 0.0992846338
H  H40  1  0.43511000  0.67027000  0.04858000  1.0 0.0992846338
H  H41  1  0.18970000  0.56015000  0.09528000  1.0 0.1329984305
H  H42  1  0.81031000  0.43985000  0.09528000  1.0 0.1329984305
H  H43  1  0.43985000  0.81031000  0.90472000  1.0 0.1329984305
H  H44  1  0.56015000  0.18970000  0.90472000  1.0 0.1329984305
H  H45  1  0.81031000  0.43985000  0.90472000  1.0 0.1329984305
H  H46  1  0.18970000  0.56015000  0.90472000  1.0 0.1329984305
H  H47  1  0.56015000  0.18970000  0.09528000  1.0 0.1329984305
H  H48  1  0.43985000  0.81031000  0.09528000  1.0 0.1329984305
C  C1  1  0.94180000  0.76920000  0.36950000  1.0 0.6368171957
C  C2  1  0.05820000  0.23080000  0.36950000  1.0 0.6368171957
C  C3  1  0.23080000  0.05820000  0.63050000  1.0 0.6368171957
C  C4  1  0.76920000  0.94180000  0.63050000  1.0 0.6368171957
C  C5  1  0.05820000  0.23080000  0.63050000  1.0 0.6368171957
C  C6  1  0.94180000  0.76920000  0.63050000  1.0 0.6368171957
C  C7  1  0.76920000  0.94180000  0.36950000  1.0 0.6368171957
C  C8  1  0.23080000  0.05820000  0.36950000  1.0 0.6368171957
C  C9  1  0.00000000  0.50000000  0.06030000  1.0 0.1329984305
C  C10  1  0.50000000  0.00000000  0.93970000  1.0 0.1329984305
C  C11  1  0.00000000  0.50000000  0.93970000  1.0 0.1329984305
C  C12  1  0.50000000  0.00000000  0.06030000  1.0 0.1329984305
C  C13  1  0.96840000  0.59160000  0.24450000  1.0 0.0542573638
C  C14  1  0.03160000  0.40840000  0.24450000  1.0 0.0542573638
C  C15  1  0.40840000  0.03160000  0.75550000  1.0 0.0542573638
C  C16  1  0.59160000  0.96840000  0.75550000  1.0 0.0542573638
C  C17  1  0.03160000  0.40840000  0.75550000  1.0 0.0542573638
C  C18  1  0.96840000  0.59160000  0.75550000  1.0 0.0542573638
C  C19  1  0.59160000  0.96840000  0.24450000  1.0 0.0542573638
C  C20  1  0.40840000  0.03160000  0.24450000  1.0 0.0542573638
C  C21  1  0.91360000  0.59980000  0.33333333  1.0 -0.0860648578
C  C22  1  0.08640000  0.40020000  0.33333333  1.0 -0.0807932975
C  C23  1  0.40020000  0.08640000  0.66666667  1.0 -0.0860648578
C  C24  1  0.59980000  0.91360000  0.66666667  1.0 -0.0860648578
C  C25  1  0.08640000  0.40020000  0.66666667  1.0 -0.0807932975
C  C26  1  0.91360000  0.59980000  0.66666667  1.0 -0.0807932975
C  C27  1  0.59980000  0.91360000  0.33333333  1.0 -0.0860648578
C  C28  1  0.40020000  0.08640000  0.33333333  1.0 -0.0860648578
C  C29  1  0.94040000  0.70100000  0.32640000  1.0 -0.0468047435
C  C30  1  0.05960000  0.29900000  0.32640000  1.0 -0.0468047435
C  C31  1  0.29900000  0.05960000  0.67360000  1.0 -0.0468047435
C  C32  1  0.70100000  0.94040000  0.67360000  1.0 -0.0468047435
C  C33  1  0.05960000  0.29900000  0.67360000  1.0 -0.0468047435
C  C34  1  0.94040000  0.70100000  0.67360000  1.0 -0.0468047435
C  C35  1  0.70100000  0.94040000  0.32640000  1.0 -0.0468047435
C  C36  1  0.29900000  0.05960000  0.32640000  1.0 -0.0468047435
C  C37  1  0.92870000  0.54810000  0.29400000  1.0 -0.150634295
C  C38  1  0.07130000  0.45190000  0.29400000  1.0 -0.150634295
C  C39  1  0.45190000  0.07130000  0.70600000  1.0 -0.150634295
C  C40  1  0.54810000  0.92870000  0.70600000  1.0 -0.150634295
C  C41  1  0.07130000  0.45190000  0.70600000  1.0 -0.150634295
C  C42  1  0.92870000  0.54810000  0.70600000  1.0 -0.150634295
C  C43  1  0.54810000  0.92870000  0.29400000  1.0 -0.150634295
C  C44  1  0.45190000  0.07130000  0.29400000  1.0 -0.150634295
C  C45  1  0.98480000  0.75060000  0.27390000  1.0 -0.0860648578
C  C46  1  0.01520000  0.24940000  0.27390000  1.0 -0.0860648578
C  C47  1  0.24940000  0.01520000  0.72610000  1.0 -0.0860648578
C  C48  1  0.75060000  0.98480000  0.72610000  1.0 -0.0860648578
C  C49  1  0.01520000  0.24940000  0.72610000  1.0 -0.0860648578
C  C50  1  0.98480000  0.75060000  0.72610000  1.0 -0.0860648578
C  C51  1  0.75060000  0.98480000  0.27390000  1.0 -0.0860648578
C  C52  1  0.24940000  0.01520000  0.27390000  1.0 -0.0860648578
C  C53  1  0.00000000  0.50000000  0.11490000  1.0 0.1420172607
C  C54  1  0.50000000  0.00000000  0.88510000  1.0 0.1452513126
C  C55  1  0.00000000  0.50000000  0.88510000  1.0 0.1420172607
C  C56  1  0.50000000  0.00000000  0.11490000  1.0 0.1420172607
C  C57  1  0.99980000  0.69860000  0.23580000  1.0 -0.1271516016
C  C58  1  0.00020000  0.30140000  0.23580000  1.0 -0.1271516016
C  C59  1  0.30140000  0.00020000  0.76420000  1.0 -0.1271516016
C  C60  1  0.69860000  0.99980000  0.76420000  1.0 -0.1271516016
C  C61  1  0.00020000  0.30140000  0.76420000  1.0 -0.1271516016
C  C62  1  0.99980000  0.69860000  0.76420000  1.0 -0.1271516016
C  C63  1  0.69860000  0.99980000  0.23580000  1.0 -0.1271516016
C  C64  1  0.30140000  0.00020000  0.23580000  1.0 -0.1271516016
C  C65  1  0.98720000  0.53880000  0.20210000  1.0 0.0992846338
C  C66  1  0.01280000  0.46120000  0.20210000  1.0 0.0992846338
C  C67  1  0.46120000  0.01280000  0.79790000  1.0 0.0992846338
C  C68  1  0.53880000  0.98720000  0.79790000  1.0 0.0992846338
C  C69  1  0.01280000  0.46120000  0.79790000  1.0 0.0992846338
C  C70  1  0.98720000  0.53880000  0.79790000  1.0 0.0992846338
C  C71  1  0.53880000  0.98720000  0.20210000  1.0 0.0992846338
C  C72  1  0.46120000  0.01280000  0.20210000  1.0 0.0992846338
C  C73  1  0.08740000  0.51260000  0.02930000  1.0 0.1420172607
C  C74  1  0.91260000  0.48740000  0.02930000  1.0 0.1420172607
C  C75  1  0.48740000  0.91260000  0.97070000  1.0 0.1420172607
C  C76  1  0.51260000  0.08740000  0.97070000  1.0 0.1420172607
C  C77  1  0.91260000  0.48740000  0.97070000  1.0 0.1420172607
C  C78  1  0.08740000  0.51260000  0.97070000  1.0 0.1420172607
C  C79  1  0.51260000  0.08740000  0.02930000  1.0 0.1420172607
C  C80  1  0.48740000  0.91260000  0.02930000  1.0 0.1420172607
C  C81  1  0.27250000  0.55750000  0.02960000  1.0 -0.0807932975
C  C82  1  0.72750000  0.44250000  0.02960000  1.0 -0.0807932975
C  C83  1  0.44250000  0.72750000  0.97040000  1.0 -0.0807932975
C  C84  1  0.55750000  0.27250000  0.97040000  1.0 -0.0807932975
C  C85  1  0.72750000  0.44250000  0.97040000  1.0 -0.0807932975
C  C86  1  0.27250000  0.55750000  0.97040000  1.0 -0.0807932975
C  C87  1  0.55750000  0.27250000  0.02960000  1.0 -0.0807932975
C  C88  1  0.44250000  0.72750000  0.02960000  1.0 -0.0807932975
C  C89  1  0.18420000  0.54580000  0.05830000  1.0 -0.2335803925
C  C90  1  0.81580000  0.45420000  0.05830000  1.0 -0.2335803925
C  C91  1  0.45420000  0.81580000  0.94170000  1.0 -0.2335803925
C  C92  1  0.54580000  0.18420000  0.94170000  1.0 -0.2335803925
C  C93  1  0.81580000  0.45420000  0.94170000  1.0 -0.2335803925
C  C94  1  0.18420000  0.54580000  0.94170000  1.0 -0.2335803925
C  C95  1  0.54580000  0.18420000  0.05830000  1.0 -0.2335803925
C  C96  1  0.45420000  0.81580000  0.05830000  1.0 -0.2335803925
N  N1  1  0.98280000  0.56300000  0.14510000  1.0 -0.3445601973
N  N2  1  0.01720000  0.43700000  0.14510000  1.0 -0.3458401772
N  N3  1  0.43700000  0.01720000  0.85490000  1.0 -0.3445601973
N  N4  1  0.56300000  0.98280000  0.85490000  1.0 -0.3445601973
N  N5  1  0.01720000  0.43700000  0.85490000  1.0 -0.3458401772
N  N6  1  0.98280000  0.56300000  0.85490000  1.0 -0.3445601973
N  N7  1  0.56300000  0.98280000  0.14510000  1.0 -0.3445601973
N  N8  1  0.43700000  0.01720000  0.14510000  1.0 -0.3445601973
O  O1  1  0.95640000  0.85640000  0.35520000  1.0 -0.5643602225
O  O2  1  0.04360000  0.14360000  0.35520000  1.0 -0.566125573
O  O3  1  0.14360000  0.04360000  0.64480000  1.0 -0.566125573
O  O4  1  0.85640000  0.95640000  0.64480000  1.0 -0.566125573
O  O5  1  0.04360000  0.14360000  0.64480000  1.0 -0.566125573
O  O6  1  0.95640000  0.85640000  0.64480000  1.0 -0.5643602225
O  O7  1  0.85640000  0.95640000  0.35520000  1.0 -0.566125573
O  O8  1  0.14360000  0.04360000  0.35520000  1.0 -0.566125573
O  O9  1  0.91890000  0.73170000  0.41720000  1.0 -0.6071334891
O  O10  1  0.08110000  0.26830000  0.41720000  1.0 -0.6071334891
O  O11  1  0.26830000  0.08110000  0.58280000  1.0 -0.6071334891
O  O12  1  0.73170000  0.91890000  0.58280000  1.0 -0.6046731087
O  O13  1  0.08110000  0.26830000  0.58280000  1.0 -0.6071334891
O  O14  1  0.91890000  0.73170000  0.58280000  1.0 -0.6071334891
O  O15  1  0.73170000  0.91890000  0.41720000  1.0 -0.6046731087
O  O16  1  0.26830000  0.08110000  0.41720000  1.0 -0.6071334891
O  O17  1  0.12690000  0.12690000  0.45130000  1.0 -1.1809942934
O  O18  1  0.87310000  0.87310000  0.45130000  1.0 -1.1809942934
O  O19  1  0.87310000  0.87310000  0.54870000  1.0 -1.1809942934
O  O20  1  0.12690000  0.12690000  0.54870000  1.0 -1.1809942934
O  O21  1  0.93170000  0.06830000  0.45050000  1.0 -1.1992628786
O  O22  1  0.06830000  0.93170000  0.45050000  1.0 -1.1992628786
O  O23  1  0.93170000  0.06830000  0.54950000  1.0 -1.1992628786
O  O24  1  0.06830000  0.93170000  0.54950000  1.0 -1.1992628786
O  O25  1  0.06250000  0.59710000  0.03380000  1.0 -0.1114023018
O  O26  1  0.93750000  0.40290000  0.03380000  1.0 -0.1114023018
O  O27  1  0.40290000  0.93750000  0.96620000  1.0 -0.1114023018
O  O28  1  0.59710000  0.06250000  0.96620000  1.0 -0.1114023018
O  O29  1  0.93750000  0.40290000  0.96620000  1.0 -0.1114023018
O  O30  1  0.06250000  0.59710000  0.96620000  1.0 -0.1114023018
O  O31  1  0.59710000  0.06250000  0.03380000  1.0 -0.1114023018
O  O32  1  0.40290000  0.93750000  0.03380000  1.0 -0.1114023018
