# DDEC6 charges by PACMAN v1.1 (https://github.com/mtap-research/PACMAN-charge/)
data_VIMZUQ05_ASR_pacman
_symmetry_space_group_name_H-M   'P 1'
_cell_length_a   15.17850000
_cell_length_b   15.17850000
_cell_length_c   24.53200000
_cell_angle_alpha   90.00000000
_cell_angle_beta   90.00000000
_cell_angle_gamma   125.09900000
_symmetry_Int_Tables_number   1
_chemical_formula_structural   Zr3H24C48(NO4)4
_chemical_formula_sum   'Zr6 H48 C96 N8 O32'
_cell_volume   4624.11661313
_cell_formula_units_Z   2
loop_
 _symmetry_equiv_pos_site_id
 _symmetry_equiv_pos_as_xyz
  1  'x, y, z'
loop_
 _atom_site_type_symbol
 _atom_site_label
 _atom_site_symmetry_multiplicity
 _atom_site_fract_x
 _atom_site_fract_y
 _atom_site_fract_z
 _atom_site_occupancy
 _atom_site_charge
Zr  Zr1  1  0.00000000  0.00000000  0.09983000  1.0 2.3626671362
Zr  Zr2  1  0.00000000  0.00000000  0.90017000  1.0 2.3626671362
Zr  Zr3  1  0.94001000  0.80859000  0.00000000  1.0 2.4786328602
Zr  Zr4  1  0.05999000  0.19141000  0.00000000  1.0 2.4786328602
Zr  Zr5  1  0.19141000  0.05999000  0.00000000  1.0 2.4786328602
Zr  Zr6  1  0.80859000  0.94001000  0.00000000  1.0 2.4786328602
H  H1  1  0.11474000  0.42722000  0.12985000  1.0 0.1156403657
H  H2  1  0.88526000  0.57278000  0.12985000  1.0 0.1156403657
H  H3  1  0.57278000  0.88526000  0.87015000  1.0 0.1156403657
H  H4  1  0.42722000  0.11474000  0.87015000  1.0 0.1156403657
H  H5  1  0.88526000  0.57278000  0.87015000  1.0 0.1156403657
H  H6  1  0.11474000  0.42722000  0.87015000  1.0 0.1156403657
H  H7  1  0.42722000  0.11474000  0.12985000  1.0 0.1156403657
H  H8  1  0.57278000  0.88526000  0.12985000  1.0 0.1156403657
H  H9  1  0.96539000  0.27241000  0.30040000  1.0 0.1286406893
H  H10  1  0.03461000  0.72759000  0.30040000  1.0 0.1286406893
H  H11  1  0.72759000  0.03461000  0.69960000  1.0 0.1286406893
H  H12  1  0.27241000  0.96539000  0.69960000  1.0 0.1286406893
H  H13  1  0.03461000  0.72759000  0.69960000  1.0 0.1286406893
H  H14  1  0.96539000  0.27241000  0.69960000  1.0 0.1286406893
H  H15  1  0.27241000  0.96539000  0.30040000  1.0 0.1286406893
H  H16  1  0.72759000  0.03461000  0.30040000  1.0 0.1286406893
H  H17  1  0.99148000  0.17692000  0.23374000  1.0 0.1156403657
H  H18  1  0.00852000  0.82308000  0.23374000  1.0 0.1156403657
H  H19  1  0.82308000  0.00852000  0.76626000  1.0 0.1156403657
H  H20  1  0.17692000  0.99148000  0.76626000  1.0 0.1156403657
H  H21  1  0.00852000  0.82308000  0.76626000  1.0 0.1156403657
H  H22  1  0.99148000  0.17692000  0.76626000  1.0 0.1156403657
H  H23  1  0.17692000  0.99148000  0.23374000  1.0 0.1156403657
H  H24  1  0.82308000  0.00852000  0.23374000  1.0 0.1156403657
H  H25  1  0.09618000  0.53018000  0.19659000  1.0 0.109841246
H  H26  1  0.90382000  0.46982000  0.19659000  1.0 0.109841246
H  H27  1  0.46982000  0.90382000  0.80341000  1.0 0.109841246
H  H28  1  0.53018000  0.09618000  0.80341000  1.0 0.109841246
H  H29  1  0.90382000  0.46982000  0.80341000  1.0 0.109841246
H  H30  1  0.09618000  0.53018000  0.80341000  1.0 0.109841246
H  H31  1  0.53018000  0.09618000  0.19659000  1.0 0.109841246
H  H32  1  0.46982000  0.90382000  0.19659000  1.0 0.109841246
H  H33  1  0.77749000  0.39521000  0.42563000  1.0 0.1428362805
H  H34  1  0.22251000  0.60479000  0.42563000  1.0 0.1428362805
H  H35  1  0.60479000  0.22251000  0.57437000  1.0 0.1428362805
H  H36  1  0.39521000  0.77749000  0.57437000  1.0 0.1428362805
H  H37  1  0.22251000  0.60479000  0.57437000  1.0 0.1428362805
H  H38  1  0.77749000  0.39521000  0.57437000  1.0 0.1428362805
H  H39  1  0.39521000  0.77749000  0.42563000  1.0 0.1428362805
H  H40  1  0.60479000  0.22251000  0.42563000  1.0 0.1428362805
H  H41  1  0.76194000  0.12392000  0.45380000  1.0 0.109841246
H  H42  1  0.23806000  0.87608000  0.45380000  1.0 0.109841246
H  H43  1  0.87608000  0.23806000  0.54620000  1.0 0.109841246
H  H44  1  0.12392000  0.76194000  0.54620000  1.0 0.109841246
H  H45  1  0.23806000  0.87608000  0.54620000  1.0 0.109841246
H  H46  1  0.76194000  0.12392000  0.54620000  1.0 0.109841246
H  H47  1  0.12392000  0.76194000  0.45380000  1.0 0.109841246
H  H48  1  0.87608000  0.23806000  0.45380000  1.0 0.109841246
C  C1  1  0.08610000  0.39850000  0.16410000  1.0 -0.0986895669
C  C2  1  0.91390000  0.60150000  0.16410000  1.0 -0.0986895669
C  C3  1  0.60150000  0.91390000  0.83590000  1.0 -0.0986895669
C  C4  1  0.39850000  0.08610000  0.83590000  1.0 -0.0986895669
C  C5  1  0.91390000  0.60150000  0.83590000  1.0 -0.0986895669
C  C6  1  0.08610000  0.39850000  0.83590000  1.0 -0.0986895669
C  C7  1  0.39850000  0.08610000  0.16410000  1.0 -0.0986895669
C  C8  1  0.60150000  0.91390000  0.16410000  1.0 -0.0986895669
C  C9  1  0.00000000  0.50000000  0.43350000  1.0 0.090599296
C  C10  1  0.50000000  0.00000000  0.56650000  1.0 0.090599296
C  C11  1  0.00000000  0.50000000  0.56650000  1.0 0.090599296
C  C12  1  0.50000000  0.00000000  0.43350000  1.0 0.090599296
C  C13  1  0.99670000  0.30310000  0.26690000  1.0 -0.1310007941
C  C14  1  0.00330000  0.69690000  0.26690000  1.0 -0.1310007941
C  C15  1  0.69690000  0.00330000  0.73310000  1.0 -0.1310007941
C  C16  1  0.30310000  0.99670000  0.73310000  1.0 -0.1310007941
C  C17  1  0.00330000  0.69690000  0.73310000  1.0 -0.1310007941
C  C18  1  0.99670000  0.30310000  0.73310000  1.0 -0.1310007941
C  C19  1  0.30310000  0.99670000  0.26690000  1.0 -0.1310007941
C  C20  1  0.69690000  0.00330000  0.26690000  1.0 -0.1310007941
C  C21  1  0.05470000  0.29910000  0.17620000  1.0 -0.0236033607
C  C22  1  0.94530000  0.70090000  0.17620000  1.0 -0.0236033607
C  C23  1  0.70090000  0.94530000  0.82380000  1.0 -0.0236033607
C  C24  1  0.29910000  0.05470000  0.82380000  1.0 -0.0236033607
C  C25  1  0.94530000  0.70090000  0.82380000  1.0 -0.0236033607
C  C26  1  0.05470000  0.29910000  0.82380000  1.0 -0.0236033607
C  C27  1  0.29910000  0.05470000  0.17620000  1.0 -0.0236033607
C  C28  1  0.70090000  0.94530000  0.17620000  1.0 -0.0236033607
C  C29  1  0.03000000  0.40260000  0.25470000  1.0 0.0727237466
C  C30  1  0.97000000  0.59740000  0.25470000  1.0 0.0727237466
C  C31  1  0.59740000  0.97000000  0.74530000  1.0 0.0727237466
C  C32  1  0.40260000  0.03000000  0.74530000  1.0 0.0727237466
C  C33  1  0.97000000  0.59740000  0.74530000  1.0 0.0727237466
C  C34  1  0.03000000  0.40260000  0.74530000  1.0 0.0727237466
C  C35  1  0.40260000  0.03000000  0.25470000  1.0 0.0727237466
C  C36  1  0.59740000  0.97000000  0.25470000  1.0 0.0727237466
C  C37  1  0.01030000  0.24610000  0.22730000  1.0 -0.0907587853
C  C38  1  0.98970000  0.75390000  0.22730000  1.0 -0.0907587853
C  C39  1  0.75390000  0.98970000  0.77270000  1.0 -0.0907587853
C  C40  1  0.24610000  0.01030000  0.77270000  1.0 -0.0907587853
C  C41  1  0.98970000  0.75390000  0.77270000  1.0 -0.0907587853
C  C42  1  0.01030000  0.24610000  0.77270000  1.0 -0.0907587853
C  C43  1  0.24610000  0.01030000  0.22730000  1.0 -0.0907587853
C  C44  1  0.75390000  0.98970000  0.22730000  1.0 -0.0907587853
C  C45  1  0.07610000  0.46050000  0.20290000  1.0 -0.1568190675
C  C46  1  0.92390000  0.53950000  0.20290000  1.0 -0.1568190675
C  C47  1  0.53950000  0.92390000  0.79710000  1.0 -0.1568190675
C  C48  1  0.46050000  0.07610000  0.79710000  1.0 -0.1568190675
C  C49  1  0.92390000  0.53950000  0.79710000  1.0 -0.1568190675
C  C50  1  0.07610000  0.46050000  0.79710000  1.0 -0.1568190675
C  C51  1  0.46050000  0.07610000  0.20290000  1.0 -0.1568190675
C  C52  1  0.53950000  0.92390000  0.20290000  1.0 -0.1568190675
C  C53  1  0.06820000  0.23500000  0.13290000  1.0 0.6459609348
C  C54  1  0.93180000  0.76500000  0.13290000  1.0 0.6459609348
C  C55  1  0.76500000  0.93180000  0.86710000  1.0 0.6459609348
C  C56  1  0.23500000  0.06820000  0.86710000  1.0 0.6459609348
C  C57  1  0.93180000  0.76500000  0.86710000  1.0 0.6459609348
C  C58  1  0.06820000  0.23500000  0.86710000  1.0 0.6459609348
C  C59  1  0.23500000  0.06820000  0.13290000  1.0 0.6459609348
C  C60  1  0.76500000  0.93180000  0.13290000  1.0 0.6459609348
C  C61  1  0.01110000  0.46390000  0.29680000  1.0 0.0783097338
C  C62  1  0.98890000  0.53610000  0.29680000  1.0 0.0783097338
C  C63  1  0.53610000  0.98890000  0.70320000  1.0 0.0783097338
C  C64  1  0.46390000  0.01110000  0.70320000  1.0 0.0783097338
C  C65  1  0.98890000  0.53610000  0.70320000  1.0 0.0783097338
C  C66  1  0.01110000  0.46390000  0.70320000  1.0 0.0783097338
C  C67  1  0.46390000  0.01110000  0.29680000  1.0 0.0783097338
C  C68  1  0.53610000  0.98890000  0.29680000  1.0 0.0783097338
C  C69  1  0.00000000  0.50000000  0.38120000  1.0 0.1156403657
C  C70  1  0.50000000  0.00000000  0.61880000  1.0 0.1156403657
C  C71  1  0.00000000  0.50000000  0.61880000  1.0 0.1156403657
C  C72  1  0.50000000  0.00000000  0.38120000  1.0 0.1156403657
C  C73  1  0.90630000  0.40250000  0.46780000  1.0 0.090599296
C  C74  1  0.09370000  0.59750000  0.46780000  1.0 0.090599296
C  C75  1  0.59750000  0.09370000  0.53220000  1.0 0.090599296
C  C76  1  0.40250000  0.90630000  0.53220000  1.0 0.090599296
C  C77  1  0.09370000  0.59750000  0.53220000  1.0 0.090599296
C  C78  1  0.90630000  0.40250000  0.53220000  1.0 0.090599296
C  C79  1  0.40250000  0.90630000  0.46780000  1.0 0.090599296
C  C80  1  0.59750000  0.09370000  0.46780000  1.0 0.090599296
C  C81  1  0.74620000  0.25380000  0.46910000  1.0 0.090599296
C  C82  1  0.25380000  0.74620000  0.46910000  1.0 0.090599296
C  C83  1  0.74620000  0.25380000  0.53090000  1.0 0.090599296
C  C84  1  0.25380000  0.74620000  0.53090000  1.0 0.090599296
C  C85  1  0.80200000  0.36260000  0.44680000  1.0 -0.2531466257
C  C86  1  0.19800000  0.63740000  0.44680000  1.0 -0.2531466257
C  C87  1  0.63740000  0.19800000  0.55320000  1.0 -0.2531466257
C  C88  1  0.36260000  0.80200000  0.55320000  1.0 -0.2531466257
C  C89  1  0.19800000  0.63740000  0.55320000  1.0 -0.2531466257
C  C90  1  0.80200000  0.36260000  0.55320000  1.0 -0.2531466257
C  C91  1  0.36260000  0.80200000  0.44680000  1.0 -0.2531466257
C  C92  1  0.63740000  0.19800000  0.44680000  1.0 -0.2531466257
C  C93  1  0.80450000  0.19550000  0.46960000  1.0 -0.2555894625
C  C94  1  0.19550000  0.80450000  0.46960000  1.0 -0.2555894625
C  C95  1  0.80450000  0.19550000  0.53040000  1.0 -0.2555894625
C  C96  1  0.19550000  0.80450000  0.53040000  1.0 -0.2555894625
N  N1  1  0.02070000  0.43650000  0.35180000  1.0 -0.3666064512
N  N2  1  0.97930000  0.56350000  0.35180000  1.0 -0.3666064512
N  N3  1  0.56350000  0.97930000  0.64820000  1.0 -0.3666064512
N  N4  1  0.43650000  0.02070000  0.64820000  1.0 -0.3666064512
N  N5  1  0.97930000  0.56350000  0.64820000  1.0 -0.3666064512
N  N6  1  0.02070000  0.43650000  0.64820000  1.0 -0.3666064512
N  N7  1  0.43650000  0.02070000  0.35180000  1.0 -0.3666064512
N  N8  1  0.56350000  0.97930000  0.35180000  1.0 -0.3666064512
O  O1  1  0.04620000  0.14500000  0.14430000  1.0 -0.5505284142
O  O2  1  0.95380000  0.85500000  0.14430000  1.0 -0.5505284142
O  O3  1  0.85500000  0.95380000  0.85570000  1.0 -0.5505284142
O  O4  1  0.14500000  0.04620000  0.85570000  1.0 -0.5505284142
O  O5  1  0.95380000  0.85500000  0.85570000  1.0 -0.5505284142
O  O6  1  0.04620000  0.14500000  0.85570000  1.0 -0.5505284142
O  O7  1  0.14500000  0.04620000  0.14430000  1.0 -0.5505284142
O  O8  1  0.85500000  0.95380000  0.14430000  1.0 -0.5505284142
O  O9  1  0.08550000  0.26990000  0.08270000  1.0 -0.6273539733
O  O10  1  0.91450000  0.73010000  0.08270000  1.0 -0.6273539733
O  O11  1  0.73010000  0.91450000  0.91730000  1.0 -0.6273539733
O  O12  1  0.26990000  0.08550000  0.91730000  1.0 -0.6273539733
O  O13  1  0.91450000  0.73010000  0.91730000  1.0 -0.6273539733
O  O14  1  0.08550000  0.26990000  0.91730000  1.0 -0.6273539733
O  O15  1  0.26990000  0.08550000  0.08270000  1.0 -0.6273539733
O  O16  1  0.73010000  0.91450000  0.08270000  1.0 -0.6243166399
O  O17  1  0.87420000  0.87420000  0.04750000  1.0 -1.1544419002
O  O18  1  0.12580000  0.12580000  0.04750000  1.0 -1.1544419002
O  O19  1  0.12580000  0.12580000  0.95250000  1.0 -1.1567208838
O  O20  1  0.87420000  0.87420000  0.95250000  1.0 -1.1567208838
O  O21  1  0.06620000  0.93380000  0.05180000  1.0 -1.1811210584
O  O22  1  0.93380000  0.06620000  0.05180000  1.0 -1.1874350976
O  O23  1  0.06620000  0.93380000  0.94820000  1.0 -1.1811210584
O  O24  1  0.93380000  0.06620000  0.94820000  1.0 -1.1811210584
O  O25  1  0.91740000  0.50800000  0.47360000  1.0 0.0066259863
O  O26  1  0.08260000  0.49200000  0.47360000  1.0 0.0066259863
O  O27  1  0.49200000  0.08260000  0.52640000  1.0 0.0066259863
O  O28  1  0.50800000  0.91740000  0.52640000  1.0 0.0066259863
O  O29  1  0.08260000  0.49200000  0.52640000  1.0 0.0066259863
O  O30  1  0.91740000  0.50800000  0.52640000  1.0 0.0066259863
O  O31  1  0.50800000  0.91740000  0.47360000  1.0 0.0066259863
O  O32  1  0.49200000  0.08260000  0.47360000  1.0 0.0066259863
