# DDEC6 charges by PACMAN v1.1 (https://github.com/mtap-research/PACMAN-charge/)
data_VIMZUQ04_ASR_pacman
_symmetry_space_group_name_H-M   'P 1'
_cell_length_a   15.15890000
_cell_length_b   15.15890000
_cell_length_c   24.69300000
_cell_angle_alpha   90.00000000
_cell_angle_beta   90.00000000
_cell_angle_gamma   124.49300000
_symmetry_Int_Tables_number   1
_chemical_formula_structural   Zr3H24C48(NO4)4
_chemical_formula_sum   'Zr6 H48 C96 N8 O32'
_cell_volume   4676.69889657
_cell_formula_units_Z   2
loop_
 _symmetry_equiv_pos_site_id
 _symmetry_equiv_pos_as_xyz
  1  'x, y, z'
loop_
 _atom_site_type_symbol
 _atom_site_label
 _atom_site_symmetry_multiplicity
 _atom_site_fract_x
 _atom_site_fract_y
 _atom_site_fract_z
 _atom_site_occupancy
 _atom_site_charge
Zr  Zr1  1  0.05871000  0.19129000  0.50000000  1.0 2.4807144076
Zr  Zr2  1  0.94129000  0.80871000  0.50000000  1.0 2.4807144076
Zr  Zr3  1  0.80871000  0.94129000  0.50000000  1.0 2.4807144076
Zr  Zr4  1  0.19129000  0.05871000  0.50000000  1.0 2.4807144076
Zr  Zr5  1  0.00000000  0.00000000  0.40111000  1.0 2.3191657931
Zr  Zr6  1  0.00000000  0.00000000  0.59889000  1.0 2.3191657931
H  H1  1  0.88196000  0.56870000  0.36921000  1.0 0.1213088329
H  H2  1  0.11804000  0.43130000  0.36921000  1.0 0.1213088329
H  H3  1  0.43130000  0.11804000  0.63079000  1.0 0.1213088329
H  H4  1  0.56870000  0.88196000  0.63079000  1.0 0.1213088329
H  H5  1  0.11804000  0.43130000  0.63079000  1.0 0.1213088329
H  H6  1  0.88196000  0.56870000  0.63079000  1.0 0.1213088329
H  H7  1  0.56870000  0.88196000  0.36921000  1.0 0.1213088329
H  H8  1  0.43130000  0.11804000  0.36921000  1.0 0.1213088329
H  H9  1  0.99687000  0.81907000  0.26831000  1.0 0.1213088329
H  H10  1  0.00314000  0.18093000  0.26831000  1.0 0.1213088329
H  H11  1  0.18093000  0.00314000  0.73169000  1.0 0.1213088329
H  H12  1  0.81908000  0.99687000  0.73169000  1.0 0.1213088329
H  H13  1  0.00314000  0.18093000  0.73169000  1.0 0.1213088329
H  H14  1  0.99687000  0.81907000  0.73169000  1.0 0.1213088329
H  H15  1  0.81908000  0.99687000  0.26831000  1.0 0.1213088329
H  H16  1  0.18093000  0.00314000  0.26831000  1.0 0.1213088329
H  H17  1  0.04174000  0.73514000  0.20366000  1.0 0.1213088329
H  H18  1  0.95826000  0.26486000  0.20366000  1.0 0.1213088329
H  H19  1  0.26486000  0.95826000  0.79634000  1.0 0.1213088329
H  H20  1  0.73514000  0.04174000  0.79634000  1.0 0.1213088329
H  H21  1  0.95826000  0.26486000  0.79634000  1.0 0.1213088329
H  H22  1  0.04174000  0.73514000  0.79634000  1.0 0.1213088329
H  H23  1  0.73514000  0.04174000  0.20366000  1.0 0.1213088329
H  H24  1  0.26486000  0.95826000  0.20366000  1.0 0.1213088329
H  H25  1  0.90217000  0.47581000  0.30313000  1.0 0.1104000157
H  H26  1  0.09783000  0.52419000  0.30313000  1.0 0.1104000157
H  H27  1  0.52419000  0.09783000  0.69687000  1.0 0.1104000157
H  H28  1  0.47581000  0.90217000  0.69687000  1.0 0.1104000157
H  H29  1  0.09783000  0.52419000  0.69687000  1.0 0.1104000157
H  H30  1  0.90217000  0.47581000  0.69687000  1.0 0.1104000157
H  H31  1  0.47581000  0.90217000  0.30313000  1.0 0.1104000157
H  H32  1  0.52419000  0.09783000  0.30313000  1.0 0.1104000157
H  H33  1  0.92944000  0.18368000  0.04515000  1.0 0.1104000157
H  H34  1  0.07056000  0.81632000  0.04515000  1.0 0.1104000157
H  H35  1  0.81632000  0.07056000  0.95485000  1.0 0.1104000157
H  H36  1  0.18368000  0.92944000  0.95485000  1.0 0.1104000157
H  H37  1  0.07056000  0.81632000  0.95485000  1.0 0.1104000157
H  H38  1  0.92944000  0.18368000  0.95485000  1.0 0.1104000157
H  H39  1  0.18368000  0.92944000  0.04515000  1.0 0.1104000157
H  H40  1  0.81632000  0.07056000  0.04515000  1.0 0.1104000157
H  H41  1  0.84119000  0.30279000  0.09350000  1.0 0.1213088329
H  H42  1  0.15881000  0.69721000  0.09350000  1.0 0.1213088329
H  H43  1  0.69721000  0.15881000  0.90650000  1.0 0.1213088329
H  H44  1  0.30279000  0.84119000  0.90650000  1.0 0.1213088329
H  H45  1  0.15881000  0.69721000  0.90650000  1.0 0.1213088329
H  H46  1  0.84119000  0.30279000  0.90650000  1.0 0.1213088329
H  H47  1  0.30279000  0.84119000  0.09350000  1.0 0.1213088329
H  H48  1  0.69721000  0.15881000  0.09350000  1.0 0.1213088329
C  C1  1  0.00000000  0.50000000  0.05590000  1.0 0.2231759922
C  C2  1  0.50000000  0.00000000  0.94410000  1.0 0.2231759922
C  C3  1  0.00000000  0.50000000  0.94410000  1.0 0.2231759922
C  C4  1  0.50000000  0.00000000  0.05590000  1.0 0.2231759922
C  C5  1  0.98830000  0.53990000  0.20490000  1.0 0.1104000157
C  C6  1  0.01170000  0.46010000  0.20490000  1.0 0.1104000157
C  C7  1  0.46010000  0.01170000  0.79510000  1.0 0.1104000157
C  C8  1  0.53990000  0.98830000  0.79510000  1.0 0.1104000157
C  C9  1  0.01170000  0.46010000  0.79510000  1.0 0.1104000157
C  C10  1  0.98830000  0.53990000  0.79510000  1.0 0.1104000157
C  C11  1  0.53990000  0.98830000  0.20490000  1.0 0.1104000157
C  C12  1  0.46010000  0.01170000  0.20490000  1.0 0.1104000157
C  C13  1  0.91220000  0.60140000  0.33620000  1.0 -0.0880105935
C  C14  1  0.08780000  0.39860000  0.33620000  1.0 -0.0880105935
C  C15  1  0.39860000  0.08780000  0.66380000  1.0 -0.0880105935
C  C16  1  0.60140000  0.91220000  0.66380000  1.0 -0.0880105935
C  C17  1  0.08780000  0.39860000  0.66380000  1.0 -0.0880105935
C  C18  1  0.91220000  0.60140000  0.66380000  1.0 -0.0880105935
C  C19  1  0.60140000  0.91220000  0.33620000  1.0 -0.0880105935
C  C20  1  0.39860000  0.08780000  0.33620000  1.0 -0.0880105935
C  C21  1  0.94340000  0.70260000  0.32750000  1.0 -0.0543133175
C  C22  1  0.05660000  0.29740000  0.32750000  1.0 -0.0543133175
C  C23  1  0.29740000  0.05660000  0.67250000  1.0 -0.0543133175
C  C24  1  0.70260000  0.94340000  0.67250000  1.0 -0.0543133175
C  C25  1  0.05660000  0.29740000  0.67250000  1.0 -0.0543133175
C  C26  1  0.94340000  0.70260000  0.67250000  1.0 -0.0543133175
C  C27  1  0.70260000  0.94340000  0.32750000  1.0 -0.0543133175
C  C28  1  0.29740000  0.05660000  0.32750000  1.0 -0.0543133175
C  C29  1  0.93860000  0.77040000  0.36810000  1.0 0.6233793691
C  C30  1  0.06140000  0.22960000  0.36810000  1.0 0.6233793691
C  C31  1  0.22960000  0.06140000  0.63190000  1.0 0.6233793691
C  C32  1  0.77040000  0.93860000  0.63190000  1.0 0.6233793691
C  C33  1  0.06140000  0.22960000  0.63190000  1.0 0.6233793691
C  C34  1  0.93860000  0.77040000  0.63190000  1.0 0.6233793691
C  C35  1  0.77040000  0.93860000  0.36810000  1.0 0.6233793691
C  C36  1  0.22960000  0.06140000  0.36810000  1.0 0.6233793691
C  C37  1  0.00000000  0.50000000  0.11410000  1.0 0.1793699608
C  C38  1  0.50000000  0.00000000  0.88590000  1.0 0.1793699608
C  C39  1  0.00000000  0.50000000  0.88590000  1.0 0.1793699608
C  C40  1  0.50000000  0.00000000  0.11410000  1.0 0.1793699608
C  C41  1  0.98460000  0.75280000  0.27550000  1.0 -0.0880105935
C  C42  1  0.01540000  0.24720000  0.27550000  1.0 -0.0880105935
C  C43  1  0.24720000  0.01540000  0.72450000  1.0 -0.0880105935
C  C44  1  0.75280000  0.98460000  0.72450000  1.0 -0.0880105935
C  C45  1  0.01540000  0.24720000  0.72450000  1.0 -0.0880105935
C  C46  1  0.98460000  0.75280000  0.72450000  1.0 -0.0880105935
C  C47  1  0.75280000  0.98460000  0.27550000  1.0 -0.0880105935
C  C48  1  0.24720000  0.01540000  0.27550000  1.0 -0.0880105935
C  C49  1  0.00620000  0.70060000  0.23550000  1.0 -0.1409368489
C  C50  1  0.99380000  0.29940000  0.23550000  1.0 -0.1409368489
C  C51  1  0.29940000  0.99380000  0.76450000  1.0 -0.1409368489
C  C52  1  0.70060000  0.00620000  0.76450000  1.0 -0.1409368489
C  C53  1  0.99380000  0.29940000  0.76450000  1.0 -0.1409368489
C  C54  1  0.00620000  0.70060000  0.76450000  1.0 -0.1409368489
C  C55  1  0.70060000  0.00620000  0.23550000  1.0 -0.1409368489
C  C56  1  0.29940000  0.99380000  0.23550000  1.0 -0.1409368489
C  C57  1  0.92490000  0.54610000  0.29650000  1.0 -0.1547562509
C  C58  1  0.07510000  0.45390000  0.29650000  1.0 -0.1547562509
C  C59  1  0.45390000  0.07510000  0.70350000  1.0 -0.1547562509
C  C60  1  0.54610000  0.92490000  0.70350000  1.0 -0.1551411181
C  C61  1  0.07510000  0.45390000  0.70350000  1.0 -0.1547562509
C  C62  1  0.92490000  0.54610000  0.70350000  1.0 -0.1547562509
C  C63  1  0.54610000  0.92490000  0.29650000  1.0 -0.1551411181
C  C64  1  0.45390000  0.07510000  0.29650000  1.0 -0.1547562509
C  C65  1  0.97150000  0.59270000  0.24600000  1.0 0.0512012205
C  C66  1  0.02850000  0.40730000  0.24600000  1.0 0.0512012205
C  C67  1  0.40730000  0.02850000  0.75400000  1.0 0.0512012205
C  C68  1  0.59270000  0.97150000  0.75400000  1.0 0.0512012205
C  C69  1  0.02850000  0.40730000  0.75400000  1.0 0.0512012205
C  C70  1  0.97150000  0.59270000  0.75400000  1.0 0.0512012205
C  C71  1  0.59270000  0.97150000  0.24600000  1.0 0.0512012205
C  C72  1  0.40730000  0.02850000  0.24600000  1.0 0.0512012205
C  C73  1  0.93210000  0.39470000  0.03030000  1.0 0.1271309898
C  C74  1  0.06790000  0.60530000  0.03030000  1.0 0.1271309898
C  C75  1  0.60530000  0.06790000  0.96970000  1.0 0.1271309898
C  C76  1  0.39470000  0.93210000  0.96970000  1.0 0.1271309898
C  C77  1  0.06790000  0.60530000  0.96970000  1.0 0.1271309898
C  C78  1  0.93210000  0.39470000  0.96970000  1.0 0.1271309898
C  C79  1  0.39470000  0.93210000  0.03030000  1.0 0.1271309898
C  C80  1  0.60530000  0.06790000  0.03030000  1.0 0.1271309898
C  C81  1  0.80230000  0.19770000  0.03000000  1.0 0.1213088329
C  C82  1  0.19770000  0.80230000  0.03000000  1.0 0.1213088329
C  C83  1  0.80230000  0.19770000  0.97000000  1.0 0.1213088329
C  C84  1  0.19770000  0.80230000  0.97000000  1.0 0.1213088329
C  C85  1  0.85830000  0.14170000  0.02950000  1.0 -0.2126310869
C  C86  1  0.14170000  0.85830000  0.02950000  1.0 -0.2126310869
C  C87  1  0.85830000  0.14170000  0.97050000  1.0 -0.2126310869
C  C88  1  0.14170000  0.85830000  0.97050000  1.0 -0.2126310869
C  C89  1  0.85660000  0.30000000  0.05730000  1.0 -0.2901338368
C  C90  1  0.14340000  0.70000000  0.05730000  1.0 -0.2901338368
C  C91  1  0.70000000  0.14340000  0.94270000  1.0 -0.2901338368
C  C92  1  0.30000000  0.85660000  0.94270000  1.0 -0.2901338368
C  C93  1  0.14340000  0.70000000  0.94270000  1.0 -0.2901338368
C  C94  1  0.85660000  0.30000000  0.94270000  1.0 -0.2901338368
C  C95  1  0.30000000  0.85660000  0.05730000  1.0 -0.2901338368
C  C96  1  0.70000000  0.14340000  0.05730000  1.0 -0.2901338368
N  N1  1  0.98230000  0.56530000  0.14890000  1.0 -0.3782522745
N  N2  1  0.01770000  0.43470000  0.14890000  1.0 -0.3782522745
N  N3  1  0.43470000  0.01770000  0.85110000  1.0 -0.3782522745
N  N4  1  0.56530000  0.98230000  0.85110000  1.0 -0.3782522745
N  N5  1  0.01770000  0.43470000  0.85110000  1.0 -0.3782522745
N  N6  1  0.98230000  0.56530000  0.85110000  1.0 -0.3782522745
N  N7  1  0.56530000  0.98230000  0.14890000  1.0 -0.3782522745
N  N8  1  0.43470000  0.01770000  0.14890000  1.0 -0.3782522745
O  O1  1  0.95590000  0.85330000  0.35550000  1.0 -0.5255214899
O  O2  1  0.04410000  0.14670000  0.35550000  1.0 -0.5255214899
O  O3  1  0.14670000  0.04410000  0.64450000  1.0 -0.5255214899
O  O4  1  0.85330000  0.95590000  0.64450000  1.0 -0.5255214899
O  O5  1  0.04410000  0.14670000  0.64450000  1.0 -0.5255214899
O  O6  1  0.95590000  0.85330000  0.64450000  1.0 -0.5255214899
O  O7  1  0.85330000  0.95590000  0.35550000  1.0 -0.5255214899
O  O8  1  0.14670000  0.04410000  0.35550000  1.0 -0.5255214899
O  O9  1  0.92050000  0.73450000  0.41640000  1.0 -0.5931537479
O  O10  1  0.07950000  0.26550000  0.41640000  1.0 -0.5931537479
O  O11  1  0.26550000  0.07950000  0.58360000  1.0 -0.5931537479
O  O12  1  0.73450000  0.92050000  0.58360000  1.0 -0.5931537479
O  O13  1  0.07950000  0.26550000  0.58360000  1.0 -0.5931537479
O  O14  1  0.92050000  0.73450000  0.58360000  1.0 -0.5931537479
O  O15  1  0.73450000  0.92050000  0.41640000  1.0 -0.5931537479
O  O16  1  0.26550000  0.07950000  0.41640000  1.0 -0.5931537479
O  O17  1  0.13060000  0.13060000  0.45200000  1.0 -1.1729613274
O  O18  1  0.86940000  0.86940000  0.45200000  1.0 -1.1729613274
O  O19  1  0.86940000  0.86940000  0.54800000  1.0 -1.1729613274
O  O20  1  0.13060000  0.13060000  0.54800000  1.0 -1.1729613274
O  O21  1  0.93440000  0.06560000  0.45270000  1.0 -1.1788643628
O  O22  1  0.06560000  0.93440000  0.45270000  1.0 -1.1788643628
O  O23  1  0.93440000  0.06560000  0.54730000  1.0 -1.1788643628
O  O24  1  0.06560000  0.93440000  0.54730000  1.0 -1.1788643628
O  O25  1  0.08600000  0.51800000  0.03330000  1.0 -0.1024530038
O  O26  1  0.91400000  0.48200000  0.03330000  1.0 -0.1055949248
O  O27  1  0.48200000  0.91400000  0.96670000  1.0 -0.1055949248
O  O28  1  0.51800000  0.08600000  0.96670000  1.0 -0.1055949248
O  O29  1  0.91400000  0.48200000  0.96670000  1.0 -0.1055949248
O  O30  1  0.08600000  0.51800000  0.96670000  1.0 -0.1024530038
O  O31  1  0.51800000  0.08600000  0.03330000  1.0 -0.1055949248
O  O32  1  0.48200000  0.91400000  0.03330000  1.0 -0.1055949248
