# DDEC6 charges by PACMAN v1.1 (https://github.com/mtap-research/PACMAN-charge/)
data_VIMZUQ_ASR_pacman
_symmetry_space_group_name_H-M   'P 1'
_cell_length_a   15.07710000
_cell_length_b   15.07710000
_cell_length_c   24.87600000
_cell_angle_alpha   90.00000000
_cell_angle_beta   90.00000000
_cell_angle_gamma   117.44700000
_symmetry_Int_Tables_number   1
_chemical_formula_structural   Zr3H24C48(NO3)4
_chemical_formula_sum   'Zr6 H48 C96 N8 O24'
_cell_volume   5018.26967112
_cell_formula_units_Z   2
loop_
 _symmetry_equiv_pos_site_id
 _symmetry_equiv_pos_as_xyz
  1  'x, y, z'
loop_
 _atom_site_type_symbol
 _atom_site_label
 _atom_site_symmetry_multiplicity
 _atom_site_fract_x
 _atom_site_fract_y
 _atom_site_fract_z
 _atom_site_occupancy
 _atom_site_charge
Zr  Zr1  1  0.00000000  0.00000000  0.59826000  1.0 2.3626698179
Zr  Zr2  1  0.00000000  0.00000000  0.40174000  1.0 2.3626698179
Zr  Zr3  1  0.18194000  0.04428000  0.50000000  1.0 2.4783825201
Zr  Zr4  1  0.81806000  0.95572000  0.50000000  1.0 2.4783825201
Zr  Zr5  1  0.95572000  0.81806000  0.50000000  1.0 2.4783825201
Zr  Zr6  1  0.04428000  0.18194000  0.50000000  1.0 2.4783825201
H  H1  1  0.95873000  0.26947000  0.79573000  1.0 0.1274583375
H  H2  1  0.04127000  0.73053000  0.79573000  1.0 0.1274583375
H  H3  1  0.73053000  0.04127000  0.20427000  1.0 0.1274583375
H  H4  1  0.26947000  0.95873000  0.20427000  1.0 0.1274583375
H  H5  1  0.04127000  0.73053000  0.20427000  1.0 0.1274583375
H  H6  1  0.95873000  0.26947000  0.20427000  1.0 0.1274583375
H  H7  1  0.26947000  0.95873000  0.79573000  1.0 0.1274583375
H  H8  1  0.73053000  0.04127000  0.79573000  1.0 0.1274583375
H  H9  1  0.98254000  0.17508000  0.72876000  1.0 0.1179209864
H  H10  1  0.01746000  0.82492000  0.72876000  1.0 0.1179209864
H  H11  1  0.82492000  0.01746000  0.27124000  1.0 0.1179209864
H  H12  1  0.17508000  0.98254000  0.27124000  1.0 0.1179209864
H  H13  1  0.01746000  0.82492000  0.27124000  1.0 0.1179209864
H  H14  1  0.98254000  0.17508000  0.27124000  1.0 0.1179209864
H  H15  1  0.17508000  0.98254000  0.72876000  1.0 0.1179209864
H  H16  1  0.82492000  0.01746000  0.72876000  1.0 0.1179209864
H  H17  1  0.10151000  0.41529000  0.63437000  1.0 0.1179209864
H  H18  1  0.89849000  0.58471000  0.63437000  1.0 0.1179209864
H  H19  1  0.58471000  0.89849000  0.36563000  1.0 0.1179209864
H  H20  1  0.41529000  0.10151000  0.36563000  1.0 0.1179209864
H  H21  1  0.89849000  0.58471000  0.36563000  1.0 0.1179209864
H  H22  1  0.10151000  0.41529000  0.36563000  1.0 0.1179209864
H  H23  1  0.41529000  0.10151000  0.63437000  1.0 0.1179209864
H  H24  1  0.58471000  0.89849000  0.63437000  1.0 0.1179209864
H  H25  1  0.09476000  0.51388000  0.70311000  1.0 0.1179209864
H  H26  1  0.90524000  0.48612000  0.70311000  1.0 0.1179209864
H  H27  1  0.48612000  0.90524000  0.29689000  1.0 0.1179209864
H  H28  1  0.51388000  0.09476000  0.29689000  1.0 0.1179209864
H  H29  1  0.90524000  0.48612000  0.29689000  1.0 0.1179209864
H  H30  1  0.09476000  0.51388000  0.29689000  1.0 0.1179209864
H  H31  1  0.51388000  0.09476000  0.70311000  1.0 0.1179209864
H  H32  1  0.48612000  0.90524000  0.70311000  1.0 0.1179209864
H  H33  1  0.82871000  0.48165000  0.90644000  1.0 0.1179209864
H  H34  1  0.17129000  0.51835000  0.90644000  1.0 0.1179209864
H  H35  1  0.51835000  0.17129000  0.09356000  1.0 0.1179209864
H  H36  1  0.48165000  0.82871000  0.09356000  1.0 0.1179209864
H  H37  1  0.17129000  0.51835000  0.09356000  1.0 0.1179209864
H  H38  1  0.82871000  0.48165000  0.09356000  1.0 0.1179209864
H  H39  1  0.48165000  0.82871000  0.90644000  1.0 0.1179209864
H  H40  1  0.51835000  0.17129000  0.90644000  1.0 0.1179209864
H  H41  1  0.69347000  0.47445000  0.95162000  1.0 0.1056565911
H  H42  1  0.30653000  0.52555000  0.95162000  1.0 0.1056565911
H  H43  1  0.52555000  0.30653000  0.04838000  1.0 0.1056565911
H  H44  1  0.47445000  0.69347000  0.04838000  1.0 0.1056565911
H  H45  1  0.30653000  0.52555000  0.04838000  1.0 0.1056565911
H  H46  1  0.69347000  0.47445000  0.04838000  1.0 0.1056565911
H  H47  1  0.47445000  0.69347000  0.95162000  1.0 0.1056565911
H  H48  1  0.52555000  0.30653000  0.95162000  1.0 0.1056565911
C  C1  1  0.04010000  0.28650000  0.67330000  1.0 -0.0420765376
C  C2  1  0.95990000  0.71350000  0.67330000  1.0 -0.0420765376
C  C3  1  0.71350000  0.95990000  0.32670000  1.0 -0.0420765376
C  C4  1  0.28650000  0.04010000  0.32670000  1.0 -0.0420765376
C  C5  1  0.95990000  0.71350000  0.32670000  1.0 -0.0420765376
C  C6  1  0.04010000  0.28650000  0.32670000  1.0 -0.0420765376
C  C7  1  0.28650000  0.04010000  0.67330000  1.0 -0.0420765376
C  C8  1  0.71350000  0.95990000  0.67330000  1.0 -0.0420765376
C  C9  1  0.98990000  0.29970000  0.76370000  1.0 -0.1355715992
C  C10  1  0.01010000  0.70030000  0.76370000  1.0 -0.1355715992
C  C11  1  0.70030000  0.01010000  0.23630000  1.0 -0.1355715992
C  C12  1  0.29970000  0.98990000  0.23630000  1.0 -0.1355715992
C  C13  1  0.01010000  0.70030000  0.23630000  1.0 -0.1355715992
C  C14  1  0.98990000  0.29970000  0.23630000  1.0 -0.1355715992
C  C15  1  0.29970000  0.98990000  0.76370000  1.0 -0.1355715992
C  C16  1  0.70030000  0.01010000  0.76370000  1.0 -0.1355715992
C  C17  1  0.00000000  0.50000000  0.94470000  1.0 -0.0273311252
C  C18  1  0.50000000  0.00000000  0.05530000  1.0 -0.0273311252
C  C19  1  0.00000000  0.50000000  0.05530000  1.0 -0.0273311252
C  C20  1  0.50000000  0.00000000  0.94470000  1.0 -0.0273311252
C  C21  1  0.04690000  0.22150000  0.62960000  1.0 0.6408783642
C  C22  1  0.95310000  0.77850000  0.62960000  1.0 0.6408783642
C  C23  1  0.77850000  0.95310000  0.37040000  1.0 0.6408783642
C  C24  1  0.22150000  0.04690000  0.37040000  1.0 0.6408783642
C  C25  1  0.95310000  0.77850000  0.37040000  1.0 0.6408783642
C  C26  1  0.04690000  0.22150000  0.37040000  1.0 0.6408783642
C  C27  1  0.22150000  0.04690000  0.62960000  1.0 0.6408783642
C  C28  1  0.77850000  0.95310000  0.62960000  1.0 0.6408783642
C  C29  1  0.00100000  0.24220000  0.72300000  1.0 -0.0897000118
C  C30  1  0.99900000  0.75780000  0.72300000  1.0 -0.0897000118
C  C31  1  0.75780000  0.99900000  0.27700000  1.0 -0.0897000118
C  C32  1  0.24220000  0.00100000  0.27700000  1.0 -0.0897000118
C  C33  1  0.99900000  0.75780000  0.27700000  1.0 -0.0897000118
C  C34  1  0.00100000  0.24220000  0.27700000  1.0 -0.0897000118
C  C35  1  0.24220000  0.00100000  0.72300000  1.0 -0.0897000118
C  C36  1  0.75780000  0.99900000  0.72300000  1.0 -0.0897000118
C  C37  1  0.02490000  0.40110000  0.75700000  1.0 0.0878737305
C  C38  1  0.97510000  0.59890000  0.75700000  1.0 0.0878737305
C  C39  1  0.59890000  0.97510000  0.24300000  1.0 0.0878737305
C  C40  1  0.40110000  0.02490000  0.24300000  1.0 0.0878737305
C  C41  1  0.97510000  0.59890000  0.24300000  1.0 0.0878737305
C  C42  1  0.02490000  0.40110000  0.24300000  1.0 0.0878737305
C  C43  1  0.40110000  0.02490000  0.75700000  1.0 0.0878737305
C  C44  1  0.59890000  0.97510000  0.75700000  1.0 0.0878737305
C  C45  1  0.00560000  0.45900000  0.80030000  1.0 0.0501730023
C  C46  1  0.99440000  0.54100000  0.80030000  1.0 0.0501730023
C  C47  1  0.54100000  0.99440000  0.19970000  1.0 0.0501730023
C  C48  1  0.45900000  0.00560000  0.19970000  1.0 0.0501730023
C  C49  1  0.99440000  0.54100000  0.19970000  1.0 0.0501730023
C  C50  1  0.00560000  0.45900000  0.19970000  1.0 0.0501730023
C  C51  1  0.45900000  0.00560000  0.80030000  1.0 0.0501730023
C  C52  1  0.54100000  0.99440000  0.80030000  1.0 0.0501730023
C  C53  1  0.00000000  0.50000000  0.88400000  1.0 0.3213978631
C  C54  1  0.50000000  0.00000000  0.11600000  1.0 0.3213978631
C  C55  1  0.00000000  0.50000000  0.11600000  1.0 0.3213978631
C  C56  1  0.50000000  0.00000000  0.88400000  1.0 0.3213978631
C  C57  1  0.07400000  0.38600000  0.66720000  1.0 -0.0897000118
C  C58  1  0.92600000  0.61400000  0.66720000  1.0 -0.0897000118
C  C59  1  0.61400000  0.92600000  0.33280000  1.0 -0.0897000118
C  C60  1  0.38600000  0.07400000  0.33280000  1.0 -0.0897000118
C  C61  1  0.92600000  0.61400000  0.33280000  1.0 -0.0897000118
C  C62  1  0.07400000  0.38600000  0.33280000  1.0 -0.0897000118
C  C63  1  0.38600000  0.07400000  0.66720000  1.0 -0.0897000118
C  C64  1  0.61400000  0.92600000  0.66720000  1.0 -0.0897000118
C  C65  1  0.06910000  0.44530000  0.70800000  1.0 -0.1482931136
C  C66  1  0.93090000  0.55470000  0.70800000  1.0 -0.1482931136
C  C67  1  0.55470000  0.93090000  0.29200000  1.0 -0.1482931136
C  C68  1  0.44530000  0.06910000  0.29200000  1.0 -0.1482931136
C  C69  1  0.93090000  0.55470000  0.29200000  1.0 -0.1482931136
C  C70  1  0.06910000  0.44530000  0.29200000  1.0 -0.1482931136
C  C71  1  0.44530000  0.06910000  0.70800000  1.0 -0.1482931136
C  C72  1  0.55470000  0.93090000  0.70800000  1.0 -0.1482931136
C  C73  1  0.91550000  0.49130000  0.97200000  1.0 0.0501730023
C  C74  1  0.08450000  0.50870000  0.97200000  1.0 0.0501730023
C  C75  1  0.50870000  0.08450000  0.02800000  1.0 0.0501730023
C  C76  1  0.49130000  0.91550000  0.02800000  1.0 0.0501730023
C  C77  1  0.08450000  0.50870000  0.02800000  1.0 0.0501730023
C  C78  1  0.91550000  0.49130000  0.02800000  1.0 0.0501730023
C  C79  1  0.49130000  0.91550000  0.97200000  1.0 0.0501730023
C  C80  1  0.50870000  0.08450000  0.97200000  1.0 0.0501730023
C  C81  1  0.82930000  0.48330000  0.94380000  1.0 -0.128711194
C  C82  1  0.17070000  0.51670000  0.94380000  1.0 -0.128711194
C  C83  1  0.51670000  0.17070000  0.05620000  1.0 -0.128711194
C  C84  1  0.48330000  0.82930000  0.05620000  1.0 -0.128711194
C  C85  1  0.17070000  0.51670000  0.05620000  1.0 -0.128711194
C  C86  1  0.82930000  0.48330000  0.05620000  1.0 -0.128711194
C  C87  1  0.48330000  0.82930000  0.94380000  1.0 -0.128711194
C  C88  1  0.51670000  0.17070000  0.94380000  1.0 -0.128711194
C  C89  1  0.74820000  0.47800000  0.97050000  1.0 -0.1000863158
C  C90  1  0.25180000  0.52200000  0.97050000  1.0 -0.1000863158
C  C91  1  0.52200000  0.25180000  0.02950000  1.0 -0.1000863158
C  C92  1  0.47800000  0.74820000  0.02950000  1.0 -0.1000863158
C  C93  1  0.25180000  0.52200000  0.02950000  1.0 -0.1000863158
C  C94  1  0.74820000  0.47800000  0.02950000  1.0 -0.1000863158
C  C95  1  0.47800000  0.74820000  0.97050000  1.0 -0.1000863158
C  C96  1  0.52200000  0.25180000  0.97050000  1.0 -0.1000863158
N  N1  1  0.01170000  0.43190000  0.85430000  1.0 -0.4044570478
N  N2  1  0.98830000  0.56810000  0.85430000  1.0 -0.4044570478
N  N3  1  0.56810000  0.98830000  0.14570000  1.0 -0.4044570478
N  N4  1  0.43190000  0.01170000  0.14570000  1.0 -0.4044570478
N  N5  1  0.98830000  0.56810000  0.14570000  1.0 -0.4044570478
N  N6  1  0.01170000  0.43190000  0.14570000  1.0 -0.4044570478
N  N7  1  0.43190000  0.01170000  0.85430000  1.0 -0.4044570478
N  N8  1  0.56810000  0.98830000  0.85430000  1.0 -0.4044570478
O  O1  1  0.03236000  0.13464000  0.64360000  1.0 -0.5775638299
O  O2  1  0.96764000  0.86536000  0.64360000  1.0 -0.5775638299
O  O3  1  0.86536000  0.96764000  0.35640000  1.0 -0.5775638299
O  O4  1  0.13464000  0.03236000  0.35640000  1.0 -0.5775638299
O  O5  1  0.96764000  0.86536000  0.35640000  1.0 -0.5775638299
O  O6  1  0.03236000  0.13464000  0.35640000  1.0 -0.5775638299
O  O7  1  0.13464000  0.03236000  0.64360000  1.0 -0.5775638299
O  O8  1  0.86536000  0.96764000  0.64360000  1.0 -0.5775638299
O  O9  1  0.06140000  0.25480000  0.58255000  1.0 -0.6033101159
O  O10  1  0.93860000  0.74520000  0.58255000  1.0 -0.6033101159
O  O11  1  0.74520000  0.93860000  0.41745000  1.0 -0.6033101159
O  O12  1  0.25480000  0.06140000  0.41745000  1.0 -0.6033101159
O  O13  1  0.93860000  0.74520000  0.41745000  1.0 -0.6033101159
O  O14  1  0.06140000  0.25480000  0.41745000  1.0 -0.6033101159
O  O15  1  0.25480000  0.06140000  0.58255000  1.0 -0.6033101159
O  O16  1  0.74520000  0.93860000  0.58255000  1.0 -0.6033101159
O  O17  1  0.11720000  0.11720000  0.54860000  1.0 -1.1808596628
O  O18  1  0.88280000  0.88280000  0.54860000  1.0 -1.1808596628
O  O19  1  0.88280000  0.88280000  0.45140000  1.0 -1.1808596628
O  O20  1  0.11720000  0.11720000  0.45140000  1.0 -1.1808596628
O  O21  1  0.06910000  0.93090000  0.54820000  1.0 -1.2017788964
O  O22  1  0.93090000  0.06910000  0.54820000  1.0 -1.2017788964
O  O23  1  0.06910000  0.93090000  0.45180000  1.0 -1.2017788964
O  O24  1  0.93090000  0.06910000  0.45180000  1.0 -1.2017788964
