# DDEC6 charges by PACMAN v1.1 (https://github.com/mtap-research/PACMAN-charge/)
data_VIMZUQ02_ASR_pacman
_symmetry_space_group_name_H-M   'P 1'
_cell_length_a   15.17500000
_cell_length_b   15.17500000
_cell_length_c   24.69800000
_cell_angle_alpha   90.00000000
_cell_angle_beta   90.00000000
_cell_angle_gamma   122.44000000
_symmetry_Int_Tables_number   1
_chemical_formula_structural   Zr3H24C48(NO4)4
_chemical_formula_sum   'Zr6 H48 C96 N8 O32'
_cell_volume   4799.96176037
_cell_formula_units_Z   2
loop_
 _symmetry_equiv_pos_site_id
 _symmetry_equiv_pos_as_xyz
  1  'x, y, z'
loop_
 _atom_site_type_symbol
 _atom_site_label
 _atom_site_symmetry_multiplicity
 _atom_site_fract_x
 _atom_site_fract_y
 _atom_site_fract_z
 _atom_site_occupancy
 _atom_site_charge
Zr  Zr1  1  0.00000000  0.00000000  0.59905000  1.0 2.3465632397
Zr  Zr2  1  0.00000000  0.00000000  0.40095000  1.0 2.3465632397
Zr  Zr3  1  0.94571000  0.81249000  0.50000000  1.0 2.4954462248
Zr  Zr4  1  0.05429000  0.18751000  0.50000000  1.0 2.4911241728
Zr  Zr5  1  0.18751000  0.05429000  0.50000000  1.0 2.4911241728
Zr  Zr6  1  0.81249000  0.94571000  0.50000000  1.0 2.4911241728
H  H1  1  0.96778000  0.27313000  0.79608000  1.0 0.1281363516
H  H2  1  0.03222000  0.72688000  0.79608000  1.0 0.1281363516
H  H3  1  0.72688000  0.03222000  0.20392000  1.0 0.1281363516
H  H4  1  0.27313000  0.96778000  0.20392000  1.0 0.1281363516
H  H5  1  0.03222000  0.72688000  0.20392000  1.0 0.1281363516
H  H6  1  0.96778000  0.27313000  0.20392000  1.0 0.1281363516
H  H7  1  0.27313000  0.96778000  0.79608000  1.0 0.1281363516
H  H8  1  0.72688000  0.03222000  0.79608000  1.0 0.1281363516
H  H9  1  0.11402000  0.42542000  0.63398000  1.0 0.1281363516
H  H10  1  0.88598000  0.57458000  0.63398000  1.0 0.1281363516
H  H11  1  0.57458000  0.88598000  0.36602000  1.0 0.1281363516
H  H12  1  0.42542000  0.11402000  0.36602000  1.0 0.1281363516
H  H13  1  0.88598000  0.57458000  0.36602000  1.0 0.1281363516
H  H14  1  0.11402000  0.42542000  0.36602000  1.0 0.1281363516
H  H15  1  0.42542000  0.11402000  0.63398000  1.0 0.1281363516
H  H16  1  0.57458000  0.88598000  0.63398000  1.0 0.1281363516
H  H17  1  0.98830000  0.17640000  0.73105000  1.0 0.1184179496
H  H18  1  0.01170000  0.82360000  0.73105000  1.0 0.1184179496
H  H19  1  0.82360000  0.01170000  0.26895000  1.0 0.1184179496
H  H20  1  0.17640000  0.98830000  0.26895000  1.0 0.1184179496
H  H21  1  0.01170000  0.82360000  0.26895000  1.0 0.1184179496
H  H22  1  0.98830000  0.17640000  0.26895000  1.0 0.1184179496
H  H23  1  0.17640000  0.98830000  0.73105000  1.0 0.1184179496
H  H24  1  0.82360000  0.01170000  0.73105000  1.0 0.1184179496
H  H25  1  0.09497000  0.51805000  0.69761000  1.0 0.1184179496
H  H26  1  0.90503000  0.48195000  0.69761000  1.0 0.1184179496
H  H27  1  0.48195000  0.90503000  0.30239000  1.0 0.1184179496
H  H28  1  0.51805000  0.09497000  0.30239000  1.0 0.1184179496
H  H29  1  0.90503000  0.48195000  0.30239000  1.0 0.1184179496
H  H30  1  0.09497000  0.51805000  0.30239000  1.0 0.1184179496
H  H31  1  0.51805000  0.09497000  0.69761000  1.0 0.1184179496
H  H32  1  0.48195000  0.90503000  0.69761000  1.0 0.1184179496
H  H33  1  0.18655000  0.54321000  0.90851000  1.0 0.1281363516
H  H34  1  0.81345000  0.45679000  0.90851000  1.0 0.1281363516
H  H35  1  0.45679000  0.81345000  0.09149000  1.0 0.1281363516
H  H36  1  0.54321000  0.18655000  0.09149000  1.0 0.1281363516
H  H37  1  0.81345000  0.45679000  0.09149000  1.0 0.1281363516
H  H38  1  0.18655000  0.54321000  0.09149000  1.0 0.1281363516
H  H39  1  0.54321000  0.18655000  0.90851000  1.0 0.1281363516
H  H40  1  0.45679000  0.81345000  0.90851000  1.0 0.1281363516
H  H41  1  0.32367000  0.54233000  0.94908000  1.0 0.1016805481
H  H42  1  0.67633000  0.45767000  0.94908000  1.0 0.1016805481
H  H43  1  0.45767000  0.67633000  0.05092000  1.0 0.1016805481
H  H44  1  0.54233000  0.32367000  0.05092000  1.0 0.1016805481
H  H45  1  0.67633000  0.45767000  0.05092000  1.0 0.1016805481
H  H46  1  0.32367000  0.54233000  0.05092000  1.0 0.1016805481
H  H47  1  0.54233000  0.32367000  0.94908000  1.0 0.1016805481
H  H48  1  0.45767000  0.67633000  0.94908000  1.0 0.1016805481
C  C1  1  0.99760000  0.30480000  0.76310000  1.0 -0.12399529
C  C2  1  0.00240000  0.69520000  0.76310000  1.0 -0.12399529
C  C3  1  0.69520000  0.00240000  0.23690000  1.0 -0.12399529
C  C4  1  0.30480000  0.99760000  0.23690000  1.0 -0.12399529
C  C5  1  0.00240000  0.69520000  0.23690000  1.0 -0.12399529
C  C6  1  0.99760000  0.30480000  0.23690000  1.0 -0.12399529
C  C7  1  0.30480000  0.99760000  0.76310000  1.0 -0.12399529
C  C8  1  0.69520000  0.00240000  0.76310000  1.0 -0.12399529
C  C9  1  0.05180000  0.29500000  0.67470000  1.0 -0.0408346154
C  C10  1  0.94820000  0.70500000  0.67470000  1.0 -0.0408346154
C  C11  1  0.70500000  0.94820000  0.32530000  1.0 -0.0408346154
C  C12  1  0.29500000  0.05180000  0.32530000  1.0 -0.0408346154
C  C13  1  0.94820000  0.70500000  0.32530000  1.0 -0.0408346154
C  C14  1  0.05180000  0.29500000  0.32530000  1.0 -0.0408346154
C  C15  1  0.29500000  0.05180000  0.67470000  1.0 -0.0408346154
C  C16  1  0.70500000  0.94820000  0.67470000  1.0 -0.0408346154
C  C17  1  0.08350000  0.39390000  0.66690000  1.0 -0.086857192
C  C18  1  0.91650000  0.60610000  0.66690000  1.0 -0.086857192
C  C19  1  0.60610000  0.91650000  0.33310000  1.0 -0.086857192
C  C20  1  0.39390000  0.08350000  0.33310000  1.0 -0.086857192
C  C21  1  0.91650000  0.60610000  0.33310000  1.0 -0.086857192
C  C22  1  0.08350000  0.39390000  0.33310000  1.0 -0.086857192
C  C23  1  0.39390000  0.08350000  0.66690000  1.0 -0.086857192
C  C24  1  0.60610000  0.91650000  0.66690000  1.0 -0.086857192
C  C25  1  0.02630000  0.40250000  0.75700000  1.0 0.0805025968
C  C26  1  0.97370000  0.59750000  0.75700000  1.0 0.0805025968
C  C27  1  0.59750000  0.97370000  0.24300000  1.0 0.0805025968
C  C28  1  0.40250000  0.02630000  0.24300000  1.0 0.0805025968
C  C29  1  0.97370000  0.59750000  0.24300000  1.0 0.0805025968
C  C30  1  0.02630000  0.40250000  0.24300000  1.0 0.0805025968
C  C31  1  0.40250000  0.02630000  0.75700000  1.0 0.0805025968
C  C32  1  0.59750000  0.97370000  0.75700000  1.0 0.0805025968
C  C33  1  0.00000000  0.50000000  0.93650000  1.0 0.1840449955
C  C34  1  0.50000000  0.00000000  0.06350000  1.0 0.1840449955
C  C35  1  0.00000000  0.50000000  0.06350000  1.0 0.1840449955
C  C36  1  0.50000000  0.00000000  0.93650000  1.0 0.1840449955
C  C37  1  0.05300000  0.22520000  0.63270000  1.0 0.6400750849
C  C38  1  0.94700000  0.77480000  0.63270000  1.0 0.6400750849
C  C39  1  0.77480000  0.94700000  0.36730000  1.0 0.6400750849
C  C40  1  0.22520000  0.05300000  0.36730000  1.0 0.6400750849
C  C41  1  0.94700000  0.77480000  0.36730000  1.0 0.6400750849
C  C42  1  0.05300000  0.22520000  0.36730000  1.0 0.6400750849
C  C43  1  0.22520000  0.05300000  0.63270000  1.0 0.6400750849
C  C44  1  0.77480000  0.94700000  0.63270000  1.0 0.6400750849
C  C45  1  0.00000000  0.50000000  0.88410000  1.0 0.0805025968
C  C46  1  0.50000000  0.00000000  0.11590000  1.0 0.0805025968
C  C47  1  0.00000000  0.50000000  0.11590000  1.0 0.0805025968
C  C48  1  0.50000000  0.00000000  0.88410000  1.0 0.0805025968
C  C49  1  0.00850000  0.24510000  0.72450000  1.0 -0.086857192
C  C50  1  0.99150000  0.75490000  0.72450000  1.0 -0.086857192
C  C51  1  0.75490000  0.99150000  0.27550000  1.0 -0.086857192
C  C52  1  0.24510000  0.00850000  0.27550000  1.0 -0.086857192
C  C53  1  0.99150000  0.75490000  0.27550000  1.0 -0.086857192
C  C54  1  0.00850000  0.24510000  0.27550000  1.0 -0.086857192
C  C55  1  0.24510000  0.00850000  0.72450000  1.0 -0.086857192
C  C56  1  0.75490000  0.99150000  0.72450000  1.0 -0.086857192
C  C57  1  0.07270000  0.44890000  0.70450000  1.0 -0.1484057278
C  C58  1  0.92730000  0.55110000  0.70450000  1.0 -0.1484057278
C  C59  1  0.55110000  0.92730000  0.29550000  1.0 -0.1484057278
C  C60  1  0.44890000  0.07270000  0.29550000  1.0 -0.1484057278
C  C61  1  0.92730000  0.55110000  0.29550000  1.0 -0.1484057278
C  C62  1  0.07270000  0.44890000  0.29550000  1.0 -0.1484057278
C  C63  1  0.44890000  0.07270000  0.70450000  1.0 -0.1484057278
C  C64  1  0.55110000  0.92730000  0.70450000  1.0 -0.1484057278
C  C65  1  0.18130000  0.53070000  0.94560000  1.0 -0.2184244868
C  C66  1  0.81870000  0.46930000  0.94560000  1.0 -0.2184244868
C  C67  1  0.46930000  0.81870000  0.05440000  1.0 -0.2184244868
C  C68  1  0.53070000  0.18130000  0.05440000  1.0 -0.2184244868
C  C69  1  0.81870000  0.46930000  0.05440000  1.0 -0.2184244868
C  C70  1  0.18130000  0.53070000  0.05440000  1.0 -0.2184244868
C  C71  1  0.53070000  0.18130000  0.94560000  1.0 -0.2184244868
C  C72  1  0.46930000  0.81870000  0.94560000  1.0 -0.2184244868
C  C73  1  0.26990000  0.53810000  0.96940000  1.0 -0.0974840837
C  C74  1  0.73010000  0.46190000  0.96940000  1.0 -0.0974840837
C  C75  1  0.46190000  0.73010000  0.03060000  1.0 -0.0974840837
C  C76  1  0.53810000  0.26990000  0.03060000  1.0 -0.0974840837
C  C77  1  0.73010000  0.46190000  0.03060000  1.0 -0.0974840837
C  C78  1  0.26990000  0.53810000  0.03060000  1.0 -0.0974840837
C  C79  1  0.53810000  0.26990000  0.96940000  1.0 -0.0974840837
C  C80  1  0.46190000  0.73010000  0.96940000  1.0 -0.0974840837
C  C81  1  0.08450000  0.50750000  0.97010000  1.0 0.1587357029
C  C82  1  0.91550000  0.49250000  0.97010000  1.0 0.1587357029
C  C83  1  0.49250000  0.91550000  0.02990000  1.0 0.1587357029
C  C84  1  0.50750000  0.08450000  0.02990000  1.0 0.1587357029
C  C85  1  0.91550000  0.49250000  0.02990000  1.0 0.1587357029
C  C86  1  0.08450000  0.50750000  0.02990000  1.0 0.1587357029
C  C87  1  0.50750000  0.08450000  0.97010000  1.0 0.1587357029
C  C88  1  0.49250000  0.91550000  0.97010000  1.0 0.1587357029
C  C89  1  0.00920000  0.46360000  0.79810000  1.0 0.0576228957
C  C90  1  0.99080000  0.53640000  0.79810000  1.0 0.0576228957
C  C91  1  0.53640000  0.99080000  0.20190000  1.0 0.0576228957
C  C92  1  0.46360000  0.00920000  0.20190000  1.0 0.0576228957
C  C93  1  0.99080000  0.53640000  0.20190000  1.0 0.0576228957
C  C94  1  0.00920000  0.46360000  0.20190000  1.0 0.0576228957
C  C95  1  0.46360000  0.00920000  0.79810000  1.0 0.0576228957
C  C96  1  0.53640000  0.99080000  0.79810000  1.0 0.0576228957
N  N1  1  0.01590000  0.43190000  0.85410000  1.0 -0.3130130869
N  N2  1  0.98410000  0.56810000  0.85410000  1.0 -0.3154028457
N  N3  1  0.56810000  0.98410000  0.14590000  1.0 -0.3130130869
N  N4  1  0.43190000  0.01590000  0.14590000  1.0 -0.3130130869
N  N5  1  0.98410000  0.56810000  0.14590000  1.0 -0.3154028457
N  N6  1  0.01590000  0.43190000  0.14590000  1.0 -0.3130130869
N  N7  1  0.43190000  0.01590000  0.85410000  1.0 -0.3130130869
N  N8  1  0.56810000  0.98410000  0.85410000  1.0 -0.3130130869
O  O1  1  0.04150000  0.14210000  0.64460000  1.0 -0.546424995
O  O2  1  0.95850000  0.85790000  0.64460000  1.0 -0.546424995
O  O3  1  0.85790000  0.95850000  0.35540000  1.0 -0.546424995
O  O4  1  0.14210000  0.04150000  0.35540000  1.0 -0.546424995
O  O5  1  0.95850000  0.85790000  0.35540000  1.0 -0.546424995
O  O6  1  0.04150000  0.14210000  0.35540000  1.0 -0.546424995
O  O7  1  0.14210000  0.04150000  0.64460000  1.0 -0.546424995
O  O8  1  0.85790000  0.95850000  0.64460000  1.0 -0.546424995
O  O9  1  0.07590000  0.26290000  0.58390000  1.0 -0.6199608546
O  O10  1  0.92410000  0.73710000  0.58390000  1.0 -0.6199608546
O  O11  1  0.73710000  0.92410000  0.41610000  1.0 -0.6199608546
O  O12  1  0.26290000  0.07590000  0.41610000  1.0 -0.6199608546
O  O13  1  0.92410000  0.73710000  0.41610000  1.0 -0.6199608546
O  O14  1  0.07590000  0.26290000  0.41610000  1.0 -0.6199608546
O  O15  1  0.26290000  0.07590000  0.58390000  1.0 -0.6199608546
O  O16  1  0.73710000  0.92410000  0.58390000  1.0 -0.6199608546
O  O17  1  0.87620000  0.87620000  0.54860000  1.0 -1.1824010414
O  O18  1  0.12380000  0.12380000  0.54860000  1.0 -1.1824010414
O  O19  1  0.12380000  0.12380000  0.45140000  1.0 -1.1824010414
O  O20  1  0.87620000  0.87620000  0.45140000  1.0 -1.1824010414
O  O21  1  0.06770000  0.93230000  0.54850000  1.0 -1.2057277959
O  O22  1  0.93230000  0.06770000  0.54850000  1.0 -1.2039422792
O  O23  1  0.06770000  0.93230000  0.45150000  1.0 -1.2057277959
O  O24  1  0.93230000  0.06770000  0.45150000  1.0 -1.2039422792
O  O25  1  0.05890000  0.58710000  0.96250000  1.0 -0.1484057278
O  O26  1  0.94110000  0.41290000  0.96250000  1.0 -0.1484057278
O  O27  1  0.41290000  0.94110000  0.03750000  1.0 -0.1484057278
O  O28  1  0.58710000  0.05890000  0.03750000  1.0 -0.1484057278
O  O29  1  0.94110000  0.41290000  0.03750000  1.0 -0.1484057278
O  O30  1  0.05890000  0.58710000  0.03750000  1.0 -0.1484057278
O  O31  1  0.58710000  0.05890000  0.96250000  1.0 -0.1484057278
O  O32  1  0.41290000  0.94110000  0.96250000  1.0 -0.1484057278
