# DDEC6 charges by PACMAN v1.1 (https://github.com/mtap-research/PACMAN-charge/)
data_VINHIL_FSR_pacman
_symmetry_space_group_name_H-M   'P 1'
_cell_length_a   15.66350000
_cell_length_b   15.66350000
_cell_length_c   17.26930000
_cell_angle_alpha   82.64430000
_cell_angle_beta   97.35570000
_cell_angle_gamma   51.68590000
_symmetry_Int_Tables_number   1
_chemical_formula_structural   Mn2Cr2FeH33C41N7O27
_chemical_formula_sum   'Mn4 Cr4 Fe2 H66 C82 N14 O54'
_cell_volume   3177.78269304
_cell_formula_units_Z   2
loop_
 _symmetry_equiv_pos_site_id
 _symmetry_equiv_pos_as_xyz
  1  'x, y, z'
loop_
 _atom_site_type_symbol
 _atom_site_label
 _atom_site_symmetry_multiplicity
 _atom_site_fract_x
 _atom_site_fract_y
 _atom_site_fract_z
 _atom_site_occupancy
 _atom_site_charge
Mn  Mn1  1  0.91966000  0.10360000  0.50254000  1.0 0.9339243084
Mn  Mn2  1  0.89640000  0.08034000  0.00254000  1.0 0.9339243084
Mn  Mn3  1  0.59859000  0.82965000  0.34633000  1.0 0.9362753838
Mn  Mn4  1  0.17035000  0.40141000  0.84633000  1.0 0.9362753838
Cr  Cr1  1  0.17588000  0.97740000  0.28915000  1.0 1.3358652502
Cr  Cr2  1  0.02260000  0.82412000  0.78915000  1.0 1.3358652502
Cr  Cr3  1  0.91581000  0.43959000  0.57724000  1.0 1.3260397821
Cr  Cr4  1  0.56041000  0.08419000  0.07724000  1.0 1.3260397821
Fe  Fe1  1  0.45568000  0.76798000  0.78168000  1.0 0.5484984427
Fe  Fe2  1  0.23202000  0.54432000  0.28168000  1.0 0.5448154121
H  H1  1  0.30650000  0.91150000  0.53920000  1.0 0.1117169389
H  H2  1  0.41920000  0.86020000  0.51090000  1.0 0.1117169389
H  H3  1  0.49820000  0.87740000  0.62810000  1.0 0.1117169389
H  H4  1  0.37770000  0.99830000  0.58200000  1.0 0.1117169389
H  H5  1  0.23980000  0.07500000  0.64330000  1.0 0.1117169389
H  H6  1  0.10110000  0.17930000  0.71720000  1.0 0.1304914762
H  H7  1  0.02830000  0.18550000  0.83020000  1.0 0.1117169389
H  H8  1  0.12270000  0.01810000  0.93060000  1.0 0.1304914762
H  H9  1  0.36890000  0.74570000  0.92170000  1.0 0.139256075
H  H10  1  0.25120000  0.79440000  0.94080000  1.0 0.1605128519
H  H11  1  0.33000000  0.81300000  0.98970000  1.0 0.1605128519
H  H12  1  0.58620000  0.70400000  0.58820000  1.0 0.1117169389
H  H13  1  0.55950000  0.62610000  0.56370000  1.0 0.1117169389
H  H14  1  0.59760000  0.54360000  0.70550000  1.0 0.0940782189
H  H15  1  0.70620000  0.52700000  0.69140000  1.0 0.1210386166
H  H16  1  0.75790000  0.60610000  0.75400000  1.0 0.1210386166
H  H17  1  0.83190000  0.67730000  0.82670000  1.0 0.139256075
H  H18  1  0.81210000  0.80010000  0.90350000  1.0 0.1304914762
H  H19  1  0.64440000  0.91240000  0.94320000  1.0 0.1488492995
H  H20  1  0.40970000  0.92250000  0.88730000  1.0 0.139256075
H  H21  1  0.42520000  0.01380000  0.89050000  1.0 0.1605128519
H  H22  1  0.47820000  0.91360000  0.96950000  1.0 0.1605128519
H  H23  1  0.41550000  0.64190000  0.60370000  1.0 0.1012375061
H  H24  1  0.32200000  0.75780000  0.53450000  1.0 0.1117169389
H  H25  1  0.23680000  0.85340000  0.63540000  1.0 0.1117169389
H  H26  1  0.24140000  0.74720000  0.64300000  1.0 0.1117169389
H  H27  1  0.33610000  0.61570000  0.75520000  1.0 0.1117169389
H  H28  1  0.41910000  0.47550000  0.88770000  1.0 0.1488492995
H  H29  1  0.54630000  0.38270000  0.01650000  1.0 0.1210386166
H  H30  1  0.65300000  0.43020000  0.05610000  1.0 0.139256075
H  H31  1  0.63020000  0.65620000  0.94030000  1.0 0.139256075
H  H32  1  0.73230000  0.52910000  0.99260000  1.0 0.1488492995
H  H33  1  0.63650000  0.61650000  0.03250000  1.0 0.1488492995
H  H34  1  0.08850000  0.69350000  0.03920000  1.0 0.1117169389
H  H35  1  0.13980000  0.58080000  0.01090000  1.0 0.1117169389
H  H36  1  0.12260000  0.50180000  0.12810000  1.0 0.1117169389
H  H37  1  0.00170000  0.62230000  0.08200000  1.0 0.1117169389
H  H38  1  0.92500000  0.76020000  0.14330000  1.0 0.1117169389
H  H39  1  0.82070000  0.89890000  0.21720000  1.0 0.1304914762
H  H40  1  0.81450000  0.97170000  0.33020000  1.0 0.1117169389
H  H41  1  0.98190000  0.87730000  0.43060000  1.0 0.1304914762
H  H42  1  0.25430000  0.63110000  0.42170000  1.0 0.139256075
H  H43  1  0.20560000  0.74880000  0.44080000  1.0 0.1605128519
H  H44  1  0.18700000  0.67000000  0.48970000  1.0 0.1605128519
H  H45  1  0.29600000  0.41380000  0.08820000  1.0 0.1117169389
H  H46  1  0.37390000  0.44050000  0.06370000  1.0 0.1117169389
H  H47  1  0.45640000  0.40240000  0.20550000  1.0 0.0940782189
H  H48  1  0.47300000  0.29380000  0.19140000  1.0 0.1210386166
H  H49  1  0.39390000  0.24210000  0.25400000  1.0 0.1210386166
H  H50  1  0.32270000  0.16810000  0.32670000  1.0 0.139256075
H  H51  1  0.19990000  0.18790000  0.40350000  1.0 0.1304914762
H  H52  1  0.08760000  0.35560000  0.44320000  1.0 0.1488492995
H  H53  1  0.07750000  0.59030000  0.38730000  1.0 0.139256075
H  H54  1  0.98620000  0.57480000  0.39050000  1.0 0.1605128519
H  H55  1  0.08640000  0.52180000  0.46950000  1.0 0.1605128519
H  H56  1  0.35810000  0.58450000  0.10370000  1.0 0.1012375061
H  H57  1  0.24220000  0.67800000  0.03450000  1.0 0.1117169389
H  H58  1  0.14660000  0.76320000  0.13540000  1.0 0.1117169389
H  H59  1  0.25280000  0.75860000  0.14300000  1.0 0.1117169389
H  H60  1  0.38430000  0.66390000  0.25520000  1.0 0.1117169389
H  H61  1  0.52450000  0.58090000  0.38770000  1.0 0.1488492995
H  H62  1  0.61730000  0.45370000  0.51650000  1.0 0.1210386166
H  H63  1  0.56980000  0.34700000  0.55610000  1.0 0.139256075
H  H64  1  0.34380000  0.36980000  0.44030000  1.0 0.139256075
H  H65  1  0.47090000  0.26770000  0.49260000  1.0 0.1488492995
H  H66  1  0.38350000  0.36350000  0.53250000  1.0 0.1488492995
C  C1  1  0.00620000  0.09960000  0.36000000  1.0 0.4781139552
C  C2  1  0.90040000  0.99380000  0.86000000  1.0 0.4781139552
C  C3  1  0.09690000  0.98150000  0.42080000  1.0 0.4549194187
C  C4  1  0.01850000  0.90310000  0.92080000  1.0 0.4549194187
C  C5  1  0.36440000  0.95500000  0.33380000  1.0 0.4687766393
C  C6  1  0.04500000  0.63560000  0.83380000  1.0 0.4687766393
C  C7  1  0.40680000  0.83960000  0.32020000  1.0 0.4627742528
C  C8  1  0.16040000  0.59320000  0.82020000  1.0 0.4627742528
C  C9  1  0.79950000  0.60470000  0.43360000  1.0 0.4687766393
C  C10  1  0.39530000  0.20050000  0.93360000  1.0 0.4687766393
C  C11  1  0.74320000  0.66300000  0.49980000  1.0 0.4687766393
C  C12  1  0.33700000  0.25680000  0.99980000  1.0 0.4687766393
C  C13  1  0.03850000  0.98290000  0.17260000  1.0 0.4446305543
C  C14  1  0.01710000  0.96150000  0.67260000  1.0 0.4446305543
C  C15  1  0.07200000  0.04400000  0.13050000  1.0 0.4781139552
C  C16  1  0.95600000  0.92800000  0.63050000  1.0 0.4781139552
C  C17  1  0.56290000  0.93450000  0.18010000  1.0 0.4781139552
C  C18  1  0.06550000  0.43710000  0.68010000  1.0 0.4781139552
C  C19  1  0.60320000  0.98160000  0.23510000  1.0 0.4627742528
C  C20  1  0.01840000  0.39680000  0.73510000  1.0 0.4627742528
C  C21  1  0.86470000  0.30930000  0.53990000  1.0 0.4781139552
C  C22  1  0.69070000  0.13530000  0.03990000  1.0 0.4781139552
C  C23  1  0.99180000  0.24120000  0.54340000  1.0 0.4627742528
C  C24  1  0.75880000  0.00820000  0.04340000  1.0 0.4627742528
C  C25  1  0.68770000  0.23130000  0.36990000  1.0 0.2073765978
C  C26  1  0.76870000  0.31230000  0.86990000  1.0 0.2073765978
C  C27  1  0.72140000  0.23340000  0.21630000  1.0 0.0037219248
C  C28  1  0.76660000  0.27860000  0.71630000  1.0 0.0061428317
C  C29  1  0.38930000  0.86450000  0.55880000  1.0 -0.1251448483
C  C30  1  0.41580000  0.92000000  0.61190000  1.0 -0.0989814788
C  C31  1  0.28100000  0.00900000  0.68710000  1.0 0.0580869997
C  C32  1  0.23460000  0.01280000  0.75650000  1.0 0.1840546786
C  C33  1  0.13820000  0.11280000  0.75960000  1.0 -0.1690092027
C  C34  1  0.09440000  0.11640000  0.82580000  1.0 -0.0208182456
C  C35  1  0.14940000  0.01780000  0.88410000  1.0 -0.1902582735
C  C36  1  0.24620000  0.91540000  0.87500000  1.0 0.3464556843
C  C37  1  0.30400000  0.80800000  0.93710000  1.0 -0.529122898
C  C38  1  0.55450000  0.66790000  0.60370000  1.0 -0.1214962318
C  C39  1  0.62550000  0.58350000  0.68980000  1.0 -0.0989814788
C  C40  1  0.68860000  0.65580000  0.76750000  1.0 0.0580869997
C  C41  1  0.67450000  0.73390000  0.81630000  1.0 0.1685621947
C  C42  1  0.76350000  0.72810000  0.84100000  1.0 -0.1902582735
C  C43  1  0.75320000  0.79800000  0.88760000  1.0 -0.0316230521
C  C44  1  0.65440000  0.86440000  0.91010000  1.0 -0.1982281819
C  C45  1  0.57000000  0.86100000  0.88450000  1.0 0.3094559073
C  C46  1  0.46100000  0.93420000  0.91030000  1.0 -0.5083628784
C  C47  1  0.36770000  0.72490000  0.59150000  1.0 -0.1214962318
C  C48  1  0.28780000  0.77000000  0.64870000  1.0 -0.0932456047
C  C49  1  0.37590000  0.63910000  0.77530000  1.0 0.0580869997
C  C50  1  0.45440000  0.58040000  0.85810000  1.0 0.2014781222
C  C51  1  0.46320000  0.49500000  0.90640000  1.0 -0.1982281819
C  C52  1  0.53780000  0.44080000  0.98140000  1.0 -0.0208182456
C  C53  1  0.59880000  0.47020000  0.00480000  1.0 -0.210016647
C  C54  1  0.58440000  0.55920000  0.95530000  1.0 0.3387230545
C  C55  1  0.65170000  0.59310000  0.98250000  1.0 -0.5019787043
C  C56  1  0.13550000  0.61070000  0.05880000  1.0 -0.1251448483
C  C57  1  0.08000000  0.58420000  0.11190000  1.0 -0.0989814788
C  C58  1  0.99100000  0.71900000  0.18710000  1.0 0.0580869997
C  C59  1  0.98720000  0.76540000  0.25650000  1.0 0.1840546786
C  C60  1  0.88720000  0.86180000  0.25960000  1.0 -0.1690092027
C  C61  1  0.88360000  0.90560000  0.32580000  1.0 -0.0208182456
C  C62  1  0.98220000  0.85060000  0.38410000  1.0 -0.1902582735
C  C63  1  0.08460000  0.75380000  0.37500000  1.0 0.3464556843
C  C64  1  0.19200000  0.69600000  0.43710000  1.0 -0.529122898
C  C65  1  0.33210000  0.44550000  0.10370000  1.0 -0.1214962318
C  C66  1  0.41650000  0.37450000  0.18980000  1.0 -0.0989814788
C  C67  1  0.34420000  0.31140000  0.26750000  1.0 0.0580869997
C  C68  1  0.26610000  0.32550000  0.31630000  1.0 0.1685621947
C  C69  1  0.27190000  0.23650000  0.34100000  1.0 -0.1902582735
C  C70  1  0.20200000  0.24680000  0.38760000  1.0 -0.0316230521
C  C71  1  0.13560000  0.34560000  0.41010000  1.0 -0.1982281819
C  C72  1  0.13900000  0.43000000  0.38450000  1.0 0.3094559073
C  C73  1  0.06580000  0.53900000  0.41030000  1.0 -0.5083628784
C  C74  1  0.27510000  0.63230000  0.09150000  1.0 -0.1214962318
C  C75  1  0.23000000  0.71220000  0.14870000  1.0 -0.0932456047
C  C76  1  0.36090000  0.62410000  0.27530000  1.0 0.0580869997
C  C77  1  0.41960000  0.54560000  0.35810000  1.0 0.2014781222
C  C78  1  0.50500000  0.53680000  0.40640000  1.0 -0.1982281819
C  C79  1  0.55920000  0.46220000  0.48140000  1.0 -0.0208182456
C  C80  1  0.52980000  0.40120000  0.50480000  1.0 -0.210016647
C  C81  1  0.44080000  0.41560000  0.45530000  1.0 0.3387230545
C  C82  1  0.40690000  0.34830000  0.48250000  1.0 -0.5019787043
N  N1  1  0.43750000  0.75410000  0.60200000  1.0 -0.0672282741
N  N2  1  0.37480000  0.91980000  0.68440000  1.0 -0.1795658559
N  N3  1  0.29018000  0.91338000  0.81240000  1.0 -0.3033612385
N  N4  1  0.60930000  0.65570000  0.74430000  1.0 -0.1690092027
N  N5  1  0.57874000  0.79454000  0.83900000  1.0 -0.3033612385
N  N6  1  0.36217000  0.71957000  0.73210000  1.0 -0.1795658559
N  N7  1  0.51270000  0.61310000  0.88120000  1.0 -0.3190542996
N  N8  1  0.24590000  0.56250000  0.10200000  1.0 -0.0672282741
N  N9  1  0.08020000  0.62520000  0.18440000  1.0 -0.1795658559
N  N10  1  0.08662000  0.70982000  0.31240000  1.0 -0.3033612385
N  N11  1  0.34430000  0.39070000  0.24430000  1.0 -0.1690092027
N  N12  1  0.20546000  0.42126000  0.33900000  1.0 -0.3033612385
N  N13  1  0.28043000  0.63783000  0.23210000  1.0 -0.1795658559
N  N14  1  0.38690000  0.48730000  0.38120000  1.0 -0.3190542996
O  O1  1  0.91650000  0.16890000  0.37630000  1.0 -0.4516877547
O  O2  1  0.83110000  0.08350000  0.87630000  1.0 -0.4516877547
O  O3  1  0.07602000  0.96042000  0.48330000  1.0 -0.459488674
O  O4  1  0.03958000  0.92398000  0.98330000  1.0 -0.459488674
O  O5  1  0.03339000  0.11459000  0.29630000  1.0 -0.5019787043
O  O6  1  0.88541000  0.96661000  0.79630000  1.0 -0.5019787043
O  O7  1  0.18727000  0.91747000  0.40080000  1.0 -0.520589748
O  O8  1  0.08253000  0.81273000  0.90080000  1.0 -0.520589748
O  O9  1  0.26076000  0.02656000  0.32510000  1.0 -0.5083628784
O  O10  1  0.97344000  0.73924000  0.82510000  1.0 -0.5083628784
O  O11  1  0.32818000  0.83678000  0.29510000  1.0 -0.5482162625
O  O12  1  0.16322000  0.67182000  0.79510000  1.0 -0.5482162625
O  O13  1  0.43387000  0.96707000  0.35250000  1.0 -0.459488674
O  O14  1  0.03293000  0.56613000  0.85250000  1.0 -0.459488674
O  O15  1  0.50890000  0.76350000  0.33420000  1.0 -0.4434283664
O  O16  1  0.23650000  0.49110000  0.83420000  1.0 -0.4434283664
O  O17  1  0.75990000  0.66450000  0.36390000  1.0 -0.4516877547
O  O18  1  0.33550000  0.24010000  0.86390000  1.0 -0.4516877547
O  O19  1  0.66088000  0.76568000  0.47850000  1.0 -0.459488674
O  O20  1  0.23432000  0.33912000  0.97850000  1.0 -0.459488674
O  O21  1  0.88300000  0.50160000  0.45920000  1.0 -0.5083628784
O  O22  1  0.49840000  0.11700000  0.95920000  1.0 -0.5083628784
O  O23  1  0.78882000  0.59882000  0.57070000  1.0 -0.520589748
O  O24  1  0.40118000  0.21118000  0.07070000  1.0 -0.520589748
O  O25  1  0.82057000  0.26857000  0.52400000  1.0 -0.4700142831
O  O26  1  0.73143000  0.17943000  0.02400000  1.0 -0.4700142831
O  O27  1  0.04256000  0.15376000  0.52220000  1.0 -0.4516877547
O  O28  1  0.84624000  0.95744000  0.02220000  1.0 -0.4516877547
O  O29  1  0.09312000  0.92952000  0.24720000  1.0 -0.529122898
O  O30  1  0.07048000  0.90688000  0.74720000  1.0 -0.529122898
O  O31  1  0.14348000  0.04468000  0.17400000  1.0 -0.5019787043
O  O32  1  0.95532000  0.85652000  0.67400000  1.0 -0.5019787043
O  O33  1  0.96146000  0.98906000  0.13470000  1.0 -0.4434283664
O  O34  1  0.01094000  0.03854000  0.63470000  1.0 -0.4434283664
O  O35  1  0.03052000  0.08912000  0.05520000  1.0 -0.4934730023
O  O36  1  0.91088000  0.96948000  0.55520000  1.0 -0.4934730023
O  O37  1  0.55672000  0.86412000  0.21320000  1.0 -0.4516877547
O  O38  1  0.13588000  0.44328000  0.71320000  1.0 -0.4516877547
O  O39  1  0.62927000  0.94507000  0.30860000  1.0 -0.4434283664
O  O40  1  0.05493000  0.37073000  0.80860000  1.0 -0.4434283664
O  O41  1  0.53847000  0.97467000  0.10570000  1.0 -0.5019787043
O  O42  1  0.02533000  0.46153000  0.60570000  1.0 -0.5019787043
O  O43  1  0.60621000  0.05301000  0.19620000  1.0 -0.520589748
O  O44  1  0.94699000  0.39379000  0.69620000  1.0 -0.520589748
O  O45  1  0.81590000  0.40410000  0.55640000  1.0 -0.529122898
O  O46  1  0.59590000  0.18410000  0.05640000  1.0 -0.529122898
O  O47  1  0.03260000  0.28660000  0.56770000  1.0 -0.5559706182
O  O48  1  0.71340000  0.96740000  0.06770000  1.0 -0.5559706182
O  O49  1  0.77010000  0.13810000  0.43650000  1.0 -0.0208182456
O  O50  1  0.86190000  0.22990000  0.93650000  1.0 -0.0208182456
O  O51  1  0.75530000  0.17130000  0.42000000  1.0 0.1012375061
O  O52  1  0.82870000  0.24470000  0.92000000  1.0 0.1012375061
O  O53  1  0.66470000  0.30710000  0.27010000  1.0 -0.2503094092
O  O54  1  0.69290000  0.33530000  0.77010000  1.0 -0.2503094092
