# DDEC6 charges by PACMAN v1.1 (https://github.com/mtap-research/PACMAN-charge/)
data_VINHOR_FSR_pacman
_symmetry_space_group_name_H-M   'P 1'
_cell_length_a   18.43820000
_cell_length_b   16.23180000
_cell_length_c   15.42590000
_cell_angle_alpha   71.19040000
_cell_angle_beta   56.44170000
_cell_angle_gamma   52.36790000
_symmetry_Int_Tables_number   1
_chemical_formula_structural   Mn2Cr2FeH34C30(N2O7)4
_chemical_formula_sum   'Mn4 Cr4 Fe2 H68 C60 N16 O56'
_cell_volume   3046.01663221
_cell_formula_units_Z   2
loop_
 _symmetry_equiv_pos_site_id
 _symmetry_equiv_pos_as_xyz
  1  'x, y, z'
loop_
 _atom_site_type_symbol
 _atom_site_label
 _atom_site_symmetry_multiplicity
 _atom_site_fract_x
 _atom_site_fract_y
 _atom_site_fract_z
 _atom_site_occupancy
 _atom_site_charge
Mn  Mn1  1  0.66392000  0.49516000  0.85270000  1.0 0.9467245974
Mn  Mn2  1  0.98822000  0.85270000  0.49516000  1.0 0.9467245974
Mn  Mn3  1  0.39730000  0.26178000  0.58608000  1.0 0.9467245974
Mn  Mn4  1  0.75484000  0.58608000  0.26178000  1.0 0.9467245974
Cr  Cr1  1  0.82395000  0.26435000  0.52981000  1.0 1.3191936351
Cr  Cr2  1  0.38189000  0.52981000  0.26435000  1.0 1.3191936351
Cr  Cr3  1  0.72019000  0.86811000  0.42605000  1.0 1.3191936351
Cr  Cr4  1  0.98565000  0.42605000  0.86811000  1.0 1.3191936351
Fe  Fe1  1  0.14908000  0.35092000  0.35092000  1.0 0.3518997617
Fe  Fe2  1  0.89908000  0.10092000  0.10092000  1.0 0.3518997617
H  H1  1  0.68790000  0.66666667  0.65810000  1.0 0.1200084936
H  H2  1  0.98730000  0.65810000  0.66666667  1.0 0.1200084936
H  H3  1  0.59190000  0.26270000  0.56210000  1.0 0.1200084936
H  H4  1  0.58330000  0.56210000  0.26270000  1.0 0.1200084936
H  H5  1  0.56970000  0.76230000  0.69230000  1.0 0.1272999459
H  H6  1  0.97570000  0.69230000  0.76230000  1.0 0.1272999459
H  H7  1  0.55770000  0.27430000  0.68030000  1.0 0.1272999459
H  H8  1  0.48770000  0.68030000  0.27430000  1.0 0.1272999459
H  H9  1  0.60810000  0.65210000  0.66110000  1.0 0.1272999459
H  H10  1  0.07870000  0.66110000  0.65210000  1.0 0.1272999459
H  H11  1  0.58890000  0.17130000  0.64190000  1.0 0.1272999459
H  H12  1  0.59790000  0.64190000  0.17130000  1.0 0.1272999459
H  H13  1  0.34070000  0.34570000  0.10950000  1.0 0.1272999459
H  H14  1  0.20410000  0.10950000  0.34570000  1.0 0.1272999459
H  H15  1  0.51800000  0.13320000  0.24260000  1.0 0.149473574
H  H16  1  0.10620000  0.24260000  0.13320000  1.0 0.149473574
H  H17  1  0.33400000  0.15700000  0.45220000  1.0 0.1383843907
H  H18  1  0.05680000  0.45220000  0.15700000  1.0 0.1383843907
H  H19  1  0.15540000  0.19080000  0.57960000  1.0 0.1200084936
H  H20  1  0.07420000  0.57960000  0.19080000  1.0 0.1200084936
H  H21  1  0.11740000  0.30720000  0.59360000  1.0 0.1272999459
H  H22  1  0.98180000  0.59360000  0.30720000  1.0 0.1272999459
H  H23  1  0.96990000  0.33190000  0.62370000  1.0 0.1121953366
H  H24  1  0.07450000  0.62370000  0.33190000  1.0 0.1121953366
H  H25  1  0.03260000  0.24680000  0.53680000  1.0 0.1121953366
H  H26  1  0.18380000  0.53680000  0.24680000  1.0 0.1121953366
H  H27  1  0.91630000  0.54770000  0.47670000  1.0 0.1200084936
H  H28  1  0.05930000  0.47670000  0.54770000  1.0 0.1200084936
H  H29  1  0.90680000  0.50240000  0.58920000  1.0 0.1200084936
H  H30  1  0.00160000  0.58920000  0.50240000  1.0 0.1200084936
H  H31  1  0.51720000  0.22520000  0.08160000  1.0 0.2967339196
H  H32  1  0.17600000  0.08160000  0.22520000  1.0 0.2967339196
H  H33  1  0.97190000  0.38950000  0.45450000  1.0 0.2671157755
H  H34  1  0.18410000  0.45450000  0.38950000  1.0 0.2671157755
H  H35  1  0.52680000  0.31240000  0.87460000  1.0 0.1121953366
H  H36  1  0.28620000  0.87460000  0.31240000  1.0 0.1121953366
H  H37  1  0.64920000  0.24120000  0.79920000  1.0 0.1200084936
H  H38  1  0.31040000  0.79920000  0.24120000  1.0 0.1200084936
H  H39  1  0.58540000  0.18840000  0.87620000  1.0 0.0989382621
H  H40  1  0.35000000  0.87620000  0.18840000  1.0 0.0989382621
H  H41  1  0.14050000  0.04590000  0.90930000  1.0 0.1272999459
H  H42  1  0.90430000  0.90930000  0.04590000  1.0 0.1272999459
H  H43  1  0.00740000  0.14380000  0.73200000  1.0 0.149473574
H  H44  1  0.11680000  0.73200000  0.14380000  1.0 0.149473574
H  H45  1  0.79780000  0.19320000  0.91600000  1.0 0.1383843907
H  H46  1  0.09300000  0.91600000  0.19320000  1.0 0.1383843907
H  H47  1  0.67040000  0.17580000  0.09460000  1.0 0.1200084936
H  H48  1  0.05920000  0.09460000  0.17580000  1.0 0.1200084936
H  H49  1  0.65640000  0.26820000  0.13260000  1.0 0.1272999459
H  H50  1  0.94280000  0.13260000  0.26820000  1.0 0.1272999459
H  H51  1  0.62630000  0.17550000  0.28010000  1.0 0.1121953366
H  H52  1  0.91810000  0.28010000  0.17550000  1.0 0.1121953366
H  H53  1  0.71320000  0.06620000  0.21740000  1.0 0.1121953366
H  H54  1  0.00320000  0.21740000  0.06620000  1.0 0.1121953366
H  H55  1  0.77330000  0.19070000  0.33370000  1.0 0.1200084936
H  H56  1  0.70230000  0.33370000  0.19070000  1.0 0.1200084936
H  H57  1  0.66080000  0.24840000  0.34320000  1.0 0.1200084936
H  H58  1  0.74760000  0.34320000  0.24840000  1.0 0.1200084936
H  H59  1  0.16840000  0.07400000  0.73280000  1.0 0.2967339196
H  H60  1  0.02480000  0.73280000  0.07400000  1.0 0.2967339196
H  H61  1  0.79550000  0.06590000  0.27810000  1.0 0.2671157755
H  H62  1  0.86050000  0.27810000  0.06590000  1.0 0.2671157755
H  H63  1  0.37540000  0.96380000  0.72320000  1.0 0.1121953366
H  H64  1  0.93760000  0.72320000  0.96380000  1.0 0.1121953366
H  H65  1  0.45080000  0.93960000  0.60080000  1.0 0.1200084936
H  H66  1  0.00880000  0.60080000  0.93960000  1.0 0.1200084936
H  H67  1  0.37380000  0.90000000  0.66460000  1.0 0.0989382621
H  H68  1  0.06160000  0.66460000  0.90000000  1.0 0.0989382621
C  C1  1  0.78780000  0.31720000  0.70580000  1.0 0.4697874643
C  C2  1  0.18920000  0.70580000  0.31720000  1.0 0.4697874643
C  C3  1  0.54420000  0.06080000  0.46220000  1.0 0.4697874643
C  C4  1  0.93280000  0.46220000  0.06080000  1.0 0.4697874643
C  C5  1  0.69140000  0.40080000  0.69040000  1.0 0.4697874643
C  C6  1  0.21740000  0.69040000  0.40080000  1.0 0.4697874643
C  C7  1  0.55960000  0.03260000  0.55860000  1.0 0.4697874643
C  C8  1  0.84920000  0.55860000  0.03260000  1.0 0.4697874643
C  C9  1  0.82840000  0.41400000  0.90800000  1.0 0.4627117552
C  C10  1  0.84960000  0.90800000  0.41400000  1.0 0.4627117552
C  C11  1  0.34200000  0.40040000  0.42160000  1.0 0.4627117552
C  C12  1  0.83600000  0.42160000  0.40040000  1.0 0.4627117552
C  C13  1  0.85390000  0.47190000  0.80430000  1.0 0.4697874643
C  C14  1  0.86990000  0.80430000  0.47190000  1.0 0.4697874643
C  C15  1  0.44570000  0.38010000  0.39610000  1.0 0.4697874643
C  C16  1  0.77810000  0.39610000  0.38010000  1.0 0.4697874643
C  C17  1  0.85320000  0.07280000  0.56100000  1.0 0.4697874643
C  C18  1  0.51300000  0.56100000  0.07280000  1.0 0.4697874643
C  C19  1  0.68900000  0.73700000  0.39680000  1.0 0.4697874643
C  C20  1  0.17720000  0.39680000  0.73700000  1.0 0.4697874643
C  C21  1  0.95610000  0.05770000  0.47370000  1.0 0.4697874643
C  C22  1  0.51250000  0.47370000  0.05770000  1.0 0.4697874643
C  C23  1  0.77630000  0.73750000  0.29390000  1.0 0.4697874643
C  C24  1  0.19230000  0.29390000  0.73750000  1.0 0.4697874643
C  C25  1  0.61550000  0.68670000  0.69470000  1.0 -0.1892722882
C  C26  1  0.00310000  0.69470000  0.68670000  1.0 -0.1892722882
C  C27  1  0.55530000  0.24690000  0.63450000  1.0 -0.1892722882
C  C28  1  0.56330000  0.63450000  0.24690000  1.0 -0.1892722882
C  C29  1  0.36150000  0.30090000  0.15970000  1.0 0.149473574
C  C30  1  0.17790000  0.15970000  0.30090000  1.0 0.149473574
C  C31  1  0.45940000  0.18440000  0.23180000  1.0 -0.0684618391
C  C32  1  0.12440000  0.23180000  0.18440000  1.0 -0.0684618391
C  C33  1  0.36050000  0.22050000  0.30190000  1.0 0.0706812404
C  C34  1  0.11710000  0.30190000  0.22050000  1.0 0.0706812404
C  C35  1  0.30260000  0.20400000  0.40980000  1.0 0.0759210587
C  C36  1  0.08360000  0.40980000  0.20400000  1.0 0.0759210587
C  C37  1  0.12910000  0.26170000  0.55110000  1.0 -0.1002053879
C  C38  1  0.05810000  0.55110000  0.26170000  1.0 -0.1002053879
C  C39  1  0.02900000  0.30380000  0.55320000  1.0 -0.1002053879
C  C40  1  0.11400000  0.55320000  0.30380000  1.0 -0.1002053879
C  C41  1  0.95620000  0.49520000  0.51380000  1.0 -0.1002053879
C  C42  1  0.03480000  0.51380000  0.49520000  1.0 -0.1002053879
C  C43  1  0.59180000  0.24640000  0.86800000  1.0 -0.2007357739
C  C44  1  0.29380000  0.86800000  0.24640000  1.0 -0.2007357739
C  C45  1  0.09030000  0.07210000  0.88850000  1.0 0.149473574
C  C46  1  0.94910000  0.88850000  0.07210000  1.0 0.149473574
C  C47  1  0.01820000  0.12560000  0.79060000  1.0 -0.0684618391
C  C48  1  0.06560000  0.79060000  0.12560000  1.0 -0.0684618391
C  C49  1  0.94810000  0.13290000  0.88950000  1.0 0.0706812404
C  C50  1  0.02950000  0.88950000  0.13290000  1.0 0.0706812404
C  C51  1  0.84020000  0.16640000  0.94740000  1.0 0.0759210587
C  C52  1  0.04600000  0.94740000  0.16640000  1.0 0.0759210587
C  C53  1  0.69890000  0.19190000  0.12090000  1.0 -0.1002053879
C  C54  1  0.98830000  0.12090000  0.19190000  1.0 -0.1002053879
C  C55  1  0.69680000  0.13600000  0.22100000  1.0 -0.1002053879
C  C56  1  0.94620000  0.22100000  0.13600000  1.0 -0.1002053879
C  C57  1  0.73620000  0.21520000  0.29380000  1.0 -0.1002053879
C  C58  1  0.75480000  0.29380000  0.21520000  1.0 -0.1002053879
C  C59  1  0.38200000  0.95620000  0.65820000  1.0 -0.2007357739
C  C60  1  0.00360000  0.65820000  0.95620000  1.0 -0.2007357739
N  N1  1  0.29753000  0.29593000  0.25467000  1.0 -0.25692017
N  N2  1  0.15187000  0.25467000  0.29593000  1.0 -0.25692017
N  N3  1  0.46160000  0.23440000  0.14080000  1.0 -0.1892722882
N  N4  1  0.16320000  0.14080000  0.23440000  1.0 -0.1892722882
N  N5  1  0.20440000  0.25920000  0.44240000  1.0 -0.1232311055
N  N6  1  0.09400000  0.44240000  0.25920000  1.0 -0.1232311055
N  N7  1  0.01140000  0.38800000  0.47540000  1.0 -0.2261552177
N  N8  1  0.12520000  0.47540000  0.38800000  1.0 -0.2261552177
N  N9  1  0.99533000  0.09813000  0.95247000  1.0 -0.25692017
N  N10  1  0.95407000  0.95247000  0.09813000  1.0 -0.25692017
N  N11  1  0.10920000  0.08680000  0.78840000  1.0 -0.1892722882
N  N12  1  0.01560000  0.78840000  0.08680000  1.0 -0.1892722882
N  N13  1  0.80760000  0.15600000  0.04560000  1.0 -0.1232311055
N  N14  1  0.99080000  0.04560000  0.15600000  1.0 -0.1232311055
N  N15  1  0.77460000  0.12480000  0.23860000  1.0 -0.2261552177
N  N16  1  0.86200000  0.23860000  0.12480000  1.0 -0.2261552177
O  O1  1  0.79301000  0.33301000  0.77419000  1.0 -0.4513250887
O  O2  1  0.09979000  0.77419000  0.33301000  1.0 -0.4513250887
O  O3  1  0.47581000  0.15021000  0.45699000  1.0 -0.4513250887
O  O4  1  0.91699000  0.45699000  0.15021000  1.0 -0.4513250887
O  O5  1  0.62260000  0.47900000  0.74960000  1.0 -0.4194483124
O  O6  1  0.14880000  0.74960000  0.47900000  1.0 -0.4194483124
O  O7  1  0.50040000  0.10120000  0.62740000  1.0 -0.4194483124
O  O8  1  0.77100000  0.62740000  0.10120000  1.0 -0.4194483124
O  O9  1  0.85561000  0.24141000  0.64159000  1.0 -0.5206900202
O  O10  1  0.26139000  0.64159000  0.24141000  1.0 -0.5206900202
O  O11  1  0.60841000  0.98861000  0.39439000  1.0 -0.5206900202
O  O12  1  0.00859000  0.39439000  0.98861000  1.0 -0.5206900202
O  O13  1  0.68825000  0.38309000  0.61971000  1.0 -0.4925044141
O  O14  1  0.30895000  0.61971000  0.38309000  1.0 -0.4925044141
O  O15  1  0.63029000  0.94105000  0.56175000  1.0 -0.4925044141
O  O16  1  0.86691000  0.56175000  0.94105000  1.0 -0.4925044141
O  O17  1  0.75335000  0.40819000  0.94901000  1.0 -0.4351872764
O  O18  1  0.88945000  0.94901000  0.40819000  1.0 -0.4349212907
O  O19  1  0.30099000  0.36055000  0.49665000  1.0 -0.4349212907
O  O20  1  0.84181000  0.49665000  0.36055000  1.0 -0.4349212907
O  O21  1  0.79576000  0.51196000  0.76784000  1.0 -0.4194483124
O  O22  1  0.92444000  0.76784000  0.51196000  1.0 -0.4194483124
O  O23  1  0.48216000  0.32556000  0.45424000  1.0 -0.4194483124
O  O24  1  0.73804000  0.45424000  0.32556000  1.0 -0.4194483124
O  O25  1  0.89256000  0.37556000  0.94304000  1.0 -0.5454422794
O  O26  1  0.78884000  0.94304000  0.37556000  1.0 -0.5454422794
O  O27  1  0.30696000  0.46116000  0.35744000  1.0 -0.5454422794
O  O28  1  0.87444000  0.35744000  0.46116000  1.0 -0.5454422794
O  O29  1  0.93578000  0.47056000  0.76624000  1.0 -0.5206900202
O  O30  1  0.82742000  0.76624000  0.47056000  1.0 -0.5206900202
O  O31  1  0.48376000  0.42258000  0.31422000  1.0 -0.5206900202
O  O32  1  0.77944000  0.31422000  0.42258000  1.0 -0.5206900202
O  O33  1  0.84723000  0.99643000  0.59597000  1.0 -0.3979725725
O  O34  1  0.56037000  0.59597000  0.99643000  1.0 -0.3979725725
O  O35  1  0.65403000  0.68963000  0.40277000  1.0 -0.3979725725
O  O36  1  0.25357000  0.40277000  0.68963000  1.0 -0.3979725725
O  O37  1  0.02869000  0.97069000  0.43451000  1.0 -0.3979725725
O  O38  1  0.56611000  0.43451000  0.97069000  1.0 -0.3979725725
O  O39  1  0.81549000  0.68389000  0.22131000  1.0 -0.3979725725
O  O40  1  0.27931000  0.22131000  0.68389000  1.0 -0.3979725725
O  O41  1  0.77786000  0.16706000  0.59314000  1.0 -0.5290889032
O  O42  1  0.46194000  0.59314000  0.16706000  1.0 -0.5290889032
O  O43  1  0.65686000  0.78806000  0.47214000  1.0 -0.5290889032
O  O44  1  0.08294000  0.47214000  0.78806000  1.0 -0.5290889032
O  O45  1  0.95808000  0.13988000  0.44672000  1.0 -0.5290889032
O  O46  1  0.45532000  0.44672000  0.13988000  1.0 -0.5290889032
O  O47  1  0.80328000  0.79468000  0.29192000  1.0 -0.5290889032
O  O48  1  0.11012000  0.29192000  0.79468000  1.0 -0.5290889032
O  O49  1  0.58800000  0.65660000  0.79860000  1.0 -0.2814181261
O  O50  1  0.95680000  0.79860000  0.65660000  1.0 -0.2814181261
O  O51  1  0.45140000  0.29320000  0.66200000  1.0 -0.2814181261
O  O52  1  0.59340000  0.66200000  0.29320000  1.0 -0.2814181261
O  O53  1  0.61210000  0.24250000  0.94590000  1.0 -0.4513250887
O  O54  1  0.19950000  0.94590000  0.24250000  1.0 -0.4513250887
O  O55  1  0.30410000  0.05050000  0.63790000  1.0 -0.4513250887
O  O56  1  0.00750000  0.63790000  0.05050000  1.0 -0.4513250887
