# DDEC6 charges by PACMAN v1.1 (https://github.com/mtap-research/PACMAN-charge/)
data_VIPYUS_ion_pacman
_symmetry_space_group_name_H-M   'P 1'
_cell_length_a   12.43500000
_cell_length_b   12.78800000
_cell_length_c   14.23700000
_cell_angle_alpha   88.88000000
_cell_angle_beta   89.39500000
_cell_angle_gamma   81.78900000
_symmetry_Int_Tables_number   1
_chemical_formula_structural   CdH58C81N14ClO4
_chemical_formula_sum   'Cd1 H58 C81 N14 Cl1 O4'
_cell_volume   2240.24511947
_cell_formula_units_Z   1
loop_
 _symmetry_equiv_pos_site_id
 _symmetry_equiv_pos_as_xyz
  1  'x, y, z'
loop_
 _atom_site_type_symbol
 _atom_site_label
 _atom_site_symmetry_multiplicity
 _atom_site_fract_x
 _atom_site_fract_y
 _atom_site_fract_z
 _atom_site_occupancy
 _atom_site_charge
Cd  Cd1  1  0.49593000  0.78068000  0.22582000  1.0 0.6976552403
H  H1  1  0.55142000  0.98469000  0.37338000  1.0 0.1104799381
H  H2  1  0.65343000  0.94888000  0.52670000  1.0 0.1193471802
H  H3  1  0.52567000  0.69615000  0.45415000  1.0 0.100150955
H  H4  1  0.61395000  0.61481000  0.56600000  1.0 0.1193471802
H  H5  1  0.64159000  0.52833000  0.71552000  1.0 0.1104799381
H  H6  1  0.65808000  0.80484000  0.83134000  1.0 0.100150955
H  H7  1  0.59662000  0.89416000  0.69494000  1.0 0.1193471802
H  H8  1  0.59381000  0.49294000  0.86681000  1.0 0.1104799381
H  H9  1  0.79830000  0.44921000  0.08818000  1.0 0.1193471802
H  H10  1  0.81101000  0.68814000  0.90818000  1.0 0.1193471802
H  H11  1  0.69859000  0.82274000  0.04915000  1.0 0.100150955
H  H12  1  0.86033000  0.90544000  0.08793000  1.0 0.1278794828
H  H13  1  0.73618000  0.80744000  0.32429000  1.0 0.1104799381
H  H14  1  0.84873000  0.86346000  0.40820000  1.0 0.1278794828
H  H15  1  0.99155000  0.91049000  0.49062000  1.0 0.1104799381
H  H16  1  0.14131000  0.98724000  0.26203000  1.0 0.100150955
H  H17  1  0.00430000  0.94089000  0.17262000  1.0 0.1193471802
H  H18  1  0.40288000  0.58849000  0.09025000  1.0 0.1104799381
H  H19  1  0.36159000  0.60005000  0.92351000  1.0 0.1278794828
H  H20  1  0.49899000  0.84753000  0.98817000  1.0 0.100150955
H  H21  1  0.36364000  0.67268000  0.76596000  1.0 0.1193471802
H  H22  1  0.32764000  0.75508000  0.62065000  1.0 0.1104799381
H  H23  1  0.30417000  0.03584000  0.75255000  1.0 0.1104799381
H  H24  1  0.35467000  0.94898000  0.88976000  1.0 0.1193471802
H  H25  1  0.31279000  0.71547000  0.39514000  1.0 0.1104799381
H  H26  1  0.13555000  0.66243000  0.36743000  1.0 0.1370347684
H  H27  1  0.24873000  0.78110000  0.12923000  1.0 0.100150955
H  H28  1  0.99002000  0.62934000  0.29056000  1.0 0.1278794828
H  H29  1  0.85367000  0.56985000  0.20334000  1.0 0.1193471802
H  H30  1  0.99622000  0.63966000  0.95805000  1.0 0.1104799381
H  H31  1  0.12155000  0.71460000  0.04731000  1.0 0.1193471802
H  H32  1  0.58910000  0.01572000  0.17686000  1.0 0.1104799381
H  H33  1  0.30238000  0.95808000  0.11857000  1.0 0.1104799381
H  H34  1  0.32679000  0.12688000  0.03779000  1.0 0.1278794828
H  H35  1  0.40183000  0.27796000  0.01731000  1.0 0.1278794828
H  H36  1  0.48865000  0.41760000  0.96196000  1.0 0.1104799381
H  H37  1  0.76842000  0.26751000  0.06285000  1.0 0.1278794828
H  H38  1  0.68102000  0.12743000  0.11515000  1.0 0.1278794828
H  H39  1  0.65048000  0.55612000  0.16363000  1.0 0.090109509
H  H40  1  0.62754000  0.36970000  0.19451000  1.0 0.1104799381
H  H41  1  0.43635000  0.55772000  0.36967000  1.0 0.100150955
H  H42  1  0.47809000  0.38581000  0.47797000  1.0 0.0814528523
H  H43  1  0.39423000  0.24813000  0.53892000  1.0 0.090109509
H  H44  1  0.37621000  0.13931000  0.27617000  1.0 0.100150955
H  H45  1  0.46086000  0.27678000  0.22081000  1.0 0.100150955
H  H46  1  0.40102000  0.06324000  0.57525000  1.0 0.100150955
H  H47  1  0.17696000  0.87051000  0.53907000  1.0 0.1278794828
H  H48  1  0.22594000  0.08533000  0.33928000  1.0 0.090109509
H  H49  1  0.70861000  0.58162000  0.31667000  1.0 0.100150955
H  H50  1  0.64803000  0.44637000  0.42611000  1.0 0.1278794828
H  H51  1  0.39016000  0.55376000  0.27098000  1.0 0.090109509
H  H52  1  0.58326000  0.28894000  0.43891000  1.0 0.100150955
H  H53  1  0.48957000  0.15241000  0.48398000  1.0 0.100150955
H  H54  1  0.20508000  0.31510000  0.41863000  1.0 0.100150955
H  H55  1  0.28814000  0.45501000  0.37359000  1.0 0.100150955
H  H56  1  0.36843000  0.08310000  0.60614000  1.0 0.090109509
H  H57  1  0.15576000  0.88767000  0.54106000  1.0 0.1278794828
H  H58  1  0.18899000  0.13532000  0.37379000  1.0 0.100150955
C  C1  1  0.55820000  0.92210000  0.40850000  1.0 -0.1308796907
C  C2  1  0.61170000  0.90460000  0.49710000  1.0 -0.1395360086
C  C3  1  0.54060000  0.76530000  0.45430000  1.0 0.0174368051
C  C4  1  0.61610000  0.76090000  0.61880000  1.0 0.160323232
C  C5  1  0.62300000  0.65220000  0.62010000  1.0 -0.1699297073
C  C6  1  0.64470000  0.60030000  0.70890000  1.0 -0.1308796907
C  C7  1  0.67040000  0.65700000  0.78530000  1.0 0.049277587
C  C8  1  0.64950000  0.76620000  0.77790000  1.0 -0.1591967212
C  C9  1  0.61670000  0.82130000  0.69660000  1.0 -0.1699297073
C  C10  1  0.69690000  0.60180000  0.87730000  1.0 0.0814528523
C  C11  1  0.64950000  0.51320000  0.90230000  1.0 -0.2100541497
C  C12  1  0.68820000  0.45520000  0.98240000  1.0 0.090109509
C  C13  1  0.77450000  0.48780000  0.03440000  1.0 -0.2188613121
C  C14  1  0.82430000  0.57370000  0.00890000  1.0 0.100150955
C  C15  1  0.78060000  0.62910000  0.92810000  1.0 -0.2188613121
C  C16  1  0.72590000  0.82900000  0.10900000  1.0 -0.0424979011
C  C17  1  0.81730000  0.87280000  0.12980000  1.0 -0.1511702442
C  C18  1  0.74850000  0.81870000  0.26060000  1.0 0.1104799381
C  C19  1  0.91080000  0.89730000  0.28110000  1.0 0.167384783
C  C20  1  0.90650000  0.88820000  0.37710000  1.0 -0.1591967212
C  C21  1  0.99440000  0.91840000  0.42560000  1.0 -0.1699297073
C  C22  1  0.08350000  0.95770000  0.39100000  1.0 0.0394036368
C  C23  1  0.08280000  0.96320000  0.29250000  1.0 -0.1813412785
C  C24  1  0.00040000  0.93500000  0.23770000  1.0 -0.1813412785
C  C25  1  0.41750000  0.64200000  0.04890000  1.0 -0.0521840284
C  C26  1  0.39050000  0.65000000  0.95840000  1.0 -0.1308796907
C  C27  1  0.46740000  0.78600000  0.99380000  1.0 0.090109509
C  C28  1  0.38470000  0.80240000  0.84020000  1.0 0.1528492516
C  C29  1  0.36190000  0.74550000  0.76030000  1.0 -0.1813412785
C  C30  1  0.33680000  0.79480000  0.67320000  1.0 -0.1511702442
C  C31  1  0.32570000  0.90490000  0.66666667  1.0 0.049277587
C  C32  1  0.32490000  0.96300000  0.75300000  1.0 -0.1813412785
C  C33  1  0.35470000  0.91040000  0.83510000  1.0 -0.1813412785
C  C34  1  0.27640000  0.72080000  0.33810000  1.0 -0.1511702442
C  C35  1  0.18040000  0.68810000  0.32250000  1.0 -0.1117352078
C  C36  1  0.24460000  0.75550000  0.19050000  1.0 0.0814528523
C  C37  1  0.06640000  0.67650000  0.17460000  1.0 0.160323232
C  C38  1  0.98890000  0.63450000  0.22530000  1.0 -0.1591967212
C  C39  1  0.90840000  0.60010000  0.17280000  1.0 -0.1308796907
C  C40  1  0.90710000  0.60960000  0.07560000  1.0 0.060329579
C  C41  1  0.99160000  0.64330000  0.02320000  1.0 -0.1395360086
C  C42  1  0.06750000  0.68270000  0.07730000  1.0 -0.2100541497
C  C43  1  0.51730000  0.02440000  0.15700000  1.0 0.1193471802
C  C44  1  0.36400000  0.99120000  0.12270000  1.0 -0.0304515788
C  C45  1  0.37440000  0.08740000  0.07930000  1.0 -0.1248348186
C  C46  1  0.53240000  0.19280000  0.07170000  1.0 0.1528492516
C  C47  1  0.47600000  0.27620000  0.02680000  1.0 -0.1813412785
C  C48  1  0.52770000  0.36070000  0.99400000  1.0 -0.1308796907
C  C49  1  0.63480000  0.35810000  0.00970000  1.0 0.060329579
C  C50  1  0.69400000  0.27000000  0.05420000  1.0 -0.1308796907
C  C51  1  0.64230000  0.18630000  0.08560000  1.0 -0.1929554099
C  C52  1  0.60550000  0.53340000  0.21010000  1.0 0.100150955
C  C53  1  0.59340000  0.42820000  0.22640000  1.0 -0.3014651442
C  C54  1  0.48800000  0.53600000  0.32370000  1.0 0.160323232
C  C55  1  0.47820000  0.34490000  0.33990000  1.0 0.0814528523
C  C56  1  0.45770000  0.33570000  0.43780000  1.0 -0.0011215784
C  C57  1  0.40780000  0.25310000  0.47470000  1.0 0.0025692104
C  C58  1  0.37830000  0.17780000  0.41380000  1.0 0.0394036368
C  C59  1  0.39710000  0.18780000  0.31770000  1.0 -0.2521551156
C  C60  1  0.44760000  0.27150000  0.28500000  1.0 -0.2592949176
C  C61  1  0.32280000  0.08930000  0.45220000  1.0 0.049277587
C  C62  1  0.34710000  0.04080000  0.53910000  1.0 -0.0685729587
C  C63  1  0.29310000  0.95970000  0.57370000  1.0 0.0311549783
C  C64  1  0.21270000  0.92590000  0.51830000  1.0 -0.1308796907
C  C65  1  0.18670000  0.97500000  0.43280000  1.0 0.0394036368
C  C66  1  0.24240000  0.05500000  0.39820000  1.0 -0.0901879797
C  C67  1  0.64000000  0.56000000  0.32100000  1.0 0.0698404631
C  C68  1  0.60500000  0.48500000  0.38100000  1.0 -0.1699297073
C  C69  1  0.46000000  0.54500000  0.29500000  1.0 0.100150955
C  C70  1  0.44200000  0.38400000  0.40200000  1.0 0.0174368051
C  C71  1  0.50800000  0.29400000  0.43500000  1.0 -0.0643004643
C  C72  1  0.44900000  0.21400000  0.46100000  1.0 -0.0521840284
C  C73  1  0.33700000  0.21500000  0.45700000  1.0 0.0174368051
C  C74  1  0.28000000  0.30900000  0.42280000  1.0 -0.1591967212
C  C75  1  0.32900000  0.39300000  0.39570000  1.0 -0.2188613121
C  C76  1  0.28700000  0.12400000  0.48600000  1.0 0.0311549783
C  C77  1  0.31600000  0.06400000  0.56600000  1.0 -0.0776883195
C  C78  1  0.26800000  0.97500000  0.58700000  1.0 0.0394036368
C  C79  1  0.18900000  0.94700000  0.52700000  1.0 -0.1395360086
C  C80  1  0.16100000  0.00600000  0.44800000  1.0 0.0394036368
C  C81  1  0.20900000  0.09500000  0.42800000  1.0 -0.0776883195
N  N1  1  0.47200000  0.11070000  0.11250000  1.0 -0.0090167835
N  N2  1  0.51910000  0.83300000  0.38380000  1.0 -0.3170654083
N  N3  1  0.58820000  0.80940000  0.52860000  1.0 -0.018137724
N  N4  1  0.68090000  0.79570000  0.19230000  1.0 -0.3266121948
N  N5  1  0.83280000  0.85820000  0.22770000  1.0 0.0088769897
N  N6  1  0.47040000  0.72500000  0.07130000  1.0 -0.2931467498
N  N7  1  0.41380000  0.74740000  0.92670000  1.0 0.0088769897
N  N8  1  0.31220000  0.76360000  0.25610000  1.0 -0.2837413455
N  N9  1  0.16090000  0.69950000  0.22850000  1.0 -0.0090167835
N  N10  1  0.45360000  0.95080000  0.17160000  1.0 -0.308741858
N  N11  1  0.54200000  0.60170000  0.27200000  1.0 -0.2931467498
N  N12  1  0.52240000  0.42870000  0.29730000  1.0 0.1528492516
N  N13  1  0.54000000  0.59900000  0.26400000  1.0 -0.2837413455
N  N14  1  0.49600000  0.47400000  0.36600000  1.0 0.0394036368
Cl  Cl1  1  0.91060000  0.53670000  0.46910000  1.0 1.2066381371
O  O1  1  0.87290000  0.49930000  0.55360000  1.0 -0.4339348281
O  O2  1  0.83640000  0.64760000  0.44890000  1.0 -0.5858053172
O  O3  1  0.87510000  0.46940000  0.41190000  1.0 -0.4050700271
O  O4  1  0.01820000  0.53710000  0.46510000  1.0 -0.4580495263
