# DDEC6 charges by PACMAN v1.1 (https://github.com/mtap-research/PACMAN-charge/)
data_VIQGEK_ASR_pacman
_symmetry_space_group_name_H-M   'P 1'
_cell_length_a   17.03820000
_cell_length_b   17.03820000
_cell_length_c   28.30600000
_cell_angle_alpha   90.00000000
_cell_angle_beta   90.00000000
_cell_angle_gamma   126.87100000
_symmetry_Int_Tables_number   1
_chemical_formula_structural   NiH24C32(N2O)8
_chemical_formula_sum   'Ni4 H96 C128 N64 O32'
_cell_volume   6573.69645084
_cell_formula_units_Z   4
loop_
 _symmetry_equiv_pos_site_id
 _symmetry_equiv_pos_as_xyz
  1  'x, y, z'
loop_
 _atom_site_type_symbol
 _atom_site_label
 _atom_site_symmetry_multiplicity
 _atom_site_fract_x
 _atom_site_fract_y
 _atom_site_fract_z
 _atom_site_occupancy
 _atom_site_charge
Ni  Ni1  1  0.50000000  0.00000000  0.50000000  1.0 0.2390031044
Ni  Ni2  1  0.50000000  0.00000000  0.00000000  1.0 0.2470294957
Ni  Ni3  1  0.00000000  0.50000000  0.00000000  1.0 0.2390031044
Ni  Ni4  1  0.00000000  0.50000000  0.50000000  1.0 0.2390031044
H  H1  1  0.48119000  0.07699000  0.60285000  1.0 0.1371297326
H  H2  1  0.76842000  0.84380000  0.67810000  1.0 0.1220562721
H  H3  1  0.59051000  0.88409000  0.52663000  1.0 0.1371297326
H  H4  1  0.53343000  0.90198000  0.66132000  1.0 0.1371297326
H  H5  1  0.70183000  0.62335000  0.68033000  1.0 0.1220562721
H  H6  1  0.67775000  0.42003000  0.70697000  1.0 0.1220562721
H  H7  1  0.65658000  0.34400000  0.55397000  1.0 0.1371297326
H  H8  1  0.52108000  0.35962000  0.70613000  1.0 0.1220562721
H  H9  1  0.51881000  0.92301000  0.10285000  1.0 0.1371297326
H  H10  1  0.23158000  0.15620000  0.17810000  1.0 0.1220562721
H  H11  1  0.40949000  0.11591000  0.02663000  1.0 0.1371297326
H  H12  1  0.46658000  0.09803000  0.16132000  1.0 0.1371297326
H  H13  1  0.29817000  0.37665000  0.18033000  1.0 0.1220562721
H  H14  1  0.32225000  0.57997000  0.20697000  1.0 0.1220562721
H  H15  1  0.34342000  0.65600000  0.05397000  1.0 0.1371297326
H  H16  1  0.47892000  0.64038000  0.20613000  1.0 0.1220562721
H  H17  1  0.07699000  0.48119000  0.89715000  1.0 0.1371297326
H  H18  1  0.84380000  0.76842000  0.82190000  1.0 0.1220562721
H  H19  1  0.88409000  0.59051000  0.97337000  1.0 0.1371297326
H  H20  1  0.90197000  0.53343000  0.83868000  1.0 0.1371297326
H  H21  1  0.62335000  0.70183000  0.81967000  1.0 0.1220562721
H  H22  1  0.42003000  0.67775000  0.79303000  1.0 0.1220562721
H  H23  1  0.34400000  0.65658000  0.94603000  1.0 0.1371297326
H  H24  1  0.35962000  0.52108000  0.79387000  1.0 0.1220562721
H  H25  1  0.92301000  0.51881000  0.39715000  1.0 0.1371297326
H  H26  1  0.15620000  0.23158000  0.32190000  1.0 0.1220562721
H  H27  1  0.11591000  0.40949000  0.47337000  1.0 0.1371297326
H  H28  1  0.09803000  0.46658000  0.33868000  1.0 0.1371297326
H  H29  1  0.37665000  0.29817000  0.31967000  1.0 0.1220562721
H  H30  1  0.57997000  0.32225000  0.29303000  1.0 0.1220562721
H  H31  1  0.65600000  0.34342000  0.44603000  1.0 0.1371297326
H  H32  1  0.64038000  0.47892000  0.29387000  1.0 0.1220562721
H  H33  1  0.51881000  0.92301000  0.39715000  1.0 0.1371297326
H  H34  1  0.23158000  0.15620000  0.32190000  1.0 0.1220562721
H  H35  1  0.40949000  0.11591000  0.47337000  1.0 0.1371297326
H  H36  1  0.46658000  0.09803000  0.33868000  1.0 0.1371297326
H  H37  1  0.29817000  0.37665000  0.31967000  1.0 0.1220562721
H  H38  1  0.32225000  0.57997000  0.29303000  1.0 0.1220562721
H  H39  1  0.34342000  0.65600000  0.44603000  1.0 0.1371297326
H  H40  1  0.47892000  0.64038000  0.29387000  1.0 0.1220562721
H  H41  1  0.48119000  0.07699000  0.89715000  1.0 0.1371297326
H  H42  1  0.76842000  0.84380000  0.82190000  1.0 0.1220562721
H  H43  1  0.59051000  0.88409000  0.97337000  1.0 0.1371297326
H  H44  1  0.53343000  0.90198000  0.83868000  1.0 0.1371297326
H  H45  1  0.70183000  0.62335000  0.81967000  1.0 0.1220562721
H  H46  1  0.67775000  0.42003000  0.79303000  1.0 0.1220562721
H  H47  1  0.65658000  0.34400000  0.94603000  1.0 0.1371297326
H  H48  1  0.52108000  0.35962000  0.79387000  1.0 0.1220562721
H  H49  1  0.92301000  0.51881000  0.10285000  1.0 0.1371297326
H  H50  1  0.15620000  0.23158000  0.17810000  1.0 0.1220562721
H  H51  1  0.11591000  0.40949000  0.02663000  1.0 0.1371297326
H  H52  1  0.09803000  0.46658000  0.16132000  1.0 0.1371297326
H  H53  1  0.37665000  0.29817000  0.18033000  1.0 0.1220562721
H  H54  1  0.57997000  0.32225000  0.20697000  1.0 0.1220562721
H  H55  1  0.65600000  0.34342000  0.05397000  1.0 0.1371297326
H  H56  1  0.64038000  0.47892000  0.20613000  1.0 0.1220562721
H  H57  1  0.07699000  0.48119000  0.60285000  1.0 0.1371297326
H  H58  1  0.84380000  0.76842000  0.67810000  1.0 0.1220562721
H  H59  1  0.88409000  0.59051000  0.52663000  1.0 0.1371297326
H  H60  1  0.90197000  0.53343000  0.66132000  1.0 0.1371297326
H  H61  1  0.62335000  0.70183000  0.68033000  1.0 0.1220562721
H  H62  1  0.42003000  0.67775000  0.70697000  1.0 0.1220562721
H  H63  1  0.34400000  0.65658000  0.55397000  1.0 0.1371297326
H  H64  1  0.35962000  0.52108000  0.70613000  1.0 0.1220562721
H  H65  1  0.58490000  0.58490000  0.61822000  1.0 0.0995938417
H  H66  1  0.87771000  0.87771000  0.61339000  1.0 0.1067245204
H  H67  1  0.64826000  0.64826000  0.54506000  1.0 0.1286416698
H  H68  1  0.80160000  0.80160000  0.54094000  1.0 0.1286416698
H  H69  1  0.41510000  0.41510000  0.11822000  1.0 0.0995938417
H  H70  1  0.12229000  0.12229000  0.11339000  1.0 0.1067245204
H  H71  1  0.35174000  0.35174000  0.04506000  1.0 0.1286416698
H  H72  1  0.19840000  0.19840000  0.04094000  1.0 0.1286416698
H  H73  1  0.58490000  0.58490000  0.88178000  1.0 0.0995938417
H  H74  1  0.87771000  0.87771000  0.88661000  1.0 0.1067245204
H  H75  1  0.64826000  0.64826000  0.95494000  1.0 0.1286416698
H  H76  1  0.80160000  0.80160000  0.95906000  1.0 0.1286416698
H  H77  1  0.41510000  0.41510000  0.38178000  1.0 0.0995938417
H  H78  1  0.12229000  0.12229000  0.38661000  1.0 0.1067245204
H  H79  1  0.35174000  0.35174000  0.45494000  1.0 0.1286416698
H  H80  1  0.19840000  0.19840000  0.45906000  1.0 0.1286416698
H  H81  1  0.73157000  0.33733000  0.75000000  1.0 0.0995938417
H  H82  1  0.61847000  0.16571000  0.75000000  1.0 0.1220562721
H  H83  1  0.41027000  0.20641000  0.75000000  1.0 0.1067245204
H  H84  1  0.45489000  0.10529000  0.75000000  1.0 0.1220562721
H  H85  1  0.26843000  0.66267000  0.25000000  1.0 0.0995938417
H  H86  1  0.38153000  0.83429000  0.25000000  1.0 0.1220562721
H  H87  1  0.58973000  0.79359000  0.25000000  1.0 0.1067245204
H  H88  1  0.54510000  0.89472000  0.25000000  1.0 0.1220562721
H  H89  1  0.33733000  0.73157000  0.75000000  1.0 0.0995938417
H  H90  1  0.16571000  0.61847000  0.75000000  1.0 0.1220562721
H  H91  1  0.20641000  0.41027000  0.75000000  1.0 0.1067245204
H  H92  1  0.10529000  0.45490000  0.75000000  1.0 0.1220562721
H  H93  1  0.66267000  0.26843000  0.25000000  1.0 0.0995938417
H  H94  1  0.83429000  0.38153000  0.25000000  1.0 0.1220562721
H  H95  1  0.79359000  0.58973000  0.25000000  1.0 0.1067245204
H  H96  1  0.89472000  0.54510000  0.25000000  1.0 0.1220562721
C  C1  1  0.52220000  0.13000000  0.58290000  1.0 0.0895907518
C  C2  1  0.74280000  0.82140000  0.64600000  1.0 -0.1415253929
C  C3  1  0.57040000  0.89780000  0.55390000  1.0 0.0407167936
C  C4  1  0.72260000  0.89000000  0.62280000  1.0 0.4153259073
C  C5  1  0.53810000  0.90810000  0.62860000  1.0 0.0257290303
C  C6  1  0.72370000  0.64170000  0.64750000  1.0 -0.1788743015
C  C7  1  0.65810000  0.31770000  0.66310000  1.0 0.4125537615
C  C8  1  0.57100000  0.73760000  0.62650000  1.0 0.3870068763
C  C9  1  0.63720000  0.34820000  0.70620000  1.0 -0.1870538097
C  C10  1  0.61770000  0.27590000  0.55590000  1.0 0.0483370943
C  C11  1  0.52850000  0.30690000  0.70590000  1.0 -0.1415253929
C  C12  1  0.49100000  0.24820000  0.65840000  1.0 0.4266169158
C  C13  1  0.47780000  0.87000000  0.08290000  1.0 0.0895907518
C  C14  1  0.25720000  0.17860000  0.14600000  1.0 -0.1415253929
C  C15  1  0.42960000  0.10220000  0.05390000  1.0 0.0407167936
C  C16  1  0.27740000  0.11000000  0.12280000  1.0 0.4153259073
C  C17  1  0.46190000  0.09190000  0.12860000  1.0 0.0257290303
C  C18  1  0.27630000  0.35830000  0.14750000  1.0 -0.1788743015
C  C19  1  0.34190000  0.68230000  0.16310000  1.0 0.4125537615
C  C20  1  0.42900000  0.26240000  0.12650000  1.0 0.3837904308
C  C21  1  0.36280000  0.65180000  0.20620000  1.0 -0.1870538097
C  C22  1  0.38230000  0.72410000  0.05590000  1.0 0.0483370943
C  C23  1  0.47150000  0.69310000  0.20590000  1.0 -0.1415253929
C  C24  1  0.50900000  0.75180000  0.15840000  1.0 0.4266169158
C  C25  1  0.13000000  0.52220000  0.91710000  1.0 0.0895907518
C  C26  1  0.82140000  0.74280000  0.85400000  1.0 -0.1415253929
C  C27  1  0.89780000  0.57040000  0.94610000  1.0 0.0407167936
C  C28  1  0.89000000  0.72260000  0.87720000  1.0 0.4153259073
C  C29  1  0.90810000  0.53810000  0.87140000  1.0 0.0257290303
C  C30  1  0.64170000  0.72370000  0.85250000  1.0 -0.1788743015
C  C31  1  0.31770000  0.65810000  0.83690000  1.0 0.4125537615
C  C32  1  0.73760000  0.57100000  0.87350000  1.0 0.3870068763
C  C33  1  0.34820000  0.63720000  0.79380000  1.0 -0.1870538097
C  C34  1  0.27590000  0.61770000  0.94410000  1.0 0.0483370943
C  C35  1  0.30690000  0.52850000  0.79410000  1.0 -0.1415253929
C  C36  1  0.24820000  0.49100000  0.84160000  1.0 0.4266169158
C  C37  1  0.87000000  0.47780000  0.41710000  1.0 0.0895907518
C  C38  1  0.17860000  0.25720000  0.35400000  1.0 -0.1415253929
C  C39  1  0.10220000  0.42960000  0.44610000  1.0 0.0407167936
C  C40  1  0.11000000  0.27740000  0.37720000  1.0 0.4153259073
C  C41  1  0.09190000  0.46190000  0.37140000  1.0 0.0257290303
C  C42  1  0.35830000  0.27630000  0.35250000  1.0 -0.1788743015
C  C43  1  0.68230000  0.34190000  0.33690000  1.0 0.4125537615
C  C44  1  0.26240000  0.42900000  0.37350000  1.0 0.3837904308
C  C45  1  0.65180000  0.36280000  0.29380000  1.0 -0.1870538097
C  C46  1  0.72410000  0.38230000  0.44410000  1.0 0.0483370943
C  C47  1  0.69310000  0.47150000  0.29410000  1.0 -0.1415253929
C  C48  1  0.75180000  0.50900000  0.34160000  1.0 0.4266169158
C  C49  1  0.47780000  0.87000000  0.41710000  1.0 0.0895907518
C  C50  1  0.25720000  0.17860000  0.35400000  1.0 -0.1415253929
C  C51  1  0.42960000  0.10220000  0.44610000  1.0 0.0407167936
C  C52  1  0.27740000  0.11000000  0.37720000  1.0 0.4153259073
C  C53  1  0.46190000  0.09190000  0.37140000  1.0 0.0257290303
C  C54  1  0.27630000  0.35830000  0.35250000  1.0 -0.1788743015
C  C55  1  0.34190000  0.68230000  0.33690000  1.0 0.4125537615
C  C56  1  0.42900000  0.26240000  0.37350000  1.0 0.3837904308
C  C57  1  0.36280000  0.65180000  0.29380000  1.0 -0.1870538097
C  C58  1  0.38230000  0.72410000  0.44410000  1.0 0.0483370943
C  C59  1  0.47150000  0.69310000  0.29410000  1.0 -0.1415253929
C  C60  1  0.50900000  0.75180000  0.34160000  1.0 0.4266169158
C  C61  1  0.52220000  0.13000000  0.91710000  1.0 0.0895907518
C  C62  1  0.74280000  0.82140000  0.85400000  1.0 -0.1415253929
C  C63  1  0.57040000  0.89780000  0.94610000  1.0 0.0407167936
C  C64  1  0.72260000  0.89000000  0.87720000  1.0 0.4153259073
C  C65  1  0.53810000  0.90810000  0.87140000  1.0 0.0257290303
C  C66  1  0.72370000  0.64170000  0.85250000  1.0 -0.1788743015
C  C67  1  0.65810000  0.31770000  0.83690000  1.0 0.4125537615
C  C68  1  0.57100000  0.73760000  0.87350000  1.0 0.3837904308
C  C69  1  0.63720000  0.34820000  0.79380000  1.0 -0.1870538097
C  C70  1  0.61770000  0.27590000  0.94410000  1.0 0.0483370943
C  C71  1  0.52850000  0.30690000  0.79410000  1.0 -0.1415253929
C  C72  1  0.49100000  0.24820000  0.84160000  1.0 0.4266169158
C  C73  1  0.87000000  0.47780000  0.08290000  1.0 0.0895907518
C  C74  1  0.17860000  0.25720000  0.14600000  1.0 -0.1415253929
C  C75  1  0.10220000  0.42960000  0.05390000  1.0 0.0407167936
C  C76  1  0.11000000  0.27740000  0.12280000  1.0 0.4125537615
C  C77  1  0.09190000  0.46190000  0.12860000  1.0 0.0257290303
C  C78  1  0.35830000  0.27630000  0.14750000  1.0 -0.1788743015
C  C79  1  0.68230000  0.34190000  0.16310000  1.0 0.4125537615
C  C80  1  0.26240000  0.42900000  0.12650000  1.0 0.3837904308
C  C81  1  0.65180000  0.36280000  0.20620000  1.0 -0.1870538097
C  C82  1  0.72410000  0.38230000  0.05590000  1.0 0.0483370943
C  C83  1  0.69310000  0.47150000  0.20590000  1.0 -0.1415253929
C  C84  1  0.75180000  0.50900000  0.15840000  1.0 0.4266169158
C  C85  1  0.13000000  0.52220000  0.58290000  1.0 0.0895907518
C  C86  1  0.82140000  0.74280000  0.64600000  1.0 -0.1415253929
C  C87  1  0.89780000  0.57040000  0.55390000  1.0 0.0407167936
C  C88  1  0.89000000  0.72260000  0.62280000  1.0 0.4153259073
C  C89  1  0.90810000  0.53810000  0.62860000  1.0 0.0257290303
C  C90  1  0.64170000  0.72370000  0.64750000  1.0 -0.1788743015
C  C91  1  0.31770000  0.65810000  0.66310000  1.0 0.4125537615
C  C92  1  0.73760000  0.57100000  0.62650000  1.0 0.3837904308
C  C93  1  0.34820000  0.63720000  0.70620000  1.0 -0.1870538097
C  C94  1  0.27590000  0.61770000  0.55590000  1.0 0.0483370943
C  C95  1  0.30690000  0.52850000  0.70590000  1.0 -0.1415253929
C  C96  1  0.24820000  0.49100000  0.65840000  1.0 0.4266169158
C  C97  1  0.64920000  0.64920000  0.61920000  1.0 0.0146348255
C  C98  1  0.81370000  0.81370000  0.61650000  1.0 -0.013089719
C  C99  1  0.68390000  0.68390000  0.57170000  1.0 -0.1505841936
C  C100  1  0.77070000  0.77070000  0.56930000  1.0 -0.133586264
C  C101  1  0.35080000  0.35080000  0.11920000  1.0 0.0146348255
C  C102  1  0.18630000  0.18630000  0.11650000  1.0 -0.013089719
C  C103  1  0.31610000  0.31610000  0.07170000  1.0 -0.1505841936
C  C104  1  0.22930000  0.22930000  0.06930000  1.0 -0.133586264
C  C105  1  0.64920000  0.64920000  0.88080000  1.0 0.0146348255
C  C106  1  0.81370000  0.81370000  0.88350000  1.0 -0.013089719
C  C107  1  0.68390000  0.68390000  0.92830000  1.0 -0.1505841936
C  C108  1  0.77070000  0.77070000  0.93070000  1.0 -0.133586264
C  C109  1  0.35080000  0.35080000  0.38080000  1.0 0.0146348255
C  C110  1  0.18630000  0.18630000  0.38350000  1.0 -0.013089719
C  C111  1  0.31610000  0.31610000  0.42830000  1.0 -0.1505841936
C  C112  1  0.22930000  0.22930000  0.43070000  1.0 -0.133586264
C  C113  1  0.66240000  0.31160000  0.75000000  1.0 -0.0047959017
C  C114  1  0.59770000  0.20530000  0.75000000  1.0 -0.1505841936
C  C115  1  0.48150000  0.24110000  0.75000000  1.0 -0.0047959017
C  C116  1  0.50500000  0.17240000  0.75000000  1.0 -0.1505841936
C  C117  1  0.33760000  0.68840000  0.25000000  1.0 -0.0047959017
C  C118  1  0.40230000  0.79470000  0.25000000  1.0 -0.1505841936
C  C119  1  0.51850000  0.75890000  0.25000000  1.0 -0.0047959017
C  C120  1  0.49500000  0.82760000  0.25000000  1.0 -0.1505841936
C  C121  1  0.31160000  0.66240000  0.75000000  1.0 -0.0047959017
C  C122  1  0.20530000  0.59770000  0.75000000  1.0 -0.1505841936
C  C123  1  0.24110000  0.48150000  0.75000000  1.0 -0.0047959017
C  C124  1  0.17240000  0.50500000  0.75000000  1.0 -0.1505841936
C  C125  1  0.68840000  0.33760000  0.25000000  1.0 -0.0047959017
C  C126  1  0.79470000  0.40230000  0.25000000  1.0 -0.1505841936
C  C127  1  0.75890000  0.51850000  0.25000000  1.0 -0.0047959017
C  C128  1  0.82760000  0.49500000  0.25000000  1.0 -0.1505841936
N  N1  1  0.54450000  0.12390000  0.54090000  1.0 -0.1091442209
N  N2  1  0.56620000  0.22340000  0.59380000  1.0 0.0995938417
N  N3  1  0.52880000  0.94160000  0.55550000  1.0 -0.133586264
N  N4  1  0.50830000  0.94690000  0.60240000  1.0 -0.1870538097
N  N5  1  0.62320000  0.83500000  0.61280000  1.0 -0.1243090581
N  N6  1  0.57960000  0.87600000  0.59780000  1.0 0.0895907518
N  N7  1  0.56920000  0.26300000  0.63690000  1.0 -0.1505841936
N  N8  1  0.60520000  0.21640000  0.52110000  1.0 -0.2021709408
N  N9  1  0.45550000  0.87610000  0.04090000  1.0 -0.1091442209
N  N10  1  0.43380000  0.77660000  0.09380000  1.0 0.0995938417
N  N11  1  0.47120000  0.05840000  0.05550000  1.0 -0.133586264
N  N12  1  0.49170000  0.05310000  0.10240000  1.0 -0.1870538097
N  N13  1  0.37680000  0.16500000  0.11280000  1.0 -0.1243090581
N  N14  1  0.42040000  0.12400000  0.09780000  1.0 0.0895907518
N  N15  1  0.43080000  0.73700000  0.13690000  1.0 -0.1415253929
N  N16  1  0.39480000  0.78360000  0.02110000  1.0 -0.2021709408
N  N17  1  0.12390000  0.54450000  0.95910000  1.0 -0.1091442209
N  N18  1  0.22340000  0.56620000  0.90620000  1.0 0.0995938417
N  N19  1  0.94160000  0.52880000  0.94450000  1.0 -0.133586264
N  N20  1  0.94690000  0.50830000  0.89760000  1.0 -0.1870538097
N  N21  1  0.83500000  0.62320000  0.88720000  1.0 -0.1243090581
N  N22  1  0.87600000  0.57960000  0.90220000  1.0 0.0895907518
N  N23  1  0.26300000  0.56920000  0.86310000  1.0 -0.1505841936
N  N24  1  0.21640000  0.60520000  0.97890000  1.0 -0.2021709408
N  N25  1  0.87610000  0.45550000  0.45910000  1.0 -0.1091442209
N  N26  1  0.77660000  0.43380000  0.40620000  1.0 0.0995938417
N  N27  1  0.05840000  0.47120000  0.44450000  1.0 -0.133586264
N  N28  1  0.05310000  0.49170000  0.39760000  1.0 -0.1870538097
N  N29  1  0.16500000  0.37680000  0.38720000  1.0 -0.1243090581
N  N30  1  0.12400000  0.42040000  0.40220000  1.0 0.0895907518
N  N31  1  0.73700000  0.43080000  0.36310000  1.0 -0.1505841936
N  N32  1  0.78360000  0.39480000  0.47890000  1.0 -0.2021709408
N  N33  1  0.45550000  0.87610000  0.45910000  1.0 -0.1091442209
N  N34  1  0.43380000  0.77660000  0.40620000  1.0 0.0995938417
N  N35  1  0.47120000  0.05840000  0.44450000  1.0 -0.133586264
N  N36  1  0.49170000  0.05310000  0.39760000  1.0 -0.1870538097
N  N37  1  0.37680000  0.16500000  0.38720000  1.0 -0.1243090581
N  N38  1  0.42040000  0.12400000  0.40220000  1.0 0.0895907518
N  N39  1  0.43080000  0.73700000  0.36310000  1.0 -0.1505841936
N  N40  1  0.39480000  0.78360000  0.47890000  1.0 -0.2021709408
N  N41  1  0.54450000  0.12390000  0.95910000  1.0 -0.1091442209
N  N42  1  0.56620000  0.22340000  0.90620000  1.0 0.0995938417
N  N43  1  0.52880000  0.94160000  0.94450000  1.0 -0.133586264
N  N44  1  0.50830000  0.94690000  0.89760000  1.0 -0.1870538097
N  N45  1  0.62320000  0.83500000  0.88720000  1.0 -0.1243090581
N  N46  1  0.57960000  0.87600000  0.90220000  1.0 0.0895907518
N  N47  1  0.56920000  0.26300000  0.86310000  1.0 -0.1505841936
N  N48  1  0.60520000  0.21640000  0.97890000  1.0 -0.2021709408
N  N49  1  0.87610000  0.45550000  0.04090000  1.0 -0.1091442209
N  N50  1  0.77660000  0.43380000  0.09380000  1.0 0.0995938417
N  N51  1  0.05840000  0.47120000  0.05550000  1.0 -0.133586264
N  N52  1  0.05310000  0.49170000  0.10240000  1.0 -0.1870538097
N  N53  1  0.16500000  0.37680000  0.11280000  1.0 -0.1243090581
N  N54  1  0.12400000  0.42040000  0.09780000  1.0 0.0895907518
N  N55  1  0.73700000  0.43080000  0.13690000  1.0 -0.1505841936
N  N56  1  0.78360000  0.39480000  0.02110000  1.0 -0.2021709408
N  N57  1  0.12390000  0.54450000  0.54090000  1.0 -0.1091442209
N  N58  1  0.22340000  0.56620000  0.59380000  1.0 0.0995938417
N  N59  1  0.94160000  0.52880000  0.55550000  1.0 -0.133586264
N  N60  1  0.94690000  0.50830000  0.60240000  1.0 -0.1870538097
N  N61  1  0.83500000  0.62320000  0.61280000  1.0 -0.1243090581
N  N62  1  0.87600000  0.57960000  0.59780000  1.0 0.0895907518
N  N63  1  0.26300000  0.56920000  0.63690000  1.0 -0.1505841936
N  N64  1  0.21640000  0.60520000  0.52110000  1.0 -0.2021709408
O  O1  1  0.78290000  0.97650000  0.61040000  1.0 -0.4594360467
O  O2  1  0.73450000  0.33390000  0.64790000  1.0 -0.4594360467
O  O3  1  0.48350000  0.67930000  0.62300000  1.0 -0.4519664373
O  O4  1  0.40750000  0.19630000  0.64550000  1.0 -0.424341711
O  O5  1  0.21710000  0.02350000  0.11040000  1.0 -0.4594360467
O  O6  1  0.26550000  0.66610000  0.14790000  1.0 -0.4594360467
O  O7  1  0.51650000  0.32070000  0.12300000  1.0 -0.4519664373
O  O8  1  0.59250000  0.80370000  0.14550000  1.0 -0.424341711
O  O9  1  0.97650000  0.78290000  0.88960000  1.0 -0.4594360467
O  O10  1  0.33390000  0.73450000  0.85210000  1.0 -0.4594360467
O  O11  1  0.67930000  0.48350000  0.87700000  1.0 -0.4519664373
O  O12  1  0.19630000  0.40750000  0.85450000  1.0 -0.424341711
O  O13  1  0.02350000  0.21710000  0.38960000  1.0 -0.4594360467
O  O14  1  0.66610000  0.26550000  0.35210000  1.0 -0.4594360467
O  O15  1  0.32070000  0.51650000  0.37700000  1.0 -0.4519664373
O  O16  1  0.80370000  0.59250000  0.35450000  1.0 -0.424341711
O  O17  1  0.21710000  0.02350000  0.38960000  1.0 -0.4594360467
O  O18  1  0.26550000  0.66610000  0.35210000  1.0 -0.4594360467
O  O19  1  0.51650000  0.32070000  0.37700000  1.0 -0.4519664373
O  O20  1  0.59250000  0.80370000  0.35450000  1.0 -0.424341711
O  O21  1  0.78290000  0.97650000  0.88960000  1.0 -0.4594360467
O  O22  1  0.73450000  0.33390000  0.85210000  1.0 -0.4594360467
O  O23  1  0.48350000  0.67930000  0.87700000  1.0 -0.4519664373
O  O24  1  0.40750000  0.19630000  0.85450000  1.0 -0.424341711
O  O25  1  0.02350000  0.21710000  0.11040000  1.0 -0.4594360467
O  O26  1  0.66610000  0.26550000  0.14790000  1.0 -0.4594360467
O  O27  1  0.32070000  0.51650000  0.12300000  1.0 -0.4519664373
O  O28  1  0.80370000  0.59250000  0.14550000  1.0 -0.424341711
O  O29  1  0.97650000  0.78290000  0.61040000  1.0 -0.4594360467
O  O30  1  0.33390000  0.73450000  0.64790000  1.0 -0.4594360467
O  O31  1  0.67930000  0.48350000  0.62300000  1.0 -0.4519664373
O  O32  1  0.19630000  0.40750000  0.64550000  1.0 -0.424341711
