# DDEC6 charges by PACMAN v1.1 (https://github.com/mtap-research/PACMAN-charge/)
data_VIQXIG_ASR_pacman
_symmetry_space_group_name_H-M   'P 1'
_cell_length_a   7.87290000
_cell_length_b   9.42450000
_cell_length_c   30.42490000
_cell_angle_alpha   88.33300000
_cell_angle_beta   95.30900000
_cell_angle_gamma   110.91200000
_symmetry_Int_Tables_number   1
_chemical_formula_structural   ZnH30C30(NO2)2
_chemical_formula_sum   'Zn2 H60 C60 N4 O8'
_cell_volume   2099.70590724
_cell_formula_units_Z   2
loop_
 _symmetry_equiv_pos_site_id
 _symmetry_equiv_pos_as_xyz
  1  'x, y, z'
loop_
 _atom_site_type_symbol
 _atom_site_label
 _atom_site_symmetry_multiplicity
 _atom_site_fract_x
 _atom_site_fract_y
 _atom_site_fract_z
 _atom_site_occupancy
 _atom_site_charge
Zn  Zn1  1  0.45006000  0.31429000  0.71838000  1.0 0.6934925013
Zn  Zn2  1  0.08143000  0.06783000  0.27983000  1.0 0.7106536918
H  H1  1  0.52686000  0.34711000  0.62410000  1.0 0.1218364003
H  H2  1  0.71227000  0.30834000  0.57581000  1.0 0.1306312216
H  H3  1  0.99561000  0.19557000  0.68002000  1.0 0.1495949769
H  H4  1  0.80579000  0.24113000  0.72620000  1.0 0.1109790386
H  H5  1  0.09148000  0.17635000  0.60783000  1.0 0.1306312216
H  H6  1  0.89238000  0.24707000  0.53718000  1.0 0.1109790386
H  H7  1  0.01179000  0.26218000  0.46723000  1.0 0.1218364003
H  H8  1  0.22396000  0.22104000  0.42092000  1.0 0.1218364003
H  H9  1  0.46903000  0.07895000  0.52506000  1.0 0.1109790386
H  H10  1  0.26554000  0.11291000  0.57014000  1.0 0.1218364003
H  H11  1  0.58254000  0.07509000  0.45783000  1.0 0.1109790386
H  H12  1  0.42024000  0.17079000  0.38393000  1.0 0.1306312216
H  H13  1  0.56677000  0.21216000  0.32238000  1.0 0.1495949769
H  H14  1  0.76785000  0.16967000  0.27761000  1.0 0.1109790386
H  H15  1  0.95925000  0.96546000  0.37033000  1.0 0.1218364003
H  H16  1  0.76009000  0.99258000  0.41750000  1.0 0.1306312216
H  H17  1  0.59438000  0.20492000  0.80548000  1.0 0.1109790386
H  H18  1  0.80282000  0.30548000  0.86820000  1.0 0.1306312216
H  H19  1  0.85231000  0.72605000  0.82277000  1.0 0.1397704662
H  H20  1  0.67561000  0.60933000  0.75873000  1.0 0.1109790386
H  H21  1  0.02572000  0.71270000  0.88756000  1.0 0.1218364003
H  H22  1  0.97511000  0.43121000  0.92390000  1.0 0.1109790386
H  H23  1  0.14609000  0.42293000  0.99420000  1.0 0.1109790386
H  H24  1  0.35146000  0.53513000  0.05165000  1.0 0.1109790386
H  H25  1  0.40266000  0.95141000  0.00414000  1.0 0.1109790386
H  H26  1  0.20404000  0.83467000  0.94164000  1.0 0.1109790386
H  H27  1  0.57412000  0.94132000  0.07205000  1.0 0.1109790386
H  H28  1  0.52785000  0.65592000  0.10529000  1.0 0.1218364003
H  H29  1  0.71308000  0.64779000  0.17468000  1.0 0.1397704662
H  H30  1  0.89829000  0.75688000  0.23476000  1.0 0.1218364003
H  H31  1  0.90955000  0.16225000  0.19399000  1.0 0.1218364003
H  H32  1  0.74662000  0.06191000  0.13054000  1.0 0.1306312216
H  H33  1  0.07366000  0.57154000  0.71035000  1.0 0.0920498908
H  H34  1  0.03525000  0.57604000  0.63738000  1.0 0.0813413735
H  H35  1  0.25139000  0.64101000  0.63165000  1.0 0.0992180565
H  H36  1  0.25670000  0.88434000  0.63428000  1.0 0.0920498908
H  H37  1  0.03946000  0.81960000  0.63676000  1.0 0.0992180565
H  H38  1  0.48980000  0.84907000  0.67935000  1.0 0.1218364003
H  H39  1  0.54207000  0.93662000  0.72576000  1.0 0.1218364003
H  H40  1  0.54922000  0.76977000  0.72226000  1.0 0.1218364003
H  H41  1  0.15872000  0.70878000  0.77841000  1.0 0.1109790386
H  H42  1  0.35128000  0.68565000  0.78225000  1.0 0.1306312216
H  H43  1  0.34412000  0.85250000  0.78575000  1.0 0.1306312216
H  H44  1  0.92627000  0.71087000  0.70775000  1.0 0.1109790386
H  H45  1  0.99010000  0.84723000  0.74280000  1.0 0.1306312216
H  H46  1  0.92351000  0.87449000  0.69303000  1.0 0.1306312216
H  H47  1  0.45985000  0.57228000  0.21883000  1.0 0.0813413735
H  H48  1  0.24070000  0.51780000  0.21616000  1.0 0.0992180565
H  H49  1  0.27232000  0.76619000  0.21555000  1.0 0.0920498908
H  H50  1  0.48950000  0.81801000  0.22752000  1.0 0.0813413735
H  H51  1  0.46666000  0.82041000  0.30112000  1.0 0.0920498908
H  H52  1  0.00260000  0.44196000  0.30432000  1.0 0.1306312216
H  H53  1  0.98974000  0.60772000  0.30323000  1.0 0.1397704662
H  H54  1  0.02440000  0.53647000  0.25932000  1.0 0.1218364003
H  H55  1  0.45163000  0.68341000  0.35718000  1.0 0.0992180565
H  H56  1  0.26588000  0.70660000  0.36594000  1.0 0.1306312216
H  H57  1  0.27762000  0.54048000  0.36880000  1.0 0.1397704662
H  H58  1  0.62734000  0.67527000  0.29645000  1.0 0.1218364003
H  H59  1  0.57582000  0.53369000  0.32940000  1.0 0.1306312216
H  H60  1  0.61847000  0.51273000  0.28008000  1.0 0.1306312216
C  C1  1  0.62490000  0.31650000  0.63550000  1.0 0.0590463554
C  C2  1  0.73190000  0.29100000  0.60650000  1.0 -0.2097990892
C  C3  1  0.87410000  0.23760000  0.62260000  1.0 0.1681288176
C  C4  1  0.89820000  0.22520000  0.66760000  1.0 -0.1873742597
C  C5  1  0.78540000  0.25460000  0.69540000  1.0 0.0920498908
C  C6  1  0.99700000  0.20700000  0.59400000  1.0 -0.1275647796
C  C7  1  0.98780000  0.21820000  0.55130000  1.0 -0.1275647796
C  C8  1  0.11450000  0.18930000  0.52330000  1.0 0.1109790386
C  C9  1  0.10210000  0.22350000  0.47940000  1.0 -0.1584111607
C  C10  1  0.23100000  0.19910000  0.45160000  1.0 -0.1403744004
C  C11  1  0.36300000  0.14500000  0.46910000  1.0 0.0992180565
C  C12  1  0.37620000  0.11460000  0.51280000  1.0 -0.151110168
C  C13  1  0.25470000  0.13550000  0.53960000  1.0 -0.1403744004
C  C14  1  0.49720000  0.11320000  0.44250000  1.0 -0.1275647796
C  C15  1  0.50560000  0.13400000  0.39980000  1.0 -0.1275647796
C  C16  1  0.64050000  0.10300000  0.37570000  1.0 0.1592586034
C  C17  1  0.64420000  0.15900000  0.33320000  1.0 -0.1720362759
C  C18  1  0.76680000  0.13390000  0.30710000  1.0 0.0702209392
C  C19  1  0.87730000  0.01520000  0.36010000  1.0 0.0813413735
C  C20  1  0.75870000  0.03190000  0.38840000  1.0 -0.2008261836
C  C21  1  0.65320000  0.31190000  0.80840000  1.0 0.0813413735
C  C22  1  0.77360000  0.37060000  0.84680000  1.0 -0.2097990892
C  C23  1  0.84620000  0.52710000  0.85150000  1.0 0.1592586034
C  C24  1  0.80690000  0.61870000  0.81960000  1.0 -0.1873742597
C  C25  1  0.69650000  0.54680000  0.78210000  1.0 0.0813413735
C  C26  1  0.97450000  0.60500000  0.88860000  1.0 -0.1584111607
C  C27  1  0.02430000  0.53900000  0.92310000  1.0 -0.1275647796
C  C28  1  0.15160000  0.61870000  0.96110000  1.0 0.0920498908
C  C29  1  0.19960000  0.53060000  0.99550000  1.0 -0.1403744004
C  C30  1  0.31880000  0.59680000  0.02970000  1.0 -0.1403744004
C  C31  1  0.39800000  0.75810000  0.03380000  1.0 0.0920498908
C  C32  1  0.35300000  0.84380000  0.00180000  1.0 -0.151110168
C  C33  1  0.23080000  0.77310000  0.96450000  1.0 -0.151110168
C  C34  1  0.52450000  0.83350000  0.07200000  1.0 -0.1226778558
C  C35  1  0.57400000  0.76380000  0.10600000  1.0 -0.1720362759
C  C36  1  0.69600000  0.83830000  0.14550000  1.0 0.1751741015
C  C37  1  0.75220000  0.75490000  0.17810000  1.0 -0.2008261836
C  C38  1  0.85940000  0.81940000  0.21420000  1.0 0.0813413735
C  C39  1  0.86840000  0.05530000  0.19000000  1.0 0.0590463554
C  C40  1  0.76890000  0.99610000  0.15270000  1.0 -0.1873742597
C  C41  1  0.29040000  0.50140000  0.70540000  1.0 0.529331296
C  C42  1  0.19470000  0.61740000  0.69800000  1.0 -0.1584111607
C  C43  1  0.15540000  0.64780000  0.64940000  1.0 -0.1815953112
C  C44  1  0.15650000  0.81580000  0.65070000  1.0 -0.2008261836
C  C45  1  0.18350000  0.86630000  0.69920000  1.0 0.0483656668
C  C46  1  0.29290000  0.77100000  0.72140000  1.0 0.2053565079
C  C47  1  0.48450000  0.83710000  0.71140000  1.0 -0.4676769233
C  C48  1  0.28610000  0.75290000  0.77150000  1.0 -0.4676769233
C  C49  1  0.98850000  0.82070000  0.71180000  1.0 -0.4475451267
C  C50  1  0.27470000  0.03840000  0.70620000  1.0 0.5413450891
C  C51  1  0.26020000  0.35170000  0.28630000  1.0 0.5413450891
C  C52  1  0.35910000  0.52440000  0.28280000  1.0 0.0430564874
C  C53  1  0.35550000  0.57990000  0.23320000  1.0 -0.2097990892
C  C54  1  0.36900000  0.74850000  0.23560000  1.0 -0.1720362759
C  C55  1  0.34330000  0.77320000  0.28490000  1.0 -0.1720362759
C  C56  1  0.25290000  0.61290000  0.30320000  1.0 0.2220850879
C  C57  1  0.04960000  0.54370000  0.29150000  1.0 -0.4794233
C  C58  1  0.31800000  0.63820000  0.35350000  1.0 -0.4475451267
C  C59  1  0.56400000  0.56500000  0.29860000  1.0 -0.4442316598
C  C60  1  0.24220000  0.88130000  0.28660000  1.0 0.5705546432
N  N1  1  0.64990000  0.30080000  0.68070000  1.0 -0.2424685514
N  N2  1  0.88040000  0.06540000  0.31980000  1.0 -0.2097990892
N  N3  1  0.61970000  0.39900000  0.77690000  1.0 -0.2212013981
N  N4  1  0.91440000  0.96960000  0.22270000  1.0 -0.2212013981
O  O1  1  0.41230000  0.50020000  0.68450000  1.0 -0.4794233
O  O2  1  0.24710000  0.41180000  0.73620000  1.0 -0.4988379187
O  O3  1  0.26090000  0.12380000  0.67420000  1.0 -0.5574031777
O  O4  1  0.35670000  0.09010000  0.74190000  1.0 -0.5167134113
O  O5  1  0.15470000  0.28230000  0.25300000  1.0 -0.5474760241
O  O6  1  0.28410000  0.27950000  0.31970000  1.0 -0.5407657928
O  O7  1  0.28660000  0.99360000  0.25880000  1.0 -0.5651703185
O  O8  1  0.13490000  0.87320000  0.31560000  1.0 -0.5651703185
