# DDEC6 charges by PACMAN v1.1 (https://github.com/mtap-research/PACMAN-charge/)
data_VIRSIB_FSR_pacman
_symmetry_space_group_name_H-M   'P 1'
_cell_length_a   10.78450000
_cell_length_b   13.76440000
_cell_length_c   13.80680000
_cell_angle_alpha   90.00000000
_cell_angle_beta   104.71500000
_cell_angle_gamma   90.00000000
_symmetry_Int_Tables_number   1
_chemical_formula_structural   ZnH13C10N7O3
_chemical_formula_sum   'Zn4 H52 C40 N28 O12'
_cell_volume   1982.29004000
_cell_formula_units_Z   4
loop_
 _symmetry_equiv_pos_site_id
 _symmetry_equiv_pos_as_xyz
  1  'x, y, z'
loop_
 _atom_site_type_symbol
 _atom_site_label
 _atom_site_symmetry_multiplicity
 _atom_site_fract_x
 _atom_site_fract_y
 _atom_site_fract_z
 _atom_site_occupancy
 _atom_site_charge
Zn  Zn1  1  0.07771000  0.98864000  0.63077000  1.0 0.6550971766
Zn  Zn2  1  0.42229000  0.48864000  0.86923000  1.0 0.6550971766
Zn  Zn3  1  0.92229000  0.01136000  0.36923000  1.0 0.6550971766
Zn  Zn4  1  0.57771000  0.51136000  0.13077000  1.0 0.6550971766
H  H1  1  0.01210000  0.89540000  0.23530000  1.0 0.1310320099
H  H2  1  0.10640000  0.80540000  0.23690000  1.0 0.1515066439
H  H3  1  0.15860000  0.91410000  0.23560000  1.0 0.1588826601
H  H4  1  0.65400000  0.54100000  0.36400000  1.0 0.2997650702
H  H5  1  0.36430000  0.86410000  0.66290000  1.0 0.1588826601
H  H6  1  0.33940000  0.75350000  0.62790000  1.0 0.1515066439
H  H7  1  0.24240000  0.80740000  0.68060000  1.0 0.1515066439
H  H8  1  0.39430000  0.66420000  0.07810000  1.0 0.1515066439
H  H9  1  0.35500000  0.75960000  0.12960000  1.0 0.165662994
H  H10  1  0.26940000  0.66340000  0.12060000  1.0 0.1515066439
H  H11  1  0.63120000  0.58730000  0.52840000  1.0 0.1515066439
H  H12  1  0.48480000  0.60570000  0.52880000  1.0 0.1515066439
H  H13  1  0.57880000  0.69590000  0.53010000  1.0 0.1588826601
H  H14  1  0.48790000  0.39540000  0.26470000  1.0 0.1310320099
H  H15  1  0.39360000  0.30540000  0.26310000  1.0 0.1515066439
H  H16  1  0.34140000  0.41410000  0.26440000  1.0 0.1588826601
H  H17  1  0.84600000  0.04100000  0.13600000  1.0 0.2997650702
H  H18  1  0.13570000  0.36410000  0.83710000  1.0 0.1588826601
H  H19  1  0.16060000  0.25350000  0.87210000  1.0 0.1515066439
H  H20  1  0.25760000  0.30740000  0.81940000  1.0 0.1515066439
H  H21  1  0.10570000  0.16420000  0.42190000  1.0 0.1515066439
H  H22  1  0.14500000  0.25960000  0.37040000  1.0 0.165662994
H  H23  1  0.23060000  0.16340000  0.37940000  1.0 0.1515066439
H  H24  1  0.86880000  0.08730000  0.97160000  1.0 0.1515066439
H  H25  1  0.01520000  0.10570000  0.97120000  1.0 0.1515066439
H  H26  1  0.92120000  0.19590000  0.96990000  1.0 0.1588826601
H  H27  1  0.98790000  0.10460000  0.76470000  1.0 0.1310320099
H  H28  1  0.89360000  0.19460000  0.76310000  1.0 0.1515066439
H  H29  1  0.84140000  0.08590000  0.76440000  1.0 0.1588826601
H  H30  1  0.34600000  0.45900000  0.63600000  1.0 0.2997650702
H  H31  1  0.63570000  0.13590000  0.33710000  1.0 0.1588826601
H  H32  1  0.66060000  0.24650000  0.37210000  1.0 0.1515066439
H  H33  1  0.75760000  0.19260000  0.31940000  1.0 0.1515066439
H  H34  1  0.60570000  0.33580000  0.92190000  1.0 0.1515066439
H  H35  1  0.64500000  0.24040000  0.87040000  1.0 0.165662994
H  H36  1  0.73060000  0.33660000  0.87940000  1.0 0.1515066439
H  H37  1  0.36880000  0.41270000  0.47160000  1.0 0.1515066439
H  H38  1  0.51520000  0.39430000  0.47120000  1.0 0.1515066439
H  H39  1  0.42120000  0.30410000  0.46990000  1.0 0.1588826601
H  H40  1  0.51210000  0.60460000  0.73530000  1.0 0.1310320099
H  H41  1  0.60640000  0.69460000  0.73690000  1.0 0.1515066439
H  H42  1  0.65860000  0.58590000  0.73560000  1.0 0.1588826601
H  H43  1  0.15400000  0.95900000  0.86400000  1.0 0.2997650702
H  H44  1  0.86430000  0.63590000  0.16290000  1.0 0.1588826601
H  H45  1  0.83940000  0.74650000  0.12790000  1.0 0.1515066439
H  H46  1  0.74240000  0.69260000  0.18060000  1.0 0.1515066439
H  H47  1  0.89430000  0.83580000  0.57810000  1.0 0.1515066439
H  H48  1  0.85500000  0.74040000  0.62960000  1.0 0.165662994
H  H49  1  0.76940000  0.83660000  0.62060000  1.0 0.1515066439
H  H50  1  0.13120000  0.91270000  0.02840000  1.0 0.1515066439
H  H51  1  0.98480000  0.89430000  0.02880000  1.0 0.1515066439
H  H52  1  0.07880000  0.80410000  0.03010000  1.0 0.1588826601
C  C1  1  0.10020000  0.87190000  0.26040000  1.0 -0.4894185166
C  C2  1  0.13600000  0.87330000  0.37250000  1.0 0.2304361102
C  C3  1  0.23210000  0.82260000  0.44100000  1.0 -0.0711360441
C  C4  1  0.22040000  0.84880000  0.53510000  1.0 0.2304361102
C  C5  1  0.29830000  0.81560000  0.63530000  1.0 -0.4797427456
C  C6  1  0.35690000  0.68840000  0.13110000  1.0 -0.4733402754
C  C7  1  0.43620000  0.65480000  0.23040000  1.0 0.2175234755
C  C8  1  0.42350000  0.68000000  0.32580000  1.0 -0.0711360441
C  C9  1  0.52070000  0.63150000  0.39360000  1.0 0.1952784632
C  C10  1  0.55700000  0.63000000  0.50460000  1.0 -0.4952510695
C  C11  1  0.39980000  0.37190000  0.23960000  1.0 -0.4894185166
C  C12  1  0.36400000  0.37330000  0.12750000  1.0 0.2304361102
C  C13  1  0.26790000  0.32260000  0.05900000  1.0 -0.0711360441
C  C14  1  0.27960000  0.34880000  0.96490000  1.0 0.2304361102
C  C15  1  0.20170000  0.31560000  0.86470000  1.0 -0.4797427456
C  C16  1  0.14310000  0.18840000  0.36890000  1.0 -0.4733402754
C  C17  1  0.06380000  0.15480000  0.26960000  1.0 0.2175234755
C  C18  1  0.07650000  0.18000000  0.17420000  1.0 -0.0711360441
C  C19  1  0.97930000  0.13150000  0.10640000  1.0 0.1952784632
C  C20  1  0.94300000  0.13000000  0.99540000  1.0 -0.4952510695
C  C21  1  0.89980000  0.12810000  0.73960000  1.0 -0.4894185166
C  C22  1  0.86400000  0.12670000  0.62750000  1.0 0.2304361102
C  C23  1  0.76790000  0.17740000  0.55900000  1.0 -0.0711360441
C  C24  1  0.77960000  0.15120000  0.46490000  1.0 0.2304361102
C  C25  1  0.70170000  0.18440000  0.36470000  1.0 -0.4797427456
C  C26  1  0.64310000  0.31160000  0.86890000  1.0 -0.4733402754
C  C27  1  0.56380000  0.34520000  0.76960000  1.0 0.2175234755
C  C28  1  0.57650000  0.32000000  0.67420000  1.0 -0.0711360441
C  C29  1  0.47930000  0.36850000  0.60640000  1.0 0.1952784632
C  C30  1  0.44300000  0.37000000  0.49540000  1.0 -0.4952510695
C  C31  1  0.60020000  0.62810000  0.76040000  1.0 -0.4894185166
C  C32  1  0.63600000  0.62670000  0.87250000  1.0 0.2304361102
C  C33  1  0.73210000  0.67740000  0.94100000  1.0 -0.0711360441
C  C34  1  0.72040000  0.65120000  0.03510000  1.0 0.2304361102
C  C35  1  0.79830000  0.68440000  0.13530000  1.0 -0.4797427456
C  C36  1  0.85690000  0.81160000  0.63110000  1.0 -0.4733402754
C  C37  1  0.93620000  0.84520000  0.73040000  1.0 0.2175234755
C  C38  1  0.92350000  0.82000000  0.82580000  1.0 -0.0711360441
C  C39  1  0.02070000  0.86850000  0.89360000  1.0 0.1952784632
C  C40  1  0.05700000  0.87000000  0.00460000  1.0 -0.4952510695
N  N1  1  0.12420000  0.91210000  0.52480000  1.0 -0.2361972196
N  N2  1  0.07180000  0.92660000  0.42350000  1.0 -0.2361972196
N  N3  1  0.32780000  0.75760000  0.42820000  1.0 -0.1246731921
N  N4  1  0.32790000  0.74400000  0.33770000  1.0 -0.1091831277
N  N5  1  0.58440000  0.58120000  0.33910000  1.0 -0.1457196723
N  N6  1  0.53360000  0.59440000  0.23820000  1.0 -0.2361972196
N  N7  1  0.27690000  0.11520000  0.69350000  1.0 0.6741324713
N  N8  1  0.37580000  0.41210000  0.97520000  1.0 -0.2361972196
N  N9  1  0.42820000  0.42660000  0.07650000  1.0 -0.2361972196
N  N10  1  0.17220000  0.25760000  0.07180000  1.0 -0.1246731921
N  N11  1  0.17210000  0.24400000  0.16230000  1.0 -0.1091831277
N  N12  1  0.91560000  0.08120000  0.16090000  1.0 -0.1457196723
N  N13  1  0.96640000  0.09440000  0.26180000  1.0 -0.2361972196
N  N14  1  0.22310000  0.61520000  0.80650000  1.0 0.6741324713
N  N15  1  0.87580000  0.08790000  0.47520000  1.0 -0.2361972196
N  N16  1  0.92820000  0.07340000  0.57650000  1.0 -0.2361972196
N  N17  1  0.67220000  0.24240000  0.57180000  1.0 -0.1246731921
N  N18  1  0.67210000  0.25600000  0.66230000  1.0 -0.1091831277
N  N19  1  0.41560000  0.41880000  0.66090000  1.0 -0.1457196723
N  N20  1  0.46640000  0.40560000  0.76180000  1.0 -0.2361972196
N  N21  1  0.72310000  0.88480000  0.30650000  1.0 0.6741324713
N  N22  1  0.62420000  0.58790000  0.02480000  1.0 -0.2361972196
N  N23  1  0.57180000  0.57340000  0.92350000  1.0 -0.2361972196
N  N24  1  0.82780000  0.74240000  0.92820000  1.0 -0.1246731921
N  N25  1  0.82790000  0.75600000  0.83770000  1.0 -0.1091831277
N  N26  1  0.08440000  0.91880000  0.83910000  1.0 -0.1457196723
N  N27  1  0.03360000  0.90560000  0.73820000  1.0 -0.2361972196
N  N28  1  0.77690000  0.38480000  0.19350000  1.0 0.6741324713
O  O1  1  0.23240000  0.04620000  0.72830000  1.0 -0.3824053954
O  O2  1  0.22410000  0.14310000  0.60760000  1.0 -0.4035552318
O  O3  1  0.37560000  0.15600000  0.74380000  1.0 -0.3824053954
O  O4  1  0.26760000  0.54620000  0.77170000  1.0 -0.3824053954
O  O5  1  0.27590000  0.64310000  0.89240000  1.0 -0.4035552318
O  O6  1  0.12440000  0.65600000  0.75620000  1.0 -0.3824053954
O  O7  1  0.76760000  0.95380000  0.27170000  1.0 -0.3824053954
O  O8  1  0.77590000  0.85690000  0.39240000  1.0 -0.4035552318
O  O9  1  0.62440000  0.84400000  0.25620000  1.0 -0.3824053954
O  O10  1  0.73240000  0.45380000  0.22830000  1.0 -0.3824053954
O  O11  1  0.72410000  0.35690000  0.10760000  1.0 -0.4035552318
O  O12  1  0.87560000  0.34400000  0.24380000  1.0 -0.3824053954
