# DDEC6 charges by PACMAN v1.1 (https://github.com/mtap-research/PACMAN-charge/)
data_VIRVEY_ASR_pacman
_symmetry_space_group_name_H-M   'P 1'
_cell_length_a   12.76600000
_cell_length_b   14.90300000
_cell_length_c   23.34000000
_cell_angle_alpha   90.00000000
_cell_angle_beta   90.00000000
_cell_angle_gamma   90.00000000
_symmetry_Int_Tables_number   1
_chemical_formula_structural   Zn2H6PtC14N2(ClO4)2
_chemical_formula_sum   'Zn8 H24 Pt4 C56 N8 Cl8 O32'
_cell_volume   4440.47463132
_cell_formula_units_Z   4
loop_
 _symmetry_equiv_pos_site_id
 _symmetry_equiv_pos_as_xyz
  1  'x, y, z'
loop_
 _atom_site_type_symbol
 _atom_site_label
 _atom_site_symmetry_multiplicity
 _atom_site_fract_x
 _atom_site_fract_y
 _atom_site_fract_z
 _atom_site_occupancy
 _atom_site_charge
Zn  Zn1  1  0.15056000  0.51172000  0.90137000  1.0 1.0012374627
Zn  Zn2  1  0.65056000  0.01172000  0.59863000  1.0 1.0012374627
Zn  Zn3  1  0.34944000  0.51172000  0.40137000  1.0 1.0012374627
Zn  Zn4  1  0.84944000  0.01172000  0.09863000  1.0 1.0012374627
Zn  Zn5  1  0.25254000  0.39420000  0.01532000  1.0 0.9334143209
Zn  Zn6  1  0.75254000  0.89420000  0.48468000  1.0 0.9334143209
Zn  Zn7  1  0.24746000  0.39420000  0.51532000  1.0 0.9334143209
Zn  Zn8  1  0.74746000  0.89420000  0.98468000  1.0 0.9334143209
H  H1  1  0.06790000  0.26640000  0.83060000  1.0 0.1085521164
H  H2  1  0.56790000  0.76640000  0.66940000  1.0 0.1085521164
H  H3  1  0.43210000  0.26640000  0.33060000  1.0 0.1085521164
H  H4  1  0.93210000  0.76640000  0.16940000  1.0 0.1085521164
H  H5  1  0.02160000  0.16880000  0.98820000  1.0 0.1450270074
H  H6  1  0.52160000  0.66880000  0.51180000  1.0 0.1450270074
H  H7  1  0.47840000  0.16880000  0.48820000  1.0 0.1450270074
H  H8  1  0.97840000  0.66880000  0.01180000  1.0 0.1450270074
H  H9  1  0.89860000  0.04840000  0.84910000  1.0 0.1085521164
H  H10  1  0.39860000  0.54840000  0.65090000  1.0 0.1085521164
H  H11  1  0.60140000  0.04840000  0.34910000  1.0 0.1085521164
H  H12  1  0.10140000  0.54840000  0.15090000  1.0 0.1085521164
H  H13  1  0.87700000  0.04400000  0.64510000  1.0 0.1085521164
H  H14  1  0.37700000  0.54400000  0.85490000  1.0 0.1085521164
H  H15  1  0.62300000  0.04400000  0.14510000  1.0 0.1085521164
H  H16  1  0.12300000  0.54400000  0.35490000  1.0 0.1085521164
H  H17  1  0.99720000  0.13960000  0.49940000  1.0 0.1450270074
H  H18  1  0.49720000  0.63960000  0.00060000  1.0 0.1450270074
H  H19  1  0.50280000  0.13960000  0.99940000  1.0 0.1443838435
H  H20  1  0.00280000  0.63960000  0.50060000  1.0 0.1450270074
H  H21  1  0.07830000  0.24390000  0.65030000  1.0 0.1085521164
H  H22  1  0.57830000  0.74390000  0.84970000  1.0 0.1085521164
H  H23  1  0.42170000  0.24390000  0.15030000  1.0 0.1085521164
H  H24  1  0.92170000  0.74390000  0.34970000  1.0 0.1085521164
Pt  Pt1  1  0.97334000  0.14927000  0.74411000  1.0 0.5356200742
Pt  Pt2  1  0.47334000  0.64927000  0.75589000  1.0 0.5336478161
Pt  Pt3  1  0.52666000  0.14927000  0.24411000  1.0 0.5356200742
Pt  Pt4  1  0.02666000  0.64927000  0.25589000  1.0 0.5336478161
C  C1  1  0.03690000  0.22400000  0.85460000  1.0 0.0477474503
C  C2  1  0.53690000  0.72400000  0.64540000  1.0 0.0477474503
C  C3  1  0.46310000  0.22400000  0.35460000  1.0 0.0477474503
C  C4  1  0.96310000  0.72400000  0.14540000  1.0 0.0477474503
C  C5  1  0.05110000  0.23220000  0.91300000  1.0 -0.0558734329
C  C6  1  0.55110000  0.73220000  0.58700000  1.0 -0.0558734329
C  C7  1  0.44890000  0.23220000  0.41300000  1.0 -0.0558734329
C  C8  1  0.94890000  0.73220000  0.08700000  1.0 -0.0558734329
C  C9  1  0.00960000  0.16690000  0.94900000  1.0 -0.0504911352
C  C10  1  0.50960000  0.66690000  0.55100000  1.0 -0.0504911352
C  C11  1  0.49040000  0.16690000  0.44900000  1.0 -0.0504911352
C  C12  1  0.99040000  0.66690000  0.05100000  1.0 -0.0504911352
C  C13  1  0.94990000  0.09870000  0.92480000  1.0 -0.0504911352
C  C14  1  0.44990000  0.59870000  0.57520000  1.0 -0.0504911352
C  C15  1  0.55010000  0.09870000  0.42480000  1.0 -0.0504911352
C  C16  1  0.05010000  0.59870000  0.07520000  1.0 -0.0504911352
C  C17  1  0.93740000  0.09430000  0.86560000  1.0 0.0477474503
C  C18  1  0.43740000  0.59430000  0.63440000  1.0 0.0477474503
C  C19  1  0.56260000  0.09430000  0.36560000  1.0 0.0477474503
C  C20  1  0.06260000  0.59430000  0.13440000  1.0 0.0477474503
C  C21  1  0.10600000  0.31480000  0.93500000  1.0 0.6147008943
C  C22  1  0.60600000  0.81480000  0.56500000  1.0 0.6147008943
C  C23  1  0.39400000  0.31480000  0.43500000  1.0 0.6147008943
C  C24  1  0.89400000  0.81480000  0.06500000  1.0 0.6147008943
C  C25  1  0.89460000  0.03200000  0.96320000  1.0 0.5953577565
C  C26  1  0.39460000  0.53200000  0.53680000  1.0 0.5953577565
C  C27  1  0.60540000  0.03200000  0.46320000  1.0 0.5953577565
C  C28  1  0.10540000  0.53200000  0.03680000  1.0 0.5953577565
C  C29  1  0.91950000  0.08490000  0.62600000  1.0 0.0132563984
C  C30  1  0.41950000  0.58490000  0.87400000  1.0 0.0132563984
C  C31  1  0.58050000  0.08490000  0.12600000  1.0 0.0132563984
C  C32  1  0.08050000  0.58490000  0.37400000  1.0 0.0132563984
C  C33  1  0.92570000  0.08230000  0.56690000  1.0 -0.0504911352
C  C34  1  0.42570000  0.58230000  0.93310000  1.0 -0.0558734329
C  C35  1  0.57430000  0.08230000  0.06690000  1.0 -0.0558734329
C  C36  1  0.07430000  0.58230000  0.43310000  1.0 -0.0558734329
C  C37  1  0.99070000  0.14140000  0.53890000  1.0 -0.0504911352
C  C38  1  0.49070000  0.64140000  0.96110000  1.0 -0.0504911352
C  C39  1  0.50930000  0.14140000  0.03890000  1.0 -0.0504911352
C  C40  1  0.00930000  0.64140000  0.46110000  1.0 -0.0504911352
C  C41  1  0.04580000  0.20380000  0.57110000  1.0 -0.0406727303
C  C42  1  0.54580000  0.70380000  0.92890000  1.0 -0.0406727303
C  C43  1  0.45420000  0.20380000  0.07110000  1.0 -0.0406727303
C  C44  1  0.95420000  0.70380000  0.42890000  1.0 -0.0406727303
C  C45  1  0.03870000  0.20360000  0.62940000  1.0 0.0477474503
C  C46  1  0.53870000  0.70360000  0.87060000  1.0 0.0477474503
C  C47  1  0.46130000  0.20360000  0.12940000  1.0 0.0477474503
C  C48  1  0.96130000  0.70360000  0.37060000  1.0 0.0477474503
C  C49  1  0.86610000  0.01520000  0.53280000  1.0 0.5788178252
C  C50  1  0.36610000  0.51520000  0.96720000  1.0 0.5788178252
C  C51  1  0.63390000  0.01520000  0.03280000  1.0 0.5788178252
C  C52  1  0.13390000  0.51520000  0.46720000  1.0 0.5788178252
C  C53  1  0.11610000  0.27270000  0.54200000  1.0 0.5574811505
C  C54  1  0.61610000  0.77270000  0.95800000  1.0 0.5574811505
C  C55  1  0.38390000  0.27270000  0.04200000  1.0 0.5574811505
C  C56  1  0.88390000  0.77270000  0.45800000  1.0 0.5574811505
N  N1  1  0.98070000  0.15710000  0.83128000  1.0 -0.1391610099
N  N2  1  0.48070000  0.65710000  0.66872000  1.0 -0.1391610099
N  N3  1  0.51930000  0.15710000  0.33128000  1.0 -0.1391610099
N  N4  1  0.01930000  0.65710000  0.16872000  1.0 -0.1391610099
N  N5  1  0.97570000  0.14630000  0.65775000  1.0 -0.1213936252
N  N6  1  0.47570000  0.64630000  0.84225000  1.0 -0.1213936252
N  N7  1  0.52430000  0.14630000  0.15775000  1.0 -0.1213936252
N  N8  1  0.02430000  0.64630000  0.34225000  1.0 -0.1213936252
Cl  Cl1  1  0.94220000  0.30162000  0.73887000  1.0 -0.3769983543
Cl  Cl2  1  0.44220000  0.80162000  0.76113000  1.0 -0.3769983543
Cl  Cl3  1  0.55780000  0.30162000  0.23887000  1.0 -0.3769983543
Cl  Cl4  1  0.05780000  0.80162000  0.26113000  1.0 -0.3769983543
Cl  Cl5  1  0.00597000  0.99773000  0.74880000  1.0 -0.3723623423
Cl  Cl6  1  0.50597000  0.49773000  0.75120000  1.0 -0.3723623423
Cl  Cl7  1  0.49403000  0.99773000  0.24880000  1.0 -0.3723623423
Cl  Cl8  1  0.99403000  0.49773000  0.25120000  1.0 -0.3723623423
O  O1  1  0.10630000  0.38150000  0.90207000  1.0 -0.5811335636
O  O2  1  0.60630000  0.88150000  0.59793000  1.0 -0.5811335636
O  O3  1  0.39370000  0.38150000  0.40207000  1.0 -0.5811335636
O  O4  1  0.89370000  0.88150000  0.09793000  1.0 -0.5811335636
O  O5  1  0.14910000  0.30810000  0.98378000  1.0 -0.538698916
O  O6  1  0.64910000  0.80810000  0.51622000  1.0 -0.538698916
O  O7  1  0.35090000  0.30810000  0.48378000  1.0 -0.538698916
O  O8  1  0.85090000  0.80810000  0.01622000  1.0 -0.538698916
O  O9  1  0.90720000  0.04220000  0.01610000  1.0 -0.5920514805
O  O10  1  0.40720000  0.54220000  0.48390000  1.0 -0.5920514805
O  O11  1  0.59280000  0.04220000  0.51610000  1.0 -0.5920514805
O  O12  1  0.09280000  0.54220000  0.98390000  1.0 -0.5920514805
O  O13  1  0.83910000  0.97460000  0.93819000  1.0 -0.5316190166
O  O14  1  0.33910000  0.47460000  0.56181000  1.0 -0.5316190166
O  O15  1  0.66090000  0.97460000  0.43819000  1.0 -0.5316190166
O  O16  1  0.16090000  0.47460000  0.06181000  1.0 -0.5316190166
O  O17  1  0.79230000  0.97010000  0.55770000  1.0 -0.6194723291
O  O18  1  0.29230000  0.47010000  0.94230000  1.0 -0.6194723291
O  O19  1  0.70770000  0.97010000  0.05770000  1.0 -0.6194723291
O  O20  1  0.20770000  0.47010000  0.44230000  1.0 -0.6194723291
O  O21  1  0.88780000  0.00240000  0.48210000  1.0 -0.4645303679
O  O22  1  0.38780000  0.50240000  0.01790000  1.0 -0.4645303679
O  O23  1  0.61220000  0.00240000  0.98210000  1.0 -0.4645303679
O  O24  1  0.11220000  0.50240000  0.51790000  1.0 -0.4645303679
O  O25  1  0.10870000  0.28480000  0.48960000  1.0 -0.5246563448
O  O26  1  0.60870000  0.78480000  0.01040000  1.0 -0.5246563448
O  O27  1  0.39130000  0.28480000  0.98960000  1.0 -0.5246563448
O  O28  1  0.89130000  0.78480000  0.51040000  1.0 -0.5246563448
O  O29  1  0.17710000  0.31710000  0.57470000  1.0 -0.5316190166
O  O30  1  0.67710000  0.81710000  0.92530000  1.0 -0.5316190166
O  O31  1  0.32290000  0.31710000  0.07470000  1.0 -0.5316190166
O  O32  1  0.82290000  0.81710000  0.42530000  1.0 -0.5316190166
