# DDEC6 charges by PACMAN v1.1 (https://github.com/mtap-research/PACMAN-charge/)
data_VIWKIX_ASR_pacman
_symmetry_space_group_name_H-M   'P 1'
_cell_length_a   11.00600000
_cell_length_b   23.22800000
_cell_length_c   20.97260000
_cell_angle_alpha   90.00000000
_cell_angle_beta   111.21800000
_cell_angle_gamma   90.00000000
_symmetry_Int_Tables_number   1
_chemical_formula_structural   La2Cu2H5(C5O4)5
_chemical_formula_sum   'La8 Cu8 H20 C100 O80'
_cell_volume   4998.12859552
_cell_formula_units_Z   4
loop_
 _symmetry_equiv_pos_site_id
 _symmetry_equiv_pos_as_xyz
  1  'x, y, z'
loop_
 _atom_site_type_symbol
 _atom_site_label
 _atom_site_symmetry_multiplicity
 _atom_site_fract_x
 _atom_site_fract_y
 _atom_site_fract_z
 _atom_site_occupancy
 _atom_site_charge
La  La1  1  0.13984000  0.14439000  0.60177000  1.0 1.8992047374
La  La2  1  0.86016000  0.64439000  0.89823000  1.0 1.8992047374
La  La3  1  0.86016000  0.85561000  0.39823000  1.0 1.8916075293
La  La4  1  0.13984000  0.35561000  0.10177000  1.0 1.8992047374
La  La5  1  0.70641000  0.14369000  0.85527000  1.0 1.91797424
La  La6  1  0.29359000  0.64369000  0.64473000  1.0 1.91797424
La  La7  1  0.29359000  0.85631000  0.14473000  1.0 1.91797424
La  La8  1  0.70641000  0.35631000  0.35527000  1.0 1.91797424
Cu  Cu1  1  0.19263000  0.17962000  0.10248000  1.0 0.9049428765
Cu  Cu2  1  0.80737000  0.67962000  0.39752000  1.0 0.9049428765
Cu  Cu3  1  0.80737000  0.82038000  0.89752000  1.0 0.9049428765
Cu  Cu4  1  0.19263000  0.32038000  0.60248000  1.0 0.9049428765
Cu  Cu5  1  0.65129000  0.17992000  0.34996000  1.0 0.9088800613
Cu  Cu6  1  0.34871000  0.67992000  0.15004000  1.0 0.9088800613
Cu  Cu7  1  0.34871000  0.82008000  0.65004000  1.0 0.9088800613
Cu  Cu8  1  0.65129000  0.32008000  0.84996000  1.0 0.9088800613
H  H1  1  0.03080000  0.29410000  0.25900000  1.0 0.1116880037
H  H2  1  0.96920000  0.79410000  0.24100000  1.0 0.1116880037
H  H3  1  0.96920000  0.70590000  0.74100000  1.0 0.1116880037
H  H4  1  0.03080000  0.20590000  0.75900000  1.0 0.1116880037
H  H5  1  0.32270000  0.19660000  0.44350000  1.0 0.1279283677
H  H6  1  0.67730000  0.69660000  0.05650000  1.0 0.1279283677
H  H7  1  0.67730000  0.80340000  0.55650000  1.0 0.1279283677
H  H8  1  0.32270000  0.30340000  0.94350000  1.0 0.1279283677
H  H9  1  0.62140000  0.08160000  0.54090000  1.0 0.1195261393
H  H10  1  0.37860000  0.58160000  0.95910000  1.0 0.1195261393
H  H11  1  0.37860000  0.91840000  0.45910000  1.0 0.1195261393
H  H12  1  0.62140000  0.41840000  0.04090000  1.0 0.1195261393
H  H13  1  0.80220000  0.29970000  0.19360000  1.0 0.1116880037
H  H14  1  0.19780000  0.79970000  0.30640000  1.0 0.1116880037
H  H15  1  0.19780000  0.70030000  0.80640000  1.0 0.1116880037
H  H16  1  0.80220000  0.20030000  0.69360000  1.0 0.1116880037
H  H17  1  0.52550000  0.19670000  0.00970000  1.0 0.1195261393
H  H18  1  0.47450000  0.69670000  0.49030000  1.0 0.1195261393
H  H19  1  0.47450000  0.80330000  0.99030000  1.0 0.1195261393
H  H20  1  0.52550000  0.30330000  0.50970000  1.0 0.1195261393
C  C1  1  0.16810000  0.25030000  0.41620000  1.0 -0.0289285393
C  C2  1  0.83190000  0.75030000  0.08380000  1.0 -0.0289285393
C  C3  1  0.83190000  0.74970000  0.58380000  1.0 -0.0289285393
C  C4  1  0.16810000  0.24970000  0.91620000  1.0 -0.0289285393
C  C5  1  0.07950000  0.27980000  0.35890000  1.0 -0.0478477783
C  C6  1  0.92050000  0.77980000  0.14110000  1.0 -0.0478477783
C  C7  1  0.92050000  0.72020000  0.64110000  1.0 -0.0478477783
C  C8  1  0.07950000  0.22020000  0.85890000  1.0 -0.0478477783
C  C9  1  0.08840000  0.27400000  0.29600000  1.0 -0.1213040437
C  C10  1  0.91160000  0.77400000  0.20400000  1.0 -0.1213040437
C  C11  1  0.91160000  0.72600000  0.70400000  1.0 -0.1213040437
C  C12  1  0.08840000  0.22600000  0.79600000  1.0 -0.1213040437
C  C13  1  0.18180000  0.23840000  0.28590000  1.0 -0.0641046047
C  C14  1  0.81820000  0.73840000  0.21410000  1.0 -0.0641046047
C  C15  1  0.81820000  0.76160000  0.71410000  1.0 -0.0641046047
C  C16  1  0.18180000  0.26160000  0.78590000  1.0 -0.0641046047
C  C17  1  0.26980000  0.20880000  0.34160000  1.0 -0.0130924812
C  C18  1  0.73020000  0.70880000  0.15840000  1.0 -0.0130924812
C  C19  1  0.73020000  0.79120000  0.65840000  1.0 -0.0130924812
C  C20  1  0.26980000  0.29120000  0.84160000  1.0 -0.0130924812
C  C21  1  0.26290000  0.21560000  0.40630000  1.0 -0.1213040437
C  C22  1  0.73710000  0.71560000  0.09370000  1.0 -0.1213040437
C  C23  1  0.73710000  0.78440000  0.59370000  1.0 -0.1213040437
C  C24  1  0.26290000  0.28440000  0.90630000  1.0 -0.1272385817
C  C25  1  0.17040000  0.25950000  0.48710000  1.0 0.616048849
C  C26  1  0.82960000  0.75950000  0.01290000  1.0 0.616048849
C  C27  1  0.82960000  0.74050000  0.51290000  1.0 0.616048849
C  C28  1  0.17040000  0.24050000  0.98710000  1.0 0.616048849
C  C29  1  0.96650000  0.31170000  0.36510000  1.0 0.5711799327
C  C30  1  0.03350000  0.81170000  0.13490000  1.0 0.5711799327
C  C31  1  0.03350000  0.68830000  0.63490000  1.0 0.5711799327
C  C32  1  0.96650000  0.18830000  0.86510000  1.0 0.5711799327
C  C33  1  0.17920000  0.22980000  0.21500000  1.0 0.616048849
C  C34  1  0.82080000  0.72980000  0.28500000  1.0 0.616048849
C  C35  1  0.82080000  0.77020000  0.78500000  1.0 0.616048849
C  C36  1  0.17920000  0.27020000  0.71500000  1.0 0.616048849
C  C37  1  0.38100000  0.17460000  0.33660000  1.0 0.558310515
C  C38  1  0.61900000  0.67460000  0.16340000  1.0 0.558310515
C  C39  1  0.61900000  0.82540000  0.66340000  1.0 0.558310515
C  C40  1  0.38100000  0.32540000  0.83660000  1.0 0.558310515
C  C41  1  0.37090000  0.99640000  0.49800000  1.0 -0.0188999945
C  C42  1  0.62910000  0.49640000  0.00200000  1.0 -0.0188999945
C  C43  1  0.62910000  0.00360000  0.50200000  1.0 -0.0188999945
C  C44  1  0.37090000  0.50360000  0.99800000  1.0 -0.0188999945
C  C45  1  0.44650000  0.04570000  0.52350000  1.0 -0.0373858103
C  C46  1  0.55350000  0.54570000  0.97650000  1.0 -0.0373858103
C  C47  1  0.55350000  0.95430000  0.47650000  1.0 -0.0373858103
C  C48  1  0.44650000  0.45430000  0.02350000  1.0 -0.0373858103
C  C49  1  0.57290000  0.04840000  0.52450000  1.0 -0.0984986771
C  C50  1  0.42710000  0.54840000  0.97550000  1.0 -0.0984986771
C  C51  1  0.42710000  0.95160000  0.47550000  1.0 -0.0984986771
C  C52  1  0.57290000  0.45160000  0.02450000  1.0 -0.0984986771
C  C53  1  0.23120000  0.99000000  0.49180000  1.0 0.5474791292
C  C54  1  0.76880000  0.49000000  0.00820000  1.0 0.5474791292
C  C55  1  0.76880000  0.01000000  0.50820000  1.0 0.5474791292
C  C56  1  0.23120000  0.51000000  0.99180000  1.0 0.5474791292
C  C57  1  0.39480000  0.09430000  0.55390000  1.0 0.5756038491
C  C58  1  0.60520000  0.59430000  0.94610000  1.0 0.5756038491
C  C59  1  0.60520000  0.90570000  0.44610000  1.0 0.5756038491
C  C60  1  0.39480000  0.40570000  0.05390000  1.0 0.5756038491
C  C61  1  0.57300000  0.21000000  0.11100000  1.0 -0.0188999945
C  C62  1  0.42700000  0.71000000  0.38900000  1.0 -0.0188999945
C  C63  1  0.42700000  0.79000000  0.88900000  1.0 -0.0188999945
C  C64  1  0.57300000  0.29000000  0.61100000  1.0 -0.0188999945
C  C65  1  0.65830000  0.24070000  0.16710000  1.0 -0.0478477783
C  C66  1  0.34170000  0.74070000  0.33290000  1.0 -0.0478477783
C  C67  1  0.34170000  0.75930000  0.83290000  1.0 -0.0478477783
C  C68  1  0.65830000  0.25930000  0.66710000  1.0 -0.0478477783
C  C69  1  0.74800000  0.27820000  0.15690000  1.0 -0.1213040437
C  C70  1  0.25200000  0.77820000  0.34310000  1.0 -0.1213040437
C  C71  1  0.25200000  0.72180000  0.84310000  1.0 -0.1213040437
C  C72  1  0.74800000  0.22180000  0.65690000  1.0 -0.1213040437
C  C73  1  0.75860000  0.28420000  0.09350000  1.0 -0.0188999945
C  C74  1  0.24140000  0.78420000  0.40650000  1.0 -0.0188999945
C  C75  1  0.24140000  0.71580000  0.90650000  1.0 -0.0188999945
C  C76  1  0.75860000  0.21580000  0.59350000  1.0 -0.0188999945
C  C77  1  0.67420000  0.25330000  0.03790000  1.0 -0.0188999945
C  C78  1  0.32580000  0.75330000  0.46210000  1.0 -0.0188999945
C  C79  1  0.32580000  0.74670000  0.96210000  1.0 -0.0188999945
C  C80  1  0.67420000  0.24670000  0.53790000  1.0 -0.0188999945
C  C81  1  0.58200000  0.21690000  0.04690000  1.0 -0.1272385817
C  C82  1  0.41800000  0.71690000  0.45310000  1.0 -0.1272385817
C  C83  1  0.41800000  0.78310000  0.95310000  1.0 -0.1272385817
C  C84  1  0.58200000  0.28310000  0.54690000  1.0 -0.1272385817
C  C85  1  0.46340000  0.17320000  0.11490000  1.0 0.5711799327
C  C86  1  0.53660000  0.67320000  0.38510000  1.0 0.5711799327
C  C87  1  0.53660000  0.82680000  0.88510000  1.0 0.5711799327
C  C88  1  0.46340000  0.32680000  0.61490000  1.0 0.5711799327
C  C89  1  0.66030000  0.23180000  0.23820000  1.0 0.6132273737
C  C90  1  0.33970000  0.73180000  0.26180000  1.0 0.6132273737
C  C91  1  0.33970000  0.76820000  0.76180000  1.0 0.6132273737
C  C92  1  0.66030000  0.26820000  0.73820000  1.0 0.6132273737
C  C93  1  0.87370000  0.31690000  0.08850000  1.0 0.558310515
C  C94  1  0.12630000  0.81690000  0.41150000  1.0 0.558310515
C  C95  1  0.12630000  0.68310000  0.91150000  1.0 0.558310515
C  C96  1  0.87370000  0.18310000  0.58850000  1.0 0.558310515
C  C97  1  0.67370000  0.26070000  0.96650000  1.0 0.625878698
C  C98  1  0.32630000  0.76070000  0.53350000  1.0 0.625878698
C  C99  1  0.32630000  0.73930000  0.03350000  1.0 0.625878698
C  C100  1  0.67370000  0.23930000  0.46650000  1.0 0.625878698
O  O1  1  0.16760000  0.21690000  0.52200000  1.0 -0.6210251983
O  O2  1  0.83240000  0.71690000  0.97800000  1.0 -0.6210251983
O  O3  1  0.83240000  0.78310000  0.47800000  1.0 -0.6210251983
O  O4  1  0.16760000  0.28310000  0.02200000  1.0 -0.6210251983
O  O5  1  0.18130000  0.31120000  0.50800000  1.0 -0.5513666387
O  O6  1  0.81870000  0.81120000  0.99200000  1.0 -0.5513666387
O  O7  1  0.81870000  0.68880000  0.49200000  1.0 -0.5513666387
O  O8  1  0.18130000  0.18880000  0.00800000  1.0 -0.5513666387
O  O9  1  0.91120000  0.29170000  0.40460000  1.0 -0.5966242289
O  O10  1  0.08880000  0.79170000  0.09540000  1.0 -0.5906559231
O  O11  1  0.08880000  0.70830000  0.59540000  1.0 -0.5966242289
O  O12  1  0.91120000  0.20830000  0.90460000  1.0 -0.5966242289
O  O13  1  0.92200000  0.35540000  0.32930000  1.0 -0.5840482648
O  O14  1  0.07800000  0.85540000  0.17070000  1.0 -0.5906559231
O  O15  1  0.07800000  0.64460000  0.67070000  1.0 -0.5906559231
O  O16  1  0.92200000  0.14460000  0.82930000  1.0 -0.5906559231
O  O17  1  0.14850000  0.27160000  0.17470000  1.0 -0.6660249964
O  O18  1  0.85150000  0.77160000  0.32530000  1.0 -0.6614540275
O  O19  1  0.85150000  0.72840000  0.82530000  1.0 -0.6660249964
O  O20  1  0.14850000  0.22840000  0.67470000  1.0 -0.6660249964
O  O21  1  0.20500000  0.18070000  0.19800000  1.0 -0.5135870691
O  O22  1  0.79500000  0.68070000  0.30200000  1.0 -0.5135870691
O  O23  1  0.79500000  0.81930000  0.80200000  1.0 -0.5135870691
O  O24  1  0.20500000  0.31930000  0.69800000  1.0 -0.5135870691
O  O25  1  0.46610000  0.20380000  0.32240000  1.0 -0.5717808541
O  O26  1  0.53390000  0.70380000  0.17760000  1.0 -0.5717808541
O  O27  1  0.53390000  0.79620000  0.67760000  1.0 -0.5717808541
O  O28  1  0.46610000  0.29620000  0.82240000  1.0 -0.5717808541
O  O29  1  0.38690000  0.12260000  0.34880000  1.0 -0.4843520012
O  O30  1  0.61310000  0.62260000  0.15120000  1.0 -0.4843520012
O  O31  1  0.61310000  0.87740000  0.65120000  1.0 -0.4843520012
O  O32  1  0.38690000  0.37740000  0.84880000  1.0 -0.4843520012
O  O33  1  0.20760000  0.96030000  0.53570000  1.0 -0.4631535546
O  O34  1  0.79240000  0.46030000  0.96430000  1.0 -0.4653330978
O  O35  1  0.79240000  0.03970000  0.46430000  1.0 -0.4631535546
O  O36  1  0.20760000  0.53970000  0.03570000  1.0 -0.4631535546
O  O37  1  0.14490000  0.01290000  0.44190000  1.0 -0.4386708524
O  O38  1  0.85510000  0.51290000  0.05810000  1.0 -0.4386708524
O  O39  1  0.85510000  0.98710000  0.55810000  1.0 -0.4386708524
O  O40  1  0.14490000  0.48710000  0.94190000  1.0 -0.4386708524
O  O41  1  0.28880000  0.08900000  0.55980000  1.0 -0.5513666387
O  O42  1  0.71120000  0.58900000  0.94020000  1.0 -0.5513666387
O  O43  1  0.71120000  0.91100000  0.44020000  1.0 -0.5513666387
O  O44  1  0.28880000  0.41100000  0.05980000  1.0 -0.5513666387
O  O45  1  0.46640000  0.13780000  0.57130000  1.0 -0.5568202074
O  O46  1  0.53360000  0.63780000  0.92870000  1.0 -0.5513666387
O  O47  1  0.53360000  0.86220000  0.42870000  1.0 -0.5513666387
O  O48  1  0.46640000  0.36220000  0.07130000  1.0 -0.5568202074
O  O49  1  0.38070000  0.19870000  0.13430000  1.0 -0.5717808541
O  O50  1  0.61930000  0.69870000  0.36570000  1.0 -0.5717808541
O  O51  1  0.61930000  0.80130000  0.86570000  1.0 -0.5717808541
O  O52  1  0.38070000  0.30130000  0.63430000  1.0 -0.5717808541
O  O53  1  0.45410000  0.12310000  0.09530000  1.0 -0.4521582063
O  O54  1  0.54590000  0.62310000  0.40470000  1.0 -0.4521582063
O  O55  1  0.54590000  0.87690000  0.90470000  1.0 -0.4521582063
O  O56  1  0.45410000  0.37690000  0.59530000  1.0 -0.4521582063
O  O57  1  0.63930000  0.18170000  0.25470000  1.0 -0.5153501098
O  O58  1  0.36070000  0.68170000  0.24530000  1.0 -0.5135870691
O  O59  1  0.36070000  0.81830000  0.74530000  1.0 -0.5153501098
O  O60  1  0.63930000  0.31830000  0.75470000  1.0 -0.5153501098
O  O61  1  0.68880000  0.27300000  0.27900000  1.0 -0.6614540275
O  O62  1  0.31120000  0.77300000  0.22100000  1.0 -0.6614540275
O  O63  1  0.31120000  0.72700000  0.72100000  1.0 -0.6614540275
O  O64  1  0.68880000  0.22700000  0.77900000  1.0 -0.6614540275
O  O65  1  0.91570000  0.36140000  0.12350000  1.0 -0.5840482648
O  O66  1  0.08430000  0.86140000  0.37650000  1.0 -0.5840482648
O  O67  1  0.08430000  0.63860000  0.87650000  1.0 -0.5906559231
O  O68  1  0.91570000  0.13860000  0.62350000  1.0 -0.5840482648
O  O69  1  0.92860000  0.29600000  0.04980000  1.0 -0.5906559231
O  O70  1  0.07140000  0.79600000  0.45020000  1.0 -0.5906559231
O  O71  1  0.07140000  0.70400000  0.95020000  1.0 -0.5906559231
O  O72  1  0.92860000  0.20400000  0.54980000  1.0 -0.5906559231
O  O73  1  0.67070000  0.21640000  0.93160000  1.0 -0.675818735
O  O74  1  0.32930000  0.71640000  0.56840000  1.0 -0.675818735
O  O75  1  0.32930000  0.78360000  0.06840000  1.0 -0.675818735
O  O76  1  0.67070000  0.28360000  0.43160000  1.0 -0.675818735
O  O77  1  0.66770000  0.31170000  0.94480000  1.0 -0.5153501098
O  O78  1  0.33230000  0.81170000  0.55520000  1.0 -0.5153501098
O  O79  1  0.33230000  0.68830000  0.05520000  1.0 -0.5153501098
O  O80  1  0.66770000  0.18830000  0.44480000  1.0 -0.5153501098
