# DDEC6 charges by PACMAN v1.1 (https://github.com/mtap-research/PACMAN-charge/)
data_VIWKOD_FSR_pacman
_symmetry_space_group_name_H-M   'P 1'
_cell_length_a   10.99400000
_cell_length_b   23.09800000
_cell_length_c   20.96410000
_cell_angle_alpha   90.00000000
_cell_angle_beta   111.21600000
_cell_angle_gamma   90.00000000
_symmetry_Int_Tables_number   1
_chemical_formula_structural   Ce2Cu2H5C25O33
_chemical_formula_sum   'Ce8 Cu8 H20 C100 O132'
_cell_volume   4962.79165902
_cell_formula_units_Z   4
loop_
 _symmetry_equiv_pos_site_id
 _symmetry_equiv_pos_as_xyz
  1  'x, y, z'
loop_
 _atom_site_type_symbol
 _atom_site_label
 _atom_site_symmetry_multiplicity
 _atom_site_fract_x
 _atom_site_fract_y
 _atom_site_fract_z
 _atom_site_occupancy
 _atom_site_charge
Ce  Ce1  1  0.14066000  0.14528000  0.60103000  1.0 2.0515430657
Ce  Ce2  1  0.85934000  0.64528000  0.89897000  1.0 2.0515430657
Ce  Ce3  1  0.85934000  0.85472000  0.39897000  1.0 2.0556350438
Ce  Ce4  1  0.14066000  0.35472000  0.10103000  1.0 2.0556350438
Ce  Ce5  1  0.70669000  0.14420000  0.85404000  1.0 2.1285069673
Ce  Ce6  1  0.29331000  0.64420000  0.64596000  1.0 2.1285069673
Ce  Ce7  1  0.29331000  0.85580000  0.14596000  1.0 2.1235519139
Ce  Ce8  1  0.70669000  0.35580000  0.35404000  1.0 2.1285069673
Cu  Cu1  1  0.19283000  0.17861000  0.10151000  1.0 1.0927368788
Cu  Cu2  1  0.80717000  0.67861000  0.39849000  1.0 1.0927368788
Cu  Cu3  1  0.80717000  0.82139000  0.89849000  1.0 1.0927368788
Cu  Cu4  1  0.19283000  0.32139000  0.60151000  1.0 1.0927368788
Cu  Cu5  1  0.65174000  0.17930000  0.34882000  1.0 1.0515424697
Cu  Cu6  1  0.34826000  0.67930000  0.15118000  1.0 1.0515424697
Cu  Cu7  1  0.34826000  0.82070000  0.65118000  1.0 1.0515424697
Cu  Cu8  1  0.65174000  0.32070000  0.84882000  1.0 1.0515424697
H  H1  1  0.03010000  0.29410000  0.25710000  1.0 0.1405129272
H  H2  1  0.96990000  0.79410000  0.24290000  1.0 0.1405129272
H  H3  1  0.96990000  0.70590000  0.74290000  1.0 0.1405129272
H  H4  1  0.03010000  0.20590000  0.75710000  1.0 0.1405129272
H  H5  1  0.32180000  0.19550000  0.44280000  1.0 0.1497064672
H  H6  1  0.67820000  0.69550000  0.05720000  1.0 0.1497064672
H  H7  1  0.67820000  0.80450000  0.55720000  1.0 0.1497064672
H  H8  1  0.32180000  0.30450000  0.94280000  1.0 0.1497064672
H  H9  1  0.62330000  0.08210000  0.54150000  1.0 0.1405129272
H  H10  1  0.37670000  0.58210000  0.95850000  1.0 0.1405129272
H  H11  1  0.37670000  0.91790000  0.45850000  1.0 0.1405129272
H  H12  1  0.62330000  0.41790000  0.04150000  1.0 0.1405129272
H  H13  1  0.80280000  0.30030000  0.19270000  1.0 0.1405129272
H  H14  1  0.19720000  0.80030000  0.30730000  1.0 0.1405129272
H  H15  1  0.19720000  0.69970000  0.80730000  1.0 0.1405129272
H  H16  1  0.80280000  0.19970000  0.69270000  1.0 0.1405129272
H  H17  1  0.52610000  0.19550000  0.00860000  1.0 0.1497064672
H  H18  1  0.47390000  0.69550000  0.49140000  1.0 0.1497064672
H  H19  1  0.47390000  0.80450000  0.99140000  1.0 0.1497064672
H  H20  1  0.52610000  0.30450000  0.50860000  1.0 0.1497064672
C  C1  1  0.16780000  0.25030000  0.41500000  1.0 -0.0110050596
C  C2  1  0.83220000  0.75030000  0.08500000  1.0 -0.0110050596
C  C3  1  0.83220000  0.74970000  0.58500000  1.0 -0.0110050596
C  C4  1  0.16780000  0.24970000  0.91500000  1.0 -0.0110050596
C  C5  1  0.07950000  0.28010000  0.35840000  1.0 -0.0110050596
C  C6  1  0.92050000  0.78010000  0.14160000  1.0 -0.0110050596
C  C7  1  0.92050000  0.71990000  0.64160000  1.0 -0.0110050596
C  C8  1  0.07950000  0.21990000  0.85840000  1.0 -0.0110050596
C  C9  1  0.08770000  0.27400000  0.29420000  1.0 -0.078126142
C  C10  1  0.91230000  0.77400000  0.20580000  1.0 -0.078126142
C  C11  1  0.91230000  0.72600000  0.70580000  1.0 -0.078126142
C  C12  1  0.08770000  0.22600000  0.79420000  1.0 -0.078126142
C  C13  1  0.18180000  0.23790000  0.28490000  1.0 -0.027458889
C  C14  1  0.81820000  0.73790000  0.21510000  1.0 -0.027458889
C  C15  1  0.81820000  0.76210000  0.71510000  1.0 -0.027458889
C  C16  1  0.18180000  0.26210000  0.78490000  1.0 -0.027458889
C  C17  1  0.26980000  0.20850000  0.34080000  1.0 -0.0031370321
C  C18  1  0.73020000  0.70850000  0.15920000  1.0 -0.0031370321
C  C19  1  0.73020000  0.79150000  0.65920000  1.0 -0.0031370321
C  C20  1  0.26980000  0.29150000  0.84080000  1.0 -0.0031370321
C  C21  1  0.26270000  0.21500000  0.40560000  1.0 -0.078126142
C  C22  1  0.73730000  0.71500000  0.09440000  1.0 -0.078126142
C  C23  1  0.73730000  0.78500000  0.59440000  1.0 -0.078126142
C  C24  1  0.26270000  0.28500000  0.90560000  1.0 -0.078126142
C  C25  1  0.17110000  0.25980000  0.48630000  1.0 0.6109607382
C  C26  1  0.82890000  0.75980000  0.01370000  1.0 0.6109607382
C  C27  1  0.82890000  0.74020000  0.51370000  1.0 0.6109607382
C  C28  1  0.17110000  0.24020000  0.98630000  1.0 0.6109607382
C  C29  1  0.96480000  0.31220000  0.36350000  1.0 0.5587960644
C  C30  1  0.03520000  0.81220000  0.13650000  1.0 0.5587960644
C  C31  1  0.03520000  0.68780000  0.63650000  1.0 0.5587960644
C  C32  1  0.96480000  0.18780000  0.86350000  1.0 0.5587960644
C  C33  1  0.17870000  0.22910000  0.21370000  1.0 0.6002938463
C  C34  1  0.82130000  0.72910000  0.28630000  1.0 0.6002938463
C  C35  1  0.82130000  0.77090000  0.78630000  1.0 0.6002938463
C  C36  1  0.17870000  0.27090000  0.71370000  1.0 0.6002938463
C  C37  1  0.38200000  0.17390000  0.33570000  1.0 0.5776756494
C  C38  1  0.61800000  0.67390000  0.16430000  1.0 0.5776756494
C  C39  1  0.61800000  0.82610000  0.66430000  1.0 0.5776756494
C  C40  1  0.38200000  0.32610000  0.83570000  1.0 0.5776756494
C  C41  1  0.37260000  0.99630000  0.49890000  1.0 -0.0188901161
C  C42  1  0.62740000  0.49630000  0.00110000  1.0 -0.0188901161
C  C43  1  0.62740000  0.00370000  0.50110000  1.0 -0.0188901161
C  C44  1  0.37260000  0.50370000  0.99890000  1.0 -0.0188901161
C  C45  1  0.44590000  0.04550000  0.52430000  1.0 -0.0110050596
C  C46  1  0.55410000  0.54550000  0.97570000  1.0 -0.0110050596
C  C47  1  0.55410000  0.95450000  0.47570000  1.0 -0.0110050596
C  C48  1  0.44590000  0.45450000  0.02430000  1.0 -0.0110050596
C  C49  1  0.57410000  0.04890000  0.52490000  1.0 -0.0423447562
C  C50  1  0.42590000  0.54890000  0.97510000  1.0 -0.0423447562
C  C51  1  0.42590000  0.95110000  0.47510000  1.0 -0.0423447562
C  C52  1  0.57410000  0.45110000  0.02490000  1.0 -0.0423447562
C  C53  1  0.23070000  0.99030000  0.49190000  1.0 0.5776756494
C  C54  1  0.76930000  0.49030000  0.00810000  1.0 0.5776756494
C  C55  1  0.76930000  0.00970000  0.50810000  1.0 0.5776756494
C  C56  1  0.23070000  0.50970000  0.99190000  1.0 0.5776756494
C  C57  1  0.39610000  0.09500000  0.55380000  1.0 0.6002938463
C  C58  1  0.60390000  0.59500000  0.94620000  1.0 0.6002938463
C  C59  1  0.60390000  0.90500000  0.44620000  1.0 0.6002938463
C  C60  1  0.39610000  0.40500000  0.05380000  1.0 0.6002938463
C  C61  1  0.57330000  0.20960000  0.10990000  1.0 -0.0031370321
C  C62  1  0.42670000  0.70960000  0.39010000  1.0 -0.0031370321
C  C63  1  0.42670000  0.79040000  0.89010000  1.0 -0.0031370321
C  C64  1  0.57330000  0.29040000  0.60990000  1.0 -0.0031370321
C  C65  1  0.65810000  0.24100000  0.16590000  1.0 -0.0188901161
C  C66  1  0.34190000  0.74100000  0.33410000  1.0 -0.0188901161
C  C67  1  0.34190000  0.75900000  0.83410000  1.0 -0.0110050596
C  C68  1  0.65810000  0.25900000  0.66590000  1.0 -0.0188901161
C  C69  1  0.74890000  0.27850000  0.15610000  1.0 -0.0591151999
C  C70  1  0.25110000  0.77850000  0.34390000  1.0 -0.0591151999
C  C71  1  0.25110000  0.72150000  0.84390000  1.0 -0.0591151999
C  C72  1  0.74890000  0.22150000  0.65610000  1.0 -0.0591151999
C  C73  1  0.76020000  0.28400000  0.09280000  1.0 0.0024628557
C  C74  1  0.23980000  0.78400000  0.40720000  1.0 0.0024628557
C  C75  1  0.23980000  0.71600000  0.90720000  1.0 0.0024628557
C  C76  1  0.76020000  0.21600000  0.59280000  1.0 0.0024628557
C  C77  1  0.67560000  0.25320000  0.03640000  1.0 0.0121560052
C  C78  1  0.32440000  0.75320000  0.46360000  1.0 0.0121560052
C  C79  1  0.32440000  0.74680000  0.96360000  1.0 0.0121560052
C  C80  1  0.67560000  0.24680000  0.53640000  1.0 0.0121560052
C  C81  1  0.58240000  0.21600000  0.04570000  1.0 -0.078126142
C  C82  1  0.41760000  0.71600000  0.45430000  1.0 -0.0853088634
C  C83  1  0.41760000  0.78400000  0.95430000  1.0 -0.078126142
C  C84  1  0.58240000  0.28400000  0.54570000  1.0 -0.078126142
C  C85  1  0.46350000  0.17220000  0.11340000  1.0 0.5674177496
C  C86  1  0.53650000  0.67220000  0.38660000  1.0 0.5674177496
C  C87  1  0.53650000  0.82780000  0.88660000  1.0 0.5674177496
C  C88  1  0.46350000  0.32780000  0.61340000  1.0 0.5674177496
C  C89  1  0.65990000  0.23150000  0.23670000  1.0 0.59151251
C  C90  1  0.34010000  0.73150000  0.26330000  1.0 0.59151251
C  C91  1  0.34010000  0.76850000  0.76330000  1.0 0.59151251
C  C92  1  0.65990000  0.26850000  0.73670000  1.0 0.59151251
C  C93  1  0.87480000  0.31670000  0.08730000  1.0 0.5587960644
C  C94  1  0.12520000  0.81670000  0.41270000  1.0 0.5587960644
C  C95  1  0.12520000  0.68330000  0.91270000  1.0 0.5587960644
C  C96  1  0.87480000  0.18330000  0.58730000  1.0 0.5587960644
C  C97  1  0.67380000  0.26090000  0.96500000  1.0 0.6109607382
C  C98  1  0.32620000  0.76090000  0.53500000  1.0 0.6109607382
C  C99  1  0.32620000  0.73910000  0.03500000  1.0 0.6109607382
C  C100  1  0.67380000  0.23910000  0.46500000  1.0 0.6109607382
O  O1  1  0.16900000  0.21660000  0.52180000  1.0 -0.601793885
O  O2  1  0.83100000  0.71660000  0.97820000  1.0 -0.601793885
O  O3  1  0.83100000  0.78340000  0.47820000  1.0 -0.601793885
O  O4  1  0.16900000  0.28340000  0.02180000  1.0 -0.601793885
O  O5  1  0.18010000  0.31160000  0.50650000  1.0 -0.5001851994
O  O6  1  0.81990000  0.81160000  0.99350000  1.0 -0.5001851994
O  O7  1  0.81990000  0.68840000  0.49350000  1.0 -0.5001851994
O  O8  1  0.18010000  0.18840000  0.00650000  1.0 -0.5001851994
O  O9  1  0.91140000  0.29150000  0.40340000  1.0 -0.5195197077
O  O10  1  0.08860000  0.79150000  0.09660000  1.0 -0.5195197077
O  O11  1  0.08860000  0.70850000  0.59660000  1.0 -0.5195197077
O  O12  1  0.91140000  0.20850000  0.90340000  1.0 -0.5195197077
O  O13  1  0.92120000  0.35570000  0.32770000  1.0 -0.5501477511
O  O14  1  0.07880000  0.85570000  0.17230000  1.0 -0.5501477511
O  O15  1  0.07880000  0.64430000  0.67230000  1.0 -0.555062166
O  O16  1  0.92120000  0.14430000  0.82770000  1.0 -0.5501477511
O  O17  1  0.14660000  0.27130000  0.17330000  1.0 -0.601793885
O  O18  1  0.85340000  0.77130000  0.32670000  1.0 -0.6102117689
O  O19  1  0.85340000  0.72870000  0.82670000  1.0 -0.601793885
O  O20  1  0.14660000  0.22870000  0.67330000  1.0 -0.601793885
O  O21  1  0.20430000  0.17959000  0.19700000  1.0 -0.5001851994
O  O22  1  0.79570000  0.67959000  0.30300000  1.0 -0.5001851994
O  O23  1  0.79570000  0.82041000  0.80300000  1.0 -0.5001851994
O  O24  1  0.20430000  0.32041000  0.69700000  1.0 -0.5001851994
O  O25  1  0.46550000  0.20324000  0.32110000  1.0 -0.5001851994
O  O26  1  0.53450000  0.70324000  0.17890000  1.0 -0.5001851994
O  O27  1  0.53450000  0.79676000  0.67890000  1.0 -0.5001851994
O  O28  1  0.46550000  0.29676000  0.82110000  1.0 -0.5001851994
O  O29  1  0.38830000  0.12140000  0.34910000  1.0 -0.4225745624
O  O30  1  0.61170000  0.62140000  0.15090000  1.0 -0.4225745624
O  O31  1  0.61170000  0.87860000  0.65090000  1.0 -0.4225745624
O  O32  1  0.38830000  0.37860000  0.84910000  1.0 -0.4225745624
O  O33  1  0.20740000  0.96030000  0.53700000  1.0 -0.341254303
O  O34  1  0.79260000  0.46030000  0.96300000  1.0 -0.341254303
O  O35  1  0.79260000  0.03970000  0.46300000  1.0 -0.341254303
O  O36  1  0.20740000  0.53970000  0.03700000  1.0 -0.341254303
O  O37  1  0.14380000  0.01260000  0.44140000  1.0 -0.3771313639
O  O38  1  0.85620000  0.51260000  0.05860000  1.0 -0.3771313639
O  O39  1  0.85620000  0.98740000  0.55860000  1.0 -0.3771313639
O  O40  1  0.14380000  0.48740000  0.94140000  1.0 -0.3771313639
O  O41  1  0.28740000  0.08920000  0.56030000  1.0 -0.576115808
O  O42  1  0.71260000  0.58920000  0.93970000  1.0 -0.576115808
O  O43  1  0.71260000  0.91080000  0.43970000  1.0 -0.576115808
O  O44  1  0.28740000  0.41080000  0.06030000  1.0 -0.576115808
O  O45  1  0.46670000  0.13860000  0.57200000  1.0 -0.4096109556
O  O46  1  0.53330000  0.63860000  0.92800000  1.0 -0.4096109556
O  O47  1  0.53330000  0.86140000  0.42800000  1.0 -0.4096109556
O  O48  1  0.46670000  0.36140000  0.07200000  1.0 -0.4096109556
O  O49  1  0.38140000  0.19740000  0.13350000  1.0 -0.5265270533
O  O50  1  0.61860000  0.69740000  0.36650000  1.0 -0.5265270533
O  O51  1  0.61860000  0.80260000  0.86650000  1.0 -0.5265270533
O  O52  1  0.38140000  0.30260000  0.63350000  1.0 -0.5265270533
O  O53  1  0.45570000  0.12160000  0.09380000  1.0 -0.394135064
O  O54  1  0.54430000  0.62160000  0.40620000  1.0 -0.394135064
O  O55  1  0.54430000  0.87840000  0.90620000  1.0 -0.394135064
O  O56  1  0.45570000  0.37840000  0.59380000  1.0 -0.394135064
O  O57  1  0.63890000  0.18114000  0.25320000  1.0 -0.5001851994
O  O58  1  0.36110000  0.68114000  0.24680000  1.0 -0.5001851994
O  O59  1  0.36110000  0.81886000  0.74680000  1.0 -0.491728913
O  O60  1  0.63890000  0.31886000  0.75320000  1.0 -0.491728913
O  O61  1  0.68810000  0.27290000  0.27800000  1.0 -0.6166914167
O  O62  1  0.31190000  0.77290000  0.22200000  1.0 -0.6166914167
O  O63  1  0.31190000  0.72710000  0.72200000  1.0 -0.6166914167
O  O64  1  0.68810000  0.22710000  0.77800000  1.0 -0.6166914167
O  O65  1  0.91880000  0.36130000  0.12260000  1.0 -0.5439131768
O  O66  1  0.08120000  0.86130000  0.37740000  1.0 -0.5501477511
O  O67  1  0.08120000  0.63870000  0.87740000  1.0 -0.5501477511
O  O68  1  0.91880000  0.13870000  0.62260000  1.0 -0.5439131768
O  O69  1  0.93010000  0.29570000  0.04900000  1.0 -0.5001851994
O  O70  1  0.06990000  0.79570000  0.45100000  1.0 -0.5001851994
O  O71  1  0.06990000  0.70430000  0.95100000  1.0 -0.5001851994
O  O72  1  0.93010000  0.20430000  0.54900000  1.0 -0.5001851994
O  O73  1  0.67010000  0.21640000  0.93000000  1.0 -0.6102117689
O  O74  1  0.32990000  0.71640000  0.57000000  1.0 -0.6102117689
O  O75  1  0.32990000  0.78360000  0.07000000  1.0 -0.6102117689
O  O76  1  0.67010000  0.28360000  0.43000000  1.0 -0.6102117689
O  O77  1  0.66799000  0.31200000  0.94379000  1.0 -0.4823700201
O  O78  1  0.33201000  0.81200000  0.55621000  1.0 -0.4823700201
O  O79  1  0.33201000  0.68800000  0.05621000  1.0 -0.4823700201
O  O80  1  0.66799000  0.18800000  0.44379000  1.0 -0.4823700201
O  O81  1  0.00490000  0.10245000  0.48200000  1.0 0.0993197164
O  O82  1  0.99510000  0.60245000  0.01800000  1.0 0.0993197164
O  O83  1  0.99510000  0.89755000  0.51800000  1.0 0.0917705199
O  O84  1  0.00490000  0.39755000  0.98200000  1.0 0.0917705199
O  O85  1  0.09590000  0.03850000  0.61290000  1.0 -0.2672309787
O  O86  1  0.90410000  0.53850000  0.88710000  1.0 -0.2647328289
O  O87  1  0.90410000  0.96150000  0.38710000  1.0 -0.2672309787
O  O88  1  0.09590000  0.46150000  0.11290000  1.0 -0.2647328289
O  O89  1  0.24450000  0.10830000  0.72300000  1.0 -0.4225745624
O  O90  1  0.75550000  0.60830000  0.77700000  1.0 -0.4225745624
O  O91  1  0.75550000  0.89170000  0.27700000  1.0 -0.4225745624
O  O92  1  0.24450000  0.39170000  0.22300000  1.0 -0.4269787582
O  O93  1  0.37520000  0.18680000  0.65500000  1.0 0.1497064672
O  O94  1  0.62480000  0.68680000  0.84500000  1.0 0.1497064672
O  O95  1  0.62480000  0.81320000  0.34500000  1.0 0.1559171317
O  O96  1  0.37520000  0.31320000  0.15500000  1.0 0.1497064672
O  O97  1  0.46510000  0.17700000  0.80470000  1.0 0.0121560052
O  O98  1  0.53490000  0.67700000  0.69530000  1.0 0.0121560052
O  O99  1  0.53490000  0.82300000  0.19530000  1.0 0.0204972904
O  O100  1  0.46510000  0.32300000  0.30470000  1.0 0.0204972904
O  O101  1  0.60930000  0.10680000  0.73260000  1.0 -0.3326062175
O  O102  1  0.39070000  0.60680000  0.76740000  1.0 -0.3326062175
O  O103  1  0.39070000  0.89320000  0.26740000  1.0 -0.3326062175
O  O104  1  0.60930000  0.39320000  0.23260000  1.0 -0.341254303
O  O105  1  0.76710000  0.03930000  0.84180000  1.0 -0.491728913
O  O106  1  0.23290000  0.53930000  0.65820000  1.0 -0.4823700201
O  O107  1  0.23290000  0.96070000  0.15820000  1.0 -0.4738166245
O  O108  1  0.76710000  0.46070000  0.34180000  1.0 -0.4823700201
O  O109  1  0.57060000  0.08100000  0.89970000  1.0 -0.6430879942
O  O110  1  0.42940000  0.58100000  0.60030000  1.0 -0.6430879942
O  O111  1  0.42940000  0.91900000  0.10030000  1.0 -0.6430879942
O  O112  1  0.57060000  0.41900000  0.39970000  1.0 -0.651096216
O  O113  1  0.85680000  0.10430000  0.96530000  1.0 -0.3593225987
O  O114  1  0.14320000  0.60430000  0.53470000  1.0 -0.3593225987
O  O115  1  0.14320000  0.89570000  0.03470000  1.0 -0.3593225987
O  O116  1  0.85680000  0.39570000  0.46530000  1.0 -0.3652556451
O  O117  1  0.99720000  0.18080000  0.06790000  1.0 -0.120597165
O  O118  1  0.00280000  0.68080000  0.43210000  1.0 -0.1100034719
O  O119  1  0.00280000  0.81920000  0.93210000  1.0 -0.120597165
O  O120  1  0.99720000  0.31920000  0.56790000  1.0 -0.120597165
O  O121  1  0.20850000  0.08420000  0.09430000  1.0 -0.1100034719
O  O122  1  0.79150000  0.58420000  0.40570000  1.0 -0.1006923081
O  O123  1  0.79150000  0.91580000  0.90570000  1.0 -0.1100034719
O  O124  1  0.20850000  0.41580000  0.59430000  1.0 -0.1100034719
O  O125  1  0.61960000  0.08430000  0.34990000  1.0 0.1207042145
O  O126  1  0.38040000  0.58430000  0.15010000  1.0 0.1207042145
O  O127  1  0.38040000  0.91570000  0.65010000  1.0 0.1207042145
O  O128  1  0.61960000  0.41570000  0.84990000  1.0 0.1207042145
O  O129  1  0.85010000  0.17890000  0.37970000  1.0 -0.0423447562
O  O130  1  0.14990000  0.67890000  0.12030000  1.0 -0.0423447562
O  O131  1  0.14990000  0.82110000  0.62030000  1.0 -0.0460760208
O  O132  1  0.85010000  0.32110000  0.87970000  1.0 -0.0423447562
