# DDEC6 charges by PACMAN v1.1 (https://github.com/mtap-research/PACMAN-charge/)
data_VIWLEU_FSR_pacman
_symmetry_space_group_name_H-M   'P 1'
_cell_length_a   10.92300000
_cell_length_b   22.77100000
_cell_length_c   20.91440000
_cell_angle_alpha   90.00000000
_cell_angle_beta   111.35100000
_cell_angle_gamma   90.00000000
_symmetry_Int_Tables_number   1
_chemical_formula_structural   Sm2Cu2H5C25O33
_chemical_formula_sum   'Sm8 Cu8 H20 C100 O132'
_cell_volume   4844.96379831
_cell_formula_units_Z   4
loop_
 _symmetry_equiv_pos_site_id
 _symmetry_equiv_pos_as_xyz
  1  'x, y, z'
loop_
 _atom_site_type_symbol
 _atom_site_label
 _atom_site_symmetry_multiplicity
 _atom_site_fract_x
 _atom_site_fract_y
 _atom_site_fract_z
 _atom_site_occupancy
 _atom_site_charge
Sm  Sm1  1  0.14070000  0.14688000  0.59991000  1.0 2.1177385302
Sm  Sm2  1  0.85930000  0.64688000  0.90009000  1.0 2.1177385302
Sm  Sm3  1  0.85930000  0.85312000  0.40009000  1.0 2.1177385302
Sm  Sm4  1  0.14070000  0.35312000  0.09991000  1.0 2.1177385302
Sm  Sm5  1  0.70600000  0.14644000  0.85266000  1.0 2.1922954174
Sm  Sm6  1  0.29400000  0.64644000  0.64734000  1.0 2.1922954174
Sm  Sm7  1  0.29400000  0.85356000  0.14734000  1.0 2.1922954174
Sm  Sm8  1  0.70600000  0.35356000  0.35266000  1.0 2.1922954174
Cu  Cu1  1  0.19105000  0.17604000  0.10026000  1.0 1.081430629
Cu  Cu2  1  0.80895000  0.67604000  0.39974000  1.0 1.081430629
Cu  Cu3  1  0.80895000  0.82396000  0.89974000  1.0 1.081430629
Cu  Cu4  1  0.19105000  0.32396000  0.60026000  1.0 1.081430629
Cu  Cu5  1  0.65147000  0.17721000  0.34662000  1.0 1.0437926503
Cu  Cu6  1  0.34853000  0.67721000  0.15338000  1.0 1.0437926503
Cu  Cu7  1  0.34853000  0.82279000  0.65338000  1.0 1.0464121552
Cu  Cu8  1  0.65147000  0.32279000  0.84662000  1.0 1.0437926503
H  H1  1  0.02890000  0.29620000  0.25660000  1.0 0.1301416001
H  H2  1  0.97110000  0.79620000  0.24340000  1.0 0.1301416001
H  H3  1  0.97110000  0.70380000  0.74340000  1.0 0.1301416001
H  H4  1  0.02890000  0.20380000  0.75660000  1.0 0.1301416001
H  H5  1  0.32170000  0.19550000  0.44220000  1.0 0.1475865991
H  H6  1  0.67830000  0.69550000  0.05780000  1.0 0.1475865991
H  H7  1  0.67830000  0.80450000  0.55780000  1.0 0.1475865991
H  H8  1  0.32170000  0.30450000  0.94220000  1.0 0.1475865991
H  H9  1  0.62740000  0.08170000  0.54560000  1.0 0.1406552545
H  H10  1  0.37260000  0.58170000  0.95440000  1.0 0.1406552545
H  H11  1  0.37260000  0.91830000  0.45440000  1.0 0.1406552545
H  H12  1  0.62740000  0.41830000  0.04560000  1.0 0.1406552545
H  H13  1  0.80280000  0.30080000  0.19120000  1.0 0.1406552545
H  H14  1  0.19720000  0.80080000  0.30880000  1.0 0.1406552545
H  H15  1  0.19720000  0.69920000  0.80880000  1.0 0.1406552545
H  H16  1  0.80280000  0.19920000  0.69120000  1.0 0.1406552545
H  H17  1  0.52610000  0.19450000  0.00620000  1.0 0.1406552545
H  H18  1  0.47390000  0.69450000  0.49380000  1.0 0.1406552545
H  H19  1  0.47390000  0.80550000  0.99380000  1.0 0.1406552545
H  H20  1  0.52610000  0.30550000  0.50620000  1.0 0.1406552545
C  C1  1  0.16660000  0.25060000  0.41390000  1.0 -0.011256788
C  C2  1  0.83340000  0.75060000  0.08610000  1.0 -0.011256788
C  C3  1  0.83340000  0.74940000  0.58610000  1.0 -0.011256788
C  C4  1  0.16660000  0.24940000  0.91390000  1.0 -0.011256788
C  C5  1  0.07810000  0.28050000  0.35800000  1.0 -0.0199659219
C  C6  1  0.92190000  0.78050000  0.14200000  1.0 -0.0199659219
C  C7  1  0.92190000  0.71950000  0.64200000  1.0 -0.0199659219
C  C8  1  0.07810000  0.21950000  0.85800000  1.0 -0.0199659219
C  C9  1  0.08610000  0.27500000  0.29340000  1.0 -0.0798480598
C  C10  1  0.91390000  0.77500000  0.20660000  1.0 -0.0798480598
C  C11  1  0.91390000  0.72500000  0.70660000  1.0 -0.0798480598
C  C12  1  0.08610000  0.22500000  0.79340000  1.0 -0.0798480598
C  C13  1  0.17980000  0.23800000  0.28360000  1.0 -0.039839561
C  C14  1  0.82020000  0.73800000  0.21640000  1.0 -0.039839561
C  C15  1  0.82020000  0.76200000  0.71640000  1.0 -0.039839561
C  C16  1  0.17980000  0.26200000  0.78360000  1.0 -0.039839561
C  C17  1  0.26880000  0.20780000  0.34000000  1.0 -0.0016729724
C  C18  1  0.73120000  0.70780000  0.16000000  1.0 -0.0016729724
C  C19  1  0.73120000  0.79220000  0.66000000  1.0 -0.0016729724
C  C20  1  0.26880000  0.29220000  0.84000000  1.0 -0.0016729724
C  C21  1  0.26180000  0.21490000  0.40470000  1.0 -0.0876589379
C  C22  1  0.73820000  0.71490000  0.09530000  1.0 -0.0876589379
C  C23  1  0.73820000  0.78510000  0.59530000  1.0 -0.0876589379
C  C24  1  0.26180000  0.28510000  0.90470000  1.0 -0.0876589379
C  C25  1  0.17020000  0.26030000  0.48600000  1.0 0.6222585441
C  C26  1  0.82980000  0.76030000  0.01400000  1.0 0.6222585441
C  C27  1  0.82980000  0.73970000  0.51400000  1.0 0.6222585441
C  C28  1  0.17020000  0.23970000  0.98600000  1.0 0.6222585441
C  C29  1  0.96200000  0.31270000  0.36260000  1.0 0.5697241278
C  C30  1  0.03800000  0.81270000  0.13740000  1.0 0.5697241278
C  C31  1  0.03800000  0.68730000  0.63740000  1.0 0.5697241278
C  C32  1  0.96200000  0.18730000  0.86260000  1.0 0.5697241278
C  C33  1  0.17630000  0.22940000  0.21250000  1.0 0.6139784457
C  C34  1  0.82370000  0.72940000  0.28750000  1.0 0.6139784457
C  C35  1  0.82370000  0.77060000  0.78750000  1.0 0.6139784457
C  C36  1  0.17630000  0.27060000  0.71250000  1.0 0.6139784457
C  C37  1  0.38080000  0.17310000  0.33480000  1.0 0.5697241278
C  C38  1  0.61920000  0.67310000  0.16520000  1.0 0.5697241278
C  C39  1  0.61920000  0.82690000  0.66520000  1.0 0.5697241278
C  C40  1  0.38080000  0.32690000  0.83480000  1.0 0.5697241278
C  C41  1  0.37180000  0.99580000  0.49860000  1.0 -0.0199659219
C  C42  1  0.62820000  0.49580000  0.00140000  1.0 -0.0199659219
C  C43  1  0.62820000  0.00420000  0.50140000  1.0 -0.0199659219
C  C44  1  0.37180000  0.50420000  0.99860000  1.0 -0.0199659219
C  C45  1  0.44790000  0.04580000  0.52660000  1.0 -0.0267314701
C  C46  1  0.55210000  0.54580000  0.97340000  1.0 -0.0267314701
C  C47  1  0.55210000  0.95420000  0.47340000  1.0 -0.0267314701
C  C48  1  0.44790000  0.45420000  0.02660000  1.0 -0.0267314701
C  C49  1  0.57640000  0.04880000  0.52720000  1.0 -0.0597234069
C  C50  1  0.42360000  0.54880000  0.97280000  1.0 -0.0597234069
C  C51  1  0.42360000  0.95120000  0.47280000  1.0 -0.0597234069
C  C52  1  0.57640000  0.45120000  0.02720000  1.0 -0.0597234069
C  C53  1  0.22990000  0.98990000  0.49260000  1.0 0.5764994474
C  C54  1  0.77010000  0.48990000  0.00740000  1.0 0.5764994474
C  C55  1  0.77010000  0.01010000  0.50740000  1.0 0.5764994474
C  C56  1  0.22990000  0.51010000  0.99260000  1.0 0.5764994474
C  C57  1  0.39870000  0.09460000  0.55710000  1.0 0.60042879
C  C58  1  0.60130000  0.59460000  0.94290000  1.0 0.60042879
C  C59  1  0.60130000  0.90540000  0.44290000  1.0 0.60042879
C  C60  1  0.39870000  0.40540000  0.05710000  1.0 0.60042879
C  C61  1  0.57320000  0.20900000  0.10770000  1.0 -0.011256788
C  C62  1  0.42680000  0.70900000  0.39230000  1.0 -0.011256788
C  C63  1  0.42680000  0.79100000  0.89230000  1.0 -0.011256788
C  C64  1  0.57320000  0.29100000  0.60770000  1.0 -0.011256788
C  C65  1  0.65700000  0.24090000  0.16360000  1.0 -0.0199659219
C  C66  1  0.34300000  0.74090000  0.33640000  1.0 -0.0199659219
C  C67  1  0.34300000  0.75910000  0.83640000  1.0 -0.0199659219
C  C68  1  0.65700000  0.25910000  0.66360000  1.0 -0.0199659219
C  C69  1  0.74850000  0.27890000  0.15420000  1.0 -0.0684896632
C  C70  1  0.25150000  0.77890000  0.34580000  1.0 -0.0684896632
C  C71  1  0.25150000  0.72110000  0.84580000  1.0 -0.0684896632
C  C72  1  0.74850000  0.22110000  0.65420000  1.0 -0.0684896632
C  C73  1  0.76080000  0.28500000  0.09000000  1.0 0.0087965089
C  C74  1  0.23920000  0.78500000  0.41000000  1.0 0.0087965089
C  C75  1  0.23920000  0.71500000  0.91000000  1.0 0.0087965089
C  C76  1  0.76080000  0.21500000  0.59000000  1.0 0.0087965089
C  C77  1  0.67510000  0.25340000  0.03390000  1.0 -0.0199659219
C  C78  1  0.32490000  0.75340000  0.46610000  1.0 -0.0199659219
C  C79  1  0.32490000  0.74660000  0.96610000  1.0 -0.0199659219
C  C80  1  0.67510000  0.24660000  0.53390000  1.0 -0.0199659219
C  C81  1  0.58230000  0.21560000  0.04330000  1.0 -0.0876589379
C  C82  1  0.41770000  0.71560000  0.45670000  1.0 -0.0876589379
C  C83  1  0.41770000  0.78440000  0.95670000  1.0 -0.0876589379
C  C84  1  0.58230000  0.28440000  0.54330000  1.0 -0.0876589379
C  C85  1  0.46340000  0.17030000  0.11110000  1.0 0.5697241278
C  C86  1  0.53660000  0.67030000  0.38890000  1.0 0.5697241278
C  C87  1  0.53660000  0.82970000  0.88890000  1.0 0.5697241278
C  C88  1  0.46340000  0.32970000  0.61110000  1.0 0.5697241278
C  C89  1  0.65980000  0.23090000  0.23490000  1.0 0.60042879
C  C90  1  0.34020000  0.73090000  0.26510000  1.0 0.60042879
C  C91  1  0.34020000  0.76910000  0.76510000  1.0 0.60042879
C  C92  1  0.65980000  0.26910000  0.73490000  1.0 0.60042879
C  C93  1  0.87670000  0.31770000  0.08510000  1.0 0.5564718993
C  C94  1  0.12330000  0.81770000  0.41490000  1.0 0.5564718993
C  C95  1  0.12330000  0.68230000  0.91490000  1.0 0.5564718993
C  C96  1  0.87670000  0.18230000  0.58510000  1.0 0.5564718993
C  C97  1  0.67410000  0.26110000  0.96310000  1.0 0.6222585441
C  C98  1  0.32590000  0.76110000  0.53690000  1.0 0.6222585441
C  C99  1  0.32590000  0.73890000  0.03690000  1.0 0.6222585441
C  C100  1  0.67410000  0.23890000  0.46310000  1.0 0.6222585441
O  O1  1  0.17140000  0.21680000  0.52230000  1.0 -0.6189630656
O  O2  1  0.82860000  0.71680000  0.97770000  1.0 -0.6189630656
O  O3  1  0.82860000  0.78320000  0.47770000  1.0 -0.6189630656
O  O4  1  0.17140000  0.28320000  0.02230000  1.0 -0.6189630656
O  O5  1  0.17750000  0.31280000  0.50500000  1.0 -0.5034917144
O  O6  1  0.82250000  0.81280000  0.99500000  1.0 -0.5034917144
O  O7  1  0.82250000  0.68720000  0.49500000  1.0 -0.5034917144
O  O8  1  0.17750000  0.18720000  0.00500000  1.0 -0.5034917144
O  O9  1  0.90680000  0.29090000  0.40130000  1.0 -0.5227253088
O  O10  1  0.09320000  0.79090000  0.09870000  1.0 -0.5227253088
O  O11  1  0.09320000  0.70910000  0.59870000  1.0 -0.5227253088
O  O12  1  0.90680000  0.20910000  0.90130000  1.0 -0.5227253088
O  O13  1  0.91540000  0.35690000  0.32660000  1.0 -0.5704462229
O  O14  1  0.08460000  0.85690000  0.17340000  1.0 -0.5704462229
O  O15  1  0.08460000  0.64310000  0.67340000  1.0 -0.5704462229
O  O16  1  0.91540000  0.14310000  0.82660000  1.0 -0.5704462229
O  O17  1  0.14220000  0.27150000  0.17120000  1.0 -0.6285605711
O  O18  1  0.85780000  0.77150000  0.32880000  1.0 -0.6285605711
O  O19  1  0.85780000  0.72850000  0.82880000  1.0 -0.6285605711
O  O20  1  0.14220000  0.22850000  0.67120000  1.0 -0.6285605711
O  O21  1  0.20300000  0.17840000  0.19630000  1.0 -0.5096395561
O  O22  1  0.79700000  0.67840000  0.30370000  1.0 -0.5096395561
O  O23  1  0.79700000  0.82160000  0.80370000  1.0 -0.5096395561
O  O24  1  0.20300000  0.32160000  0.69630000  1.0 -0.5096395561
O  O25  1  0.46480000  0.20170000  0.31970000  1.0 -0.5034917144
O  O26  1  0.53520000  0.70170000  0.18030000  1.0 -0.5034917144
O  O27  1  0.53520000  0.79830000  0.68030000  1.0 -0.5034917144
O  O28  1  0.46480000  0.29830000  0.81970000  1.0 -0.5034917144
O  O29  1  0.38660000  0.11950000  0.34810000  1.0 -0.4296123905
O  O30  1  0.61340000  0.61950000  0.15190000  1.0 -0.4296123905
O  O31  1  0.61340000  0.88050000  0.65190000  1.0 -0.4296123905
O  O32  1  0.38660000  0.38050000  0.84810000  1.0 -0.4296123905
O  O33  1  0.20650000  0.96050000  0.53800000  1.0 -0.3507683084
O  O34  1  0.79350000  0.46050000  0.96200000  1.0 -0.3507683084
O  O35  1  0.79350000  0.03950000  0.46200000  1.0 -0.3507683084
O  O36  1  0.20650000  0.53950000  0.03800000  1.0 -0.3507683084
O  O37  1  0.14190000  0.01220000  0.44050000  1.0 -0.390595056
O  O38  1  0.85810000  0.51220000  0.05950000  1.0 -0.390595056
O  O39  1  0.85810000  0.98780000  0.55950000  1.0 -0.390595056
O  O40  1  0.14190000  0.48780000  0.94050000  1.0 -0.390595056
O  O41  1  0.28630000  0.09030000  0.56170000  1.0 -0.5920846312
O  O42  1  0.71370000  0.59030000  0.93830000  1.0 -0.5920846312
O  O43  1  0.71370000  0.90970000  0.43830000  1.0 -0.5920846312
O  O44  1  0.28630000  0.40970000  0.06170000  1.0 -0.5920846312
O  O45  1  0.47160000  0.13770000  0.57910000  1.0 -0.3999473079
O  O46  1  0.52840000  0.63770000  0.92090000  1.0 -0.3999473079
O  O47  1  0.52840000  0.86230000  0.42090000  1.0 -0.3999473079
O  O48  1  0.47160000  0.36230000  0.07910000  1.0 -0.3999473079
O  O49  1  0.38130000  0.19470000  0.13170000  1.0 -0.5227253088
O  O50  1  0.61870000  0.69470000  0.36830000  1.0 -0.5256046204
O  O51  1  0.61870000  0.80530000  0.86830000  1.0 -0.5227253088
O  O52  1  0.38130000  0.30530000  0.63170000  1.0 -0.5256046204
O  O53  1  0.45640000  0.11910000  0.09110000  1.0 -0.3999473079
O  O54  1  0.54360000  0.61910000  0.40890000  1.0 -0.3999473079
O  O55  1  0.54360000  0.88090000  0.90890000  1.0 -0.3999473079
O  O56  1  0.45640000  0.38090000  0.59110000  1.0 -0.3999473079
O  O57  1  0.63840000  0.17970000  0.25050000  1.0 -0.5096395561
O  O58  1  0.36160000  0.67970000  0.24950000  1.0 -0.5096395561
O  O59  1  0.36160000  0.82030000  0.74950000  1.0 -0.5096395561
O  O60  1  0.63840000  0.32030000  0.75050000  1.0 -0.5096395561
O  O61  1  0.68850000  0.27340000  0.27610000  1.0 -0.6285605711
O  O62  1  0.31150000  0.77340000  0.22390000  1.0 -0.6285605711
O  O63  1  0.31150000  0.72660000  0.72390000  1.0 -0.6285605711
O  O64  1  0.68850000  0.22660000  0.77610000  1.0 -0.6285605711
O  O65  1  0.92140000  0.36260000  0.12040000  1.0 -0.5520461945
O  O66  1  0.07860000  0.86260000  0.37960000  1.0 -0.5520461945
O  O67  1  0.07860000  0.63740000  0.87960000  1.0 -0.5520461945
O  O68  1  0.92140000  0.13740000  0.62040000  1.0 -0.5520461945
O  O69  1  0.93250000  0.29550000  0.04740000  1.0 -0.5096395561
O  O70  1  0.06750000  0.79550000  0.45260000  1.0 -0.5096395561
O  O71  1  0.06750000  0.70450000  0.95260000  1.0 -0.5096395561
O  O72  1  0.93250000  0.20450000  0.54740000  1.0 -0.5096395561
O  O73  1  0.66780000  0.21660000  0.92690000  1.0 -0.6189630656
O  O74  1  0.33220000  0.71660000  0.57310000  1.0 -0.6189630656
O  O75  1  0.33220000  0.78340000  0.07310000  1.0 -0.6189630656
O  O76  1  0.66780000  0.28340000  0.42690000  1.0 -0.6189630656
O  O77  1  0.67010000  0.31350000  0.94220000  1.0 -0.4909557699
O  O78  1  0.32990000  0.81350000  0.55780000  1.0 -0.4909557699
O  O79  1  0.32990000  0.68650000  0.05780000  1.0 -0.4909557699
O  O80  1  0.67010000  0.18650000  0.44220000  1.0 -0.4909557699
O  O81  1  0.00800000  0.10440000  0.48270000  1.0 0.0818199405
O  O82  1  0.99200000  0.60440000  0.01730000  1.0 0.088833131
O  O83  1  0.99200000  0.89560000  0.51730000  1.0 0.088833131
O  O84  1  0.00800000  0.39560000  0.98270000  1.0 0.0818199405
O  O85  1  0.09850000  0.04090000  0.61070000  1.0 -0.2083476035
O  O86  1  0.90150000  0.54090000  0.88930000  1.0 -0.2041156439
O  O87  1  0.90150000  0.95910000  0.38930000  1.0 -0.2041156439
O  O88  1  0.09850000  0.45910000  0.11070000  1.0 -0.2041156439
O  O89  1  0.23850000  0.10960000  0.71900000  1.0 -0.418088441
O  O90  1  0.76150000  0.60960000  0.78100000  1.0 -0.4091989844
O  O91  1  0.76150000  0.89040000  0.28100000  1.0 -0.418088441
O  O92  1  0.23850000  0.39040000  0.21900000  1.0 -0.418088441
O  O93  1  0.37000000  0.18820000  0.65470000  1.0 0.1107187273
O  O94  1  0.63000000  0.68820000  0.84530000  1.0 0.1107187273
O  O95  1  0.63000000  0.81180000  0.34530000  1.0 0.1107187273
O  O96  1  0.37000000  0.31180000  0.15470000  1.0 0.1198983007
O  O97  1  0.46930000  0.17670000  0.80230000  1.0 -0.0199659219
O  O98  1  0.53070000  0.67670000  0.69770000  1.0 -0.0267314701
O  O99  1  0.53070000  0.82330000  0.19770000  1.0 -0.011256788
O  O100  1  0.46930000  0.32330000  0.30230000  1.0 -0.0199659219
O  O101  1  0.61950000  0.10490000  0.73630000  1.0 -0.3383962481
O  O102  1  0.38050000  0.60490000  0.76370000  1.0 -0.3383962481
O  O103  1  0.38050000  0.89510000  0.26370000  1.0 -0.3383962481
O  O104  1  0.61950000  0.39510000  0.23630000  1.0 -0.3383962481
O  O105  1  0.76440000  0.04070000  0.83950000  1.0 -0.2480773179
O  O106  1  0.23560000  0.54070000  0.66050000  1.0 -0.2442433386
O  O107  1  0.23560000  0.95930000  0.16050000  1.0 -0.2324823289
O  O108  1  0.76440000  0.45930000  0.33950000  1.0 -0.2324823289
O  O109  1  0.57460000  0.08270000  0.89640000  1.0 -0.6285605711
O  O110  1  0.42540000  0.58270000  0.60360000  1.0 -0.6117662935
O  O111  1  0.42540000  0.91730000  0.10360000  1.0 -0.6189630656
O  O112  1  0.57460000  0.41730000  0.39640000  1.0 -0.6189630656
O  O113  1  0.85270000  0.10430000  0.95980000  1.0 -0.3507683084
O  O114  1  0.14730000  0.60430000  0.54020000  1.0 -0.3507683084
O  O115  1  0.14730000  0.89570000  0.04020000  1.0 -0.3383962481
O  O116  1  0.85270000  0.39570000  0.45980000  1.0 -0.3507683084
O  O117  1  0.99440000  0.17860000  0.06660000  1.0 -0.1504917292
O  O118  1  0.00560000  0.67860000  0.43340000  1.0 -0.1559651493
O  O119  1  0.00560000  0.82140000  0.93340000  1.0 -0.1504917292
O  O120  1  0.99440000  0.32140000  0.56660000  1.0 -0.1504917292
O  O121  1  0.20700000  0.07880000  0.09360000  1.0 -0.1396956095
O  O122  1  0.79300000  0.57880000  0.40640000  1.0 -0.1396956095
O  O123  1  0.79300000  0.92120000  0.90640000  1.0 -0.1347112952
O  O124  1  0.20700000  0.42120000  0.59360000  1.0 -0.1396956095
O  O125  1  0.61610000  0.08060000  0.34710000  1.0 0.1198983007
O  O126  1  0.38390000  0.58060000  0.15290000  1.0 0.1301416001
O  O127  1  0.38390000  0.91940000  0.65290000  1.0 0.1301416001
O  O128  1  0.61610000  0.41940000  0.84710000  1.0 0.1301416001
O  O129  1  0.85000000  0.17650000  0.37740000  1.0 -0.096001163
O  O130  1  0.15000000  0.67650000  0.12260000  1.0 -0.0876589379
O  O131  1  0.15000000  0.82350000  0.62260000  1.0 -0.0876589379
O  O132  1  0.85000000  0.32350000  0.87740000  1.0 -0.0798480598
