# DDEC6 charges by PACMAN v1.1 (https://github.com/mtap-research/PACMAN-charge/)
data_VIWLAQ_ASR_pacman
_symmetry_space_group_name_H-M   'P 1'
_cell_length_a   10.85600000
_cell_length_b   22.79900000
_cell_length_c   20.87190000
_cell_angle_alpha   90.00000000
_cell_angle_beta   111.37400000
_cell_angle_gamma   90.00000000
_symmetry_Int_Tables_number   1
_chemical_formula_structural   Nd2Cu2H5(C5O4)5
_chemical_formula_sum   'Nd8 Cu8 H20 C100 O80'
_cell_volume   4810.61407639
_cell_formula_units_Z   4
loop_
 _symmetry_equiv_pos_site_id
 _symmetry_equiv_pos_as_xyz
  1  'x, y, z'
loop_
 _atom_site_type_symbol
 _atom_site_label
 _atom_site_symmetry_multiplicity
 _atom_site_fract_x
 _atom_site_fract_y
 _atom_site_fract_z
 _atom_site_occupancy
 _atom_site_charge
Nd  Nd1  1  0.13799000  0.14851000  0.59673000  1.0 2.1124325055
Nd  Nd2  1  0.86201000  0.64851000  0.90327000  1.0 2.1124325055
Nd  Nd3  1  0.86201000  0.85149000  0.40327000  1.0 2.1124325055
Nd  Nd4  1  0.13799000  0.35149000  0.09673000  1.0 2.1124325055
Nd  Nd5  1  0.69775000  0.14442000  0.84736000  1.0 2.1124325055
Nd  Nd6  1  0.30225000  0.64442000  0.65264000  1.0 2.1124325055
Nd  Nd7  1  0.30225000  0.85558000  0.15264000  1.0 2.1124325055
Nd  Nd8  1  0.69775000  0.35558000  0.34736000  1.0 2.1124325055
Cu  Cu1  1  0.18593000  0.17319000  0.09588000  1.0 0.9084010381
Cu  Cu2  1  0.81407000  0.67319000  0.40412000  1.0 0.9084010381
Cu  Cu3  1  0.81407000  0.82681000  0.90412000  1.0 0.9084010381
Cu  Cu4  1  0.18593000  0.32681000  0.59588000  1.0 0.9084010381
Cu  Cu5  1  0.65042000  0.17701000  0.34412000  1.0 0.9166939516
Cu  Cu6  1  0.34958000  0.67701000  0.15588000  1.0 0.9166939516
Cu  Cu7  1  0.34958000  0.82299000  0.65588000  1.0 0.9166939516
Cu  Cu8  1  0.65042000  0.32299000  0.84412000  1.0 0.9166939516
H  H1  1  0.02540000  0.29560000  0.25100000  1.0 0.1104948232
H  H2  1  0.97460000  0.79560000  0.24900000  1.0 0.1104948232
H  H3  1  0.97460000  0.70440000  0.74900000  1.0 0.1104948232
H  H4  1  0.02540000  0.20440000  0.75100000  1.0 0.1104948232
H  H5  1  0.32100000  0.19720000  0.43950000  1.0 0.1288441379
H  H6  1  0.67900000  0.69720000  0.06050000  1.0 0.1288441379
H  H7  1  0.67900000  0.80280000  0.56050000  1.0 0.1288441379
H  H8  1  0.32100000  0.30280000  0.93950000  1.0 0.1288441379
H  H9  1  0.62060000  0.08630000  0.53390000  1.0 0.1104948232
H  H10  1  0.37940000  0.58630000  0.96610000  1.0 0.1104948232
H  H11  1  0.37940000  0.91370000  0.46610000  1.0 0.1104948232
H  H12  1  0.62060000  0.41370000  0.03390000  1.0 0.1104948232
H  H13  1  0.79720000  0.30050000  0.18850000  1.0 0.1104948232
H  H14  1  0.20280000  0.80050000  0.31150000  1.0 0.1104948232
H  H15  1  0.20280000  0.69950000  0.81150000  1.0 0.1104948232
H  H16  1  0.79720000  0.19950000  0.68850000  1.0 0.1104948232
H  H17  1  0.52050000  0.19310000  0.00260000  1.0 0.1200533617
H  H18  1  0.47950000  0.69310000  0.49740000  1.0 0.1200533617
H  H19  1  0.47950000  0.80690000  0.99740000  1.0 0.1200533617
H  H20  1  0.52050000  0.30690000  0.50260000  1.0 0.1200533617
C  C1  1  0.16310000  0.25260000  0.40930000  1.0 -0.0210205632
C  C2  1  0.83690000  0.75260000  0.09070000  1.0 -0.0210205632
C  C3  1  0.83690000  0.74740000  0.59070000  1.0 -0.0210205632
C  C4  1  0.16310000  0.24740000  0.90930000  1.0 -0.0210205632
C  C5  1  0.07280000  0.28090000  0.35240000  1.0 -0.0399440438
C  C6  1  0.92720000  0.78090000  0.14760000  1.0 -0.0399440438
C  C7  1  0.92720000  0.71910000  0.64760000  1.0 -0.0399440438
C  C8  1  0.07280000  0.21910000  0.85240000  1.0 -0.0399440438
C  C9  1  0.08180000  0.27460000  0.28830000  1.0 -0.1284970309
C  C10  1  0.91820000  0.77460000  0.21170000  1.0 -0.1284970309
C  C11  1  0.91820000  0.72540000  0.71170000  1.0 -0.1284970309
C  C12  1  0.08180000  0.22540000  0.78830000  1.0 -0.1284970309
C  C13  1  0.17560000  0.23660000  0.27950000  1.0 -0.0604923576
C  C14  1  0.82440000  0.73660000  0.22050000  1.0 -0.0604923576
C  C15  1  0.82440000  0.76340000  0.72050000  1.0 -0.0604923576
C  C16  1  0.17560000  0.26340000  0.77950000  1.0 -0.0604923576
C  C17  1  0.26480000  0.20770000  0.33620000  1.0 -0.0115585778
C  C18  1  0.73520000  0.70770000  0.16380000  1.0 -0.0115585778
C  C19  1  0.73520000  0.79230000  0.66380000  1.0 -0.0115585778
C  C20  1  0.26480000  0.29230000  0.83620000  1.0 -0.0115585778
C  C21  1  0.26020000  0.21590000  0.40150000  1.0 -0.1244416352
C  C22  1  0.73980000  0.71590000  0.09850000  1.0 -0.1244416352
C  C23  1  0.73980000  0.78410000  0.59850000  1.0 -0.1244416352
C  C24  1  0.26020000  0.28410000  0.90150000  1.0 -0.1244416352
C  C25  1  0.16760000  0.26280000  0.48190000  1.0 0.6315520364
C  C26  1  0.83240000  0.76280000  0.01810000  1.0 0.6315520364
C  C27  1  0.83240000  0.73720000  0.51810000  1.0 0.6315520364
C  C28  1  0.16760000  0.23720000  0.98190000  1.0 0.6315520364
C  C29  1  0.95720000  0.31390000  0.35730000  1.0 0.5871960182
C  C30  1  0.04280000  0.81390000  0.14270000  1.0 0.5871960182
C  C31  1  0.04280000  0.68610000  0.64270000  1.0 0.5871960182
C  C32  1  0.95720000  0.18610000  0.85730000  1.0 0.5871960182
C  C33  1  0.17190000  0.22590000  0.20830000  1.0 0.6315520364
C  C34  1  0.82810000  0.72590000  0.29170000  1.0 0.6315520364
C  C35  1  0.82810000  0.77410000  0.79170000  1.0 0.6315520364
C  C36  1  0.17190000  0.27410000  0.70830000  1.0 0.6315520364
C  C37  1  0.37830000  0.17220000  0.33240000  1.0 0.559069838
C  C38  1  0.62170000  0.67220000  0.16760000  1.0 0.559069838
C  C39  1  0.62170000  0.82780000  0.66760000  1.0 0.559069838
C  C40  1  0.37830000  0.32780000  0.83240000  1.0 0.559069838
C  C41  1  0.37090000  0.99660000  0.49860000  1.0 -0.0299330534
C  C42  1  0.62910000  0.49660000  0.00140000  1.0 -0.0299330534
C  C43  1  0.62910000  0.00340000  0.50140000  1.0 -0.0299330534
C  C44  1  0.37090000  0.50340000  0.99860000  1.0 -0.0299330534
C  C45  1  0.44290000  0.04780000  0.51950000  1.0 -0.054762618
C  C46  1  0.55710000  0.54780000  0.98050000  1.0 -0.054762618
C  C47  1  0.55710000  0.95220000  0.48050000  1.0 -0.054762618
C  C48  1  0.44290000  0.45220000  0.01950000  1.0 -0.054762618
C  C49  1  0.57280000  0.05170000  0.52050000  1.0 -0.0889376853
C  C50  1  0.42720000  0.55170000  0.97950000  1.0 -0.0889376853
C  C51  1  0.42720000  0.94830000  0.47950000  1.0 -0.0889376853
C  C52  1  0.57280000  0.44830000  0.02050000  1.0 -0.0889376853
C  C53  1  0.23080000  0.99050000  0.49330000  1.0 0.5509980876
C  C54  1  0.76920000  0.49050000  0.00670000  1.0 0.5509980876
C  C55  1  0.76920000  0.00950000  0.50670000  1.0 0.5509980876
C  C56  1  0.23080000  0.50950000  0.99330000  1.0 0.5509980876
C  C57  1  0.39020000  0.09870000  0.54600000  1.0 0.5952387113
C  C58  1  0.60980000  0.59870000  0.95400000  1.0 0.5952387113
C  C59  1  0.60980000  0.90130000  0.45400000  1.0 0.5952387113
C  C60  1  0.39020000  0.40130000  0.04600000  1.0 0.5952387113
C  C61  1  0.56860000  0.20670000  0.10480000  1.0 -0.0115585778
C  C62  1  0.43140000  0.70670000  0.39520000  1.0 -0.0115585778
C  C63  1  0.43140000  0.79330000  0.89520000  1.0 -0.0115585778
C  C64  1  0.56860000  0.29330000  0.60480000  1.0 -0.0115585778
C  C65  1  0.65230000  0.23940000  0.16110000  1.0 -0.0604923576
C  C66  1  0.34770000  0.73940000  0.33890000  1.0 -0.0604923576
C  C67  1  0.34770000  0.76060000  0.83890000  1.0 -0.0604923576
C  C68  1  0.65230000  0.26060000  0.66110000  1.0 -0.0604923576
C  C69  1  0.74330000  0.27820000  0.15160000  1.0 -0.1095885042
C  C70  1  0.25670000  0.77820000  0.34840000  1.0 -0.1095885042
C  C71  1  0.25670000  0.72180000  0.84840000  1.0 -0.1095885042
C  C72  1  0.74330000  0.22180000  0.65160000  1.0 -0.1095885042
C  C73  1  0.75450000  0.28400000  0.08710000  1.0 -0.0210205632
C  C74  1  0.24550000  0.78400000  0.41290000  1.0 -0.0210205632
C  C75  1  0.24550000  0.71600000  0.91290000  1.0 -0.0210205632
C  C76  1  0.75450000  0.21600000  0.58710000  1.0 -0.0210205632
C  C77  1  0.66960000  0.25240000  0.03070000  1.0 -0.0210205632
C  C78  1  0.33040000  0.75240000  0.46930000  1.0 -0.0210205632
C  C79  1  0.33040000  0.74760000  0.96930000  1.0 -0.0210205632
C  C80  1  0.66960000  0.24760000  0.53070000  1.0 -0.0210205632
C  C81  1  0.57710000  0.21410000  0.03990000  1.0 -0.1284970309
C  C82  1  0.42290000  0.71410000  0.46010000  1.0 -0.1284970309
C  C83  1  0.42290000  0.78590000  0.96010000  1.0 -0.1284970309
C  C84  1  0.57710000  0.28590000  0.53990000  1.0 -0.1284970309
C  C85  1  0.45930000  0.16810000  0.10820000  1.0 0.5663154084
C  C86  1  0.54070000  0.66810000  0.39180000  1.0 0.5663154084
C  C87  1  0.54070000  0.83190000  0.89180000  1.0 0.5663154084
C  C88  1  0.45930000  0.33190000  0.60820000  1.0 0.5663154084
C  C89  1  0.65580000  0.22880000  0.23180000  1.0 0.62194493
C  C90  1  0.34420000  0.72880000  0.26820000  1.0 0.62194493
C  C91  1  0.34420000  0.77120000  0.76820000  1.0 0.62194493
C  C92  1  0.65580000  0.27120000  0.73180000  1.0 0.62194493
C  C93  1  0.86950000  0.31690000  0.08210000  1.0 0.5663154084
C  C94  1  0.13050000  0.81690000  0.41790000  1.0 0.5663154084
C  C95  1  0.13050000  0.68310000  0.91790000  1.0 0.5663154084
C  C96  1  0.86950000  0.18310000  0.58210000  1.0 0.5663154084
C  C97  1  0.66870000  0.26020000  0.95930000  1.0 0.6374475617
C  C98  1  0.33130000  0.76020000  0.54070000  1.0 0.6374475617
C  C99  1  0.33130000  0.73980000  0.04070000  1.0 0.6374475617
C  C100  1  0.66870000  0.23980000  0.45930000  1.0 0.6374475617
O  O1  1  0.16440000  0.21960000  0.51760000  1.0 -0.6824388247
O  O2  1  0.83560000  0.71960000  0.98240000  1.0 -0.6824388247
O  O3  1  0.83560000  0.78040000  0.48240000  1.0 -0.6824388247
O  O4  1  0.16440000  0.28040000  0.01760000  1.0 -0.6824388247
O  O5  1  0.17630000  0.31560000  0.50060000  1.0 -0.5484843892
O  O6  1  0.82370000  0.81560000  0.99940000  1.0 -0.5484843892
O  O7  1  0.82370000  0.68440000  0.49940000  1.0 -0.5484843892
O  O8  1  0.17630000  0.18440000  0.00060000  1.0 -0.5484843892
O  O9  1  0.90310000  0.29270000  0.39630000  1.0 -0.6125930887
O  O10  1  0.09690000  0.79270000  0.10370000  1.0 -0.6125930887
O  O11  1  0.09690000  0.70730000  0.60370000  1.0 -0.6125930887
O  O12  1  0.90310000  0.20730000  0.89630000  1.0 -0.6125930887
O  O13  1  0.91040000  0.35790000  0.32070000  1.0 -0.6210341495
O  O14  1  0.08960000  0.85790000  0.17930000  1.0 -0.6210341495
O  O15  1  0.08960000  0.64210000  0.67930000  1.0 -0.6210341495
O  O16  1  0.91040000  0.14210000  0.82070000  1.0 -0.6210341495
O  O17  1  0.14250000  0.26810000  0.16700000  1.0 -0.7295115035
O  O18  1  0.85750000  0.76810000  0.33300000  1.0 -0.7295115035
O  O19  1  0.85750000  0.73190000  0.83300000  1.0 -0.7295115035
O  O20  1  0.14250000  0.23190000  0.66700000  1.0 -0.7295115035
O  O21  1  0.19650000  0.17480000  0.19270000  1.0 -0.5179165543
O  O22  1  0.80350000  0.67480000  0.30730000  1.0 -0.5179165543
O  O23  1  0.80350000  0.82520000  0.80730000  1.0 -0.5179165543
O  O24  1  0.19650000  0.32520000  0.69270000  1.0 -0.5179165543
O  O25  1  0.46110000  0.20120000  0.31490000  1.0 -0.5751721006
O  O26  1  0.53890000  0.70120000  0.18510000  1.0 -0.5751721006
O  O27  1  0.53890000  0.79880000  0.68510000  1.0 -0.5751721006
O  O28  1  0.46110000  0.29880000  0.81490000  1.0 -0.5751721006
O  O29  1  0.38750000  0.11950000  0.34830000  1.0 -0.497860704
O  O30  1  0.61250000  0.61950000  0.15170000  1.0 -0.497860704
O  O31  1  0.61250000  0.88050000  0.65170000  1.0 -0.497860704
O  O32  1  0.38750000  0.38050000  0.84830000  1.0 -0.497860704
O  O33  1  0.20780000  0.96100000  0.53940000  1.0 -0.4696173709
O  O34  1  0.79220000  0.46100000  0.96060000  1.0 -0.4696173709
O  O35  1  0.79220000  0.03900000  0.46060000  1.0 -0.4696173709
O  O36  1  0.20780000  0.53900000  0.03940000  1.0 -0.4696173709
O  O37  1  0.14030000  0.01240000  0.44180000  1.0 -0.4328369093
O  O38  1  0.85970000  0.51240000  0.05820000  1.0 -0.4328369093
O  O39  1  0.85970000  0.98760000  0.55820000  1.0 -0.4328369093
O  O40  1  0.14030000  0.48760000  0.94180000  1.0 -0.4328369093
O  O41  1  0.28130000  0.09200000  0.55530000  1.0 -0.6723003726
O  O42  1  0.71870000  0.59200000  0.94470000  1.0 -0.6723003726
O  O43  1  0.71870000  0.90800000  0.44470000  1.0 -0.6723003726
O  O44  1  0.28130000  0.40800000  0.05530000  1.0 -0.6723003726
O  O45  1  0.45510000  0.14570000  0.55940000  1.0 -0.5484843892
O  O46  1  0.54490000  0.64570000  0.94060000  1.0 -0.5484843892
O  O47  1  0.54490000  0.85430000  0.44060000  1.0 -0.5484843892
O  O48  1  0.45510000  0.35430000  0.05940000  1.0 -0.5484843892
O  O49  1  0.37670000  0.19230000  0.12920000  1.0 -0.5606011491
O  O50  1  0.62330000  0.69230000  0.37080000  1.0 -0.5606011491
O  O51  1  0.62330000  0.80770000  0.87080000  1.0 -0.5606011491
O  O52  1  0.37670000  0.30770000  0.62920000  1.0 -0.5606011491
O  O53  1  0.45150000  0.11670000  0.08720000  1.0 -0.4786659967
O  O54  1  0.54850000  0.61670000  0.41280000  1.0 -0.4786659967
O  O55  1  0.54850000  0.88330000  0.91280000  1.0 -0.4786659967
O  O56  1  0.45150000  0.38330000  0.58720000  1.0 -0.4786659967
O  O57  1  0.63630000  0.17710000  0.24760000  1.0 -0.5179165543
O  O58  1  0.36370000  0.67710000  0.25240000  1.0 -0.5179165543
O  O59  1  0.36370000  0.82290000  0.75240000  1.0 -0.5179165543
O  O60  1  0.63630000  0.32290000  0.74760000  1.0 -0.5179165543
O  O61  1  0.68240000  0.27100000  0.27400000  1.0 -0.7295115035
O  O62  1  0.31760000  0.77100000  0.22600000  1.0 -0.7295115035
O  O63  1  0.31760000  0.72900000  0.72600000  1.0 -0.7295115035
O  O64  1  0.68240000  0.22900000  0.77400000  1.0 -0.7295115035
O  O65  1  0.91700000  0.36160000  0.11800000  1.0 -0.6210341495
O  O66  1  0.08300000  0.86160000  0.38200000  1.0 -0.6210341495
O  O67  1  0.08300000  0.63840000  0.88200000  1.0 -0.6210341495
O  O68  1  0.91700000  0.13840000  0.61800000  1.0 -0.6210341495
O  O69  1  0.92700000  0.29440000  0.04450000  1.0 -0.6335393678
O  O70  1  0.07300000  0.79440000  0.45550000  1.0 -0.6335393678
O  O71  1  0.07300000  0.70560000  0.95550000  1.0 -0.6335393678
O  O72  1  0.92700000  0.20560000  0.54450000  1.0 -0.6335393678
O  O73  1  0.66420000  0.21630000  0.92360000  1.0 -0.6987712126
O  O74  1  0.33580000  0.71630000  0.57640000  1.0 -0.6987712126
O  O75  1  0.33580000  0.78370000  0.07640000  1.0 -0.6987712126
O  O76  1  0.66420000  0.28370000  0.42360000  1.0 -0.6987712126
O  O77  1  0.66530000  0.31320000  0.93930000  1.0 -0.5179165543
O  O78  1  0.33470000  0.81320000  0.56070000  1.0 -0.5179165543
O  O79  1  0.33470000  0.68680000  0.06070000  1.0 -0.5179165543
O  O80  1  0.66530000  0.18680000  0.43930000  1.0 -0.5179165543
