# DDEC6 charges by PACMAN v1.1 (https://github.com/mtap-research/PACMAN-charge/)
data_VIWRAW_FSR_pacman
_symmetry_space_group_name_H-M   'P 1'
_cell_length_a   24.05850000
_cell_length_b   24.05850000
_cell_length_c   24.05850000
_cell_angle_alpha   60.00000000
_cell_angle_beta   60.00000000
_cell_angle_gamma   60.00000000
_symmetry_Int_Tables_number   1
_chemical_formula_structural   Zn4Ir12C42N48O13
_chemical_formula_sum   'Zn8 Ir24 C84 N96 O26'
_cell_volume   9846.69852751
_cell_formula_units_Z   2
loop_
 _symmetry_equiv_pos_site_id
 _symmetry_equiv_pos_as_xyz
  1  'x, y, z'
loop_
 _atom_site_type_symbol
 _atom_site_label
 _atom_site_symmetry_multiplicity
 _atom_site_fract_x
 _atom_site_fract_y
 _atom_site_fract_z
 _atom_site_occupancy
 _atom_site_charge
Zn  Zn1  1  0.21710000  0.21710000  0.34870000  1.0 0.8697875558
Zn  Zn2  1  0.21710000  0.21710000  0.21710000  1.0 0.8697875558
Zn  Zn3  1  0.34870000  0.21710000  0.21710000  1.0 0.8697875558
Zn  Zn4  1  0.21710000  0.34870000  0.21710000  1.0 0.8697875558
Zn  Zn5  1  0.78290000  0.78290000  0.78290000  1.0 0.8697875558
Zn  Zn6  1  0.78290000  0.78290000  0.65130000  1.0 0.8697875558
Zn  Zn7  1  0.65130000  0.78290000  0.78290000  1.0 0.8697875558
Zn  Zn8  1  0.78290000  0.65130000  0.78290000  1.0 0.8697875558
Ir  Ir1  1  0.04090000  0.95910000  0.58690000  1.0 0.5396234287
Ir  Ir2  1  0.95910000  0.04090000  0.41310000  1.0 0.5314974977
Ir  Ir3  1  0.58690000  0.41310000  0.04090000  1.0 0.5314974977
Ir  Ir4  1  0.41310000  0.58690000  0.95910000  1.0 0.5314974977
Ir  Ir5  1  0.58690000  0.04090000  0.95910000  1.0 0.5314974977
Ir  Ir6  1  0.41310000  0.95910000  0.04090000  1.0 0.5314974977
Ir  Ir7  1  0.04090000  0.58690000  0.41310000  1.0 0.545207013
Ir  Ir8  1  0.95910000  0.41310000  0.58690000  1.0 0.5314974977
Ir  Ir9  1  0.95910000  0.58690000  0.04090000  1.0 0.5314974977
Ir  Ir10  1  0.04090000  0.41310000  0.95910000  1.0 0.5396234287
Ir  Ir11  1  0.41310000  0.04090000  0.58690000  1.0 0.5314974977
Ir  Ir12  1  0.58690000  0.95910000  0.41310000  1.0 0.5396234287
Ir  Ir13  1  0.95910000  0.04090000  0.58690000  1.0 0.5314974977
Ir  Ir14  1  0.04090000  0.95910000  0.41310000  1.0 0.545207013
Ir  Ir15  1  0.41310000  0.58690000  0.04090000  1.0 0.5314974977
Ir  Ir16  1  0.58690000  0.41310000  0.95910000  1.0 0.5314974977
Ir  Ir17  1  0.41310000  0.95910000  0.58690000  1.0 0.5314974977
Ir  Ir18  1  0.58690000  0.04090000  0.41310000  1.0 0.5314974977
Ir  Ir19  1  0.95910000  0.41310000  0.04090000  1.0 0.5314974977
Ir  Ir20  1  0.04090000  0.58690000  0.95910000  1.0 0.5314974977
Ir  Ir21  1  0.04090000  0.41310000  0.58690000  1.0 0.5314974977
Ir  Ir22  1  0.95910000  0.58690000  0.41310000  1.0 0.5396234287
Ir  Ir23  1  0.58690000  0.95910000  0.04090000  1.0 0.5314974977
Ir  Ir24  1  0.41310000  0.04090000  0.95910000  1.0 0.5314974977
C  C1  1  0.97840000  0.97840000  0.52160000  1.0 0.1984400171
C  C2  1  0.52160000  0.52160000  0.97840000  1.0 0.1984400171
C  C3  1  0.52160000  0.97840000  0.97840000  1.0 0.1984400171
C  C4  1  0.97840000  0.52160000  0.52160000  1.0 0.1984400171
C  C5  1  0.97840000  0.52160000  0.97840000  1.0 0.1984400171
C  C6  1  0.52160000  0.97840000  0.52160000  1.0 0.1984400171
C  C7  1  0.02160000  0.02160000  0.47840000  1.0 0.1984400171
C  C8  1  0.47840000  0.47840000  0.02160000  1.0 0.1984400171
C  C9  1  0.47840000  0.02160000  0.47840000  1.0 0.1984400171
C  C10  1  0.02160000  0.47840000  0.02160000  1.0 0.1984400171
C  C11  1  0.02160000  0.47840000  0.47840000  1.0 0.1984400171
C  C12  1  0.47840000  0.02160000  0.02160000  1.0 0.1984400171
C  C13  1  0.06230000  0.10010000  0.37190000  1.0 0.0086605134
C  C14  1  0.10010000  0.06230000  0.46570000  1.0 0.0173283826
C  C15  1  0.37190000  0.46570000  0.06230000  1.0 0.0086605134
C  C16  1  0.46570000  0.37190000  0.10010000  1.0 0.0086605134
C  C17  1  0.37190000  0.06230000  0.10010000  1.0 0.0086605134
C  C18  1  0.46570000  0.10010000  0.06230000  1.0 0.0086605134
C  C19  1  0.06230000  0.37190000  0.46570000  1.0 0.0086605134
C  C20  1  0.10010000  0.46570000  0.37190000  1.0 0.0086605134
C  C21  1  0.10010000  0.37190000  0.06230000  1.0 0.0173283826
C  C22  1  0.06230000  0.46570000  0.10010000  1.0 0.0086605134
C  C23  1  0.46570000  0.06230000  0.37190000  1.0 0.0086605134
C  C24  1  0.37190000  0.10010000  0.46570000  1.0 0.0086605134
C  C25  1  0.93770000  0.89990000  0.53430000  1.0 0.0086605134
C  C26  1  0.89990000  0.93770000  0.62810000  1.0 0.0086605134
C  C27  1  0.62810000  0.53430000  0.89990000  1.0 0.0086605134
C  C28  1  0.53430000  0.62810000  0.93770000  1.0 0.0086605134
C  C29  1  0.62810000  0.93770000  0.53430000  1.0 0.0086605134
C  C30  1  0.53430000  0.89990000  0.62810000  1.0 0.0086605134
C  C31  1  0.93770000  0.62810000  0.89990000  1.0 0.0086605134
C  C32  1  0.89990000  0.53430000  0.93770000  1.0 0.0086605134
C  C33  1  0.89990000  0.62810000  0.53430000  1.0 0.0086605134
C  C34  1  0.93770000  0.53430000  0.62810000  1.0 0.0086605134
C  C35  1  0.53430000  0.93770000  0.89990000  1.0 0.0086605134
C  C36  1  0.62810000  0.89990000  0.93770000  1.0 0.0086605134
C  C37  1  0.93770000  0.89990000  0.62810000  1.0 0.0086605134
C  C38  1  0.89990000  0.93770000  0.53430000  1.0 0.0086605134
C  C39  1  0.62810000  0.53430000  0.93770000  1.0 0.0086605134
C  C40  1  0.53430000  0.62810000  0.89990000  1.0 0.0086605134
C  C41  1  0.62810000  0.93770000  0.89990000  1.0 0.0086605134
C  C42  1  0.53430000  0.89990000  0.93770000  1.0 0.0086605134
C  C43  1  0.93770000  0.62810000  0.53430000  1.0 0.0086605134
C  C44  1  0.89990000  0.53430000  0.62810000  1.0 0.0086605134
C  C45  1  0.89990000  0.62810000  0.93770000  1.0 0.0086605134
C  C46  1  0.93770000  0.53430000  0.89990000  1.0 0.0086605134
C  C47  1  0.53430000  0.93770000  0.62810000  1.0 0.0086605134
C  C48  1  0.62810000  0.89990000  0.53430000  1.0 0.0086605134
C  C49  1  0.06230000  0.10010000  0.46570000  1.0 0.0086605134
C  C50  1  0.10010000  0.06230000  0.37190000  1.0 0.0086605134
C  C51  1  0.37190000  0.46570000  0.10010000  1.0 0.0086605134
C  C52  1  0.46570000  0.37190000  0.06230000  1.0 0.0173283826
C  C53  1  0.37190000  0.06230000  0.46570000  1.0 0.0173283826
C  C54  1  0.46570000  0.10010000  0.37190000  1.0 0.0086605134
C  C55  1  0.06230000  0.37190000  0.10010000  1.0 0.0086605134
C  C56  1  0.10010000  0.46570000  0.06230000  1.0 0.0173283826
C  C57  1  0.10010000  0.37190000  0.46570000  1.0 0.0173283826
C  C58  1  0.06230000  0.46570000  0.37190000  1.0 0.0086605134
C  C59  1  0.46570000  0.06230000  0.10010000  1.0 0.0086605134
C  C60  1  0.37190000  0.10010000  0.06230000  1.0 0.0173283826
C  C61  1  0.14320000  0.14320000  0.35680000  1.0 0.5638286365
C  C62  1  0.35680000  0.35680000  0.14320000  1.0 0.5638286365
C  C63  1  0.35680000  0.14320000  0.14320000  1.0 0.5638286365
C  C64  1  0.14320000  0.35680000  0.35680000  1.0 0.5638286365
C  C65  1  0.14320000  0.35680000  0.14320000  1.0 0.5638286365
C  C66  1  0.35680000  0.14320000  0.35680000  1.0 0.5638286365
C  C67  1  0.85680000  0.85680000  0.64320000  1.0 0.5638286365
C  C68  1  0.64320000  0.64320000  0.85680000  1.0 0.5638286365
C  C69  1  0.64320000  0.85680000  0.64320000  1.0 0.5638286365
C  C70  1  0.85680000  0.64320000  0.85680000  1.0 0.5638286365
C  C71  1  0.85680000  0.64320000  0.64320000  1.0 0.5638286365
C  C72  1  0.64320000  0.85680000  0.85680000  1.0 0.5638286365
C  C73  1  0.09900000  0.09900000  0.40100000  1.0 -0.1590747188
C  C74  1  0.40100000  0.40100000  0.09900000  1.0 -0.1590747188
C  C75  1  0.40100000  0.09900000  0.09900000  1.0 -0.1590747188
C  C76  1  0.09900000  0.40100000  0.40100000  1.0 -0.1590747188
C  C77  1  0.09900000  0.40100000  0.09900000  1.0 -0.1590747188
C  C78  1  0.40100000  0.09900000  0.40100000  1.0 -0.1590747188
C  C79  1  0.90100000  0.90100000  0.59900000  1.0 -0.1590747188
C  C80  1  0.59900000  0.59900000  0.90100000  1.0 -0.1590747188
C  C81  1  0.59900000  0.90100000  0.59900000  1.0 -0.1590747188
C  C82  1  0.90100000  0.59900000  0.90100000  1.0 -0.1590747188
C  C83  1  0.90100000  0.59900000  0.59900000  1.0 -0.1590747188
C  C84  1  0.59900000  0.90100000  0.90100000  1.0 -0.1590747188
N  N1  1  0.94140000  0.97900000  0.58700000  1.0 0.0602699102
N  N2  1  0.97900000  0.94140000  0.49260000  1.0 0.0602699102
N  N3  1  0.58700000  0.49260000  0.94140000  1.0 0.0966342209
N  N4  1  0.49260000  0.58700000  0.97900000  1.0 0.0602699102
N  N5  1  0.58700000  0.94140000  0.97900000  1.0 0.0602699102
N  N6  1  0.49260000  0.97900000  0.94140000  1.0 0.094746281
N  N7  1  0.94140000  0.58700000  0.49260000  1.0 0.0602699102
N  N8  1  0.97900000  0.49260000  0.58700000  1.0 0.0602699102
N  N9  1  0.97900000  0.58700000  0.94140000  1.0 0.0966342209
N  N10  1  0.94140000  0.49260000  0.97900000  1.0 0.0602699102
N  N11  1  0.49260000  0.94140000  0.58700000  1.0 0.0602699102
N  N12  1  0.58700000  0.97900000  0.49260000  1.0 0.0602699102
N  N13  1  0.05860000  0.02100000  0.50740000  1.0 0.0602699102
N  N14  1  0.02100000  0.05860000  0.41300000  1.0 0.0602699102
N  N15  1  0.41300000  0.50740000  0.02100000  1.0 0.0602699102
N  N16  1  0.50740000  0.41300000  0.05860000  1.0 0.0602699102
N  N17  1  0.41300000  0.05860000  0.50740000  1.0 0.0602699102
N  N18  1  0.50740000  0.02100000  0.41300000  1.0 0.0602699102
N  N19  1  0.05860000  0.41300000  0.02100000  1.0 0.0602699102
N  N20  1  0.02100000  0.50740000  0.05860000  1.0 0.0602699102
N  N21  1  0.02100000  0.41300000  0.50740000  1.0 0.0602699102
N  N22  1  0.05860000  0.50740000  0.41300000  1.0 0.0602699102
N  N23  1  0.50740000  0.05860000  0.02100000  1.0 0.0602699102
N  N24  1  0.41300000  0.02100000  0.05860000  1.0 0.0602699102
N  N25  1  0.05860000  0.02100000  0.41300000  1.0 0.0602699102
N  N26  1  0.02100000  0.05860000  0.50740000  1.0 0.0602699102
N  N27  1  0.41300000  0.50740000  0.05860000  1.0 0.0602699102
N  N28  1  0.50740000  0.41300000  0.02100000  1.0 0.0602699102
N  N29  1  0.41300000  0.05860000  0.02100000  1.0 0.0602699102
N  N30  1  0.50740000  0.02100000  0.05860000  1.0 0.0602699102
N  N31  1  0.05860000  0.41300000  0.50740000  1.0 0.0602699102
N  N32  1  0.02100000  0.50740000  0.41300000  1.0 0.0602699102
N  N33  1  0.02100000  0.41300000  0.05860000  1.0 0.0602699102
N  N34  1  0.05860000  0.50740000  0.02100000  1.0 0.0602699102
N  N35  1  0.50740000  0.05860000  0.41300000  1.0 0.0966342209
N  N36  1  0.41300000  0.02100000  0.50740000  1.0 0.0602699102
N  N37  1  0.94140000  0.97900000  0.49260000  1.0 0.0602699102
N  N38  1  0.97900000  0.94140000  0.58700000  1.0 0.0602699102
N  N39  1  0.58700000  0.49260000  0.97900000  1.0 0.0602699102
N  N40  1  0.49260000  0.58700000  0.94140000  1.0 0.094746281
N  N41  1  0.58700000  0.94140000  0.49260000  1.0 0.0602699102
N  N42  1  0.49260000  0.97900000  0.58700000  1.0 0.0602699102
N  N43  1  0.94140000  0.58700000  0.97900000  1.0 0.0602699102
N  N44  1  0.97900000  0.49260000  0.94140000  1.0 0.0602699102
N  N45  1  0.97900000  0.58700000  0.49260000  1.0 0.0602699102
N  N46  1  0.94140000  0.49260000  0.58700000  1.0 0.0602699102
N  N47  1  0.49260000  0.94140000  0.97900000  1.0 0.0602699102
N  N48  1  0.58700000  0.97900000  0.94140000  1.0 0.0966342209
N  N49  1  0.10000000  0.98480000  0.61580000  1.0 -0.3365784859
N  N50  1  0.98480000  0.10000000  0.29940000  1.0 -0.3333767889
N  N51  1  0.61580000  0.29940000  0.10000000  1.0 -0.3333767889
N  N52  1  0.29940000  0.61580000  0.98480000  1.0 -0.3333767889
N  N53  1  0.61580000  0.10000000  0.98480000  1.0 -0.3333767889
N  N54  1  0.29940000  0.98480000  0.10000000  1.0 -0.3365784859
N  N55  1  0.10000000  0.61580000  0.29940000  1.0 -0.3333767889
N  N56  1  0.98480000  0.29940000  0.61580000  1.0 -0.3365784859
N  N57  1  0.98480000  0.61580000  0.10000000  1.0 -0.3333767889
N  N58  1  0.10000000  0.29940000  0.98480000  1.0 -0.3333767889
N  N59  1  0.29940000  0.10000000  0.61580000  1.0 -0.3333767889
N  N60  1  0.61580000  0.98480000  0.29940000  1.0 -0.3333767889
N  N61  1  0.90000000  0.01520000  0.70060000  1.0 -0.3333767889
N  N62  1  0.01520000  0.90000000  0.38420000  1.0 -0.3365784859
N  N63  1  0.38420000  0.70060000  0.01520000  1.0 -0.3365784859
N  N64  1  0.70060000  0.38420000  0.90000000  1.0 -0.3333767889
N  N65  1  0.38420000  0.90000000  0.70060000  1.0 -0.3365784859
N  N66  1  0.70060000  0.01520000  0.38420000  1.0 -0.3333767889
N  N67  1  0.90000000  0.38420000  0.01520000  1.0 -0.3333767889
N  N68  1  0.01520000  0.70060000  0.90000000  1.0 -0.3333767889
N  N69  1  0.01520000  0.38420000  0.70060000  1.0 -0.3365784859
N  N70  1  0.90000000  0.70060000  0.38420000  1.0 -0.3333767889
N  N71  1  0.70060000  0.90000000  0.01520000  1.0 -0.3365784859
N  N72  1  0.38420000  0.01520000  0.90000000  1.0 -0.3333767889
N  N73  1  0.90000000  0.01520000  0.38420000  1.0 -0.3333767889
N  N74  1  0.01520000  0.90000000  0.70060000  1.0 -0.3365784859
N  N75  1  0.38420000  0.70060000  0.90000000  1.0 -0.3333767889
N  N76  1  0.70060000  0.38420000  0.01520000  1.0 -0.3333767889
N  N77  1  0.38420000  0.90000000  0.01520000  1.0 -0.3365784859
N  N78  1  0.70060000  0.01520000  0.90000000  1.0 -0.3333767889
N  N79  1  0.90000000  0.38420000  0.70060000  1.0 -0.3365784859
N  N80  1  0.01520000  0.70060000  0.38420000  1.0 -0.3333767889
N  N81  1  0.01520000  0.38420000  0.90000000  1.0 -0.3333767889
N  N82  1  0.90000000  0.70060000  0.01520000  1.0 -0.3333767889
N  N83  1  0.70060000  0.90000000  0.38420000  1.0 -0.3365784859
N  N84  1  0.38420000  0.01520000  0.70060000  1.0 -0.3333767889
N  N85  1  0.10000000  0.98480000  0.29940000  1.0 -0.3333767889
N  N86  1  0.98480000  0.10000000  0.61580000  1.0 -0.3333767889
N  N87  1  0.61580000  0.29940000  0.98480000  1.0 -0.3333767889
N  N88  1  0.29940000  0.61580000  0.10000000  1.0 -0.3365784859
N  N89  1  0.61580000  0.10000000  0.29940000  1.0 -0.3333767889
N  N90  1  0.29940000  0.98480000  0.61580000  1.0 -0.3365784859
N  N91  1  0.10000000  0.61580000  0.98480000  1.0 -0.3333767889
N  N92  1  0.98480000  0.29940000  0.10000000  1.0 -0.3333767889
N  N93  1  0.98480000  0.61580000  0.29940000  1.0 -0.3333767889
N  N94  1  0.10000000  0.29940000  0.61580000  1.0 -0.3365784859
N  N95  1  0.29940000  0.10000000  0.98480000  1.0 -0.3333767889
N  N96  1  0.61580000  0.98480000  0.10000000  1.0 -0.3365784859
O  O1  1  0.16680000  0.16680000  0.38980000  1.0 -0.5220187499
O  O2  1  0.16680000  0.16680000  0.27660000  1.0 -0.5220187499
O  O3  1  0.38980000  0.27660000  0.16680000  1.0 -0.5220187499
O  O4  1  0.27660000  0.38980000  0.16680000  1.0 -0.5220187499
O  O5  1  0.38980000  0.16680000  0.16680000  1.0 -0.5220187499
O  O6  1  0.27660000  0.16680000  0.16680000  1.0 -0.5220187499
O  O7  1  0.16680000  0.38980000  0.27660000  1.0 -0.5220187499
O  O8  1  0.16680000  0.27660000  0.38980000  1.0 -0.5220187499
O  O9  1  0.16680000  0.38980000  0.16680000  1.0 -0.5220187499
O  O10  1  0.16680000  0.27660000  0.16680000  1.0 -0.5220187499
O  O11  1  0.27660000  0.16680000  0.38980000  1.0 -0.5220187499
O  O12  1  0.38980000  0.16680000  0.27660000  1.0 -0.5220187499
O  O13  1  0.83320000  0.83320000  0.72340000  1.0 -0.5220187499
O  O14  1  0.83320000  0.83320000  0.61020000  1.0 -0.5220187499
O  O15  1  0.61020000  0.72340000  0.83320000  1.0 -0.5220187499
O  O16  1  0.72340000  0.61020000  0.83320000  1.0 -0.5220187499
O  O17  1  0.61020000  0.83320000  0.72340000  1.0 -0.5220187499
O  O18  1  0.72340000  0.83320000  0.61020000  1.0 -0.5220187499
O  O19  1  0.83320000  0.61020000  0.83320000  1.0 -0.5220187499
O  O20  1  0.83320000  0.72340000  0.83320000  1.0 -0.5220187499
O  O21  1  0.83320000  0.61020000  0.72340000  1.0 -0.5220187499
O  O22  1  0.83320000  0.72340000  0.61020000  1.0 -0.5220187499
O  O23  1  0.72340000  0.83320000  0.83320000  1.0 -0.5220187499
O  O24  1  0.61020000  0.83320000  0.83320000  1.0 -0.5220187499
O  O25  1  0.25000000  0.25000000  0.25000000  1.0 -1.0072363721
O  O26  1  0.75000000  0.75000000  0.75000000  1.0 -1.0072363721
