# DDEC6 charges by PACMAN v1.1 (https://github.com/mtap-research/PACMAN-charge/)
data_VIXWEF_ASR_pacman
_symmetry_space_group_name_H-M   'P 1'
_cell_length_a   22.16070000
_cell_length_b   22.16070000
_cell_length_c   22.16070000
_cell_angle_alpha   60.00000000
_cell_angle_beta   60.00000000
_cell_angle_gamma   60.00000000
_symmetry_Int_Tables_number   1
_chemical_formula_structural   Ni5H6C16N2O9
_chemical_formula_sum   'Ni30 H36 C96 N12 O54'
_cell_volume   7695.47489565
_cell_formula_units_Z   6
loop_
 _symmetry_equiv_pos_site_id
 _symmetry_equiv_pos_as_xyz
  1  'x, y, z'
loop_
 _atom_site_type_symbol
 _atom_site_label
 _atom_site_symmetry_multiplicity
 _atom_site_fract_x
 _atom_site_fract_y
 _atom_site_fract_z
 _atom_site_occupancy
 _atom_site_charge
Ni  Ni1  1  0.67853000  0.32147000  0.32147000  1.0 0.9299380282
Ni  Ni2  1  0.32147000  0.67853000  0.67853000  1.0 0.9299380282
Ni  Ni3  1  0.32147000  0.67853000  0.32147000  1.0 0.9299380282
Ni  Ni4  1  0.67853000  0.32147000  0.67853000  1.0 0.9299380282
Ni  Ni5  1  0.32147000  0.32147000  0.67853000  1.0 0.9299380282
Ni  Ni6  1  0.67853000  0.67853000  0.32147000  1.0 0.9299380282
Ni  Ni7  1  0.85410000  0.21430000  0.21790000  1.0 0.3190639366
Ni  Ni8  1  0.21430000  0.85410000  0.71370000  1.0 0.312703453
Ni  Ni9  1  0.71370000  0.21790000  0.21430000  1.0 0.3285245895
Ni  Ni10  1  0.21790000  0.85410000  0.21430000  1.0 0.3285245895
Ni  Ni11  1  0.21790000  0.71370000  0.85410000  1.0 0.3285245895
Ni  Ni12  1  0.85410000  0.21790000  0.71370000  1.0 0.3190639366
Ni  Ni13  1  0.71370000  0.21430000  0.85410000  1.0 0.3190639366
Ni  Ni14  1  0.21430000  0.71370000  0.21790000  1.0 0.3190639366
Ni  Ni15  1  0.21430000  0.21790000  0.85410000  1.0 0.3285245895
Ni  Ni16  1  0.71370000  0.85410000  0.21790000  1.0 0.3285245895
Ni  Ni17  1  0.85410000  0.71370000  0.21430000  1.0 0.3285245895
Ni  Ni18  1  0.21790000  0.21430000  0.71370000  1.0 0.312703453
Ni  Ni19  1  0.14590000  0.78570000  0.78210000  1.0 0.3285245895
Ni  Ni20  1  0.78570000  0.14590000  0.28630000  1.0 0.3285245895
Ni  Ni21  1  0.28630000  0.78210000  0.78570000  1.0 0.312703453
Ni  Ni22  1  0.78210000  0.14590000  0.78570000  1.0 0.3190639366
Ni  Ni23  1  0.78210000  0.28630000  0.14590000  1.0 0.3285245895
Ni  Ni24  1  0.14590000  0.78210000  0.28630000  1.0 0.3285245895
Ni  Ni25  1  0.28630000  0.78570000  0.14590000  1.0 0.3285245895
Ni  Ni26  1  0.78570000  0.28630000  0.78210000  1.0 0.3190639366
Ni  Ni27  1  0.78570000  0.78210000  0.14590000  1.0 0.3285245895
Ni  Ni28  1  0.28630000  0.14590000  0.78210000  1.0 0.3285245895
Ni  Ni29  1  0.14590000  0.28630000  0.78570000  1.0 0.312703453
Ni  Ni30  1  0.78210000  0.78570000  0.28630000  1.0 0.3285245895
H  H1  1  0.75280000  0.24720000  0.48880000  1.0 0.1316454
H  H2  1  0.24720000  0.75280000  0.51120000  1.0 0.1316454
H  H3  1  0.51120000  0.48880000  0.24720000  1.0 0.1316454
H  H4  1  0.48880000  0.75280000  0.24720000  1.0 0.1316454
H  H5  1  0.48880000  0.51120000  0.75280000  1.0 0.1316454
H  H6  1  0.75280000  0.48880000  0.51120000  1.0 0.1316454
H  H7  1  0.51120000  0.24720000  0.75280000  1.0 0.1316454
H  H8  1  0.24720000  0.51120000  0.48880000  1.0 0.1316454
H  H9  1  0.24720000  0.48880000  0.75280000  1.0 0.1316454
H  H10  1  0.51120000  0.75280000  0.48880000  1.0 0.1316454
H  H11  1  0.75280000  0.51120000  0.24720000  1.0 0.1316454
H  H12  1  0.48880000  0.24720000  0.51120000  1.0 0.1316454
H  H13  1  0.91190000  0.08810000  0.39870000  1.0 0.1111881633
H  H14  1  0.08810000  0.91190000  0.60130000  1.0 0.1111881633
H  H15  1  0.60130000  0.39870000  0.08810000  1.0 0.1111881633
H  H16  1  0.39870000  0.91190000  0.08810000  1.0 0.1111881633
H  H17  1  0.39870000  0.60130000  0.91190000  1.0 0.1111881633
H  H18  1  0.91190000  0.39870000  0.60130000  1.0 0.1111881633
H  H19  1  0.60130000  0.08810000  0.91190000  1.0 0.1111881633
H  H20  1  0.08810000  0.60130000  0.39870000  1.0 0.1111881633
H  H21  1  0.08810000  0.39870000  0.91190000  1.0 0.1111881633
H  H22  1  0.60130000  0.91190000  0.39870000  1.0 0.1111881633
H  H23  1  0.91190000  0.60130000  0.08810000  1.0 0.1111881633
H  H24  1  0.39870000  0.08810000  0.60130000  1.0 0.1111881633
H  H25  1  0.91040000  0.08960000  0.58160000  1.0 0.1025763812
H  H26  1  0.08960000  0.91040000  0.41840000  1.0 0.1025763812
H  H27  1  0.41840000  0.58160000  0.08960000  1.0 0.1025763812
H  H28  1  0.58160000  0.91040000  0.08960000  1.0 0.1025763812
H  H29  1  0.58160000  0.41840000  0.91040000  1.0 0.1025763812
H  H30  1  0.91040000  0.58160000  0.41840000  1.0 0.1025763812
H  H31  1  0.41840000  0.08960000  0.91040000  1.0 0.1025763812
H  H32  1  0.08960000  0.41840000  0.58160000  1.0 0.1025763812
H  H33  1  0.08960000  0.58160000  0.91040000  1.0 0.1025763812
H  H34  1  0.41840000  0.91040000  0.58160000  1.0 0.1025763812
H  H35  1  0.91040000  0.41840000  0.08960000  1.0 0.1025763812
H  H36  1  0.58160000  0.08960000  0.41840000  1.0 0.1025763812
C  C1  1  0.82660000  0.17340000  0.54380000  1.0 -0.0276750102
C  C2  1  0.17340000  0.82660000  0.45620000  1.0 -0.0276750102
C  C3  1  0.45620000  0.54380000  0.17340000  1.0 -0.0276750102
C  C4  1  0.54380000  0.82660000  0.17340000  1.0 -0.0276750102
C  C5  1  0.54380000  0.45620000  0.82660000  1.0 -0.0276750102
C  C6  1  0.82660000  0.54380000  0.45620000  1.0 -0.0276750102
C  C7  1  0.45620000  0.17340000  0.82660000  1.0 -0.0276750102
C  C8  1  0.17340000  0.45620000  0.54380000  1.0 -0.0276750102
C  C9  1  0.17340000  0.54380000  0.82660000  1.0 -0.0276750102
C  C10  1  0.45620000  0.82660000  0.54380000  1.0 -0.0276750102
C  C11  1  0.82660000  0.45620000  0.17340000  1.0 -0.0276750102
C  C12  1  0.54380000  0.17340000  0.45620000  1.0 -0.0276750102
C  C13  1  0.79560000  0.20440000  0.48920000  1.0 -0.1422125617
C  C14  1  0.20440000  0.79560000  0.51080000  1.0 -0.1422125617
C  C15  1  0.51080000  0.48920000  0.20440000  1.0 -0.1422125617
C  C16  1  0.48920000  0.79560000  0.20440000  1.0 -0.1422125617
C  C17  1  0.48920000  0.51080000  0.79560000  1.0 -0.1422125617
C  C18  1  0.79560000  0.48920000  0.51080000  1.0 -0.1422125617
C  C19  1  0.51080000  0.20440000  0.79560000  1.0 -0.1422125617
C  C20  1  0.20440000  0.51080000  0.48920000  1.0 -0.1422125617
C  C21  1  0.20440000  0.48920000  0.79560000  1.0 -0.1422125617
C  C22  1  0.51080000  0.79560000  0.48920000  1.0 -0.1422125617
C  C23  1  0.79560000  0.51080000  0.20440000  1.0 -0.1422125617
C  C24  1  0.48920000  0.20440000  0.51080000  1.0 -0.1422125617
C  C25  1  0.82750000  0.17250000  0.43510000  1.0 -0.0081605485
C  C26  1  0.17250000  0.82750000  0.56490000  1.0 -0.0081605485
C  C27  1  0.56490000  0.43510000  0.17250000  1.0 -0.0081605485
C  C28  1  0.43510000  0.82750000  0.17250000  1.0 -0.0081605485
C  C29  1  0.43510000  0.56490000  0.82750000  1.0 -0.0081605485
C  C30  1  0.82750000  0.43510000  0.56490000  1.0 -0.0081605485
C  C31  1  0.56490000  0.17250000  0.82750000  1.0 -0.0081605485
C  C32  1  0.17250000  0.56490000  0.43510000  1.0 -0.0081605485
C  C33  1  0.17250000  0.43510000  0.82750000  1.0 -0.0081605485
C  C34  1  0.56490000  0.82750000  0.43510000  1.0 -0.0081605485
C  C35  1  0.82750000  0.56490000  0.17250000  1.0 -0.0081605485
C  C36  1  0.43510000  0.17250000  0.56490000  1.0 -0.0081605485
C  C37  1  0.89020000  0.10980000  0.43560000  1.0 -0.2018710773
C  C38  1  0.10980000  0.89020000  0.56440000  1.0 -0.2018710773
C  C39  1  0.56440000  0.43560000  0.10980000  1.0 -0.2018710773
C  C40  1  0.43560000  0.89020000  0.10980000  1.0 -0.2018710773
C  C41  1  0.43560000  0.56440000  0.89020000  1.0 -0.2018710773
C  C42  1  0.89020000  0.43560000  0.56440000  1.0 -0.2018710773
C  C43  1  0.56440000  0.10980000  0.89020000  1.0 -0.2018710773
C  C44  1  0.10980000  0.56440000  0.43560000  1.0 -0.2018710773
C  C45  1  0.10980000  0.43560000  0.89020000  1.0 -0.2018710773
C  C46  1  0.56440000  0.89020000  0.43560000  1.0 -0.2018710773
C  C47  1  0.89020000  0.56440000  0.10980000  1.0 -0.2018710773
C  C48  1  0.43560000  0.10980000  0.56440000  1.0 -0.2018710773
C  C49  1  0.92120000  0.07880000  0.49020000  1.0 0.1316454
C  C50  1  0.07880000  0.92120000  0.50980000  1.0 0.1316454
C  C51  1  0.50980000  0.49020000  0.07880000  1.0 0.1316454
C  C52  1  0.49020000  0.92120000  0.07880000  1.0 0.1316454
C  C53  1  0.49020000  0.50980000  0.92120000  1.0 0.1316454
C  C54  1  0.92120000  0.49020000  0.50980000  1.0 0.1316454
C  C55  1  0.50980000  0.07880000  0.92120000  1.0 0.1316454
C  C56  1  0.07880000  0.50980000  0.49020000  1.0 0.1316454
C  C57  1  0.07880000  0.49020000  0.92120000  1.0 0.1316454
C  C58  1  0.50980000  0.92120000  0.49020000  1.0 0.1316454
C  C59  1  0.92120000  0.50980000  0.07880000  1.0 0.1316454
C  C60  1  0.49020000  0.07880000  0.50980000  1.0 0.1316454
C  C61  1  0.88930000  0.11070000  0.54430000  1.0 -0.162095327
C  C62  1  0.11070000  0.88930000  0.45570000  1.0 -0.162095327
C  C63  1  0.45570000  0.54430000  0.11070000  1.0 -0.162095327
C  C64  1  0.54430000  0.88930000  0.11070000  1.0 -0.162095327
C  C65  1  0.54430000  0.45570000  0.88930000  1.0 -0.162095327
C  C66  1  0.88930000  0.54430000  0.45570000  1.0 -0.162095327
C  C67  1  0.45570000  0.11070000  0.88930000  1.0 -0.162095327
C  C68  1  0.11070000  0.45570000  0.54430000  1.0 -0.162095327
C  C69  1  0.11070000  0.54430000  0.88930000  1.0 -0.162095327
C  C70  1  0.45570000  0.88930000  0.54430000  1.0 -0.162095327
C  C71  1  0.88930000  0.45570000  0.11070000  1.0 -0.162095327
C  C72  1  0.54430000  0.11070000  0.45570000  1.0 -0.162095327
C  C73  1  0.80020000  0.19980000  0.60700000  1.0 0.5691188077
C  C74  1  0.19980000  0.80020000  0.39300000  1.0 0.5691188077
C  C75  1  0.39300000  0.60700000  0.19980000  1.0 0.5691188077
C  C76  1  0.60700000  0.80020000  0.19980000  1.0 0.5691188077
C  C77  1  0.60700000  0.39300000  0.80020000  1.0 0.5691188077
C  C78  1  0.80020000  0.60700000  0.39300000  1.0 0.5691188077
C  C79  1  0.39300000  0.19980000  0.80020000  1.0 0.5691188077
C  C80  1  0.19980000  0.39300000  0.60700000  1.0 0.5691188077
C  C81  1  0.19980000  0.60700000  0.80020000  1.0 0.5691188077
C  C82  1  0.39300000  0.80020000  0.60700000  1.0 0.5691188077
C  C83  1  0.80020000  0.39300000  0.19980000  1.0 0.5691188077
C  C84  1  0.60700000  0.19980000  0.39300000  1.0 0.5691188077
C  C85  1  0.79920000  0.20080000  0.37060000  1.0 0.4836846802
C  C86  1  0.20080000  0.79920000  0.62940000  1.0 0.4863227903
C  C87  1  0.62940000  0.37060000  0.20080000  1.0 0.4836846802
C  C88  1  0.37060000  0.79920000  0.20080000  1.0 0.4863227903
C  C89  1  0.37060000  0.62940000  0.79920000  1.0 0.4836846802
C  C90  1  0.79920000  0.37060000  0.62940000  1.0 0.4863227903
C  C91  1  0.62940000  0.20080000  0.79920000  1.0 0.4836846802
C  C92  1  0.20080000  0.62940000  0.37060000  1.0 0.4863227903
C  C93  1  0.20080000  0.37060000  0.79920000  1.0 0.4836846802
C  C94  1  0.62940000  0.79920000  0.37060000  1.0 0.4836846802
C  C95  1  0.79920000  0.62940000  0.20080000  1.0 0.4863227903
C  C96  1  0.37060000  0.20080000  0.62940000  1.0 0.4836846802
N  N1  1  0.98740000  0.01260000  0.47520000  1.0 -0.1528135986
N  N2  1  0.01260000  0.98740000  0.52480000  1.0 -0.1528135986
N  N3  1  0.52480000  0.47520000  0.01260000  1.0 -0.1528135986
N  N4  1  0.47520000  0.98740000  0.01260000  1.0 -0.1528135986
N  N5  1  0.47520000  0.52480000  0.98740000  1.0 -0.1528135986
N  N6  1  0.98740000  0.47520000  0.52480000  1.0 -0.1528135986
N  N7  1  0.52480000  0.01260000  0.98740000  1.0 -0.1528135986
N  N8  1  0.01260000  0.52480000  0.47520000  1.0 -0.1528135986
N  N9  1  0.01260000  0.47520000  0.98740000  1.0 -0.1528135986
N  N10  1  0.52480000  0.98740000  0.47520000  1.0 -0.1528135986
N  N11  1  0.98740000  0.52480000  0.01260000  1.0 -0.1528135986
N  N12  1  0.47520000  0.01260000  0.52480000  1.0 -0.1528135986
O  O1  1  0.73890000  0.26110000  0.38990000  1.0 -0.5694463204
O  O2  1  0.26110000  0.73890000  0.61010000  1.0 -0.5694463204
O  O3  1  0.61010000  0.38990000  0.26110000  1.0 -0.5694463204
O  O4  1  0.38990000  0.73890000  0.26110000  1.0 -0.5694463204
O  O5  1  0.38990000  0.61010000  0.73890000  1.0 -0.5694463204
O  O6  1  0.73890000  0.38990000  0.61010000  1.0 -0.5694463204
O  O7  1  0.61010000  0.26110000  0.73890000  1.0 -0.5694463204
O  O8  1  0.26110000  0.61010000  0.38990000  1.0 -0.5694463204
O  O9  1  0.26110000  0.38990000  0.73890000  1.0 -0.5694463204
O  O10  1  0.61010000  0.73890000  0.38990000  1.0 -0.5694463204
O  O11  1  0.73890000  0.61010000  0.26110000  1.0 -0.5694463204
O  O12  1  0.38990000  0.26110000  0.61010000  1.0 -0.5694463204
O  O13  1  0.74500000  0.25500000  0.60960000  1.0 -0.5305596568
O  O14  1  0.25500000  0.74500000  0.39040000  1.0 -0.5305596568
O  O15  1  0.39040000  0.60960000  0.25500000  1.0 -0.5305596568
O  O16  1  0.60960000  0.74500000  0.25500000  1.0 -0.5361954421
O  O17  1  0.60960000  0.39040000  0.74500000  1.0 -0.5361954421
O  O18  1  0.74500000  0.60960000  0.39040000  1.0 -0.5305596568
O  O19  1  0.39040000  0.25500000  0.74500000  1.0 -0.5305596568
O  O20  1  0.25500000  0.39040000  0.60960000  1.0 -0.5361954421
O  O21  1  0.25500000  0.60960000  0.74500000  1.0 -0.5305596568
O  O22  1  0.39040000  0.74500000  0.60960000  1.0 -0.5361954421
O  O23  1  0.74500000  0.39040000  0.25500000  1.0 -0.5305596568
O  O24  1  0.60960000  0.25500000  0.39040000  1.0 -0.5305596568
O  O25  1  0.83570000  0.16430000  0.65250000  1.0 -0.5237484192
O  O26  1  0.16430000  0.83570000  0.34750000  1.0 -0.5305596568
O  O27  1  0.34750000  0.65250000  0.16430000  1.0 -0.5305596568
O  O28  1  0.65250000  0.83570000  0.16430000  1.0 -0.5305596568
O  O29  1  0.65250000  0.34750000  0.83570000  1.0 -0.5237484192
O  O30  1  0.83570000  0.65250000  0.34750000  1.0 -0.5305596568
O  O31  1  0.34750000  0.16430000  0.83570000  1.0 -0.5237484192
O  O32  1  0.16430000  0.34750000  0.65250000  1.0 -0.5237484192
O  O33  1  0.16430000  0.65250000  0.83570000  1.0 -0.5305596568
O  O34  1  0.34750000  0.83570000  0.65250000  1.0 -0.5237484192
O  O35  1  0.83570000  0.34750000  0.16430000  1.0 -0.5237484192
O  O36  1  0.65250000  0.16430000  0.34750000  1.0 -0.5237484192
O  O37  1  0.74500000  0.25500000  0.25500000  1.0 -0.2875039032
O  O38  1  0.25500000  0.74500000  0.74500000  1.0 -0.2875039032
O  O39  1  0.25500000  0.74500000  0.25500000  1.0 -0.2875039032
O  O40  1  0.74500000  0.25500000  0.74500000  1.0 -0.2875039032
O  O41  1  0.25500000  0.25500000  0.74500000  1.0 -0.2875039032
O  O42  1  0.74500000  0.74500000  0.25500000  1.0 -0.2875039032
O  O43  1  0.80720000  0.19280000  0.31240000  1.0 -0.176726184
O  O44  1  0.19280000  0.80720000  0.68760000  1.0 -0.1735059173
O  O45  1  0.68760000  0.31240000  0.19280000  1.0 -0.176726184
O  O46  1  0.31240000  0.80720000  0.19280000  1.0 -0.176726184
O  O47  1  0.31240000  0.68760000  0.80720000  1.0 -0.176726184
O  O48  1  0.80720000  0.31240000  0.68760000  1.0 -0.1735059173
O  O49  1  0.68760000  0.19280000  0.80720000  1.0 -0.176726184
O  O50  1  0.19280000  0.68760000  0.31240000  1.0 -0.1735059173
O  O51  1  0.19280000  0.31240000  0.80720000  1.0 -0.176726184
O  O52  1  0.68760000  0.80720000  0.31240000  1.0 -0.176726184
O  O53  1  0.80720000  0.68760000  0.19280000  1.0 -0.176726184
O  O54  1  0.31240000  0.19280000  0.68760000  1.0 -0.176726184
