# DDEC6 charges by PACMAN v1.1 (https://github.com/mtap-research/PACMAN-charge/)
data_VIYPAX_FSR_pacman
_symmetry_space_group_name_H-M   'P 1'
_cell_length_a   16.69910000
_cell_length_b   16.69910000
_cell_length_c   17.56710000
_cell_angle_alpha   90.00000000
_cell_angle_beta   90.00000000
_cell_angle_gamma   90.00000000
_symmetry_Int_Tables_number   1
_chemical_formula_structural   Co2H26C26N8ClO6
_chemical_formula_sum   'Co8 H104 C104 N32 Cl4 O24'
_cell_volume   4898.76046620
_cell_formula_units_Z   4
loop_
 _symmetry_equiv_pos_site_id
 _symmetry_equiv_pos_as_xyz
  1  'x, y, z'
loop_
 _atom_site_type_symbol
 _atom_site_label
 _atom_site_symmetry_multiplicity
 _atom_site_fract_x
 _atom_site_fract_y
 _atom_site_fract_z
 _atom_site_occupancy
 _atom_site_charge
Co  Co1  1  0.29282000  0.13836000  0.00000000  1.0 0.8480562901
Co  Co2  1  0.70718000  0.86164000  0.00000000  1.0 0.8480562901
Co  Co3  1  0.36164000  0.79282000  0.50000000  1.0 0.8480562901
Co  Co4  1  0.63836000  0.20718000  0.50000000  1.0 0.8480562901
Co  Co5  1  0.20718000  0.63836000  0.50000000  1.0 0.8480562901
Co  Co6  1  0.79282000  0.36164000  0.50000000  1.0 0.8480562901
Co  Co7  1  0.13836000  0.29282000  0.00000000  1.0 0.8480562901
Co  Co8  1  0.86164000  0.70718000  0.00000000  1.0 0.8480562901
H  H1  1  0.39750000  0.22820000  0.20000000  1.0 0.1180536632
H  H2  1  0.49130000  0.31760000  0.42530000  1.0 0.1009788621
H  H3  1  0.46980000  0.15520000  0.26140000  1.0 0.1180536632
H  H4  1  0.57450000  0.11950000  0.34660000  1.0 0.1009788621
H  H5  1  0.45150000  0.07730000  0.97590000  1.0 0.1414903242
H  H6  1  0.46260000  0.15550000  0.02420000  1.0 0.181711463
H  H7  1  0.60250000  0.77180000  0.20000000  1.0 0.1180536632
H  H8  1  0.50870000  0.68240000  0.42530000  1.0 0.1009788621
H  H9  1  0.53020000  0.84480000  0.26140000  1.0 0.1180536632
H  H10  1  0.42550000  0.88050000  0.34660000  1.0 0.1009788621
H  H11  1  0.54850000  0.92270000  0.97590000  1.0 0.1414903242
H  H12  1  0.53740000  0.84450000  0.02420000  1.0 0.181711463
H  H13  1  0.27180000  0.89750000  0.70000000  1.0 0.1180536632
H  H14  1  0.18240000  0.99130000  0.92530000  1.0 0.1009788621
H  H15  1  0.34480000  0.96980000  0.76140000  1.0 0.1180536632
H  H16  1  0.38050000  0.07450000  0.84660000  1.0 0.1009788621
H  H17  1  0.42270000  0.95150000  0.47590000  1.0 0.1414903242
H  H18  1  0.34450000  0.96260000  0.52420000  1.0 0.181711463
H  H19  1  0.72820000  0.10250000  0.70000000  1.0 0.1180536632
H  H20  1  0.81760000  0.00870000  0.92530000  1.0 0.1009788621
H  H21  1  0.65520000  0.03020000  0.76140000  1.0 0.1180536632
H  H22  1  0.61950000  0.92550000  0.84660000  1.0 0.1009788621
H  H23  1  0.57730000  0.04850000  0.47590000  1.0 0.1414903242
H  H24  1  0.65550000  0.03740000  0.52420000  1.0 0.181711463
H  H25  1  0.10250000  0.72820000  0.30000000  1.0 0.1180536632
H  H26  1  0.00870000  0.81760000  0.07470000  1.0 0.1009788621
H  H27  1  0.03020000  0.65520000  0.23860000  1.0 0.1180536632
H  H28  1  0.92550000  0.61950000  0.15340000  1.0 0.1009788621
H  H29  1  0.04850000  0.57730000  0.52410000  1.0 0.1414903242
H  H30  1  0.03740000  0.65550000  0.47580000  1.0 0.181711463
H  H31  1  0.89750000  0.27180000  0.30000000  1.0 0.1180536632
H  H32  1  0.99130000  0.18240000  0.07470000  1.0 0.1009788621
H  H33  1  0.96980000  0.34480000  0.23860000  1.0 0.1180536632
H  H34  1  0.07450000  0.38050000  0.15340000  1.0 0.1009788621
H  H35  1  0.95150000  0.42270000  0.52410000  1.0 0.1414903242
H  H36  1  0.96260000  0.34450000  0.47580000  1.0 0.181711463
H  H37  1  0.22820000  0.39750000  0.80000000  1.0 0.1180536632
H  H38  1  0.31760000  0.49130000  0.57470000  1.0 0.1009788621
H  H39  1  0.15520000  0.46980000  0.73860000  1.0 0.1180536632
H  H40  1  0.11950000  0.57450000  0.65340000  1.0 0.1009788621
H  H41  1  0.07730000  0.45150000  0.02410000  1.0 0.1414903242
H  H42  1  0.15550000  0.46260000  0.97580000  1.0 0.181711463
H  H43  1  0.77180000  0.60250000  0.80000000  1.0 0.1180536632
H  H44  1  0.68240000  0.50870000  0.57470000  1.0 0.1009788621
H  H45  1  0.84480000  0.53020000  0.73860000  1.0 0.1180536632
H  H46  1  0.88050000  0.42550000  0.65340000  1.0 0.1009788621
H  H47  1  0.92270000  0.54850000  0.02410000  1.0 0.1414903242
H  H48  1  0.84450000  0.53740000  0.97580000  1.0 0.181711463
H  H49  1  0.60250000  0.77180000  0.80000000  1.0 0.1180536632
H  H50  1  0.50870000  0.68240000  0.57470000  1.0 0.1009788621
H  H51  1  0.53020000  0.84480000  0.73860000  1.0 0.1180536632
H  H52  1  0.42550000  0.88050000  0.65340000  1.0 0.1009788621
H  H53  1  0.54850000  0.92270000  0.02410000  1.0 0.1414903242
H  H54  1  0.53740000  0.84450000  0.97580000  1.0 0.181711463
H  H55  1  0.39750000  0.22820000  0.80000000  1.0 0.1180536632
H  H56  1  0.49130000  0.31760000  0.57470000  1.0 0.1009788621
H  H57  1  0.46980000  0.15520000  0.73860000  1.0 0.1180536632
H  H58  1  0.57450000  0.11950000  0.65340000  1.0 0.1009788621
H  H59  1  0.45150000  0.07730000  0.02410000  1.0 0.1414903242
H  H60  1  0.46260000  0.15550000  0.97580000  1.0 0.181711463
H  H61  1  0.72820000  0.10250000  0.30000000  1.0 0.1180536632
H  H62  1  0.81760000  0.00870000  0.07470000  1.0 0.1009788621
H  H63  1  0.65520000  0.03020000  0.23860000  1.0 0.1180536632
H  H64  1  0.61950000  0.92550000  0.15340000  1.0 0.1009788621
H  H65  1  0.57730000  0.04850000  0.52410000  1.0 0.1414903242
H  H66  1  0.65550000  0.03740000  0.47580000  1.0 0.181711463
H  H67  1  0.27180000  0.89750000  0.30000000  1.0 0.1180536632
H  H68  1  0.18240000  0.99130000  0.07470000  1.0 0.1009788621
H  H69  1  0.34480000  0.96980000  0.23860000  1.0 0.1180536632
H  H70  1  0.38050000  0.07450000  0.15340000  1.0 0.1009788621
H  H71  1  0.42270000  0.95150000  0.52410000  1.0 0.1414903242
H  H72  1  0.34450000  0.96260000  0.47580000  1.0 0.181711463
H  H73  1  0.89750000  0.27180000  0.70000000  1.0 0.1180536632
H  H74  1  0.99130000  0.18240000  0.92530000  1.0 0.1009788621
H  H75  1  0.96980000  0.34480000  0.76140000  1.0 0.1180536632
H  H76  1  0.07450000  0.38050000  0.84660000  1.0 0.1009788621
H  H77  1  0.95150000  0.42270000  0.47590000  1.0 0.1414903242
H  H78  1  0.96260000  0.34450000  0.52420000  1.0 0.181711463
H  H79  1  0.10250000  0.72820000  0.70000000  1.0 0.1180536632
H  H80  1  0.00870000  0.81760000  0.92530000  1.0 0.1009788621
H  H81  1  0.03020000  0.65520000  0.76140000  1.0 0.1180536632
H  H82  1  0.92550000  0.61950000  0.84660000  1.0 0.1009788621
H  H83  1  0.04850000  0.57730000  0.47590000  1.0 0.1414903242
H  H84  1  0.03740000  0.65550000  0.52420000  1.0 0.181711463
H  H85  1  0.77180000  0.60250000  0.20000000  1.0 0.1180536632
H  H86  1  0.68240000  0.50870000  0.42530000  1.0 0.1009788621
H  H87  1  0.84480000  0.53020000  0.26140000  1.0 0.1180536632
H  H88  1  0.88050000  0.42550000  0.34660000  1.0 0.1009788621
H  H89  1  0.92270000  0.54850000  0.97590000  1.0 0.1414903242
H  H90  1  0.84450000  0.53740000  0.02420000  1.0 0.181711463
H  H91  1  0.22820000  0.39750000  0.20000000  1.0 0.1180536632
H  H92  1  0.31760000  0.49130000  0.42530000  1.0 0.1009788621
H  H93  1  0.15520000  0.46980000  0.26140000  1.0 0.1180536632
H  H94  1  0.11950000  0.57450000  0.34660000  1.0 0.1009788621
H  H95  1  0.07730000  0.45150000  0.97590000  1.0 0.1414903242
H  H96  1  0.15550000  0.46260000  0.02420000  1.0 0.181711463
H  H97  1  0.37550000  0.37550000  0.37970000  1.0 0.125709552
H  H98  1  0.62450000  0.62450000  0.37970000  1.0 0.125709552
H  H99  1  0.12450000  0.87550000  0.87970000  1.0 0.125709552
H  H100  1  0.87550000  0.12450000  0.87970000  1.0 0.125709552
H  H101  1  0.12450000  0.87550000  0.12030000  1.0 0.125709552
H  H102  1  0.87550000  0.12450000  0.12030000  1.0 0.125709552
H  H103  1  0.37550000  0.37550000  0.62030000  1.0 0.125709552
H  H104  1  0.62450000  0.62450000  0.62030000  1.0 0.125709552
C  C1  1  0.37150000  0.27050000  0.22390000  1.0 -0.2046691443
C  C2  1  0.39570000  0.29580000  0.29590000  1.0 0.173189122
C  C3  1  0.49930000  0.27170000  0.39620000  1.0 0.1009788621
C  C4  1  0.48680000  0.18310000  0.30420000  1.0 -0.1762048297
C  C5  1  0.54250000  0.16460000  0.35260000  1.0 -0.0412321131
C  C6  1  0.62850000  0.72950000  0.22390000  1.0 -0.2046691443
C  C7  1  0.60430000  0.70420000  0.29590000  1.0 0.173189122
C  C8  1  0.50070000  0.72830000  0.39620000  1.0 0.1009788621
C  C9  1  0.51320000  0.81690000  0.30420000  1.0 -0.1762048297
C  C10  1  0.45750000  0.83540000  0.35260000  1.0 -0.0412321131
C  C11  1  0.22950000  0.87150000  0.72390000  1.0 -0.2046691443
C  C12  1  0.20420000  0.89570000  0.79590000  1.0 0.173189122
C  C13  1  0.22830000  0.99930000  0.89620000  1.0 0.1009788621
C  C14  1  0.31690000  0.98680000  0.80420000  1.0 -0.1762048297
C  C15  1  0.33540000  0.04250000  0.85260000  1.0 -0.0412321131
C  C16  1  0.77050000  0.12850000  0.72390000  1.0 -0.2046691443
C  C17  1  0.79580000  0.10430000  0.79590000  1.0 0.173189122
C  C18  1  0.77170000  0.00070000  0.89620000  1.0 0.1009788621
C  C19  1  0.68310000  0.01320000  0.80420000  1.0 -0.1762048297
C  C20  1  0.66460000  0.95750000  0.85260000  1.0 -0.0412321131
C  C21  1  0.12850000  0.77050000  0.27610000  1.0 -0.2046691443
C  C22  1  0.10430000  0.79580000  0.20410000  1.0 0.173189122
C  C23  1  0.00070000  0.77170000  0.10380000  1.0 0.1009788621
C  C24  1  0.01320000  0.68310000  0.19580000  1.0 -0.1762048297
C  C25  1  0.95750000  0.66460000  0.14740000  1.0 -0.0412321131
C  C26  1  0.87150000  0.22950000  0.27610000  1.0 -0.2046691443
C  C27  1  0.89570000  0.20420000  0.20410000  1.0 0.173189122
C  C28  1  0.99930000  0.22830000  0.10380000  1.0 0.1009788621
C  C29  1  0.98680000  0.31690000  0.19580000  1.0 -0.1762048297
C  C30  1  0.04250000  0.33540000  0.14740000  1.0 -0.0412321131
C  C31  1  0.27050000  0.37150000  0.77610000  1.0 -0.2046691443
C  C32  1  0.29580000  0.39570000  0.70410000  1.0 0.173189122
C  C33  1  0.27170000  0.49930000  0.60380000  1.0 0.1009788621
C  C34  1  0.18310000  0.48680000  0.69580000  1.0 -0.1762048297
C  C35  1  0.16460000  0.54250000  0.64740000  1.0 -0.0412321131
C  C36  1  0.72950000  0.62850000  0.77610000  1.0 -0.2046691443
C  C37  1  0.70420000  0.60430000  0.70410000  1.0 0.173189122
C  C38  1  0.72830000  0.50070000  0.60380000  1.0 0.1009788621
C  C39  1  0.81690000  0.51320000  0.69580000  1.0 -0.1762048297
C  C40  1  0.83540000  0.45750000  0.64740000  1.0 -0.0412321131
C  C41  1  0.62850000  0.72950000  0.77610000  1.0 -0.2046691443
C  C42  1  0.60430000  0.70420000  0.70410000  1.0 0.173189122
C  C43  1  0.50070000  0.72830000  0.60380000  1.0 0.1009788621
C  C44  1  0.51320000  0.81690000  0.69580000  1.0 -0.1762048297
C  C45  1  0.45750000  0.83540000  0.64740000  1.0 -0.0412321131
C  C46  1  0.37150000  0.27050000  0.77610000  1.0 -0.2046691443
C  C47  1  0.39570000  0.29580000  0.70410000  1.0 0.173189122
C  C48  1  0.49930000  0.27170000  0.60380000  1.0 0.1009788621
C  C49  1  0.48680000  0.18310000  0.69580000  1.0 -0.1762048297
C  C50  1  0.54250000  0.16460000  0.64740000  1.0 -0.0412321131
C  C51  1  0.77050000  0.12850000  0.27610000  1.0 -0.2046691443
C  C52  1  0.79580000  0.10430000  0.20410000  1.0 0.173189122
C  C53  1  0.77170000  0.00070000  0.10380000  1.0 0.1009788621
C  C54  1  0.68310000  0.01320000  0.19580000  1.0 -0.1762048297
C  C55  1  0.66460000  0.95750000  0.14740000  1.0 -0.0412321131
C  C56  1  0.22950000  0.87150000  0.27610000  1.0 -0.2046691443
C  C57  1  0.20420000  0.89570000  0.20410000  1.0 0.173189122
C  C58  1  0.22830000  0.99930000  0.10380000  1.0 0.1009788621
C  C59  1  0.31690000  0.98680000  0.19580000  1.0 -0.1762048297
C  C60  1  0.33540000  0.04250000  0.14740000  1.0 -0.0412321131
C  C61  1  0.87150000  0.22950000  0.72390000  1.0 -0.2046691443
C  C62  1  0.89570000  0.20420000  0.79590000  1.0 0.173189122
C  C63  1  0.99930000  0.22830000  0.89620000  1.0 0.1009788621
C  C64  1  0.98680000  0.31690000  0.80420000  1.0 -0.1762048297
C  C65  1  0.04250000  0.33540000  0.85260000  1.0 -0.0412321131
C  C66  1  0.12850000  0.77050000  0.72390000  1.0 -0.2046691443
C  C67  1  0.10430000  0.79580000  0.79590000  1.0 0.173189122
C  C68  1  0.00070000  0.77170000  0.89620000  1.0 0.1009788621
C  C69  1  0.01320000  0.68310000  0.80420000  1.0 -0.1762048297
C  C70  1  0.95750000  0.66460000  0.85260000  1.0 -0.0412321131
C  C71  1  0.72950000  0.62850000  0.22390000  1.0 -0.2046691443
C  C72  1  0.70420000  0.60430000  0.29590000  1.0 0.173189122
C  C73  1  0.72830000  0.50070000  0.39620000  1.0 0.1009788621
C  C74  1  0.81690000  0.51320000  0.30420000  1.0 -0.1762048297
C  C75  1  0.83540000  0.45750000  0.35260000  1.0 -0.0412321131
C  C76  1  0.27050000  0.37150000  0.22390000  1.0 -0.2046691443
C  C77  1  0.29580000  0.39570000  0.29590000  1.0 0.173189122
C  C78  1  0.27170000  0.49930000  0.39620000  1.0 0.1009788621
C  C79  1  0.18310000  0.48680000  0.30420000  1.0 -0.1762048297
C  C80  1  0.16460000  0.54250000  0.35260000  1.0 -0.0412321131
C  C81  1  0.27830000  0.27830000  0.11320000  1.0 0.5781143044
C  C82  1  0.30870000  0.30870000  0.18870000  1.0 0.0197768262
C  C83  1  0.35860000  0.35860000  0.33190000  1.0 -0.2694797928
C  C84  1  0.72170000  0.72170000  0.11320000  1.0 0.5781143044
C  C85  1  0.69130000  0.69130000  0.18870000  1.0 0.0197768262
C  C86  1  0.64140000  0.64140000  0.33190000  1.0 -0.2694797928
C  C87  1  0.22170000  0.77830000  0.61320000  1.0 0.5781143044
C  C88  1  0.19130000  0.80870000  0.68870000  1.0 0.0197768262
C  C89  1  0.14140000  0.85860000  0.83190000  1.0 -0.2694797928
C  C90  1  0.77830000  0.22170000  0.61320000  1.0 0.5781143044
C  C91  1  0.80870000  0.19130000  0.68870000  1.0 0.0197768262
C  C92  1  0.85860000  0.14140000  0.83190000  1.0 -0.2694797928
C  C93  1  0.22170000  0.77830000  0.38680000  1.0 0.5781143044
C  C94  1  0.19130000  0.80870000  0.31130000  1.0 0.0197768262
C  C95  1  0.14140000  0.85860000  0.16810000  1.0 -0.2694797928
C  C96  1  0.77830000  0.22170000  0.38680000  1.0 0.5781143044
C  C97  1  0.80870000  0.19130000  0.31130000  1.0 0.0197768262
C  C98  1  0.85860000  0.14140000  0.16810000  1.0 -0.2694797928
C  C99  1  0.27830000  0.27830000  0.88680000  1.0 0.5781143044
C  C100  1  0.30870000  0.30870000  0.81130000  1.0 0.0197768262
C  C101  1  0.35860000  0.35860000  0.66810000  1.0 -0.2694797928
C  C102  1  0.72170000  0.72170000  0.88680000  1.0 0.5781143044
C  C103  1  0.69130000  0.69130000  0.81130000  1.0 0.0197768262
C  C104  1  0.64140000  0.64140000  0.66810000  1.0 -0.2694797928
N  N1  1  0.55130000  0.21500000  0.41230000  1.0 -0.3113972938
N  N2  1  0.45940000  0.25430000  0.33240000  1.0 0.0197768262
N  N3  1  0.44870000  0.78500000  0.41230000  1.0 -0.3113972938
N  N4  1  0.54060000  0.74570000  0.33240000  1.0 0.0197768262
N  N5  1  0.28500000  0.05130000  0.91230000  1.0 -0.3113972938
N  N6  1  0.24570000  0.95940000  0.83240000  1.0 0.0197768262
N  N7  1  0.71500000  0.94870000  0.91230000  1.0 -0.3113972938
N  N8  1  0.75430000  0.04060000  0.83240000  1.0 0.0197768262
N  N9  1  0.94870000  0.71500000  0.08770000  1.0 -0.3113972938
N  N10  1  0.04060000  0.75430000  0.16760000  1.0 0.0197768262
N  N11  1  0.05130000  0.28500000  0.08770000  1.0 -0.3113972938
N  N12  1  0.95940000  0.24570000  0.16760000  1.0 0.0197768262
N  N13  1  0.21500000  0.55130000  0.58770000  1.0 -0.3113972938
N  N14  1  0.25430000  0.45940000  0.66760000  1.0 0.0197768262
N  N15  1  0.78500000  0.44870000  0.58770000  1.0 -0.3113972938
N  N16  1  0.74570000  0.54060000  0.66760000  1.0 0.0197768262
N  N17  1  0.44870000  0.78500000  0.58770000  1.0 -0.3113972938
N  N18  1  0.54060000  0.74570000  0.66760000  1.0 0.0197768262
N  N19  1  0.55130000  0.21500000  0.58770000  1.0 -0.3113972938
N  N20  1  0.45940000  0.25430000  0.66760000  1.0 0.0197768262
N  N21  1  0.71500000  0.94870000  0.08770000  1.0 -0.3113972938
N  N22  1  0.75430000  0.04060000  0.16760000  1.0 0.0197768262
N  N23  1  0.28500000  0.05130000  0.08770000  1.0 -0.3113972938
N  N24  1  0.24570000  0.95940000  0.16760000  1.0 0.0197768262
N  N25  1  0.05130000  0.28500000  0.91230000  1.0 -0.3113972938
N  N26  1  0.95940000  0.24570000  0.83240000  1.0 0.0197768262
N  N27  1  0.94870000  0.71500000  0.91230000  1.0 -0.3113972938
N  N28  1  0.04060000  0.75430000  0.83240000  1.0 0.0197768262
N  N29  1  0.78500000  0.44870000  0.41230000  1.0 -0.3113972938
N  N30  1  0.74570000  0.54060000  0.33240000  1.0 0.0197768262
N  N31  1  0.21500000  0.55130000  0.41230000  1.0 -0.3113972938
N  N32  1  0.25430000  0.45940000  0.33240000  1.0 0.0197768262
Cl  Cl1  1  0.14717000  0.14717000  0.00000000  1.0 -0.6341746415
Cl  Cl2  1  0.85283000  0.85283000  0.00000000  1.0 -0.6341746415
Cl  Cl3  1  0.35283000  0.64717000  0.50000000  1.0 -0.6365023519
Cl  Cl4  1  0.64717000  0.35283000  0.50000000  1.0 -0.6365023519
O  O1  1  0.31460000  0.21951000  0.08523000  1.0 -0.5608722124
O  O2  1  0.68540000  0.78049000  0.08523000  1.0 -0.5608722124
O  O3  1  0.28049000  0.81460000  0.58523000  1.0 -0.5608722124
O  O4  1  0.71951000  0.18540000  0.58523000  1.0 -0.5608722124
O  O5  1  0.18540000  0.71951000  0.41477000  1.0 -0.5608722124
O  O6  1  0.81460000  0.28049000  0.41477000  1.0 -0.5608722124
O  O7  1  0.21951000  0.31460000  0.91477000  1.0 -0.5608722124
O  O8  1  0.78049000  0.68540000  0.91477000  1.0 -0.5608722124
O  O9  1  0.68540000  0.78049000  0.91477000  1.0 -0.5608722124
O  O10  1  0.31460000  0.21951000  0.91477000  1.0 -0.5608722124
O  O11  1  0.71951000  0.18540000  0.41477000  1.0 -0.5608722124
O  O12  1  0.28049000  0.81460000  0.41477000  1.0 -0.5608722124
O  O13  1  0.81460000  0.28049000  0.58523000  1.0 -0.5608722124
O  O14  1  0.18540000  0.71951000  0.58523000  1.0 -0.5608722124
O  O15  1  0.78049000  0.68540000  0.08523000  1.0 -0.5608722124
O  O16  1  0.21951000  0.31460000  0.08523000  1.0 -0.5608722124
O  O17  1  0.41970000  0.12160000  0.00000000  1.0 -0.5061800408
O  O18  1  0.58030000  0.87840000  0.00000000  1.0 -0.5061800408
O  O19  1  0.37840000  0.91970000  0.50000000  1.0 -0.5061800408
O  O20  1  0.62160000  0.08030000  0.50000000  1.0 -0.5061800408
O  O21  1  0.08030000  0.62160000  0.50000000  1.0 -0.5061800408
O  O22  1  0.91970000  0.37840000  0.50000000  1.0 -0.5061800408
O  O23  1  0.12160000  0.41970000  0.00000000  1.0 -0.5061800408
O  O24  1  0.87840000  0.58030000  0.00000000  1.0 -0.5061800408
