# DDEC6 charges by PACMAN v1.1 (https://github.com/mtap-research/PACMAN-charge/)
data_VIZSOO_FSR_pacman
_symmetry_space_group_name_H-M   'P 1'
_cell_length_a   21.50000000
_cell_length_b   21.50000000
_cell_length_c   22.45400000
_cell_angle_alpha   90.00000000
_cell_angle_beta   90.00000000
_cell_angle_gamma   90.00000000
_symmetry_Int_Tables_number   1
_chemical_formula_structural   ZnH12C22IN9
_chemical_formula_sum   'Zn8 H96 C176 I8 N72'
_cell_volume   10379.36150000
_cell_formula_units_Z   8
loop_
 _symmetry_equiv_pos_site_id
 _symmetry_equiv_pos_as_xyz
  1  'x, y, z'
loop_
 _atom_site_type_symbol
 _atom_site_label
 _atom_site_symmetry_multiplicity
 _atom_site_fract_x
 _atom_site_fract_y
 _atom_site_fract_z
 _atom_site_occupancy
 _atom_site_charge
Zn  Zn1  1  0.50672000  0.99309000  0.50131000  1.0 0.5000191918
Zn  Zn2  1  0.99328000  0.00691000  0.00131000  1.0 0.5000191918
Zn  Zn3  1  0.00672000  0.50691000  0.49869000  1.0 0.5091833464
Zn  Zn4  1  0.49328000  0.49309000  0.99869000  1.0 0.5000191918
Zn  Zn5  1  0.00494000  0.01459000  0.49376000  1.0 0.5000191918
Zn  Zn6  1  0.49506000  0.98541000  0.99376000  1.0 0.492174714
Zn  Zn7  1  0.50494000  0.48541000  0.50624000  1.0 0.492174714
Zn  Zn8  1  0.99506000  0.51459000  0.00624000  1.0 0.5000191918
H  H1  1  0.45280000  0.93490000  0.39120000  1.0 0.1092138655
H  H2  1  0.04720000  0.06510000  0.89120000  1.0 0.1092138655
H  H3  1  0.95280000  0.56510000  0.60880000  1.0 0.1092138655
H  H4  1  0.54720000  0.43490000  0.10880000  1.0 0.1092138655
H  H5  1  0.48920000  0.89590000  0.30040000  1.0 0.1408234231
H  H6  1  0.01080000  0.10410000  0.80040000  1.0 0.147099611
H  H7  1  0.98920000  0.60410000  0.69960000  1.0 0.1408234231
H  H8  1  0.51080000  0.39590000  0.19960000  1.0 0.1408234231
H  H9  1  0.66666667  0.91170000  0.35930000  1.0 0.147099611
H  H10  1  0.83333000  0.08830000  0.85930000  1.0 0.147099611
H  H11  1  0.16667000  0.58830000  0.64070000  1.0 0.147099611
H  H12  1  0.33333333  0.41170000  0.14070000  1.0 0.147099611
H  H13  1  0.63020000  0.95070000  0.45020000  1.0 0.0990910567
H  H14  1  0.86980000  0.04930000  0.95020000  1.0 0.0990910567
H  H15  1  0.13020000  0.54930000  0.54980000  1.0 0.0990910567
H  H16  1  0.36980000  0.45070000  0.04980000  1.0 0.0990910567
H  H17  1  0.60260000  0.57630000  0.98320000  1.0 0.1092138655
H  H18  1  0.89740000  0.42370000  0.48320000  1.0 0.1092138655
H  H19  1  0.10260000  0.92370000  0.01680000  1.0 0.1092138655
H  H20  1  0.39740000  0.07630000  0.51680000  1.0 0.1092138655
H  H21  1  0.64630000  0.66560000  0.02110000  1.0 0.1408234231
H  H22  1  0.85370000  0.33440000  0.52110000  1.0 0.1408234231
H  H23  1  0.14630000  0.83440000  0.97890000  1.0 0.1408234231
H  H24  1  0.35370000  0.16560000  0.47890000  1.0 0.1408234231
H  H25  1  0.51900000  0.65890000  0.15530000  1.0 0.1408234231
H  H26  1  0.98100000  0.34110000  0.65530000  1.0 0.1408234231
H  H27  1  0.01900000  0.84110000  0.84470000  1.0 0.1408234231
H  H28  1  0.48100000  0.15890000  0.34470000  1.0 0.1408234231
H  H29  1  0.47630000  0.57020000  0.10700000  1.0 0.0915691131
H  H30  1  0.02370000  0.42980000  0.60700000  1.0 0.0915691131
H  H31  1  0.97630000  0.92980000  0.89300000  1.0 0.0915691131
H  H32  1  0.52370000  0.07020000  0.39300000  1.0 0.0915691131
H  H33  1  0.92010000  0.01300000  0.11590000  1.0 0.1092138655
H  H34  1  0.57990000  0.98700000  0.61590000  1.0 0.1092138655
H  H35  1  0.42010000  0.48700000  0.88410000  1.0 0.1092138655
H  H36  1  0.07990000  0.51300000  0.38410000  1.0 0.1092138655
H  H37  1  0.82370000  0.98090000  0.15170000  1.0 0.1408234231
H  H38  1  0.67630000  0.01910000  0.65170000  1.0 0.1408234231
H  H39  1  0.32370000  0.51910000  0.84830000  1.0 0.1408234231
H  H40  1  0.17630000  0.48090000  0.34830000  1.0 0.1408234231
H  H41  1  0.80110000  0.87730000  0.00490000  1.0 0.1408234231
H  H42  1  0.69890000  0.12270000  0.50490000  1.0 0.1408234231
H  H43  1  0.30110000  0.62270000  0.99510000  1.0 0.1408234231
H  H44  1  0.19890000  0.37730000  0.49510000  1.0 0.1408234231
H  H45  1  0.88920000  0.92790000  0.96540000  1.0 0.0915691131
H  H46  1  0.61080000  0.07210000  0.46540000  1.0 0.0915691131
H  H47  1  0.38920000  0.57210000  0.03460000  1.0 0.0915691131
H  H48  1  0.11080000  0.42790000  0.53460000  1.0 0.0915691131
H  H49  1  0.95140000  0.96960000  0.38110000  1.0 0.1092138655
H  H50  1  0.54860000  0.03040000  0.88110000  1.0 0.1092138655
H  H51  1  0.45140000  0.53040000  0.61890000  1.0 0.1092138655
H  H52  1  0.04860000  0.46960000  0.11890000  1.0 0.1092138655
H  H53  1  0.90600000  0.88110000  0.34230000  1.0 0.147099611
H  H54  1  0.59400000  0.11890000  0.84230000  1.0 0.147099611
H  H55  1  0.40600000  0.61890000  0.65770000  1.0 0.147099611
H  H56  1  0.09400000  0.38110000  0.15770000  1.0 0.147099611
H  H57  1  0.91200000  0.80170000  0.50340000  1.0 0.147099611
H  H58  1  0.58800000  0.19830000  0.00340000  1.0 0.147099611
H  H59  1  0.41200000  0.69830000  0.49660000  1.0 0.147099611
H  H60  1  0.08800000  0.30170000  0.99660000  1.0 0.147099611
H  H61  1  0.95570000  0.89550000  0.53880000  1.0 0.1092138655
H  H62  1  0.54430000  0.10450000  0.03880000  1.0 0.1092138655
H  H63  1  0.45570000  0.60450000  0.46120000  1.0 0.1092138655
H  H64  1  0.04430000  0.39550000  0.96120000  1.0 0.1092138655
H  H65  1  0.91270000  0.47680000  0.11000000  1.0 0.0990910567
H  H66  1  0.58730000  0.52320000  0.61000000  1.0 0.0990910567
H  H67  1  0.41270000  0.02320000  0.89000000  1.0 0.0990910567
H  H68  1  0.08730000  0.97680000  0.39000000  1.0 0.0990910567
H  H69  1  0.87410000  0.51660000  0.19470000  1.0 0.1408234231
H  H70  1  0.62590000  0.48340000  0.69470000  1.0 0.1408234231
H  H71  1  0.37410000  0.98340000  0.80530000  1.0 0.1408234231
H  H72  1  0.12590000  0.01660000  0.30530000  1.0 0.1408234231
H  H73  1  0.95320000  0.68150000  0.15530000  1.0 0.1408234231
H  H74  1  0.54680000  0.31850000  0.65530000  1.0 0.1408234231
H  H75  1  0.45320000  0.81850000  0.84470000  1.0 0.1408234231
H  H76  1  0.04680000  0.18150000  0.34470000  1.0 0.1408234231
H  H77  1  0.98480000  0.63880000  0.06800000  1.0 0.1171071968
H  H78  1  0.51520000  0.36120000  0.56800000  1.0 0.1171071968
H  H79  1  0.48480000  0.86120000  0.93200000  1.0 0.1171071968
H  H80  1  0.01520000  0.13880000  0.43200000  1.0 0.1171071968
H  H81  1  0.58710000  0.60030000  0.52840000  1.0 0.0915691131
H  H82  1  0.91290000  0.39970000  0.02840000  1.0 0.0915691131
H  H83  1  0.08710000  0.89970000  0.47160000  1.0 0.0915691131
H  H84  1  0.41290000  0.10030000  0.97160000  1.0 0.0915691131
H  H85  1  0.67650000  0.64520000  0.48730000  1.0 0.1408234231
H  H86  1  0.82350000  0.35480000  0.98730000  1.0 0.1408234231
H  H87  1  0.17650000  0.85480000  0.51270000  1.0 0.1408234231
H  H88  1  0.32350000  0.14520000  0.01270000  1.0 0.1408234231
H  H89  1  0.67780000  0.51340000  0.35830000  1.0 0.1408234231
H  H90  1  0.82220000  0.48660000  0.85830000  1.0 0.1408234231
H  H91  1  0.17780000  0.98660000  0.64170000  1.0 0.1408234231
H  H92  1  0.32220000  0.01340000  0.14170000  1.0 0.1408234231
H  H93  1  0.58840000  0.46860000  0.39940000  1.0 0.1092138655
H  H94  1  0.91160000  0.53140000  0.89940000  1.0 0.1092138655
H  H95  1  0.08840000  0.03140000  0.60060000  1.0 0.1092138655
H  H96  1  0.41160000  0.96860000  0.10060000  1.0 0.1092138655
C  C1  1  0.49620000  0.93020000  0.38470000  1.0 0.0492718506
C  C2  1  0.00380000  0.06980000  0.88470000  1.0 0.0492718506
C  C3  1  0.99620000  0.56980000  0.61530000  1.0 0.0492718506
C  C4  1  0.50380000  0.43020000  0.11530000  1.0 0.0492718506
C  C5  1  0.51780000  0.90700000  0.33080000  1.0 -0.1588039109
C  C6  1  0.98220000  0.09300000  0.83080000  1.0 -0.1588039109
C  C7  1  0.01780000  0.59300000  0.66920000  1.0 -0.1588039109
C  C8  1  0.48220000  0.40700000  0.16920000  1.0 -0.1588039109
C  C9  1  0.58130000  0.90010000  0.32130000  1.0 0.0915691131
C  C10  1  0.91870000  0.09990000  0.82130000  1.0 0.0990910567
C  C11  1  0.08130000  0.59990000  0.67870000  1.0 0.0915691131
C  C12  1  0.41870000  0.40010000  0.17870000  1.0 0.0990910567
C  C13  1  0.62320000  0.91640000  0.36580000  1.0 -0.1588039109
C  C14  1  0.87680000  0.08360000  0.86580000  1.0 -0.1588039109
C  C15  1  0.12320000  0.58360000  0.63420000  1.0 -0.1588039109
C  C16  1  0.37680000  0.41640000  0.13420000  1.0 -0.1588039109
C  C17  1  0.60160000  0.93960000  0.41970000  1.0 0.0338582425
C  C18  1  0.89840000  0.06040000  0.91970000  1.0 0.0338582425
C  C19  1  0.10160000  0.56040000  0.58030000  1.0 0.0338582425
C  C20  1  0.39840000  0.43960000  0.08030000  1.0 0.0338582425
C  C21  1  0.58370000  0.59490000  0.01710000  1.0 0.0792948099
C  C22  1  0.91630000  0.40510000  0.51710000  1.0 0.0792948099
C  C23  1  0.08370000  0.90510000  0.98290000  1.0 0.0792948099
C  C24  1  0.41630000  0.09490000  0.48290000  1.0 0.0792948099
C  C25  1  0.61100000  0.64790000  0.03990000  1.0 -0.1408195429
C  C26  1  0.88900000  0.35210000  0.53990000  1.0 -0.1408195429
C  C27  1  0.11100000  0.85210000  0.96010000  1.0 -0.1408195429
C  C28  1  0.38900000  0.14790000  0.46010000  1.0 -0.1408195429
C  C29  1  0.58630000  0.67470000  0.09030000  1.0 0.0695126229
C  C30  1  0.91370000  0.32530000  0.59030000  1.0 0.0695126229
C  C31  1  0.08630000  0.82530000  0.90970000  1.0 0.0695126229
C  C32  1  0.41370000  0.17470000  0.40970000  1.0 0.0695126229
C  C33  1  0.53560000  0.64430000  0.11860000  1.0 -0.1588039109
C  C34  1  0.96440000  0.35570000  0.61860000  1.0 -0.1588039109
C  C35  1  0.03560000  0.85570000  0.88140000  1.0 -0.1588039109
C  C36  1  0.46440000  0.14430000  0.38140000  1.0 -0.1588039109
C  C37  1  0.51080000  0.59080000  0.08930000  1.0 0.0492718506
C  C38  1  0.98920000  0.40920000  0.58930000  1.0 0.0492718506
C  C39  1  0.01080000  0.90920000  0.91070000  1.0 0.0492718506
C  C40  1  0.48920000  0.09080000  0.41070000  1.0 0.0492718506
C  C41  1  0.89450000  0.98670000  0.09220000  1.0 0.0792948099
C  C42  1  0.60550000  0.01330000  0.59220000  1.0 0.0792948099
C  C43  1  0.39450000  0.51330000  0.90780000  1.0 0.0792948099
C  C44  1  0.10550000  0.48670000  0.40780000  1.0 0.0792948099
C  C45  1  0.83870000  0.96480000  0.11500000  1.0 -0.1518409645
C  C46  1  0.66130000  0.03520000  0.61500000  1.0 -0.1518409645
C  C47  1  0.33870000  0.53520000  0.88500000  1.0 -0.1518409645
C  C48  1  0.16130000  0.46480000  0.38500000  1.0 -0.1518409645
C  C49  1  0.80570000  0.92160000  0.08620000  1.0 0.0792948099
C  C50  1  0.69430000  0.07840000  0.58620000  1.0 0.0915691131
C  C51  1  0.30570000  0.57840000  0.91380000  1.0 0.0915691131
C  C52  1  0.19430000  0.42160000  0.41380000  1.0 0.0792948099
C  C53  1  0.82410000  0.90620000  0.02820000  1.0 -0.1713110192
C  C54  1  0.67590000  0.09380000  0.52820000  1.0 -0.1713110192
C  C55  1  0.32410000  0.59380000  0.97180000  1.0 -0.1713110192
C  C56  1  0.17590000  0.40620000  0.47180000  1.0 -0.1713110192
C  C57  1  0.87790000  0.93520000  0.00570000  1.0 0.0695126229
C  C58  1  0.62210000  0.06480000  0.50570000  1.0 0.0695126229
C  C59  1  0.37790000  0.56480000  0.99430000  1.0 0.0695126229
C  C60  1  0.12210000  0.43520000  0.49430000  1.0 0.0695126229
C  C61  1  0.60380000  0.87670000  0.25960000  1.0 0.3097627393
C  C62  1  0.89620000  0.12330000  0.75960000  1.0 0.3046781115
C  C63  1  0.10380000  0.62330000  0.74040000  1.0 0.3097627393
C  C64  1  0.39620000  0.37670000  0.24040000  1.0 0.3046781115
C  C65  1  0.60350000  0.80520000  0.18940000  1.0 0.3459716729
C  C66  1  0.89650000  0.19480000  0.68940000  1.0 0.3459716729
C  C67  1  0.10350000  0.69480000  0.81060000  1.0 0.3459716729
C  C68  1  0.39650000  0.30520000  0.31060000  1.0 0.3382731387
C  C69  1  0.61060000  0.73260000  0.11720000  1.0 0.3319947612
C  C70  1  0.88940000  0.26740000  0.61720000  1.0 0.3319947612
C  C71  1  0.11060000  0.76740000  0.88280000  1.0 0.3319947612
C  C72  1  0.38940000  0.23260000  0.38280000  1.0 0.3382731387
C  C73  1  0.68150000  0.80740000  0.11330000  1.0 0.3319947612
C  C74  1  0.81850000  0.19260000  0.61330000  1.0 0.3319947612
C  C75  1  0.18150000  0.69260000  0.88670000  1.0 0.3382731387
C  C76  1  0.31850000  0.30740000  0.38670000  1.0 0.3382731387
C  C77  1  0.74870000  0.88960000  0.11500000  1.0 0.3382731387
C  C78  1  0.75130000  0.11040000  0.61500000  1.0 0.3319947612
C  C79  1  0.24870000  0.61040000  0.88500000  1.0 0.3382731387
C  C80  1  0.25130000  0.38960000  0.38500000  1.0 0.3382731387
C  C81  1  0.67980000  0.88790000  0.18870000  1.0 0.3611107088
C  C82  1  0.82020000  0.11210000  0.68870000  1.0 0.3611107088
C  C83  1  0.17980000  0.61210000  0.81130000  1.0 0.3611107088
C  C84  1  0.32020000  0.38790000  0.31130000  1.0 0.3611107088
C  C85  1  0.65470000  0.83400000  0.16300000  1.0 -0.1588039109
C  C86  1  0.84530000  0.16600000  0.66300000  1.0 -0.1588039109
C  C87  1  0.15470000  0.66600000  0.83700000  1.0 -0.1588039109
C  C88  1  0.34530000  0.33400000  0.33700000  1.0 -0.1588039109
C  C89  1  0.94330000  0.93470000  0.40580000  1.0 0.0621763952
C  C90  1  0.55670000  0.06530000  0.90580000  1.0 0.0492718506
C  C91  1  0.44330000  0.56530000  0.59420000  1.0 0.0492718506
C  C92  1  0.05670000  0.43470000  0.09420000  1.0 0.0492718506
C  C93  1  0.91790000  0.88180000  0.38300000  1.0 -0.190382325
C  C94  1  0.58210000  0.11820000  0.88300000  1.0 -0.190382325
C  C95  1  0.41790000  0.61820000  0.61700000  1.0 -0.190382325
C  C96  1  0.08210000  0.38180000  0.11700000  1.0 -0.190382325
C  C97  1  0.90870000  0.82900000  0.41720000  1.0 0.0792948099
C  C98  1  0.59130000  0.17100000  0.91720000  1.0 0.0792948099
C  C99  1  0.40870000  0.67100000  0.58280000  1.0 0.0695126229
C  C100  1  0.09130000  0.32900000  0.08280000  1.0 0.0695126229
C  C101  1  0.92060000  0.83490000  0.47670000  1.0 -0.1713110192
C  C102  1  0.57940000  0.16510000  0.97670000  1.0 -0.1713110192
C  C103  1  0.42060000  0.66510000  0.52330000  1.0 -0.1713110192
C  C104  1  0.07940000  0.33490000  0.02330000  1.0 -0.1713110192
C  C105  1  0.94610000  0.89120000  0.49770000  1.0 0.0915691131
C  C106  1  0.55390000  0.10880000  0.99770000  1.0 0.0915691131
C  C107  1  0.44610000  0.60880000  0.50230000  1.0 0.0915691131
C  C108  1  0.05390000  0.39120000  0.00230000  1.0 0.0915691131
C  C109  1  0.92150000  0.51890000  0.11960000  1.0 0.0015316474
C  C110  1  0.57850000  0.48110000  0.61960000  1.0 0.0015316474
C  C111  1  0.42150000  0.98110000  0.88040000  1.0 0.0015316474
C  C112  1  0.07850000  0.01890000  0.38040000  1.0 0.0015316474
C  C113  1  0.89840000  0.54250000  0.16950000  1.0 -0.1288388082
C  C114  1  0.60160000  0.45750000  0.66950000  1.0 -0.1288388082
C  C115  1  0.39840000  0.95750000  0.83050000  1.0 -0.1288388082
C  C116  1  0.10160000  0.04250000  0.33050000  1.0 -0.1288388082
C  C117  1  0.90790000  0.60080000  0.18550000  1.0 0.0621763952
C  C118  1  0.59210000  0.39920000  0.68550000  1.0 0.0621763952
C  C119  1  0.40790000  0.89920000  0.81450000  1.0 0.0621763952
C  C120  1  0.09210000  0.10080000  0.31450000  1.0 0.0621763952
C  C121  1  0.94410000  0.63940000  0.14600000  1.0 -0.1518409645
C  C122  1  0.55590000  0.36060000  0.64600000  1.0 -0.1518409645
C  C123  1  0.44410000  0.86060000  0.85400000  1.0 -0.1518409645
C  C124  1  0.05590000  0.13940000  0.35400000  1.0 -0.1518409645
C  C125  1  0.96410000  0.61280000  0.09590000  1.0 0.0695126229
C  C126  1  0.53590000  0.38720000  0.59590000  1.0 0.0695126229
C  C127  1  0.46410000  0.88720000  0.90410000  1.0 0.0695126229
C  C128  1  0.03590000  0.11280000  0.40410000  1.0 0.0695126229
C  C129  1  0.60550000  0.58270000  0.49390000  1.0 0.0244591228
C  C130  1  0.89450000  0.41730000  0.99390000  1.0 0.0244591228
C  C131  1  0.10550000  0.91730000  0.50610000  1.0 0.0244591228
C  C132  1  0.39450000  0.08270000  0.00610000  1.0 0.0244591228
C  C133  1  0.65860000  0.60930000  0.46950000  1.0 -0.1518409645
C  C134  1  0.84140000  0.39070000  0.96950000  1.0 -0.1518409645
C  C135  1  0.15860000  0.89070000  0.53050000  1.0 -0.1518409645
C  C136  1  0.34140000  0.10930000  0.03050000  1.0 -0.1518409645
C  C137  1  0.68560000  0.58350000  0.41890000  1.0 0.0792948099
C  C138  1  0.81440000  0.41650000  0.91890000  1.0 0.0915691131
C  C139  1  0.18560000  0.91650000  0.58110000  1.0 0.0792948099
C  C140  1  0.31440000  0.08350000  0.08110000  1.0 0.0792948099
C  C141  1  0.65940000  0.53100000  0.39280000  1.0 -0.1408195429
C  C142  1  0.84060000  0.46900000  0.89280000  1.0 -0.1408195429
C  C143  1  0.15940000  0.96900000  0.60720000  1.0 -0.1408195429
C  C144  1  0.34060000  0.03100000  0.10720000  1.0 -0.1408195429
C  C145  1  0.60630000  0.50440000  0.41720000  1.0 0.0621763952
C  C146  1  0.89370000  0.49560000  0.91720000  1.0 0.0621763952
C  C147  1  0.10630000  0.99560000  0.58280000  1.0 0.0621763952
C  C148  1  0.39370000  0.00440000  0.08280000  1.0 0.0621763952
C  C149  1  0.88520000  0.77090000  0.39000000  1.0 0.3212051979
C  C150  1  0.61480000  0.22910000  0.89000000  1.0 0.3319947612
C  C151  1  0.38520000  0.72910000  0.61000000  1.0 0.3212051979
C  C152  1  0.11480000  0.27090000  0.11000000  1.0 0.3212051979
C  C153  1  0.88830000  0.70120000  0.31340000  1.0 0.3977400131
C  C154  1  0.61170000  0.29880000  0.81340000  1.0 0.3977400131
C  C155  1  0.38830000  0.79880000  0.68660000  1.0 0.3977400131
C  C156  1  0.11170000  0.20120000  0.18660000  1.0 0.3977400131
C  C157  1  0.88280000  0.62630000  0.24170000  1.0 0.3097627393
C  C158  1  0.61720000  0.37370000  0.74170000  1.0 0.3097627393
C  C159  1  0.38280000  0.87370000  0.75830000  1.0 0.3212051979
C  C160  1  0.11720000  0.12630000  0.25830000  1.0 0.3097627393
C  C161  1  0.81390000  0.61760000  0.31620000  1.0 0.3382731387
C  C162  1  0.68610000  0.38240000  0.81620000  1.0 0.3382731387
C  C163  1  0.31390000  0.88240000  0.68380000  1.0 0.3382731387
C  C164  1  0.18610000  0.11760000  0.18380000  1.0 0.3382731387
C  C165  1  0.74360000  0.61590000  0.39350000  1.0 0.3382731387
C  C166  1  0.75640000  0.38410000  0.89350000  1.0 0.3319947612
C  C167  1  0.24360000  0.88410000  0.60650000  1.0 0.3319947612
C  C168  1  0.25640000  0.11590000  0.10650000  1.0 0.3382731387
C  C169  1  0.81420000  0.69140000  0.39570000  1.0 0.3382731387
C  C170  1  0.68580000  0.30860000  0.89570000  1.0 0.3382731387
C  C171  1  0.31420000  0.80860000  0.60430000  1.0 0.3382731387
C  C172  1  0.18580000  0.19140000  0.10430000  1.0 0.3382731387
C  C173  1  0.83710000  0.66930000  0.34280000  1.0 -0.1713110192
C  C174  1  0.66290000  0.33070000  0.84280000  1.0 -0.1713110192
C  C175  1  0.33710000  0.83070000  0.65720000  1.0 -0.1713110192
C  C176  1  0.16290000  0.16930000  0.15720000  1.0 -0.1713110192
I  I1  1  0.43107000  0.94238000  0.57167000  1.0 -0.5302269467
I  I2  1  0.06893000  0.05762000  0.07167000  1.0 -0.5302269467
I  I3  1  0.93107000  0.55762000  0.42833000  1.0 -0.5302269467
I  I4  1  0.56893000  0.44238000  0.92833000  1.0 -0.5302269467
I  I5  1  0.95241000  0.08771000  0.56474000  1.0 -0.5302269467
I  I6  1  0.54759000  0.91229000  0.06474000  1.0 -0.5302269467
I  I7  1  0.45241000  0.41229000  0.43526000  1.0 -0.5302269467
I  I8  1  0.04759000  0.58771000  0.93526000  1.0 -0.5302269467
N  N1  1  0.53810000  0.94650000  0.42920000  1.0 -0.2122155399
N  N2  1  0.96190000  0.05350000  0.92920000  1.0 -0.2122155399
N  N3  1  0.03810000  0.55350000  0.57080000  1.0 -0.2122155399
N  N4  1  0.46190000  0.44650000  0.07080000  1.0 -0.2122155399
N  N5  1  0.53340000  0.56850000  0.03880000  1.0 -0.2018267781
N  N6  1  0.96660000  0.43150000  0.53880000  1.0 -0.2018267781
N  N7  1  0.03340000  0.93150000  0.96120000  1.0 -0.2018267781
N  N8  1  0.46660000  0.06850000  0.46120000  1.0 -0.2018267781
N  N9  1  0.91250000  0.97130000  0.03750000  1.0 -0.190382325
N  N10  1  0.58750000  0.02870000  0.53750000  1.0 -0.190382325
N  N11  1  0.41250000  0.52870000  0.96250000  1.0 -0.190382325
N  N12  1  0.08750000  0.47130000  0.46250000  1.0 -0.190382325
N  N13  1  0.57660000  0.82670000  0.23860000  1.0 -0.3885258974
N  N14  1  0.92340000  0.17330000  0.73860000  1.0 -0.3885258974
N  N15  1  0.07660000  0.67330000  0.76140000  1.0 -0.3885258974
N  N16  1  0.42340000  0.32670000  0.26140000  1.0 -0.3817784009
N  N17  1  0.58140000  0.75100000  0.16520000  1.0 -0.3817784009
N  N18  1  0.91860000  0.24900000  0.66520000  1.0 -0.3817784009
N  N19  1  0.08140000  0.74900000  0.83480000  1.0 -0.3817784009
N  N20  1  0.41860000  0.25100000  0.33480000  1.0 -0.3817784009
N  N21  1  0.65890000  0.75580000  0.08830000  1.0 -0.3697469157
N  N22  1  0.84110000  0.24420000  0.58830000  1.0 -0.3697469157
N  N23  1  0.15890000  0.74420000  0.91170000  1.0 -0.3697469157
N  N24  1  0.34110000  0.25580000  0.41170000  1.0 -0.3817784009
N  N25  1  0.73310000  0.83790000  0.08800000  1.0 -0.3817784009
N  N26  1  0.76690000  0.16210000  0.58800000  1.0 -0.3817784009
N  N27  1  0.23310000  0.66210000  0.91200000  1.0 -0.3817784009
N  N28  1  0.26690000  0.33790000  0.41200000  1.0 -0.3817784009
N  N29  1  0.72760000  0.91810000  0.16320000  1.0 -0.3885258974
N  N30  1  0.77240000  0.08190000  0.66320000  1.0 -0.3885258974
N  N31  1  0.22760000  0.58190000  0.83680000  1.0 -0.3885258974
N  N32  1  0.27240000  0.41810000  0.33680000  1.0 -0.3885258974
N  N33  1  0.65460000  0.91180000  0.23950000  1.0 -0.4192033418
N  N34  1  0.84540000  0.08820000  0.73950000  1.0 -0.4192033418
N  N35  1  0.15460000  0.58820000  0.76050000  1.0 -0.4192033418
N  N36  1  0.34540000  0.41180000  0.26050000  1.0 -0.4192033418
N  N37  1  0.95630000  0.93620000  0.46280000  1.0 -0.190382325
N  N38  1  0.54370000  0.06380000  0.96280000  1.0 -0.190382325
N  N39  1  0.45630000  0.56380000  0.53720000  1.0 -0.190382325
N  N40  1  0.04370000  0.43620000  0.03720000  1.0 -0.190382325
N  N41  1  0.95770000  0.55300000  0.08140000  1.0 -0.2018267781
N  N42  1  0.54230000  0.44700000  0.58140000  1.0 -0.2018267781
N  N43  1  0.45770000  0.94700000  0.91860000  1.0 -0.2018267781
N  N44  1  0.04230000  0.05300000  0.41860000  1.0 -0.2018267781
N  N45  1  0.57940000  0.53020000  0.46780000  1.0 -0.2122155399
N  N46  1  0.92060000  0.46980000  0.96780000  1.0 -0.2122155399
N  N47  1  0.07940000  0.96980000  0.53220000  1.0 -0.2122155399
N  N48  1  0.42060000  0.03020000  0.03220000  1.0 -0.2122155399
N  N49  1  0.90960000  0.75310000  0.33710000  1.0 -0.4065004794
N  N50  1  0.59040000  0.24690000  0.83710000  1.0 -0.4065004794
N  N51  1  0.40960000  0.74690000  0.66290000  1.0 -0.4039465793
N  N52  1  0.09040000  0.25310000  0.16290000  1.0 -0.4065004794
N  N53  1  0.90860000  0.68150000  0.26360000  1.0 -0.3885258974
N  N54  1  0.59140000  0.31850000  0.76360000  1.0 -0.3885258974
N  N55  1  0.40860000  0.81850000  0.73640000  1.0 -0.3885258974
N  N56  1  0.09140000  0.18150000  0.23640000  1.0 -0.3885258974
N  N57  1  0.83630000  0.59520000  0.26540000  1.0 -0.3697469157
N  N58  1  0.66370000  0.40480000  0.76540000  1.0 -0.3697469157
N  N59  1  0.33630000  0.90480000  0.73460000  1.0 -0.3697469157
N  N60  1  0.16370000  0.09520000  0.23460000  1.0 -0.3697469157
N  N61  1  0.76190000  0.58880000  0.34230000  1.0 -0.3885258974
N  N62  1  0.73810000  0.41120000  0.84230000  1.0 -0.3885258974
N  N63  1  0.26190000  0.91120000  0.65770000  1.0 -0.3817784009
N  N64  1  0.23810000  0.08880000  0.15770000  1.0 -0.3885258974
N  N65  1  0.76440000  0.66410000  0.42330000  1.0 -0.3885258974
N  N66  1  0.73560000  0.33590000  0.92330000  1.0 -0.3885258974
N  N67  1  0.26440000  0.83590000  0.57670000  1.0 -0.3885258974
N  N68  1  0.23560000  0.16410000  0.07670000  1.0 -0.3885258974
N  N69  1  0.83800000  0.74390000  0.42300000  1.0 -0.4039465793
N  N70  1  0.66200000  0.25610000  0.92300000  1.0 -0.4039465793
N  N71  1  0.33800000  0.75610000  0.57700000  1.0 -0.4039465793
N  N72  1  0.16200000  0.24390000  0.07700000  1.0 -0.4039465793
