# DDEC6 charges by PACMAN v1.1 (https://github.com/mtap-research/PACMAN-charge/)
data_VOBRUB_ASR_pacman
_symmetry_space_group_name_H-M   'P 1'
_cell_length_a   10.63900000
_cell_length_b   10.63900000
_cell_length_c   11.21930000
_cell_angle_alpha   73.81230000
_cell_angle_beta   106.18800000
_cell_angle_gamma   113.19800000
_symmetry_Int_Tables_number   1
_chemical_formula_structural   NaCuH8(C2O)8
_chemical_formula_sum   'Na2 Cu2 H16 C32 O16'
_cell_volume   1100.21574727
_cell_formula_units_Z   2
loop_
 _symmetry_equiv_pos_site_id
 _symmetry_equiv_pos_as_xyz
  1  'x, y, z'
loop_
 _atom_site_type_symbol
 _atom_site_label
 _atom_site_symmetry_multiplicity
 _atom_site_fract_x
 _atom_site_fract_y
 _atom_site_fract_z
 _atom_site_occupancy
 _atom_site_charge
Na  Na1  1  0.00000000  0.00000000  0.50000000  1.0 0.8845301092
Na  Na2  1  0.00000000  0.00000000  0.00000000  1.0 0.8869270504
Cu  Cu1  1  0.13528000  0.13528000  0.75000000  1.0 0.9335794568
Cu  Cu2  1  0.86472000  0.86472000  0.25000000  1.0 0.9335794568
H  H1  1  0.75850000  0.13390000  0.83550000  1.0 0.1364948571
H  H2  1  0.13390000  0.75850000  0.66450000  1.0 0.1364948571
H  H3  1  0.24150000  0.86610000  0.16450000  1.0 0.1364948571
H  H4  1  0.86610000  0.24150000  0.33550000  1.0 0.1364948571
H  H5  1  0.54380000  0.14940000  0.81920000  1.0 0.1308254794
H  H6  1  0.14940000  0.54380000  0.68080000  1.0 0.1308254794
H  H7  1  0.45620000  0.85060000  0.18080000  1.0 0.1308254794
H  H8  1  0.85060000  0.45620000  0.31920000  1.0 0.1308254794
H  H9  1  0.46700000  0.16840000  0.44550000  1.0 0.1308254794
H  H10  1  0.16840000  0.46700000  0.05450000  1.0 0.1308254794
H  H11  1  0.53300000  0.83160000  0.55450000  1.0 0.1308254794
H  H12  1  0.83160000  0.53300000  0.94550000  1.0 0.1308254794
H  H13  1  0.68580000  0.16320000  0.46070000  1.0 0.1308254794
H  H14  1  0.16320000  0.68580000  0.03930000  1.0 0.1308254794
H  H15  1  0.31420000  0.83680000  0.53930000  1.0 0.1308254794
H  H16  1  0.83680000  0.31420000  0.96070000  1.0 0.1308254794
C  C1  1  0.74374000  0.14486000  0.64990000  1.0 0.0033011226
C  C2  1  0.14486000  0.74374000  0.85010000  1.0 0.0033011226
C  C3  1  0.25626000  0.85514000  0.35010000  1.0 0.0033011226
C  C4  1  0.85514000  0.25626000  0.14990000  1.0 0.0033011226
C  C5  1  0.70031000  0.14149000  0.75680000  1.0 -0.0907814527
C  C6  1  0.14149000  0.70031000  0.74320000  1.0 -0.0907814527
C  C7  1  0.29969000  0.85851000  0.24320000  1.0 -0.0907814527
C  C8  1  0.85851000  0.29969000  0.25680000  1.0 -0.0907814527
C  C9  1  0.57078000  0.14942000  0.74720000  1.0 -0.0907814527
C  C10  1  0.14942000  0.57078000  0.75280000  1.0 -0.0907814527
C  C11  1  0.42922000  0.85058000  0.25280000  1.0 -0.0907814527
C  C12  1  0.85058000  0.42922000  0.24720000  1.0 -0.0907814527
C  C13  1  0.48087000  0.15753000  0.63090000  1.0 -0.003276203
C  C14  1  0.15753000  0.48087000  0.86910000  1.0 -0.003276203
C  C15  1  0.51913000  0.84247000  0.36910000  1.0 -0.003276203
C  C16  1  0.84247000  0.51913000  0.13090000  1.0 -0.003276203
C  C17  1  0.52562000  0.16218000  0.52420000  1.0 -0.0907814527
C  C18  1  0.16218000  0.52562000  0.97580000  1.0 -0.0907814527
C  C19  1  0.47438000  0.83782000  0.47580000  1.0 -0.0907814527
C  C20  1  0.83782000  0.47438000  0.02420000  1.0 -0.0907814527
C  C21  1  0.65650000  0.15770000  0.53330000  1.0 -0.0907814527
C  C22  1  0.15770000  0.65650000  0.96670000  1.0 -0.0907814527
C  C23  1  0.34350000  0.84230000  0.46670000  1.0 -0.0907814527
C  C24  1  0.84230000  0.34350000  0.03330000  1.0 -0.0907814527
C  C25  1  0.88234000  0.13126000  0.66130000  1.0 0.5867817819
C  C26  1  0.13126000  0.88234000  0.83870000  1.0 0.5867817819
C  C27  1  0.11766000  0.86874000  0.33870000  1.0 0.5867817819
C  C28  1  0.86874000  0.11766000  0.16130000  1.0 0.5867817819
C  C29  1  0.33611000  0.15749000  0.62040000  1.0 0.5814936131
C  C30  1  0.15749000  0.33611000  0.87960000  1.0 0.5814936131
C  C31  1  0.66389000  0.84251000  0.37960000  1.0 0.5814936131
C  C32  1  0.84251000  0.66389000  0.12040000  1.0 0.5814936131
O  O1  1  0.94204000  0.08910000  0.77221000  1.0 -0.5739023119
O  O2  1  0.08910000  0.94204000  0.72779000  1.0 -0.5739023119
O  O3  1  0.05796000  0.91090000  0.22779000  1.0 -0.5739023119
O  O4  1  0.91090000  0.05796000  0.27221000  1.0 -0.5739023119
O  O5  1  0.93342000  0.16134000  0.56612000  1.0 -0.5739023119
O  O6  1  0.16134000  0.93342000  0.93388000  1.0 -0.5739023119
O  O7  1  0.06658000  0.83866000  0.43388000  1.0 -0.5739023119
O  O8  1  0.83866000  0.06658000  0.06612000  1.0 -0.5739023119
O  O9  1  0.24813000  0.13447000  0.52426000  1.0 -0.5646362483
O  O10  1  0.13447000  0.24813000  0.97574000  1.0 -0.5646362483
O  O11  1  0.75187000  0.86553000  0.47574000  1.0 -0.5646362483
O  O12  1  0.86553000  0.75187000  0.02426000  1.0 -0.5646362483
O  O13  1  0.31891000  0.18279000  0.71910000  1.0 -0.5313589453
O  O14  1  0.18279000  0.31891000  0.78090000  1.0 -0.5313589453
O  O15  1  0.68109000  0.81721000  0.28090000  1.0 -0.5313589453
O  O16  1  0.81721000  0.68109000  0.21910000  1.0 -0.5313589453
