# DDEC6 charges by PACMAN v1.1 (https://github.com/mtap-research/PACMAN-charge/)
data_VODPOU_FSR_pacman
_symmetry_space_group_name_H-M   'P 1'
_cell_length_a   13.47700000
_cell_length_b   15.23960000
_cell_length_c   26.22000000
_cell_angle_alpha   90.00000000
_cell_angle_beta   90.00000000
_cell_angle_gamma   90.00000000
_symmetry_Int_Tables_number   1
_chemical_formula_structural   Mn3H8C12N22O
_chemical_formula_sum   'Mn24 H64 C96 N176 O8'
_cell_volume   5385.17081882
_cell_formula_units_Z   8
loop_
 _symmetry_equiv_pos_site_id
 _symmetry_equiv_pos_as_xyz
  1  'x, y, z'
loop_
 _atom_site_type_symbol
 _atom_site_label
 _atom_site_symmetry_multiplicity
 _atom_site_fract_x
 _atom_site_fract_y
 _atom_site_fract_z
 _atom_site_occupancy
 _atom_site_charge
Mn  Mn1  1  0.30367000  0.95928000  0.36018000  1.0 0.7510325351
Mn  Mn2  1  0.69633000  0.54072000  0.86018000  1.0 0.7510325351
Mn  Mn3  1  0.80367000  0.04072000  0.13982000  1.0 0.7510325351
Mn  Mn4  1  0.19633000  0.45928000  0.63982000  1.0 0.7510325351
Mn  Mn5  1  0.69633000  0.04072000  0.63982000  1.0 0.7510325351
Mn  Mn6  1  0.30367000  0.45928000  0.13982000  1.0 0.7510325351
Mn  Mn7  1  0.19633000  0.95928000  0.86018000  1.0 0.7510325351
Mn  Mn8  1  0.80367000  0.54072000  0.36018000  1.0 0.7510325351
Mn  Mn9  1  0.31094000  0.25026000  0.69257000  1.0 0.7510325351
Mn  Mn10  1  0.68906000  0.24974000  0.19257000  1.0 0.7510325351
Mn  Mn11  1  0.81094000  0.74974000  0.80743000  1.0 0.7510325351
Mn  Mn12  1  0.18906000  0.75026000  0.30743000  1.0 0.7510325351
Mn  Mn13  1  0.68906000  0.74974000  0.30743000  1.0 0.7510325351
Mn  Mn14  1  0.31094000  0.75026000  0.80743000  1.0 0.7510325351
Mn  Mn15  1  0.18906000  0.25026000  0.19257000  1.0 0.7510325351
Mn  Mn16  1  0.81094000  0.24974000  0.69257000  1.0 0.7510325351
Mn  Mn17  1  0.57820000  0.46976000  0.17424000  1.0 0.7277559305
Mn  Mn18  1  0.42180000  0.03024000  0.67424000  1.0 0.7277559305
Mn  Mn19  1  0.07820000  0.53024000  0.32576000  1.0 0.7277559305
Mn  Mn20  1  0.92180000  0.96976000  0.82576000  1.0 0.7277559305
Mn  Mn21  1  0.42180000  0.53024000  0.82576000  1.0 0.7277559305
Mn  Mn22  1  0.57820000  0.96976000  0.32576000  1.0 0.7277559305
Mn  Mn23  1  0.92180000  0.46976000  0.67424000  1.0 0.7277559305
Mn  Mn24  1  0.07820000  0.03024000  0.17424000  1.0 0.7277559305
H  H1  1  0.36870000  0.57870000  0.36510000  1.0 0.1258064026
H  H2  1  0.63130000  0.92130000  0.86510000  1.0 0.1258064026
H  H3  1  0.86870000  0.42130000  0.13490000  1.0 0.1258064026
H  H4  1  0.13130000  0.07870000  0.63490000  1.0 0.1258064026
H  H5  1  0.63130000  0.42130000  0.63490000  1.0 0.1258064026
H  H6  1  0.36870000  0.07870000  0.13490000  1.0 0.1258064026
H  H7  1  0.13130000  0.57870000  0.86510000  1.0 0.1258064026
H  H8  1  0.86870000  0.92130000  0.36510000  1.0 0.1258064026
H  H9  1  0.48800000  0.38740000  0.28100000  1.0 0.1017369866
H  H10  1  0.51200000  0.11260000  0.78100000  1.0 0.1017369866
H  H11  1  0.98800000  0.61260000  0.21900000  1.0 0.1017369866
H  H12  1  0.01200000  0.88740000  0.71900000  1.0 0.1017369866
H  H13  1  0.51200000  0.61260000  0.71900000  1.0 0.1017369866
H  H14  1  0.48800000  0.88740000  0.21900000  1.0 0.1017369866
H  H15  1  0.01200000  0.38740000  0.78100000  1.0 0.1017369866
H  H16  1  0.98800000  0.11260000  0.28100000  1.0 0.1017369866
H  H17  1  0.51210000  0.62890000  0.23620000  1.0 0.1017369866
H  H18  1  0.48790000  0.87110000  0.73620000  1.0 0.1017369866
H  H19  1  0.01210000  0.37110000  0.26380000  1.0 0.1017369866
H  H20  1  0.98790000  0.12890000  0.76380000  1.0 0.1017369866
H  H21  1  0.48790000  0.37110000  0.76380000  1.0 0.1017369866
H  H22  1  0.51210000  0.12890000  0.26380000  1.0 0.1017369866
H  H23  1  0.98790000  0.62890000  0.73620000  1.0 0.1017369866
H  H24  1  0.01210000  0.87110000  0.23620000  1.0 0.1017369866
H  H25  1  0.31080000  0.02940000  0.46810000  1.0 0.1243842507
H  H26  1  0.68920000  0.47060000  0.96810000  1.0 0.1243842507
H  H27  1  0.81080000  0.97060000  0.03190000  1.0 0.1243842507
H  H28  1  0.18920000  0.52940000  0.53190000  1.0 0.1243842507
H  H29  1  0.68920000  0.97060000  0.53190000  1.0 0.1243842507
H  H30  1  0.31080000  0.52940000  0.03190000  1.0 0.1243842507
H  H31  1  0.18920000  0.02940000  0.96810000  1.0 0.1243842507
H  H32  1  0.81080000  0.47060000  0.46810000  1.0 0.1243842507
H  H33  1  0.39380000  0.43060000  0.35060000  1.0 0.1443272347
H  H34  1  0.60620000  0.06940000  0.85060000  1.0 0.1443272347
H  H35  1  0.89380000  0.56940000  0.14940000  1.0 0.1443272347
H  H36  1  0.10620000  0.93060000  0.64940000  1.0 0.1443272347
H  H37  1  0.60620000  0.56940000  0.64940000  1.0 0.1443272347
H  H38  1  0.39380000  0.93060000  0.14940000  1.0 0.1443272347
H  H39  1  0.10620000  0.43060000  0.85060000  1.0 0.1443272347
H  H40  1  0.89380000  0.06940000  0.35060000  1.0 0.1443272347
H  H41  1  0.12340000  0.22290000  0.49640000  1.0 0.1499953905
H  H42  1  0.87660000  0.27710000  0.99640000  1.0 0.1499953905
H  H43  1  0.62340000  0.77710000  0.00360000  1.0 0.1499953905
H  H44  1  0.37660000  0.72290000  0.50360000  1.0 0.1499953905
H  H45  1  0.87660000  0.77710000  0.50360000  1.0 0.1499953905
H  H46  1  0.12340000  0.72290000  0.00360000  1.0 0.1499953905
H  H47  1  0.37660000  0.22290000  0.99640000  1.0 0.1499953905
H  H48  1  0.62340000  0.27710000  0.49640000  1.0 0.1499953905
H  H49  1  0.08140000  0.22330000  0.41050000  1.0 0.1499953905
H  H50  1  0.91860000  0.27670000  0.91050000  1.0 0.1499953905
H  H51  1  0.58140000  0.77670000  0.08950000  1.0 0.1499953905
H  H52  1  0.41860000  0.72330000  0.58950000  1.0 0.1499953905
H  H53  1  0.91860000  0.77670000  0.58950000  1.0 0.1499953905
H  H54  1  0.08140000  0.72330000  0.08950000  1.0 0.1499953905
H  H55  1  0.41860000  0.22330000  0.91050000  1.0 0.1499953905
H  H56  1  0.58140000  0.27670000  0.41050000  1.0 0.1499953905
H  H57  1  0.13970000  0.11420000  0.35990000  1.0 0.1077478791
H  H58  1  0.86030000  0.38580000  0.85990000  1.0 0.1077478791
H  H59  1  0.63970000  0.88580000  0.14010000  1.0 0.1077478791
H  H60  1  0.36030000  0.61420000  0.64010000  1.0 0.1077478791
H  H61  1  0.86030000  0.88580000  0.64010000  1.0 0.1077478791
H  H62  1  0.13970000  0.61420000  0.14010000  1.0 0.1077478791
H  H63  1  0.36030000  0.11420000  0.85990000  1.0 0.1077478791
H  H64  1  0.63970000  0.38580000  0.35990000  1.0 0.1077478791
C  C1  1  0.40410000  0.55970000  0.33670000  1.0 -0.0593879184
C  C2  1  0.59590000  0.94030000  0.83670000  1.0 -0.0593879184
C  C3  1  0.90410000  0.44030000  0.16330000  1.0 -0.0593879184
C  C4  1  0.09590000  0.05970000  0.66330000  1.0 -0.0593879184
C  C5  1  0.59590000  0.44030000  0.66330000  1.0 -0.0593879184
C  C6  1  0.40410000  0.05970000  0.16330000  1.0 -0.0593879184
C  C7  1  0.09590000  0.55970000  0.83670000  1.0 -0.0593879184
C  C8  1  0.90410000  0.94030000  0.33670000  1.0 -0.0593879184
C  C9  1  0.47370000  0.44660000  0.28550000  1.0 0.0771195481
C  C10  1  0.52630000  0.05340000  0.78550000  1.0 0.0771195481
C  C11  1  0.97370000  0.55340000  0.21450000  1.0 0.0771195481
C  C12  1  0.02630000  0.94660000  0.71450000  1.0 0.0771195481
C  C13  1  0.52630000  0.55340000  0.71450000  1.0 0.0771195481
C  C14  1  0.47370000  0.94660000  0.21450000  1.0 0.0771195481
C  C15  1  0.02630000  0.44660000  0.78550000  1.0 0.0771195481
C  C16  1  0.97370000  0.05340000  0.28550000  1.0 0.0771195481
C  C17  1  0.48970000  0.58830000  0.26010000  1.0 0.0437687218
C  C18  1  0.51030000  0.91170000  0.76010000  1.0 0.0437687218
C  C19  1  0.98970000  0.41170000  0.23990000  1.0 0.0437687218
C  C20  1  0.01030000  0.08830000  0.73990000  1.0 0.0437687218
C  C21  1  0.51030000  0.41170000  0.73990000  1.0 0.0437687218
C  C22  1  0.48970000  0.08830000  0.23990000  1.0 0.0437687218
C  C23  1  0.01030000  0.58830000  0.76010000  1.0 0.0437687218
C  C24  1  0.98970000  0.91170000  0.26010000  1.0 0.0437687218
C  C25  1  0.44220000  0.61920000  0.30240000  1.0 -0.0189486979
C  C26  1  0.55780000  0.88080000  0.80240000  1.0 -0.0189486979
C  C27  1  0.94220000  0.38080000  0.19760000  1.0 -0.0189486979
C  C28  1  0.05780000  0.11920000  0.69760000  1.0 -0.0189486979
C  C29  1  0.55780000  0.38080000  0.69760000  1.0 -0.0189486979
C  C30  1  0.44220000  0.11920000  0.19760000  1.0 -0.0189486979
C  C31  1  0.05780000  0.61920000  0.80240000  1.0 -0.0189486979
C  C32  1  0.94220000  0.88080000  0.30240000  1.0 -0.0189486979
C  C33  1  0.32260000  0.06890000  0.56330000  1.0 0.0287490191
C  C34  1  0.67740000  0.43110000  0.06330000  1.0 0.0287490191
C  C35  1  0.82260000  0.93110000  0.93670000  1.0 0.0287490191
C  C36  1  0.17740000  0.56890000  0.43670000  1.0 0.0287490191
C  C37  1  0.67740000  0.93110000  0.43670000  1.0 0.0287490191
C  C38  1  0.32260000  0.56890000  0.93670000  1.0 0.0287490191
C  C39  1  0.17740000  0.06890000  0.06330000  1.0 0.0287490191
C  C40  1  0.82260000  0.43110000  0.56330000  1.0 0.0287490191
C  C41  1  0.26340000  0.06920000  0.45670000  1.0 -0.0308948325
C  C42  1  0.73660000  0.43080000  0.95670000  1.0 -0.0308948325
C  C43  1  0.76340000  0.93080000  0.04330000  1.0 -0.0308948325
C  C44  1  0.23660000  0.56920000  0.54330000  1.0 -0.0308948325
C  C45  1  0.73660000  0.93080000  0.54330000  1.0 -0.0308948325
C  C46  1  0.26340000  0.56920000  0.04330000  1.0 -0.0308948325
C  C47  1  0.23660000  0.06920000  0.95670000  1.0 -0.0308948325
C  C48  1  0.76340000  0.43080000  0.45670000  1.0 -0.0308948325
C  C49  1  0.43750000  0.71640000  0.31000000  1.0 0.2645825708
C  C50  1  0.56250000  0.78360000  0.81000000  1.0 0.2645825708
C  C51  1  0.93750000  0.28360000  0.19000000  1.0 0.2645825708
C  C52  1  0.06250000  0.21640000  0.69000000  1.0 0.2645825708
C  C53  1  0.56250000  0.28360000  0.69000000  1.0 0.2645825708
C  C54  1  0.43750000  0.21640000  0.19000000  1.0 0.2645825708
C  C55  1  0.06250000  0.71640000  0.81000000  1.0 0.2645825708
C  C56  1  0.93750000  0.78360000  0.31000000  1.0 0.2645825708
C  C57  1  0.41930000  0.47230000  0.32820000  1.0 -0.1280051431
C  C58  1  0.58070000  0.02770000  0.82820000  1.0 -0.1280051431
C  C59  1  0.91930000  0.52770000  0.17180000  1.0 -0.1280051431
C  C60  1  0.08070000  0.97230000  0.67180000  1.0 -0.1280051431
C  C61  1  0.58070000  0.52770000  0.67180000  1.0 -0.1280051431
C  C62  1  0.41930000  0.97230000  0.17180000  1.0 -0.1280051431
C  C63  1  0.08070000  0.47230000  0.82820000  1.0 -0.1280051431
C  C64  1  0.91930000  0.02770000  0.32820000  1.0 -0.1280051431
C  C65  1  0.22970000  0.13140000  0.49060000  1.0 0.1017369866
C  C66  1  0.77030000  0.36860000  0.99060000  1.0 0.1017369866
C  C67  1  0.72970000  0.86860000  0.00940000  1.0 0.1017369866
C  C68  1  0.27030000  0.63140000  0.50940000  1.0 0.1017369866
C  C69  1  0.77030000  0.86860000  0.50940000  1.0 0.1017369866
C  C70  1  0.22970000  0.63140000  0.00940000  1.0 0.1017369866
C  C71  1  0.27030000  0.13140000  0.99060000  1.0 0.1017369866
C  C72  1  0.72970000  0.36860000  0.49060000  1.0 0.1017369866
C  C73  1  0.15470000  0.18490000  0.47380000  1.0 -0.0951057782
C  C74  1  0.84530000  0.31510000  0.97380000  1.0 -0.0951057782
C  C75  1  0.65470000  0.81510000  0.02620000  1.0 -0.0951057782
C  C76  1  0.34530000  0.68490000  0.52620000  1.0 -0.0951057782
C  C77  1  0.84530000  0.81510000  0.52620000  1.0 -0.0951057782
C  C78  1  0.15470000  0.68490000  0.02620000  1.0 -0.0951057782
C  C79  1  0.34530000  0.18490000  0.97380000  1.0 -0.0951057782
C  C80  1  0.65470000  0.31510000  0.47380000  1.0 -0.0951057782
C  C81  1  0.12580000  0.18220000  0.42340000  1.0 -0.1174864069
C  C82  1  0.87420000  0.31780000  0.92340000  1.0 -0.1174864069
C  C83  1  0.62580000  0.81780000  0.07660000  1.0 -0.1174864069
C  C84  1  0.37420000  0.68220000  0.57660000  1.0 -0.1174864069
C  C85  1  0.87420000  0.81780000  0.57660000  1.0 -0.1174864069
C  C86  1  0.12580000  0.68220000  0.07660000  1.0 -0.1174864069
C  C87  1  0.37420000  0.18220000  0.92340000  1.0 -0.1174864069
C  C88  1  0.62580000  0.31780000  0.42340000  1.0 -0.1174864069
C  C89  1  0.16340000  0.11870000  0.39310000  1.0 0.0666427083
C  C90  1  0.83660000  0.38130000  0.89310000  1.0 0.0666427083
C  C91  1  0.66340000  0.88130000  0.10690000  1.0 0.0666427083
C  C92  1  0.33660000  0.61870000  0.60690000  1.0 0.0666427083
C  C93  1  0.83660000  0.88130000  0.60690000  1.0 0.0666427083
C  C94  1  0.16340000  0.61870000  0.10690000  1.0 0.0666427083
C  C95  1  0.33660000  0.11870000  0.89310000  1.0 0.0666427083
C  C96  1  0.66340000  0.38130000  0.39310000  1.0 0.0666427083
N  N1  1  0.30750000  0.17730000  0.61673000  1.0 -0.0308948325
N  N2  1  0.69250000  0.32270000  0.11673000  1.0 -0.0308948325
N  N3  1  0.80750000  0.82270000  0.88327000  1.0 -0.0308948325
N  N4  1  0.19250000  0.67730000  0.38327000  1.0 -0.0308948325
N  N5  1  0.69250000  0.82270000  0.38327000  1.0 -0.0308948325
N  N6  1  0.30750000  0.67730000  0.88327000  1.0 -0.0308948325
N  N7  1  0.19250000  0.17730000  0.11673000  1.0 -0.0308948325
N  N8  1  0.80750000  0.32270000  0.61673000  1.0 -0.0308948325
N  N9  1  0.05840000  0.87050000  0.42000000  1.0 -0.3504110057
N  N10  1  0.94160000  0.62950000  0.92000000  1.0 -0.3504110057
N  N11  1  0.55840000  0.12950000  0.08000000  1.0 -0.3504110057
N  N12  1  0.44160000  0.37050000  0.58000000  1.0 -0.3504110057
N  N13  1  0.94160000  0.12950000  0.58000000  1.0 -0.3504110057
N  N14  1  0.05840000  0.37050000  0.08000000  1.0 -0.3504110057
N  N15  1  0.44160000  0.87050000  0.92000000  1.0 -0.3504110057
N  N16  1  0.55840000  0.62950000  0.42000000  1.0 -0.3504110057
N  N17  1  0.17300000  0.87460000  0.34940000  1.0 -0.5444924718
N  N18  1  0.82700000  0.62540000  0.84940000  1.0 -0.5444924718
N  N19  1  0.67300000  0.12540000  0.15060000  1.0 -0.5444924718
N  N20  1  0.32700000  0.37460000  0.65060000  1.0 -0.5444924718
N  N21  1  0.82700000  0.12540000  0.65060000  1.0 -0.5444924718
N  N22  1  0.17300000  0.37460000  0.15060000  1.0 -0.5444924718
N  N23  1  0.32700000  0.87460000  0.84940000  1.0 -0.5444924718
N  N24  1  0.67300000  0.62540000  0.34940000  1.0 -0.5444924718
N  N25  1  0.25820000  0.20190000  0.57440000  1.0 -0.0401164978
N  N26  1  0.74180000  0.29810000  0.07440000  1.0 -0.0401164978
N  N27  1  0.75820000  0.79810000  0.92560000  1.0 -0.0401164978
N  N28  1  0.24180000  0.70190000  0.42560000  1.0 -0.0401164978
N  N29  1  0.74180000  0.79810000  0.42560000  1.0 -0.0401164978
N  N30  1  0.25820000  0.70190000  0.92560000  1.0 -0.0401164978
N  N31  1  0.24180000  0.20190000  0.07440000  1.0 -0.0401164978
N  N32  1  0.75820000  0.29810000  0.57440000  1.0 -0.0401164978
N  N33  1  0.50600000  0.50370000  0.25090000  1.0 -0.2039324081
N  N34  1  0.49400000  0.99630000  0.75090000  1.0 -0.2039324081
N  N35  1  0.00600000  0.49630000  0.24910000  1.0 -0.2039324081
N  N36  1  0.99400000  0.00370000  0.74910000  1.0 -0.2039324081
N  N37  1  0.49400000  0.49630000  0.74910000  1.0 -0.2039324081
N  N38  1  0.50600000  0.00370000  0.24910000  1.0 -0.2039324081
N  N39  1  0.99400000  0.50370000  0.75090000  1.0 -0.2039324081
N  N40  1  0.00600000  0.99630000  0.25090000  1.0 -0.2039324081
N  N41  1  0.22910000  0.07400000  0.25640000  1.0 0.4503365868
N  N42  1  0.77090000  0.42600000  0.75640000  1.0 0.4503365868
N  N43  1  0.72910000  0.92600000  0.24360000  1.0 0.4503365868
N  N44  1  0.27090000  0.57400000  0.74360000  1.0 0.4503365868
N  N45  1  0.77090000  0.92600000  0.74360000  1.0 0.4503365868
N  N46  1  0.22910000  0.57400000  0.24360000  1.0 0.4503365868
N  N47  1  0.27090000  0.07400000  0.75640000  1.0 0.4503365868
N  N48  1  0.72910000  0.42600000  0.25640000  1.0 0.4503365868
N  N49  1  0.34490000  0.09790000  0.60940000  1.0 -0.1681447512
N  N50  1  0.65510000  0.40210000  0.10940000  1.0 -0.1681447512
N  N51  1  0.84490000  0.90210000  0.89060000  1.0 -0.1681447512
N  N52  1  0.15510000  0.59790000  0.39060000  1.0 -0.1681447512
N  N53  1  0.65510000  0.90210000  0.39060000  1.0 -0.1681447512
N  N54  1  0.34490000  0.59790000  0.89060000  1.0 -0.1681447512
N  N55  1  0.15510000  0.09790000  0.10940000  1.0 -0.1681447512
N  N56  1  0.84490000  0.40210000  0.60940000  1.0 -0.1681447512
N  N57  1  0.11460000  0.87330000  0.38570000  1.0 0.4300011231
N  N58  1  0.88540000  0.62670000  0.88570000  1.0 0.4300011231
N  N59  1  0.61460000  0.12670000  0.11430000  1.0 0.4300011231
N  N60  1  0.38540000  0.37330000  0.61430000  1.0 0.4300011231
N  N61  1  0.88540000  0.12670000  0.61430000  1.0 0.4300011231
N  N62  1  0.11460000  0.37330000  0.11430000  1.0 0.4300011231
N  N63  1  0.38540000  0.87330000  0.88570000  1.0 0.4300011231
N  N64  1  0.61460000  0.62670000  0.38570000  1.0 0.4300011231
N  N65  1  0.44780000  0.10170000  0.37250000  1.0 0.4300011231
N  N66  1  0.55220000  0.39830000  0.87250000  1.0 0.4300011231
N  N67  1  0.94780000  0.89830000  0.12750000  1.0 0.4300011231
N  N68  1  0.05220000  0.60170000  0.62750000  1.0 0.4300011231
N  N69  1  0.55220000  0.89830000  0.62750000  1.0 0.4300011231
N  N70  1  0.44780000  0.60170000  0.12750000  1.0 0.4300011231
N  N71  1  0.05220000  0.10170000  0.87250000  1.0 0.4300011231
N  N72  1  0.94780000  0.39830000  0.37250000  1.0 0.4300011231
N  N73  1  0.29170000  0.29870000  0.76830000  1.0 -0.4724332018
N  N74  1  0.70830000  0.20130000  0.26830000  1.0 -0.4724332018
N  N75  1  0.79170000  0.70130000  0.73170000  1.0 -0.4724332018
N  N76  1  0.20830000  0.79870000  0.23170000  1.0 -0.4724332018
N  N77  1  0.70830000  0.70130000  0.23170000  1.0 -0.4724332018
N  N78  1  0.29170000  0.79870000  0.73170000  1.0 -0.4724332018
N  N79  1  0.20830000  0.29870000  0.26830000  1.0 -0.4724332018
N  N80  1  0.79170000  0.20130000  0.76830000  1.0 -0.4724332018
N  N81  1  0.31250000  0.35860000  0.79670000  1.0 0.4503365868
N  N82  1  0.68750000  0.14140000  0.29670000  1.0 0.4503365868
N  N83  1  0.81250000  0.64140000  0.70330000  1.0 0.4503365868
N  N84  1  0.18750000  0.85860000  0.20330000  1.0 0.4503365868
N  N85  1  0.68750000  0.64140000  0.20330000  1.0 0.4503365868
N  N86  1  0.31250000  0.85860000  0.70330000  1.0 0.4503365868
N  N87  1  0.18750000  0.35860000  0.29670000  1.0 0.4503365868
N  N88  1  0.81250000  0.14140000  0.79670000  1.0 0.4503365868
N  N89  1  0.26880000  0.03500000  0.28940000  1.0 -0.4286275281
N  N90  1  0.73120000  0.46500000  0.78940000  1.0 -0.4286275281
N  N91  1  0.76880000  0.96500000  0.21060000  1.0 -0.4286275281
N  N92  1  0.23120000  0.53500000  0.71060000  1.0 -0.4286275281
N  N93  1  0.73120000  0.96500000  0.71060000  1.0 -0.4286275281
N  N94  1  0.26880000  0.53500000  0.21060000  1.0 -0.4286275281
N  N95  1  0.23120000  0.03500000  0.78940000  1.0 -0.4286275281
N  N96  1  0.76880000  0.46500000  0.28940000  1.0 -0.4286275281
N  N97  1  0.35520000  0.76320000  0.31722000  1.0 -0.2367126604
N  N98  1  0.64480000  0.73680000  0.81722000  1.0 -0.2367126604
N  N99  1  0.85520000  0.23680000  0.18278000  1.0 -0.2367126604
N  N100  1  0.14480000  0.26320000  0.68278000  1.0 -0.2367126604
N  N101  1  0.64480000  0.23680000  0.68278000  1.0 -0.2367126604
N  N102  1  0.35520000  0.26320000  0.18278000  1.0 -0.2367126604
N  N103  1  0.14480000  0.76320000  0.81722000  1.0 -0.2367126604
N  N104  1  0.85520000  0.73680000  0.31722000  1.0 -0.2367126604
N  N105  1  0.33120000  0.41670000  0.82740000  1.0 -0.5022182277
N  N106  1  0.66880000  0.08330000  0.32740000  1.0 -0.5022182277
N  N107  1  0.83120000  0.58330000  0.67260000  1.0 -0.5022182277
N  N108  1  0.16880000  0.91670000  0.17260000  1.0 -0.5022182277
N  N109  1  0.66880000  0.58330000  0.17260000  1.0 -0.5022182277
N  N110  1  0.33120000  0.91670000  0.67260000  1.0 -0.5022182277
N  N111  1  0.16880000  0.41670000  0.32740000  1.0 -0.5022182277
N  N112  1  0.83120000  0.08330000  0.82740000  1.0 -0.5022182277
N  N113  1  0.51930000  0.76510000  0.31058000  1.0 -0.2628122902
N  N114  1  0.48070000  0.73490000  0.81058000  1.0 -0.2628122902
N  N115  1  0.01930000  0.23490000  0.18942000  1.0 -0.2628122902
N  N116  1  0.98070000  0.26510000  0.68942000  1.0 -0.2628122902
N  N117  1  0.48070000  0.23490000  0.68942000  1.0 -0.2628122902
N  N118  1  0.51930000  0.26510000  0.18942000  1.0 -0.2628122902
N  N119  1  0.98070000  0.76510000  0.81058000  1.0 -0.2628122902
N  N120  1  0.01930000  0.73490000  0.31058000  1.0 -0.2628122902
N  N121  1  0.48490000  0.84750000  0.31906000  1.0 -0.0401164978
N  N122  1  0.51510000  0.65250000  0.81906000  1.0 -0.0401164978
N  N123  1  0.98490000  0.15250000  0.18094000  1.0 -0.0401164978
N  N124  1  0.01510000  0.34750000  0.68094000  1.0 -0.0401164978
N  N125  1  0.51510000  0.15250000  0.68094000  1.0 -0.0401164978
N  N126  1  0.48490000  0.34750000  0.18094000  1.0 -0.0401164978
N  N127  1  0.01510000  0.84750000  0.81906000  1.0 -0.0401164978
N  N128  1  0.98490000  0.65250000  0.31906000  1.0 -0.0401164978
N  N129  1  0.18840000  0.11190000  0.22240000  1.0 -0.4901872127
N  N130  1  0.81160000  0.38810000  0.72240000  1.0 -0.4901872127
N  N131  1  0.68840000  0.88810000  0.27760000  1.0 -0.4901872127
N  N132  1  0.31160000  0.61190000  0.77760000  1.0 -0.4901872127
N  N133  1  0.81160000  0.88810000  0.77760000  1.0 -0.4901872127
N  N134  1  0.18840000  0.61190000  0.27760000  1.0 -0.4901872127
N  N135  1  0.31160000  0.11190000  0.72240000  1.0 -0.4901872127
N  N136  1  0.68840000  0.38810000  0.22240000  1.0 -0.4901872127
N  N137  1  0.45010000  0.02420000  0.36530000  1.0 -0.5022182277
N  N138  1  0.54990000  0.47580000  0.86530000  1.0 -0.5022182277
N  N139  1  0.95010000  0.97580000  0.13470000  1.0 -0.5022182277
N  N140  1  0.04990000  0.52420000  0.63470000  1.0 -0.5022182277
N  N141  1  0.54990000  0.97580000  0.63470000  1.0 -0.5022182277
N  N142  1  0.45010000  0.52420000  0.13470000  1.0 -0.5022182277
N  N143  1  0.04990000  0.02420000  0.86530000  1.0 -0.5022182277
N  N144  1  0.95010000  0.47580000  0.36530000  1.0 -0.5022182277
N  N145  1  0.27080000  0.13220000  0.54320000  1.0 0.0666427083
N  N146  1  0.72920000  0.36780000  0.04320000  1.0 0.0666427083
N  N147  1  0.77080000  0.86780000  0.95680000  1.0 0.0666427083
N  N148  1  0.22920000  0.63220000  0.45680000  1.0 0.0666427083
N  N149  1  0.72920000  0.86780000  0.45680000  1.0 0.0666427083
N  N150  1  0.27080000  0.63220000  0.95680000  1.0 0.0666427083
N  N151  1  0.22920000  0.13220000  0.04320000  1.0 0.0666427083
N  N152  1  0.77080000  0.36780000  0.54320000  1.0 0.0666427083
N  N153  1  0.44440000  0.18030000  0.37480000  1.0 -0.3601356184
N  N154  1  0.55560000  0.31970000  0.87480000  1.0 -0.3601356184
N  N155  1  0.94440000  0.81970000  0.12520000  1.0 -0.3601356184
N  N156  1  0.05560000  0.68030000  0.62520000  1.0 -0.3601356184
N  N157  1  0.55560000  0.81970000  0.62520000  1.0 -0.3601356184
N  N158  1  0.44440000  0.68030000  0.12520000  1.0 -0.3601356184
N  N159  1  0.05560000  0.18030000  0.87480000  1.0 -0.3601356184
N  N160  1  0.94440000  0.31970000  0.37480000  1.0 -0.3601356184
N  N161  1  0.23200000  0.06260000  0.40820000  1.0 -0.1945231574
N  N162  1  0.76800000  0.43740000  0.90820000  1.0 -0.1945231574
N  N163  1  0.73200000  0.93740000  0.09180000  1.0 -0.1945231574
N  N164  1  0.26800000  0.56260000  0.59180000  1.0 -0.1945231574
N  N165  1  0.76800000  0.93740000  0.59180000  1.0 -0.1945231574
N  N166  1  0.23200000  0.56260000  0.09180000  1.0 -0.1945231574
N  N167  1  0.26800000  0.06260000  0.90820000  1.0 -0.1945231574
N  N168  1  0.73200000  0.43740000  0.40820000  1.0 -0.1945231574
N  N169  1  0.38850000  0.84590000  0.32296000  1.0 -0.0189486979
N  N170  1  0.61150000  0.65410000  0.82296000  1.0 -0.0189486979
N  N171  1  0.88850000  0.15410000  0.17704000  1.0 -0.0189486979
N  N172  1  0.11150000  0.34590000  0.67704000  1.0 -0.0189486979
N  N173  1  0.61150000  0.15410000  0.67704000  1.0 -0.0189486979
N  N174  1  0.38850000  0.34590000  0.17704000  1.0 -0.0189486979
N  N175  1  0.11150000  0.84590000  0.82296000  1.0 -0.0189486979
N  N176  1  0.88850000  0.65410000  0.32296000  1.0 -0.0189486979
O  O1  1  0.33160000  0.87590000  0.42881000  1.0 -0.3504110057
O  O2  1  0.66840000  0.62410000  0.92881000  1.0 -0.3504110057
O  O3  1  0.83160000  0.12410000  0.07119000  1.0 -0.3436275458
O  O4  1  0.16840000  0.37590000  0.57119000  1.0 -0.3504110057
O  O5  1  0.66840000  0.12410000  0.57119000  1.0 -0.3436275458
O  O6  1  0.33160000  0.37590000  0.07119000  1.0 -0.3504110057
O  O7  1  0.16840000  0.87590000  0.92881000  1.0 -0.3504110057
O  O8  1  0.83160000  0.62410000  0.42881000  1.0 -0.3504110057
