# DDEC6 charges by PACMAN v1.1 (https://github.com/mtap-research/PACMAN-charge/)
data_VOFWAR_ASR_pacman
_symmetry_space_group_name_H-M   'P 1'
_cell_length_a   8.04620000
_cell_length_b   38.69700000
_cell_length_c   11.90100000
_cell_angle_alpha   90.00000000
_cell_angle_beta   103.23500000
_cell_angle_gamma   90.00000000
_symmetry_Int_Tables_number   1
_chemical_formula_structural   Ni2H23C34(N3O4)2
_chemical_formula_sum   'Ni8 H92 C136 N24 O32'
_cell_volume   3607.11858746
_cell_formula_units_Z   4
loop_
 _symmetry_equiv_pos_site_id
 _symmetry_equiv_pos_as_xyz
  1  'x, y, z'
loop_
 _atom_site_type_symbol
 _atom_site_label
 _atom_site_symmetry_multiplicity
 _atom_site_fract_x
 _atom_site_fract_y
 _atom_site_fract_z
 _atom_site_occupancy
 _atom_site_charge
Ni  Ni1  1  0.41501000  0.49150000  0.46612000  1.0 0.8103468269
Ni  Ni2  1  0.12377000  0.51833000  0.54980000  1.0 0.8226820976
Ni  Ni3  1  0.09340000  0.72095000  0.91802000  1.0 0.8103468269
Ni  Ni4  1  0.47258000  0.29093000  0.12251000  1.0 0.4800775051
Ni  Ni5  1  0.58499000  0.99150000  0.53388000  1.0 0.8103468269
Ni  Ni6  1  0.87623000  0.01833000  0.45020000  1.0 0.8226820976
Ni  Ni7  1  0.90660000  0.22095000  0.08198000  1.0 0.8103468269
Ni  Ni8  1  0.52742000  0.79093000  0.87749000  1.0 0.4800775051
H  H1  1  0.71790000  0.33220000  0.34380000  1.0 0.1292299466
H  H2  1  0.21940000  0.60500000  0.85750000  1.0 0.1114724185
H  H3  1  0.38680000  0.56040000  0.82680000  1.0 0.1292299466
H  H4  1  0.01950000  0.29030000  0.55590000  1.0 0.1204589299
H  H5  1  0.32540000  0.49170000  0.91300000  1.0 0.1292299466
H  H6  1  0.64520000  0.53620000  0.81780000  1.0 0.1114724185
H  H7  1  0.52020000  0.71170000  0.26070000  1.0 0.1366100405
H  H8  1  0.53910000  0.72030000  0.46230000  1.0 0.1204589299
H  H9  1  0.61650000  0.23360000  0.29980000  1.0 0.1204589299
H  H10  1  0.82840000  0.55430000  0.23300000  1.0 0.1292299466
H  H11  1  0.25100000  0.38660000  0.44380000  1.0 0.1292299466
H  H12  1  0.17690000  0.33020000  0.46750000  1.0 0.1292299466
H  H13  1  0.86270000  0.42250000  0.56600000  1.0 0.1292299466
H  H14  1  0.70980000  0.45380000  0.78880000  1.0 0.1292299466
H  H15  1  0.78500000  0.51290000  0.67220000  1.0 0.1366100405
H  H16  1  0.86030000  0.68100000  0.69350000  1.0 0.1292299466
H  H17  1  0.65090000  0.71000000  0.10230000  1.0 0.1366100405
H  H18  1  0.69340000  0.58980000  0.46300000  1.0 0.1292299466
H  H19  1  0.11270000  0.71080000  0.32680000  1.0 0.1204589299
H  H20  1  0.77340000  0.36270000  0.58770000  1.0 0.1204589299
H  H21  1  0.98470000  0.70980000  0.47990000  1.0 0.1114724185
H  H22  1  0.79740000  0.62300000  0.87050000  1.0 0.1292299466
H  H23  1  0.03950000  0.52890000  0.91100000  1.0 0.1204589299
H  H24  1  0.73000000  0.36120000  0.13270000  1.0 0.1204589299
H  H25  1  0.03770000  0.44510000  0.20400000  1.0 0.1366100405
H  H26  1  0.27420000  0.41080000  0.19630000  1.0 0.1114724185
H  H27  1  0.96650000  0.32690000  0.12500000  1.0 0.1292299466
H  H28  1  0.92410000  0.78090000  0.73180000  1.0 0.1292299466
H  H29  1  0.66420000  0.56640000  0.04680000  1.0 0.1204589299
H  H30  1  0.29390000  0.62530000  0.57310000  1.0 0.1292299466
H  H31  1  0.79070000  0.64430000  0.45110000  1.0 0.1292299466
H  H32  1  0.09630000  0.29940000  0.76390000  1.0 0.1292299466
H  H33  1  0.38470000  0.68050000  0.55570000  1.0 0.1292299466
H  H34  1  0.60510000  0.29780000  0.59360000  1.0 0.1204589299
H  H35  1  0.19970000  0.51510000  0.09480000  1.0 0.1204589299
H  H36  1  0.07440000  0.59110000  0.63450000  1.0 0.1204589299
H  H37  1  0.44050000  0.46640000  0.08920000  1.0 0.1292299466
H  H38  1  0.01520000  0.29260000  0.93990000  1.0 0.1292299466
H  H39  1  0.61160000  0.67230000  0.88480000  1.0 0.1292299466
H  H40  1  0.84860000  0.43680000  0.97360000  1.0 0.1204589299
H  H41  1  0.51480000  0.29150000  0.76860000  1.0 0.1204589299
H  H42  1  0.59650000  0.40460000  0.14380000  1.0 0.1114724185
H  H43  1  0.79350000  0.49900000  0.40660000  1.0 0.1204589299
H  H44  1  0.63310000  0.51160000  0.30840000  1.0 0.1114724185
H  H45  1  0.61720000  0.41900000  0.40080000  1.0 0.1204589299
H  H46  1  0.45680000  0.43160000  0.30260000  1.0 0.1114724185
H  H47  1  0.28210000  0.83220000  0.65620000  1.0 0.1292299466
H  H48  1  0.78060000  0.10500000  0.14250000  1.0 0.1114724185
H  H49  1  0.61320000  0.06040000  0.17320000  1.0 0.1292299466
H  H50  1  0.98050000  0.79030000  0.44410000  1.0 0.1204589299
H  H51  1  0.67460000  0.99170000  0.08700000  1.0 0.1292299466
H  H52  1  0.35480000  0.03620000  0.18220000  1.0 0.1114724185
H  H53  1  0.47980000  0.21170000  0.73930000  1.0 0.1366100405
H  H54  1  0.46090000  0.22030000  0.53770000  1.0 0.1204589299
H  H55  1  0.38350000  0.73360000  0.70020000  1.0 0.1204589299
H  H56  1  0.17160000  0.05430000  0.76700000  1.0 0.1292299466
H  H57  1  0.74900000  0.88660000  0.55620000  1.0 0.1292299466
H  H58  1  0.82310000  0.83020000  0.53250000  1.0 0.1292299466
H  H59  1  0.13730000  0.92250000  0.43400000  1.0 0.1292299466
H  H60  1  0.29020000  0.95380000  0.21120000  1.0 0.1292299466
H  H61  1  0.21500000  0.01290000  0.32780000  1.0 0.1366100405
H  H62  1  0.13970000  0.18100000  0.30650000  1.0 0.1292299466
H  H63  1  0.34910000  0.21000000  0.89770000  1.0 0.1366100405
H  H64  1  0.30660000  0.08980000  0.53700000  1.0 0.1292299466
H  H65  1  0.88730000  0.21080000  0.67320000  1.0 0.1204589299
H  H66  1  0.22660000  0.86270000  0.41230000  1.0 0.1204589299
H  H67  1  0.01530000  0.20980000  0.52010000  1.0 0.1114724185
H  H68  1  0.20260000  0.12300000  0.12950000  1.0 0.1292299466
H  H69  1  0.96050000  0.02890000  0.08900000  1.0 0.1204589299
H  H70  1  0.27000000  0.86120000  0.86730000  1.0 0.1204589299
H  H71  1  0.96230000  0.94510000  0.79600000  1.0 0.1292299466
H  H72  1  0.72580000  0.91080000  0.80370000  1.0 0.1114724185
H  H73  1  0.03350000  0.82690000  0.87500000  1.0 0.1292299466
H  H74  1  0.07590000  0.28090000  0.26820000  1.0 0.1292299466
H  H75  1  0.33580000  0.06640000  0.95320000  1.0 0.1204589299
H  H76  1  0.70610000  0.12530000  0.42690000  1.0 0.1292299466
H  H77  1  0.20930000  0.14430000  0.54890000  1.0 0.1292299466
H  H78  1  0.90370000  0.79940000  0.23610000  1.0 0.1292299466
H  H79  1  0.61530000  0.18050000  0.44430000  1.0 0.1292299466
H  H80  1  0.39490000  0.79780000  0.40640000  1.0 0.1204589299
H  H81  1  0.80030000  0.01510000  0.90520000  1.0 0.1204589299
H  H82  1  0.92560000  0.09110000  0.36550000  1.0 0.1204589299
H  H83  1  0.55950000  0.96640000  0.91080000  1.0 0.1292299466
H  H84  1  0.98480000  0.79260000  0.06010000  1.0 0.1292299466
H  H85  1  0.38840000  0.17230000  0.11520000  1.0 0.1292299466
H  H86  1  0.15140000  0.93680000  0.02640000  1.0 0.1204589299
H  H87  1  0.48520000  0.79150000  0.23140000  1.0 0.1204589299
H  H88  1  0.40350000  0.90460000  0.85620000  1.0 0.1114724185
H  H89  1  0.20650000  0.99900000  0.59340000  1.0 0.1204589299
H  H90  1  0.36690000  0.01160000  0.69160000  1.0 0.1114724185
H  H91  1  0.38280000  0.91900000  0.59920000  1.0 0.1204589299
H  H92  1  0.54320000  0.93160000  0.69740000  1.0 0.1114724185
C  C1  1  0.41920000  0.48630000  0.71630000  1.0 0.5674805492
C  C2  1  0.71460000  0.30800000  0.35590000  1.0 0.082977957
C  C3  1  0.49830000  0.47330000  0.83330000  1.0 -0.0376980446
C  C4  1  0.69550000  0.49100000  0.34560000  1.0 -0.0113009372
C  C5  1  0.57630000  0.43700000  0.34180000  1.0 -0.0376980446
C  C6  1  0.06200000  0.40840000  0.50480000  1.0 -0.0113009372
C  C7  1  0.33490000  0.60940000  0.85550000  1.0 -0.0987397719
C  C8  1  0.39680000  0.64350000  0.86960000  1.0 -0.0113009372
C  C9  1  0.28550000  0.34320000  0.14840000  1.0 0.5152925998
C  C10  1  0.83600000  0.54890000  0.96100000  1.0 0.082977957
C  C11  1  0.11870000  0.52140000  0.30030000  1.0 0.5786565095
C  C12  1  0.43430000  0.58290000  0.83940000  1.0 -0.1383287519
C  C13  1  0.41850000  0.56460000  0.52190000  1.0 0.5786565095
C  C14  1  0.91400000  0.30450000  0.54890000  1.0 -0.0376980446
C  C15  1  0.02730000  0.53210000  0.18400000  1.0 -0.0376980446
C  C16  1  0.42600000  0.47800000  0.92220000  1.0 -0.0987397719
C  C17  1  0.72030000  0.55680000  0.83960000  1.0 -0.0204868601
C  C18  1  0.64100000  0.71050000  0.27370000  1.0 -0.1497606896
C  C19  1  0.64600000  0.70610000  0.48230000  1.0 -0.0269966451
C  C20  1  0.59960000  0.58780000  0.84090000  1.0 0.0616675765
C  C21  1  0.66240000  0.25480000  0.33390000  1.0 0.1646187753
C  C22  1  0.97000000  0.34070000  0.53480000  1.0 0.0616675765
C  C23  1  0.87150000  0.54820000  0.16770000  1.0 -0.0813389241
C  C24  1  0.15500000  0.38170000  0.47490000  1.0 -0.0813389241
C  C25  1  0.73770000  0.70900000  0.38430000  1.0 0.0616675765
C  C26  1  0.11100000  0.34850000  0.48890000  1.0 -0.1622673288
C  C27  1  0.92600000  0.40350000  0.54610000  1.0 -0.0813389241
C  C28  1  0.89720000  0.71050000  0.19960000  1.0 -0.0113009372
C  C29  1  0.65630000  0.45670000  0.85150000  1.0 -0.0987397719
C  C30  1  0.98280000  0.71290000  0.09990000  1.0 0.5400301665
C  C31  1  0.12590000  0.44530000  0.49630000  1.0 0.5869630426
C  C32  1  0.84400000  0.53430000  0.68040000  1.0 0.1114724185
C  C33  1  0.85200000  0.70530000  0.68190000  1.0 0.1204589299
C  C34  1  0.71860000  0.71030000  0.17900000  1.0 -0.0813389241
C  C35  1  0.62950000  0.60860000  0.48310000  1.0 -0.0987397719
C  C36  1  0.99200000  0.71040000  0.31260000  1.0 -0.0864491388
C  C37  1  0.48040000  0.60120000  0.51970000  1.0 -0.0204868601
C  C38  1  0.76080000  0.29090000  0.86990000  1.0 -0.0204868601
C  C39  1  0.87300000  0.36730000  0.56060000  1.0 -0.1622673288
C  C40  1  0.91650000  0.70970000  0.40330000  1.0 -0.1622673288
C  C41  1  0.67810000  0.62010000  0.86310000  1.0 -0.1383287519
C  C42  1  0.99440000  0.53380000  0.97640000  1.0 -0.1687165685
C  C43  1  0.84040000  0.37130000  0.14560000  1.0 -0.1687165685
C  C44  1  0.86160000  0.40640000  0.16910000  1.0 0.0863378768
C  C45  1  0.02320000  0.42110000  0.18800000  1.0 -0.1383287519
C  C46  1  0.16370000  0.40070000  0.18340000  1.0 -0.0987397719
C  C47  1  0.14260000  0.36560000  0.15990000  1.0 -0.0376980446
C  C48  1  0.98090000  0.35090000  0.14100000  1.0 -0.0864491388
C  C49  1  0.85900000  0.29840000  0.66270000  1.0 0.0678791292
C  C50  1  0.88400000  0.75910000  0.70060000  1.0 0.1292299466
C  C51  1  0.77360000  0.55610000  0.05590000  1.0 -0.1497606896
C  C52  1  0.59620000  0.66850000  0.50010000  1.0 0.0616675765
C  C53  1  0.39500000  0.62890000  0.54650000  1.0 -0.0864491388
C  C54  1  0.68700000  0.64070000  0.47470000  1.0 -0.1383287519
C  C55  1  0.70050000  0.28610000  0.97860000  1.0 0.5674805492
C  C56  1  0.97900000  0.29740000  0.76440000  1.0 -0.1383287519
C  C57  1  0.45000000  0.66180000  0.53680000  1.0 -0.1622673288
C  C58  1  0.27630000  0.67130000  0.88330000  1.0 0.5344764739
C  C59  1  0.68800000  0.29650000  0.66450000  1.0 -0.1622673288
C  C60  1  0.09040000  0.52540000  0.08640000  1.0 -0.0864491388
C  C61  1  0.99510000  0.57710000  0.66180000  1.0 0.1204589299
C  C62  1  0.49600000  0.46300000  0.02750000  1.0 -0.1198638603
C  C63  1  0.93090000  0.29350000  0.86950000  1.0 -0.0813389241
C  C64  1  0.56670000  0.64950000  0.87440000  1.0 -0.0987397719
C  C65  1  0.73400000  0.44480000  0.95710000  1.0 -0.1322870329
C  C66  1  0.63200000  0.29270000  0.76800000  1.0 -0.0987397719
C  C67  1  0.63100000  0.44470000  0.04590000  1.0 0.082977957
C  C68  1  0.68000000  0.42420000  0.15410000  1.0 -0.0204868601
C  C69  1  0.58080000  0.98630000  0.28370000  1.0 0.5674805492
C  C70  1  0.28540000  0.80800000  0.64410000  1.0 0.0863378768
C  C71  1  0.50170000  0.97330000  0.16670000  1.0 -0.0376980446
C  C72  1  0.30450000  0.99100000  0.65440000  1.0 -0.0113009372
C  C73  1  0.42370000  0.93700000  0.65820000  1.0 -0.0376980446
C  C74  1  0.93800000  0.90840000  0.49520000  1.0 -0.0113009372
C  C75  1  0.66510000  0.10940000  0.14450000  1.0 -0.0987397719
C  C76  1  0.60320000  0.14350000  0.13040000  1.0 -0.0113009372
C  C77  1  0.71450000  0.84320000  0.85160000  1.0 0.5152925998
C  C78  1  0.16400000  0.04890000  0.03900000  1.0 0.082977957
C  C79  1  0.88130000  0.02140000  0.69970000  1.0 0.5786565095
C  C80  1  0.56570000  0.08290000  0.16060000  1.0 -0.1383287519
C  C81  1  0.58150000  0.06460000  0.47810000  1.0 0.5786565095
C  C82  1  0.08600000  0.80450000  0.45110000  1.0 -0.0376980446
C  C83  1  0.97270000  0.03210000  0.81600000  1.0 -0.0376980446
C  C84  1  0.57400000  0.97800000  0.07780000  1.0 -0.0987397719
C  C85  1  0.27970000  0.05680000  0.16040000  1.0 -0.0204868601
C  C86  1  0.35900000  0.21050000  0.72630000  1.0 -0.1497606896
C  C87  1  0.35400000  0.20610000  0.51770000  1.0 -0.0269966451
C  C88  1  0.40040000  0.08780000  0.15910000  1.0 0.0616675765
C  C89  1  0.33760000  0.75480000  0.66610000  1.0 0.1646187753
C  C90  1  0.03000000  0.84070000  0.46520000  1.0 0.0616675765
C  C91  1  0.12850000  0.04820000  0.83230000  1.0 -0.0813389241
C  C92  1  0.84500000  0.88170000  0.52510000  1.0 -0.0813389241
C  C93  1  0.26230000  0.20900000  0.61570000  1.0 0.0616675765
C  C94  1  0.88900000  0.84850000  0.51110000  1.0 -0.1622673288
C  C95  1  0.07400000  0.90350000  0.45390000  1.0 -0.0813389241
C  C96  1  0.10280000  0.21050000  0.80040000  1.0 -0.0113009372
C  C97  1  0.34370000  0.95670000  0.14850000  1.0 -0.0987397719
C  C98  1  0.01720000  0.21290000  0.90010000  1.0 0.5400301665
C  C99  1  0.87410000  0.94530000  0.50370000  1.0 0.5869630426
C  C100  1  0.15600000  0.03430000  0.31960000  1.0 0.1114724185
C  C101  1  0.14800000  0.20530000  0.31810000  1.0 0.1204589299
C  C102  1  0.28140000  0.21030000  0.82100000  1.0 -0.0813389241
C  C103  1  0.37050000  0.10860000  0.51690000  1.0 -0.0987397719
C  C104  1  0.00800000  0.21040000  0.68740000  1.0 -0.0864491388
C  C105  1  0.51960000  0.10120000  0.48030000  1.0 -0.0204868601
C  C106  1  0.23920000  0.79090000  0.13010000  1.0 -0.0204868601
C  C107  1  0.12700000  0.86730000  0.43940000  1.0 -0.1622673288
C  C108  1  0.08350000  0.20970000  0.59670000  1.0 -0.1622673288
C  C109  1  0.32190000  0.12010000  0.13690000  1.0 -0.1383287519
C  C110  1  0.00560000  0.03380000  0.02360000  1.0 -0.1687165685
C  C111  1  0.15960000  0.87130000  0.85440000  1.0 -0.1687165685
C  C112  1  0.13840000  0.90640000  0.83090000  1.0 0.0863378768
C  C113  1  0.97680000  0.92110000  0.81200000  1.0 -0.1383287519
C  C114  1  0.83630000  0.90070000  0.81660000  1.0 -0.0987397719
C  C115  1  0.85740000  0.86560000  0.84010000  1.0 -0.0376980446
C  C116  1  0.01910000  0.85090000  0.85900000  1.0 -0.0864491388
C  C117  1  0.14100000  0.79840000  0.33730000  1.0 0.0678791292
C  C118  1  0.11600000  0.25910000  0.29940000  1.0 0.1366100405
C  C119  1  0.22640000  0.05610000  0.94410000  1.0 -0.1497606896
C  C120  1  0.40380000  0.16850000  0.49990000  1.0 0.0616675765
C  C121  1  0.60500000  0.12890000  0.45350000  1.0 -0.0864491388
C  C122  1  0.31300000  0.14070000  0.52530000  1.0 -0.1383287519
C  C123  1  0.29950000  0.78610000  0.02140000  1.0 0.5674805492
C  C124  1  0.02100000  0.79740000  0.23560000  1.0 -0.1383287519
C  C125  1  0.55000000  0.16180000  0.46320000  1.0 -0.1622673288
C  C126  1  0.72370000  0.17130000  0.11670000  1.0 0.5344764739
C  C127  1  0.31200000  0.79650000  0.33550000  1.0 -0.1622673288
C  C128  1  0.90960000  0.02540000  0.91360000  1.0 -0.0864491388
C  C129  1  0.00490000  0.07710000  0.33820000  1.0 0.1204589299
C  C130  1  0.50400000  0.96300000  0.97250000  1.0 -0.1198638603
C  C131  1  0.06910000  0.79350000  0.13050000  1.0 -0.0813389241
C  C132  1  0.43330000  0.14950000  0.12560000  1.0 -0.0987397719
C  C133  1  0.26600000  0.94480000  0.04290000  1.0 -0.1322870329
C  C134  1  0.36800000  0.79270000  0.23200000  1.0 -0.0987397719
C  C135  1  0.36900000  0.94470000  0.95410000  1.0 0.082977957
C  C136  1  0.32000000  0.92420000  0.84590000  1.0 -0.0204868601
N  N1  1  0.62470000  0.28490000  0.28260000  1.0 -0.2906634212
N  N2  1  0.82450000  0.55950000  0.75200000  1.0 0.1476035863
N  N3  1  0.75570000  0.71970000  0.59070000  1.0 0.082977957
N  N4  1  0.95550000  0.54350000  0.62330000  1.0 -0.2976223379
N  N5  1  0.79710000  0.29120000  0.44740000  1.0 0.1292299466
N  N6  1  0.77210000  0.75530000  0.60070000  1.0 -0.2629555315
N  N7  1  0.93550000  0.72780000  0.75540000  1.0 -0.3101398498
N  N8  1  0.76740000  0.25620000  0.43510000  1.0 -0.250046581
N  N9  1  0.58560000  0.47000000  0.39450000  1.0 -0.3330954164
N  N10  1  0.75420000  0.47090000  0.26260000  1.0 -0.2165832445
N  N11  1  0.68050000  0.43750000  0.26020000  1.0 -0.0043550096
N  N12  1  0.91240000  0.58780000  0.74000000  1.0 -0.2005261928
N  N13  1  0.37530000  0.78490000  0.71740000  1.0 -0.2906634212
N  N14  1  0.17550000  0.05950000  0.24800000  1.0 0.1476035863
N  N15  1  0.24430000  0.21970000  0.40930000  1.0 0.082977957
N  N16  1  0.04450000  0.04350000  0.37670000  1.0 -0.2976223379
N  N17  1  0.20290000  0.79120000  0.55260000  1.0 0.1292299466
N  N18  1  0.22790000  0.25530000  0.39930000  1.0 -0.2629555315
N  N19  1  0.06450000  0.22780000  0.24460000  1.0 -0.3101398498
N  N20  1  0.23260000  0.75620000  0.56490000  1.0 -0.250046581
N  N21  1  0.41440000  0.97000000  0.60550000  1.0 -0.3330954164
N  N22  1  0.24580000  0.97090000  0.73740000  1.0 -0.2165832445
N  N23  1  0.31950000  0.93750000  0.73980000  1.0 -0.0113009372
N  N24  1  0.08760000  0.08780000  0.26000000  1.0 -0.2005261928
O  O1  1  0.50140000  0.48290000  0.64000000  1.0 -0.5281280011
O  O2  1  0.49990000  0.54050000  0.48690000  1.0 -0.5407786369
O  O3  1  0.04400000  0.52780000  0.38040000  1.0 -0.5281280011
O  O4  1  0.27490000  0.50100000  0.70230000  1.0 -0.547373578
O  O5  1  0.89580000  0.71830000  0.99930000  1.0 -0.5281280011
O  O6  1  0.56470000  0.29850000  0.98790000  1.0 -0.4638345689
O  O7  1  0.80750000  0.27050000  0.06410000  1.0 -0.5866430253
O  O8  1  0.28330000  0.56070000  0.55760000  1.0 -0.5574020594
O  O9  1  0.24330000  0.31080000  0.12090000  1.0 -0.5024935603
O  O10  1  0.14340000  0.70900000  0.11810000  1.0 -0.547373578
O  O11  1  0.32880000  0.70180000  0.90230000  1.0 -0.5281280011
O  O12  1  0.25420000  0.50550000  0.31290000  1.0 -0.5024935603
O  O13  1  0.12370000  0.66380000  0.87940000  1.0 -0.5407786369
O  O14  1  0.26240000  0.44890000  0.46380000  1.0 -0.5281280011
O  O15  1  0.04080000  0.46940000  0.52550000  1.0 -0.5175167769
O  O16  1  0.43100000  0.35030000  0.17310000  1.0 -0.4730892778
O  O17  1  0.49860000  0.98290000  0.36000000  1.0 -0.5281280011
O  O18  1  0.50010000  0.04050000  0.51310000  1.0 -0.5407786369
O  O19  1  0.95600000  0.02780000  0.61960000  1.0 -0.5281280011
O  O20  1  0.72510000  0.00100000  0.29770000  1.0 -0.547373578
O  O21  1  0.10420000  0.21830000  0.00070000  1.0 -0.5281280011
O  O22  1  0.43530000  0.79850000  0.01210000  1.0 -0.4638345689
O  O23  1  0.19250000  0.77050000  0.93590000  1.0 -0.5866430253
O  O24  1  0.71670000  0.06070000  0.44240000  1.0 -0.5574020594
O  O25  1  0.75670000  0.81080000  0.87910000  1.0 -0.5024935603
O  O26  1  0.85660000  0.20900000  0.88190000  1.0 -0.547373578
O  O27  1  0.67120000  0.20180000  0.09770000  1.0 -0.5281280011
O  O28  1  0.74580000  0.00550000  0.68710000  1.0 -0.5024935603
O  O29  1  0.87630000  0.16380000  0.12060000  1.0 -0.5407786369
O  O30  1  0.73760000  0.94890000  0.53620000  1.0 -0.5281280011
O  O31  1  0.95920000  0.96940000  0.47450000  1.0 -0.5175167769
O  O32  1  0.56900000  0.85030000  0.82690000  1.0 -0.4730892778
