# DDEC6 charges by PACMAN v1.1 (https://github.com/mtap-research/PACMAN-charge/)
data_VOGPEO_ASR_pacman
_symmetry_space_group_name_H-M   'P 1'
_cell_length_a   20.86280000
_cell_length_b   20.86280000
_cell_length_c   18.70990000
_cell_angle_alpha   90.00000000
_cell_angle_beta   90.00000000
_cell_angle_gamma   106.95700000
_symmetry_Int_Tables_number   1
_chemical_formula_structural   Cu6H29C73O32
_chemical_formula_sum   'Cu12 H58 C146 O64'
_cell_volume   7789.55208975
_cell_formula_units_Z   2
loop_
 _symmetry_equiv_pos_site_id
 _symmetry_equiv_pos_as_xyz
  1  'x, y, z'
loop_
 _atom_site_type_symbol
 _atom_site_label
 _atom_site_symmetry_multiplicity
 _atom_site_fract_x
 _atom_site_fract_y
 _atom_site_fract_z
 _atom_site_occupancy
 _atom_site_charge
Cu  Cu1  1  0.05785000  0.52257000  0.53475000  1.0 0.8748878676
Cu  Cu2  1  0.94215000  0.47743000  0.03475000  1.0 0.8748878676
Cu  Cu3  1  0.47743000  0.94215000  0.96525000  1.0 0.8748878676
Cu  Cu4  1  0.52257000  0.05785000  0.46525000  1.0 0.8748878676
Cu  Cu5  1  0.94215000  0.47743000  0.46525000  1.0 0.8748878676
Cu  Cu6  1  0.05785000  0.52257000  0.96525000  1.0 0.8748878676
Cu  Cu7  1  0.52257000  0.05785000  0.03475000  1.0 0.8748878676
Cu  Cu8  1  0.47743000  0.94215000  0.53475000  1.0 0.8748878676
Cu  Cu9  1  0.14105000  0.85895000  0.75000000  1.0 0.8834971923
Cu  Cu10  1  0.85895000  0.14105000  0.25000000  1.0 0.8834971923
Cu  Cu11  1  0.06204000  0.93796000  0.75000000  1.0 0.8595170516
Cu  Cu12  1  0.93796000  0.06204000  0.25000000  1.0 0.8595170516
H  H1  1  0.01450000  0.52450000  0.25000000  1.0 0.1459464568
H  H2  1  0.98550000  0.47550000  0.75000000  1.0 0.1459464568
H  H3  1  0.47550000  0.98550000  0.25000000  1.0 0.1459464568
H  H4  1  0.52450000  0.01450000  0.75000000  1.0 0.1459464568
H  H5  1  0.18680000  0.59720000  0.35500000  1.0 0.1400659501
H  H6  1  0.81320000  0.40280000  0.85500000  1.0 0.1400659501
H  H7  1  0.40280000  0.81320000  0.14500000  1.0 0.1400659501
H  H8  1  0.59720000  0.18680000  0.64500000  1.0 0.1400659501
H  H9  1  0.81320000  0.40280000  0.64500000  1.0 0.1400659501
H  H10  1  0.18680000  0.59720000  0.14500000  1.0 0.1400659501
H  H11  1  0.59720000  0.18680000  0.85500000  1.0 0.1400659501
H  H12  1  0.40280000  0.81320000  0.35500000  1.0 0.1400659501
H  H13  1  0.27650000  0.72350000  0.25000000  1.0 0.1170029693
H  H14  1  0.72350000  0.27650000  0.75000000  1.0 0.1170029693
H  H15  1  0.28600000  0.55140000  0.31800000  1.0 0.1170029693
H  H16  1  0.71400000  0.44860000  0.81800000  1.0 0.1170029693
H  H17  1  0.44860000  0.71400000  0.18200000  1.0 0.1170029693
H  H18  1  0.55140000  0.28600000  0.68200000  1.0 0.1170029693
H  H19  1  0.71400000  0.44860000  0.68200000  1.0 0.1170029693
H  H20  1  0.28600000  0.55140000  0.18200000  1.0 0.1170029693
H  H21  1  0.55140000  0.28600000  0.81800000  1.0 0.1170029693
H  H22  1  0.44860000  0.71400000  0.31800000  1.0 0.1170029693
H  H23  1  0.87180000  0.65040000  0.48860000  1.0 0.1400659501
H  H24  1  0.12820000  0.34960000  0.98860000  1.0 0.1400659501
H  H25  1  0.34960000  0.12820000  0.01140000  1.0 0.1400659501
H  H26  1  0.65040000  0.87180000  0.51140000  1.0 0.1400659501
H  H27  1  0.12820000  0.34960000  0.51140000  1.0 0.1400659501
H  H28  1  0.87180000  0.65040000  0.01140000  1.0 0.1400659501
H  H29  1  0.65040000  0.87180000  0.98860000  1.0 0.1400659501
H  H30  1  0.34960000  0.12820000  0.48860000  1.0 0.1400659501
H  H31  1  0.91110000  0.82090000  0.59750000  1.0 0.1270802391
H  H32  1  0.08890000  0.17910000  0.09750000  1.0 0.1270802391
H  H33  1  0.17910000  0.08890000  0.90250000  1.0 0.1270802391
H  H34  1  0.82090000  0.91110000  0.40250000  1.0 0.1270802391
H  H35  1  0.08890000  0.17910000  0.40250000  1.0 0.1270802391
H  H36  1  0.91110000  0.82090000  0.90250000  1.0 0.1270802391
H  H37  1  0.82090000  0.91110000  0.09750000  1.0 0.1270802391
H  H38  1  0.17910000  0.08890000  0.59750000  1.0 0.1270802391
H  H39  1  0.04200000  0.71460000  0.59870000  1.0 0.1459464568
H  H40  1  0.95800000  0.28540000  0.09870000  1.0 0.1459464568
H  H41  1  0.28540000  0.95800000  0.90130000  1.0 0.1459464568
H  H42  1  0.71460000  0.04200000  0.40130000  1.0 0.1459464568
H  H43  1  0.95800000  0.28540000  0.40130000  1.0 0.1459464568
H  H44  1  0.04200000  0.71460000  0.90130000  1.0 0.1459464568
H  H45  1  0.71460000  0.04200000  0.09870000  1.0 0.1459464568
H  H46  1  0.28540000  0.95800000  0.59870000  1.0 0.1459464568
H  H47  1  0.84300000  0.84300000  0.50000000  1.0 0.1170029693
H  H48  1  0.15700000  0.15700000  0.00000000  1.0 0.1170029693
H  H49  1  0.15700000  0.15700000  0.50000000  1.0 0.1170029693
H  H50  1  0.84300000  0.84300000  0.00000000  1.0 0.1170029693
H  H51  1  0.75870000  0.64670000  0.53340000  1.0 0.1270802391
H  H52  1  0.24130000  0.35330000  0.03340000  1.0 0.1270802391
H  H53  1  0.35330000  0.24130000  0.96660000  1.0 0.1270802391
H  H54  1  0.64670000  0.75870000  0.46660000  1.0 0.1270802391
H  H55  1  0.24130000  0.35330000  0.46660000  1.0 0.1270802391
H  H56  1  0.75870000  0.64670000  0.96660000  1.0 0.1270802391
H  H57  1  0.64670000  0.75870000  0.03340000  1.0 0.1270802391
H  H58  1  0.35330000  0.24130000  0.53340000  1.0 0.1270802391
C  C1  1  0.05729000  0.53951000  0.38380000  1.0 0.5886254175
C  C2  1  0.94271000  0.46049000  0.88380000  1.0 0.5886254175
C  C3  1  0.46049000  0.94271000  0.11620000  1.0 0.5886254175
C  C4  1  0.53951000  0.05729000  0.61620000  1.0 0.5886254175
C  C5  1  0.94271000  0.46049000  0.61620000  1.0 0.5886254175
C  C6  1  0.05729000  0.53951000  0.11620000  1.0 0.5886254175
C  C7  1  0.53951000  0.05729000  0.88380000  1.0 0.5886254175
C  C8  1  0.46049000  0.94271000  0.38380000  1.0 0.5886254175
C  C9  1  0.09357000  0.55803000  0.31410000  1.0 -0.0090961152
C  C10  1  0.90643000  0.44197000  0.81410000  1.0 -0.0049000236
C  C11  1  0.44197000  0.90643000  0.18590000  1.0 -0.0049000236
C  C12  1  0.55803000  0.09357000  0.68590000  1.0 -0.0049000236
C  C13  1  0.90643000  0.44197000  0.68590000  1.0 -0.0049000236
C  C14  1  0.09357000  0.55803000  0.18590000  1.0 -0.0049000236
C  C15  1  0.55803000  0.09357000  0.81410000  1.0 -0.0049000236
C  C16  1  0.44197000  0.90643000  0.31410000  1.0 -0.0049000236
C  C17  1  0.06070000  0.54410000  0.25000000  1.0 -0.1118515716
C  C18  1  0.93930000  0.45590000  0.75000000  1.0 -0.1118515716
C  C19  1  0.45590000  0.93930000  0.25000000  1.0 -0.1118515716
C  C20  1  0.54410000  0.06070000  0.75000000  1.0 -0.1118515716
C  C21  1  0.16396000  0.58724000  0.31180000  1.0 -0.1398650279
C  C22  1  0.83604000  0.41276000  0.81180000  1.0 -0.1398650279
C  C23  1  0.41276000  0.83604000  0.18820000  1.0 -0.1398650279
C  C24  1  0.58724000  0.16396000  0.68820000  1.0 -0.1398650279
C  C25  1  0.83604000  0.41276000  0.68820000  1.0 -0.1398650279
C  C26  1  0.16396000  0.58724000  0.18820000  1.0 -0.1398650279
C  C27  1  0.58724000  0.16396000  0.81180000  1.0 -0.1398650279
C  C28  1  0.41276000  0.83604000  0.31180000  1.0 -0.1398650279
C  C29  1  0.20030000  0.60170000  0.25000000  1.0 0.0696551811
C  C30  1  0.79970000  0.39830000  0.75000000  1.0 0.0696551811
C  C31  1  0.39830000  0.79970000  0.25000000  1.0 0.0696551811
C  C32  1  0.60170000  0.20030000  0.75000000  1.0 0.0696551811
C  C33  1  0.27240000  0.63060000  0.25000000  1.0 0.0696551811
C  C34  1  0.72760000  0.36940000  0.75000000  1.0 0.0641933246
C  C35  1  0.36940000  0.72760000  0.25000000  1.0 0.0641933246
C  C36  1  0.63060000  0.27240000  0.75000000  1.0 0.0641933246
C  C37  1  0.30420000  0.69580000  0.25000000  1.0 -0.1299768102
C  C38  1  0.69580000  0.30420000  0.75000000  1.0 -0.1299768102
C  C39  1  0.30890000  0.59370000  0.30090000  1.0 -0.1118515716
C  C40  1  0.69110000  0.40630000  0.80090000  1.0 -0.1118515716
C  C41  1  0.40630000  0.69110000  0.19910000  1.0 -0.1118515716
C  C42  1  0.59370000  0.30890000  0.69910000  1.0 -0.1118515716
C  C43  1  0.69110000  0.40630000  0.69910000  1.0 -0.1118515716
C  C44  1  0.30890000  0.59370000  0.19910000  1.0 -0.1118515716
C  C45  1  0.59370000  0.30890000  0.80090000  1.0 -0.1118515716
C  C46  1  0.40630000  0.69110000  0.30090000  1.0 -0.1118515716
C  C47  1  0.37650000  0.62350000  0.32200000  1.0 -0.0332801056
C  C48  1  0.62350000  0.37650000  0.82200000  1.0 -0.0332801056
C  C49  1  0.37650000  0.62350000  0.17800000  1.0 -0.0332801056
C  C50  1  0.62350000  0.37650000  0.67800000  1.0 -0.0332801056
C  C51  1  0.41350000  0.58650000  0.36600000  1.0 0.5013535657
C  C52  1  0.58650000  0.41350000  0.86600000  1.0 0.5013535657
C  C53  1  0.41350000  0.58650000  0.13400000  1.0 0.5013535657
C  C54  1  0.58650000  0.41350000  0.63400000  1.0 0.5013535657
C  C55  1  0.97795000  0.61065000  0.52230000  1.0 0.5886254175
C  C56  1  0.02205000  0.38935000  0.02230000  1.0 0.5886254175
C  C57  1  0.38935000  0.02205000  0.97770000  1.0 0.5886254175
C  C58  1  0.61065000  0.97795000  0.47770000  1.0 0.5886254175
C  C59  1  0.02205000  0.38935000  0.47770000  1.0 0.5886254175
C  C60  1  0.97795000  0.61065000  0.97770000  1.0 0.5886254175
C  C61  1  0.61065000  0.97795000  0.02230000  1.0 0.5886254175
C  C62  1  0.38935000  0.02205000  0.52230000  1.0 0.5886254175
C  C63  1  0.95978000  0.67322000  0.54120000  1.0 -0.0090961152
C  C64  1  0.04022000  0.32678000  0.04120000  1.0 -0.0090961152
C  C65  1  0.32678000  0.04022000  0.95880000  1.0 -0.0090961152
C  C66  1  0.67322000  0.95978000  0.45880000  1.0 -0.0090961152
C  C67  1  0.04022000  0.32678000  0.45880000  1.0 -0.0090961152
C  C68  1  0.95978000  0.67322000  0.95880000  1.0 -0.0090961152
C  C69  1  0.67322000  0.95978000  0.04120000  1.0 -0.0090961152
C  C70  1  0.32678000  0.04022000  0.54120000  1.0 -0.0090961152
C  C71  1  0.89960000  0.68220000  0.51860000  1.0 -0.1221275741
C  C72  1  0.10040000  0.31780000  0.01860000  1.0 -0.1221275741
C  C73  1  0.31780000  0.10040000  0.98140000  1.0 -0.1221275741
C  C74  1  0.68220000  0.89960000  0.48140000  1.0 -0.1221275741
C  C75  1  0.10040000  0.31780000  0.48140000  1.0 -0.1221275741
C  C76  1  0.89960000  0.68220000  0.98140000  1.0 -0.1221275741
C  C77  1  0.68220000  0.89960000  0.01860000  1.0 -0.1221275741
C  C78  1  0.31780000  0.10040000  0.51860000  1.0 -0.1221275741
C  C79  1  0.87990000  0.73690000  0.53970000  1.0 0.0696551811
C  C80  1  0.12010000  0.26310000  0.03970000  1.0 0.0696551811
C  C81  1  0.26310000  0.12010000  0.96030000  1.0 0.0696551811
C  C82  1  0.73690000  0.87990000  0.46030000  1.0 0.0696551811
C  C83  1  0.12010000  0.26310000  0.46030000  1.0 0.0696551811
C  C84  1  0.87990000  0.73690000  0.96030000  1.0 0.0696551811
C  C85  1  0.73690000  0.87990000  0.03970000  1.0 0.0696551811
C  C86  1  0.26310000  0.12010000  0.53970000  1.0 0.0696551811
C  C87  1  0.92319000  0.78341000  0.58300000  1.0 -0.1398650279
C  C88  1  0.07681000  0.21659000  0.08300000  1.0 -0.1398650279
C  C89  1  0.21659000  0.07681000  0.91700000  1.0 -0.1398650279
C  C90  1  0.78341000  0.92319000  0.41700000  1.0 -0.1398650279
C  C91  1  0.07681000  0.21659000  0.41700000  1.0 -0.1398650279
C  C92  1  0.92319000  0.78341000  0.91700000  1.0 -0.1398650279
C  C93  1  0.78341000  0.92319000  0.08300000  1.0 -0.1398650279
C  C94  1  0.21659000  0.07681000  0.58300000  1.0 -0.1398650279
C  C95  1  0.98363000  0.77637000  0.60580000  1.0 -0.0090961152
C  C96  1  0.01637000  0.22363000  0.10580000  1.0 -0.0090961152
C  C97  1  0.22363000  0.01637000  0.89420000  1.0 -0.0090961152
C  C98  1  0.77637000  0.98363000  0.39420000  1.0 -0.0090961152
C  C99  1  0.01637000  0.22363000  0.39420000  1.0 -0.0090961152
C  C100  1  0.98363000  0.77637000  0.89420000  1.0 -0.0090961152
C  C101  1  0.77637000  0.98363000  0.10580000  1.0 -0.0090961152
C  C102  1  0.22363000  0.01637000  0.60580000  1.0 -0.0090961152
C  C103  1  0.00137000  0.72023000  0.58400000  1.0 -0.0944033649
C  C104  1  0.99863000  0.27977000  0.08400000  1.0 -0.0944033649
C  C105  1  0.27977000  0.99863000  0.91600000  1.0 -0.0944033649
C  C106  1  0.72023000  0.00137000  0.41600000  1.0 -0.0944033649
C  C107  1  0.99863000  0.27977000  0.41600000  1.0 -0.0944033649
C  C108  1  0.00137000  0.72023000  0.91600000  1.0 -0.0944033649
C  C109  1  0.72023000  0.00137000  0.08400000  1.0 -0.0944033649
C  C110  1  0.27977000  0.99863000  0.58400000  1.0 -0.0944033649
C  C111  1  0.02824000  0.82536000  0.65680000  1.0 0.5886254175
C  C112  1  0.97176000  0.17464000  0.15680000  1.0 0.5886254175
C  C113  1  0.17464000  0.97176000  0.84320000  1.0 0.5886254175
C  C114  1  0.82536000  0.02824000  0.34320000  1.0 0.5886254175
C  C115  1  0.97176000  0.17464000  0.34320000  1.0 0.5886254175
C  C116  1  0.02824000  0.82536000  0.84320000  1.0 0.5886254175
C  C117  1  0.82536000  0.02824000  0.15680000  1.0 0.5886254175
C  C118  1  0.17464000  0.97176000  0.65680000  1.0 0.5886254175
C  C119  1  0.81342000  0.74338000  0.51870000  1.0 0.0811015319
C  C120  1  0.18658000  0.25662000  0.01870000  1.0 0.0811015319
C  C121  1  0.25662000  0.18658000  0.98130000  1.0 0.0811015319
C  C122  1  0.74338000  0.81342000  0.48130000  1.0 0.0811015319
C  C123  1  0.18658000  0.25662000  0.48130000  1.0 0.0811015319
C  C124  1  0.81342000  0.74338000  0.98130000  1.0 0.0811015319
C  C125  1  0.74338000  0.81342000  0.01870000  1.0 0.0811015319
C  C126  1  0.25662000  0.18658000  0.51870000  1.0 0.0811015319
C  C127  1  0.80550000  0.80550000  0.50000000  1.0 -0.1932885956
C  C128  1  0.19450000  0.19450000  0.00000000  1.0 -0.1932885956
C  C129  1  0.19450000  0.19450000  0.50000000  1.0 -0.1932885956
C  C130  1  0.80550000  0.80550000  0.00000000  1.0 -0.1932885956
C  C131  1  0.75573000  0.68847000  0.51940000  1.0 -0.1460396286
C  C132  1  0.24427000  0.31153000  0.01940000  1.0 -0.1460396286
C  C133  1  0.31153000  0.24427000  0.98060000  1.0 -0.1460396286
C  C134  1  0.68847000  0.75573000  0.48060000  1.0 -0.1460396286
C  C135  1  0.24427000  0.31153000  0.48060000  1.0 -0.1460396286
C  C136  1  0.75573000  0.68847000  0.98060000  1.0 -0.1460396286
C  C137  1  0.68847000  0.75573000  0.01940000  1.0 -0.1460396286
C  C138  1  0.31153000  0.24427000  0.51940000  1.0 -0.1460396286
C  C139  1  0.69540000  0.69540000  0.50000000  1.0 -0.020214596
C  C140  1  0.30460000  0.30460000  0.00000000  1.0 -0.020214596
C  C141  1  0.30460000  0.30460000  0.50000000  1.0 -0.020214596
C  C142  1  0.69540000  0.69540000  0.00000000  1.0 -0.020214596
C  C143  1  0.63480000  0.63480000  0.50000000  1.0 0.5092716057
C  C144  1  0.36520000  0.36520000  0.00000000  1.0 0.5013535657
C  C145  1  0.36520000  0.36520000  0.50000000  1.0 0.5013535657
C  C146  1  0.63480000  0.63480000  0.00000000  1.0 0.5092716057
O  O1  1  0.09306000  0.55098000  0.43980000  1.0 -0.5296790238
O  O2  1  0.90694000  0.44902000  0.93980000  1.0 -0.5296790238
O  O3  1  0.44902000  0.90694000  0.06020000  1.0 -0.5296790238
O  O4  1  0.55098000  0.09306000  0.56020000  1.0 -0.5296790238
O  O5  1  0.90694000  0.44902000  0.56020000  1.0 -0.5296790238
O  O6  1  0.09306000  0.55098000  0.06020000  1.0 -0.5296790238
O  O7  1  0.55098000  0.09306000  0.93980000  1.0 -0.5296790238
O  O8  1  0.44902000  0.90694000  0.43980000  1.0 -0.5296790238
O  O9  1  0.99544000  0.51128000  0.38040000  1.0 -0.5080778461
O  O10  1  0.00456000  0.48872000  0.88040000  1.0 -0.5080778461
O  O11  1  0.48872000  0.00456000  0.11960000  1.0 -0.5080778461
O  O12  1  0.51128000  0.99544000  0.61960000  1.0 -0.5080778461
O  O13  1  0.00456000  0.48872000  0.61960000  1.0 -0.5080778461
O  O14  1  0.99544000  0.51128000  0.11960000  1.0 -0.5080778461
O  O15  1  0.51128000  0.99544000  0.88040000  1.0 -0.5080778461
O  O16  1  0.48872000  0.00456000  0.38040000  1.0 -0.5080778461
O  O17  1  0.38740000  0.52860000  0.37070000  1.0 -0.332426871
O  O18  1  0.61260000  0.47140000  0.87070000  1.0 -0.3389396579
O  O19  1  0.47140000  0.61260000  0.12930000  1.0 -0.3389396579
O  O20  1  0.52860000  0.38740000  0.62930000  1.0 -0.3389396579
O  O21  1  0.61260000  0.47140000  0.62930000  1.0 -0.3389396579
O  O22  1  0.38740000  0.52860000  0.12930000  1.0 -0.332426871
O  O23  1  0.52860000  0.38740000  0.87070000  1.0 -0.3389396579
O  O24  1  0.47140000  0.61260000  0.37070000  1.0 -0.3389396579
O  O25  1  0.03201000  0.60493000  0.54530000  1.0 -0.5023462188
O  O26  1  0.96799000  0.39507000  0.04530000  1.0 -0.5023462188
O  O27  1  0.39507000  0.96799000  0.95470000  1.0 -0.5023462188
O  O28  1  0.60493000  0.03201000  0.45470000  1.0 -0.5023462188
O  O29  1  0.96799000  0.39507000  0.45470000  1.0 -0.5023462188
O  O30  1  0.03201000  0.60493000  0.95470000  1.0 -0.5023462188
O  O31  1  0.60493000  0.03201000  0.04530000  1.0 -0.5023462188
O  O32  1  0.39507000  0.96799000  0.54530000  1.0 -0.5023462188
O  O33  1  0.93441000  0.56723000  0.48620000  1.0 -0.5296790238
O  O34  1  0.06559000  0.43277000  0.98620000  1.0 -0.5296790238
O  O35  1  0.43277000  0.06559000  0.01380000  1.0 -0.5296790238
O  O36  1  0.56723000  0.93441000  0.51380000  1.0 -0.5296790238
O  O37  1  0.06559000  0.43277000  0.51380000  1.0 -0.5296790238
O  O38  1  0.93441000  0.56723000  0.01380000  1.0 -0.5296790238
O  O39  1  0.56723000  0.93441000  0.98620000  1.0 -0.5296790238
O  O40  1  0.43277000  0.06559000  0.48620000  1.0 -0.5296790238
O  O41  1  0.08008000  0.81010000  0.67760000  1.0 -0.5247344535
O  O42  1  0.91992000  0.18990000  0.17760000  1.0 -0.5247344535
O  O43  1  0.18990000  0.91992000  0.82240000  1.0 -0.5247344535
O  O44  1  0.81010000  0.08008000  0.32240000  1.0 -0.5247344535
O  O45  1  0.91992000  0.18990000  0.32240000  1.0 -0.5247344535
O  O46  1  0.08008000  0.81010000  0.82240000  1.0 -0.5247344535
O  O47  1  0.81010000  0.08008000  0.17760000  1.0 -0.5247344535
O  O48  1  0.18990000  0.91992000  0.67760000  1.0 -0.5247344535
O  O49  1  0.01210000  0.87546000  0.67640000  1.0 -0.5023462188
O  O50  1  0.98790000  0.12454000  0.17640000  1.0 -0.5023462188
O  O51  1  0.12454000  0.98790000  0.82360000  1.0 -0.5023462188
O  O52  1  0.87546000  0.01210000  0.32360000  1.0 -0.5023462188
O  O53  1  0.98790000  0.12454000  0.32360000  1.0 -0.5023462188
O  O54  1  0.01210000  0.87546000  0.82360000  1.0 -0.5023462188
O  O55  1  0.87546000  0.01210000  0.17640000  1.0 -0.5023462188
O  O56  1  0.12454000  0.98790000  0.67640000  1.0 -0.5023462188
O  O57  1  0.64100000  0.58180000  0.51570000  1.0 -0.332426871
O  O58  1  0.35900000  0.41820000  0.01570000  1.0 -0.332426871
O  O59  1  0.41820000  0.35900000  0.98430000  1.0 -0.332426871
O  O60  1  0.58180000  0.64100000  0.48430000  1.0 -0.332426871
O  O61  1  0.35900000  0.41820000  0.48430000  1.0 -0.332426871
O  O62  1  0.64100000  0.58180000  0.98430000  1.0 -0.332426871
O  O63  1  0.58180000  0.64100000  0.01570000  1.0 -0.332426871
O  O64  1  0.41820000  0.35900000  0.51570000  1.0 -0.332426871
