# DDEC6 charges by PACMAN v1.1 (https://github.com/mtap-research/PACMAN-charge/)
data_VOGTIV_ASR_pacman
_symmetry_space_group_name_H-M   'P 1'
_cell_length_a   15.19410000
_cell_length_b   15.19410000
_cell_length_c   15.19410000
_cell_angle_alpha   117.84100000
_cell_angle_beta   117.84100000
_cell_angle_gamma   117.84100000
_symmetry_Int_Tables_number   1
_chemical_formula_structural   MgC4O3
_chemical_formula_sum   'Mg6 C24 O18'
_cell_volume   1321.61316737
_cell_formula_units_Z   6
loop_
 _symmetry_equiv_pos_site_id
 _symmetry_equiv_pos_as_xyz
  1  'x, y, z'
loop_
 _atom_site_type_symbol
 _atom_site_label
 _atom_site_symmetry_multiplicity
 _atom_site_fract_x
 _atom_site_fract_y
 _atom_site_fract_z
 _atom_site_occupancy
 _atom_site_charge
Mg  Mg1  1  0.61002000  0.29586000  0.03026000  1.0 1.354752074
Mg  Mg2  1  0.29586000  0.03026000  0.61002000  1.0 1.3559220417
Mg  Mg3  1  0.03026000  0.61002000  0.29586000  1.0 1.3559220417
Mg  Mg4  1  0.38998000  0.70414000  0.96974000  1.0 1.3559220417
Mg  Mg5  1  0.70414000  0.96974000  0.38998000  1.0 1.3559220417
Mg  Mg6  1  0.96974000  0.38998000  0.70414000  1.0 1.3559220417
C  C1  1  0.23475000  0.85207000  0.67278000  1.0 0.6680010362
C  C2  1  0.85207000  0.67278000  0.23475000  1.0 0.6680010362
C  C3  1  0.67278000  0.23475000  0.85207000  1.0 0.6680010362
C  C4  1  0.76525000  0.14793000  0.32722000  1.0 0.6680010362
C  C5  1  0.14793000  0.32722000  0.76525000  1.0 0.6680010362
C  C6  1  0.32722000  0.76525000  0.14793000  1.0 0.6680010362
C  C7  1  0.10932000  0.66047000  0.57161000  1.0 -0.1682271954
C  C8  1  0.66047000  0.57161000  0.10932000  1.0 -0.1682271954
C  C9  1  0.57161000  0.10932000  0.66047000  1.0 -0.1682271954
C  C10  1  0.89068000  0.33953000  0.42839000  1.0 -0.1682271954
C  C11  1  0.33953000  0.42839000  0.89068000  1.0 -0.1682271954
C  C12  1  0.42839000  0.89068000  0.33953000  1.0 -0.1682271954
C  C13  1  0.19112000  0.71470000  0.72688000  1.0 0.0113323207
C  C14  1  0.71470000  0.72688000  0.19112000  1.0 0.0113323207
C  C15  1  0.72688000  0.19112000  0.71470000  1.0 0.0113323207
C  C16  1  0.80888000  0.28530000  0.27312000  1.0 0.0113323207
C  C17  1  0.28530000  0.27312000  0.80888000  1.0 0.0113323207
C  C18  1  0.27312000  0.80888000  0.28530000  1.0 0.0113323207
C  C19  1  0.93575000  0.46797000  0.37368000  1.0 0.2560947044
C  C20  1  0.46797000  0.37368000  0.93575000  1.0 0.2560947044
C  C21  1  0.37368000  0.93575000  0.46797000  1.0 0.2560947044
C  C22  1  0.06425000  0.53203000  0.62632000  1.0 0.2560947044
C  C23  1  0.53203000  0.62632000  0.06425000  1.0 0.2560947044
C  C24  1  0.62632000  0.06425000  0.53203000  1.0 0.2560947044
O  O1  1  0.39717000  0.02844000  0.87219000  1.0 -0.6209310687
O  O2  1  0.02844000  0.87219000  0.39717000  1.0 -0.6209310687
O  O3  1  0.87219000  0.39717000  0.02844000  1.0 -0.6209310687
O  O4  1  0.60283000  0.97156000  0.12781000  1.0 -0.6209310687
O  O5  1  0.97156000  0.12781000  0.60283000  1.0 -0.6209310687
O  O6  1  0.12781000  0.60283000  0.97156000  1.0 -0.6209310687
O  O7  1  0.17970000  0.82730000  0.56030000  1.0 -0.6644665695
O  O8  1  0.82730000  0.56030000  0.17970000  1.0 -0.6644665695
O  O9  1  0.56030000  0.17970000  0.82730000  1.0 -0.6644665695
O  O10  1  0.82030000  0.17270000  0.43970000  1.0 -0.6644665695
O  O11  1  0.17270000  0.43970000  0.82030000  1.0 -0.6644665695
O  O12  1  0.43970000  0.82030000  0.17270000  1.0 -0.6644665695
O  O13  1  0.86499000  0.42633000  0.23648000  1.0 -0.8375302748
O  O14  1  0.42633000  0.23648000  0.86499000  1.0 -0.8375302748
O  O15  1  0.23648000  0.86499000  0.42633000  1.0 -0.8375302748
O  O16  1  0.13501000  0.57367000  0.76352000  1.0 -0.8375302748
O  O17  1  0.57367000  0.76352000  0.13501000  1.0 -0.8375302748
O  O18  1  0.76352000  0.13501000  0.57367000  1.0 -0.8375302748
