# DDEC6 charges by PACMAN v1.1 (https://github.com/mtap-research/PACMAN-charge/)
data_VOHQEO_ion_pacman
_symmetry_space_group_name_H-M   'P 1'
_cell_length_a   9.23800000
_cell_length_b   9.26500000
_cell_length_c   9.39700000
_cell_angle_alpha   103.67000000
_cell_angle_beta   94.36000000
_cell_angle_gamma   90.64000000
_symmetry_Int_Tables_number   1
_chemical_formula_structural   Ga3P3H6C5NO12F
_chemical_formula_sum   'Ga6 P6 H12 C10 N2 O24 F2'
_cell_volume   778.89269450
_cell_formula_units_Z   2
loop_
 _symmetry_equiv_pos_site_id
 _symmetry_equiv_pos_as_xyz
  1  'x, y, z'
loop_
 _atom_site_type_symbol
 _atom_site_label
 _atom_site_symmetry_multiplicity
 _atom_site_fract_x
 _atom_site_fract_y
 _atom_site_fract_z
 _atom_site_occupancy
 _atom_site_charge
Ga  Ga1  1  0.43565000  0.13908000  0.08599000  1.0 1.5144511069
Ga  Ga2  1  0.56435000  0.86092000  0.91401000  1.0 1.5144511069
Ga  Ga3  1  0.39230000  0.60890000  0.34138000  1.0 1.5422977412
Ga  Ga4  1  0.60770000  0.39110000  0.65862000  1.0 1.5422977412
Ga  Ga5  1  0.15717000  0.62500000  0.92141000  1.0 1.5592923964
Ga  Ga6  1  0.84283000  0.37500000  0.07859000  1.0 1.5592923964
P  P1  1  0.18526000  0.37722000  0.09021000  1.0 1.5951677168
P  P2  1  0.81474000  0.62278000  0.90979000  1.0 1.5951677168
P  P3  1  0.62664000  0.37956000  0.32951000  1.0 1.5836264694
P  P4  1  0.37336000  0.62044000  0.67049000  1.0 1.5836264694
P  P5  1  0.64341000  0.16776000  0.85014000  1.0 1.5422977412
P  P6  1  0.35659000  0.83224000  0.14986000  1.0 1.5422977412
H  H1  1  0.30760000  0.08630000  0.39530000  1.0 0.1894946898
H  H2  1  0.33690000  0.02420000  0.60120000  1.0 0.1425930167
H  H3  1  0.17580000  0.08050000  0.77090000  1.0 0.1478359009
H  H4  1  0.96910000  0.29720000  0.50890000  1.0 0.2911975587
H  H5  1  0.15360000  0.23290000  0.35410000  1.0 0.1478359009
H  H6  1  0.98410000  0.21790000  0.73230000  1.0 0.1285109723
H  H7  1  0.69240000  0.91370000  0.60470000  1.0 0.1894946898
H  H8  1  0.66310000  0.97580000  0.39880000  1.0 0.1425930167
H  H9  1  0.82420000  0.91950000  0.22910000  1.0 0.1478359009
H  H10  1  0.03090000  0.70280000  0.49110000  1.0 0.2911975587
H  H11  1  0.84640000  0.76710000  0.64590000  1.0 0.1478359009
H  H12  1  0.01590000  0.78210000  0.26770000  1.0 0.1285109723
C  C1  1  0.24260000  0.12050000  0.46580000  1.0 -0.1241214743
C  C2  1  0.25720000  0.08000000  0.58390000  1.0 -0.0682242831
C  C3  1  0.16310000  0.11380000  0.68490000  1.0 -0.1343320703
C  C4  1  0.15150000  0.19890000  0.43950000  1.0 0.0425514708
C  C5  1  0.05250000  0.19400000  0.66340000  1.0 0.0244640632
C  C6  1  0.75740000  0.87950000  0.53420000  1.0 -0.1241214743
C  C7  1  0.74280000  0.92000000  0.41610000  1.0 -0.0682242831
C  C8  1  0.83690000  0.88620000  0.31510000  1.0 -0.1343320703
C  C9  1  0.84850000  0.80110000  0.56050000  1.0 0.0425514708
C  C10  1  0.94750000  0.80600000  0.33660000  1.0 0.0257940533
N  N1  1  0.03930000  0.24410000  0.53080000  1.0 -0.2320903187
N  N2  1  0.96070000  0.75590000  0.46920000  1.0 -0.2320903187
O  O1  1  0.17760000  0.43940000  0.95310000  1.0 -0.7896968681
O  O2  1  0.82240000  0.56060000  0.04690000  1.0 -0.7896968681
O  O3  1  0.50230000  0.27120000  0.26670000  1.0 -0.7896968681
O  O4  1  0.49770000  0.72880000  0.73330000  1.0 -0.7896968681
O  O5  1  0.57470000  0.53960000  0.34620000  1.0 -0.7838674977
O  O6  1  0.42530000  0.46040000  0.65380000  1.0 -0.7838674977
O  O7  1  0.79750000  0.23140000  0.91160000  1.0 -0.7896968681
O  O8  1  0.20250000  0.76860000  0.08840000  1.0 -0.7896968681
O  O9  1  0.60850000  0.21090000  0.70250000  1.0 -0.7625163888
O  O10  1  0.39150000  0.78910000  0.29750000  1.0 -0.7625163888
O  O11  1  0.53610000  0.23670000  0.95970000  1.0 -0.8102853095
O  O12  1  0.46390000  0.76330000  0.04030000  1.0 -0.8102853095
O  O13  1  0.25510000  0.22760000  0.05970000  1.0 -0.7495197748
O  O14  1  0.74490000  0.77240000  0.94030000  1.0 -0.7495197748
O  O15  1  0.75870000  0.35730000  0.24050000  1.0 -0.7692486739
O  O16  1  0.24130000  0.64270000  0.75950000  1.0 -0.7692486739
O  O17  1  0.64670000  0.99840000  0.81180000  1.0 -0.7625163888
O  O18  1  0.35330000  0.00160000  0.18820000  1.0 -0.7625163888
O  O19  1  0.26220000  0.48770000  0.21850000  1.0 -0.7896968681
O  O20  1  0.73780000  0.51230000  0.78150000  1.0 -0.7896968681
O  O21  1  0.68190000  0.35890000  0.48120000  1.0 -0.7896968681
O  O22  1  0.31810000  0.64110000  0.51880000  1.0 -0.7896968681
O  O23  1  0.03200000  0.35430000  0.13290000  1.0 -0.7896968681
O  O24  1  0.96800000  0.64570000  0.86710000  1.0 -0.7838674977
F  F1  1  0.38750000  0.97990000  0.90940000  1.0 -0.5202930367
F  F2  1  0.61250000  0.02010000  0.09060000  1.0 -0.5202930367
