# DDEC6 charges by PACMAN v1.1 (https://github.com/mtap-research/PACMAN-charge/)
data_VOHVAS_FSR_pacman
_symmetry_space_group_name_H-M   'P 1'
_cell_length_a   10.55030000
_cell_length_b   10.55030000
_cell_length_c   13.57380000
_cell_angle_alpha   72.59920000
_cell_angle_beta   107.40100000
_cell_angle_gamma   77.15290000
_symmetry_Int_Tables_number   1
_chemical_formula_structural   Zn3(C2N)10
_chemical_formula_sum   'Zn6 C40 N20'
_cell_volume   1292.59642708
_cell_formula_units_Z   2
loop_
 _symmetry_equiv_pos_site_id
 _symmetry_equiv_pos_as_xyz
  1  'x, y, z'
loop_
 _atom_site_type_symbol
 _atom_site_label
 _atom_site_symmetry_multiplicity
 _atom_site_fract_x
 _atom_site_fract_y
 _atom_site_fract_z
 _atom_site_occupancy
 _atom_site_charge
Zn  Zn1  1  0.74003000  0.43203000  0.50110000  1.0 0.6439783608
Zn  Zn2  1  0.43203000  0.74003000  0.99890000  1.0 0.6439783608
Zn  Zn3  1  0.82010000  0.82010000  0.75000000  1.0 0.7048818652
Zn  Zn4  1  0.25997000  0.56797000  0.49890000  1.0 0.6439783608
Zn  Zn5  1  0.56797000  0.25997000  0.00110000  1.0 0.6439783608
Zn  Zn6  1  0.17990000  0.17990000  0.25000000  1.0 0.7048818652
C  C1  1  0.77630000  0.11450000  0.60800000  1.0 0.4016916041
C  C2  1  0.81570000  0.08470000  0.51810000  1.0 -0.3088711242
C  C3  1  0.73080000  0.09660000  0.75860000  1.0 0.0295384146
C  C4  1  0.70830000  0.23230000  0.70300000  1.0 0.0608747357
C  C5  1  0.60780000  0.78800000  0.85970000  1.0 0.3903468435
C  C6  1  0.48440000  0.90280000  0.76170000  1.0 -0.2984418447
C  C7  1  0.74560000  0.61260000  0.02200000  1.0 0.0295384146
C  C8  1  0.82640000  0.64460000  0.96600000  1.0 0.0521694047
C  C9  1  0.49830000  0.44070000  0.29900000  1.0 0.0295384146
C  C10  1  0.11450000  0.77630000  0.89200000  1.0 0.4016916041
C  C11  1  0.08470000  0.81570000  0.98190000  1.0 -0.3088711242
C  C12  1  0.09660000  0.73080000  0.74140000  1.0 0.0295384146
C  C13  1  0.23230000  0.70830000  0.79700000  1.0 0.0608747357
C  C14  1  0.78800000  0.60780000  0.64030000  1.0 0.3903468435
C  C15  1  0.90280000  0.48440000  0.73830000  1.0 -0.2918880101
C  C16  1  0.61260000  0.74560000  0.47800000  1.0 0.0295384146
C  C17  1  0.64460000  0.82640000  0.53400000  1.0 0.0521694047
C  C18  1  0.44070000  0.49830000  0.20100000  1.0 0.0295384146
C  C19  1  0.59810000  0.59810000  0.25000000  1.0 0.4016916041
C  C20  1  0.68870000  0.68870000  0.25000000  1.0 -0.4038764651
C  C21  1  0.22370000  0.88550000  0.39200000  1.0 0.4016916041
C  C22  1  0.18430000  0.91530000  0.48190000  1.0 -0.3088711242
C  C23  1  0.26920000  0.90340000  0.24140000  1.0 0.0239438579
C  C24  1  0.29170000  0.76770000  0.29700000  1.0 0.0608747357
C  C25  1  0.39220000  0.21200000  0.14030000  1.0 0.3903468435
C  C26  1  0.51560000  0.09720000  0.23830000  1.0 -0.2918880101
C  C27  1  0.25440000  0.38740000  0.97800000  1.0 0.0295384146
C  C28  1  0.17360000  0.35540000  0.03400000  1.0 0.0521694047
C  C29  1  0.50170000  0.55930000  0.70100000  1.0 0.0295384146
C  C30  1  0.88550000  0.22370000  0.10800000  1.0 0.4016916041
C  C31  1  0.91530000  0.18430000  0.01810000  1.0 -0.3088711242
C  C32  1  0.90340000  0.26920000  0.25860000  1.0 0.0295384146
C  C33  1  0.76770000  0.29170000  0.20300000  1.0 0.0608747357
C  C34  1  0.21200000  0.39220000  0.35970000  1.0 0.3903468435
C  C35  1  0.09720000  0.51560000  0.26170000  1.0 -0.2918880101
C  C36  1  0.38740000  0.25440000  0.52200000  1.0 0.0295384146
C  C37  1  0.35540000  0.17360000  0.46600000  1.0 0.0521694047
C  C38  1  0.55930000  0.50170000  0.79900000  1.0 0.0295384146
C  C39  1  0.40190000  0.40190000  0.75000000  1.0 0.4016916041
C  C40  1  0.31130000  0.31130000  0.75000000  1.0 -0.4038764651
N  N1  1  0.77420000  0.01920000  0.70010000  1.0 -0.2984418447
N  N2  1  0.73500000  0.24260000  0.61420000  1.0 -0.2287428158
N  N3  1  0.60630000  0.70210000  0.95640000  1.0 -0.2918880101
N  N4  1  0.74470000  0.74790000  0.87050000  1.0 -0.2572846676
N  N5  1  0.60160000  0.49520000  0.34070000  1.0 -0.3088711242
N  N6  1  0.01920000  0.77420000  0.79990000  1.0 -0.2984418447
N  N7  1  0.24260000  0.73500000  0.88580000  1.0 -0.2287428158
N  N8  1  0.70210000  0.60630000  0.54360000  1.0 -0.2918880101
N  N9  1  0.74790000  0.74470000  0.62950000  1.0 -0.2572846676
N  N10  1  0.49520000  0.60160000  0.15930000  1.0 -0.3088711242
N  N11  1  0.22580000  0.98080000  0.29990000  1.0 -0.2984418447
N  N12  1  0.26500000  0.75740000  0.38580000  1.0 -0.2287428158
N  N13  1  0.39370000  0.29790000  0.04360000  1.0 -0.2918880101
N  N14  1  0.25530000  0.25210000  0.12950000  1.0 -0.2572846676
N  N15  1  0.39840000  0.50480000  0.65930000  1.0 -0.3088711242
N  N16  1  0.98080000  0.22580000  0.20010000  1.0 -0.2984418447
N  N17  1  0.75740000  0.26500000  0.11420000  1.0 -0.2287428158
N  N18  1  0.29790000  0.39370000  0.45640000  1.0 -0.2918880101
N  N19  1  0.25210000  0.25530000  0.37050000  1.0 -0.2572846676
N  N20  1  0.50480000  0.39840000  0.84070000  1.0 -0.3088711242
