# DDEC6 charges by PACMAN v1.1 (https://github.com/mtap-research/PACMAN-charge/)
data_VOKJIQ_FSR_pacman
_symmetry_space_group_name_H-M   'P 1'
_cell_length_a   8.58310000
_cell_length_b   17.67700000
_cell_length_c   10.43530000
_cell_angle_alpha   90.00000000
_cell_angle_beta   123.88700000
_cell_angle_gamma   90.00000000
_symmetry_Int_Tables_number   1
_chemical_formula_structural   Al3P3HO13
_chemical_formula_sum   'Al12 P12 H4 O52'
_cell_volume   1314.34201948
_cell_formula_units_Z   4
loop_
 _symmetry_equiv_pos_site_id
 _symmetry_equiv_pos_as_xyz
  1  'x, y, z'
loop_
 _atom_site_type_symbol
 _atom_site_label
 _atom_site_symmetry_multiplicity
 _atom_site_fract_x
 _atom_site_fract_y
 _atom_site_fract_z
 _atom_site_occupancy
 _atom_site_charge
Al  Al1  1  0.78910000  0.29608000  0.71280000  1.0 1.8083943181
Al  Al2  1  0.21090000  0.79608000  0.78720000  1.0 1.8083943181
Al  Al3  1  0.21090000  0.70392000  0.28720000  1.0 1.8083943181
Al  Al4  1  0.78910000  0.20392000  0.21280000  1.0 1.8083943181
Al  Al5  1  0.97730000  0.39073000  0.33844000  1.0 1.7894024603
Al  Al6  1  0.02270000  0.89073000  0.16156000  1.0 1.7894024603
Al  Al7  1  0.02270000  0.60927000  0.66156000  1.0 1.7894024603
Al  Al8  1  0.97730000  0.10927000  0.83844000  1.0 1.7894024603
Al  Al9  1  0.33333333  0.32332000  0.80858000  1.0 1.7378767483
Al  Al10  1  0.66666667  0.82332000  0.69142000  1.0 1.7378767483
Al  Al11  1  0.66666667  0.67668000  0.19142000  1.0 1.7378767483
Al  Al12  1  0.33333333  0.17668000  0.30858000  1.0 1.7378767483
P  P1  1  0.33473000  0.29325000  0.52647000  1.0 1.5903920881
P  P2  1  0.66527000  0.79325000  0.97353000  1.0 1.5903920881
P  P3  1  0.66527000  0.70675000  0.47353000  1.0 1.5903920881
P  P4  1  0.33473000  0.20675000  0.02647000  1.0 1.5903920881
P  P5  1  0.77013000  0.16948000  0.50382000  1.0 1.561545864
P  P6  1  0.22987000  0.66948000  0.99618000  1.0 1.5706522219
P  P7  1  0.22987000  0.83052000  0.49618000  1.0 1.561545864
P  P8  1  0.77013000  0.33052000  0.00382000  1.0 1.561545864
P  P9  1  0.99048000  0.42743000  0.64210000  1.0 1.5706522219
P  P10  1  0.00952000  0.92743000  0.85790000  1.0 1.5778737418
P  P11  1  0.00952000  0.57257000  0.35790000  1.0 1.5778737418
P  P12  1  0.99048000  0.07257000  0.14210000  1.0 1.5706522219
H  H1  1  0.85220000  0.21470000  0.89680000  1.0 0.4432376675
H  H2  1  0.14780000  0.71470000  0.60320000  1.0 0.4432376675
H  H3  1  0.14780000  0.78530000  0.10320000  1.0 0.4432376675
H  H4  1  0.85220000  0.28530000  0.39680000  1.0 0.4432376675
O  O1  1  0.86670000  0.20596000  0.82040000  1.0 -0.940198446
O  O2  1  0.13330000  0.70596000  0.67960000  1.0 -0.940198446
O  O3  1  0.13330000  0.79404000  0.17960000  1.0 -0.940198446
O  O4  1  0.86670000  0.29404000  0.32040000  1.0 -0.940198446
O  O5  1  0.80700000  0.25102000  0.56120000  1.0 -0.8156730779
O  O6  1  0.19300000  0.75102000  0.93880000  1.0 -0.8156730779
O  O7  1  0.19300000  0.74898000  0.43880000  1.0 -0.8156730779
O  O8  1  0.80700000  0.24898000  0.06120000  1.0 -0.8156730779
O  O9  1  0.91620000  0.41295000  0.47400000  1.0 -0.8101886945
O  O10  1  0.08380000  0.91295000  0.02600000  1.0 -0.8101886945
O  O11  1  0.08380000  0.58705000  0.52600000  1.0 -0.8101886945
O  O12  1  0.91620000  0.08705000  0.97400000  1.0 -0.8101886945
O  O13  1  0.56350000  0.14940000  0.42990000  1.0 -0.8101886945
O  O14  1  0.43650000  0.64940000  0.07010000  1.0 -0.8101886945
O  O15  1  0.43650000  0.85060000  0.57010000  1.0 -0.8101886945
O  O16  1  0.56350000  0.35060000  0.92990000  1.0 -0.8101886945
O  O17  1  0.53850000  0.30926000  0.59300000  1.0 -0.8101886945
O  O18  1  0.46150000  0.80926000  0.90700000  1.0 -0.8101886945
O  O19  1  0.46150000  0.69074000  0.40700000  1.0 -0.8101886945
O  O20  1  0.53850000  0.19074000  0.09300000  1.0 -0.8101886945
O  O21  1  0.21980000  0.36348000  0.44420000  1.0 -0.793977315
O  O22  1  0.78020000  0.86348000  0.05580000  1.0 -0.793977315
O  O23  1  0.78020000  0.63652000  0.55580000  1.0 -0.793977315
O  O24  1  0.21980000  0.13652000  0.94420000  1.0 -0.793977315
O  O25  1  0.96920000  0.50928000  0.67120000  1.0 -0.7812085845
O  O26  1  0.03080000  0.00928000  0.82880000  1.0 -0.7812085845
O  O27  1  0.03080000  0.49072000  0.32880000  1.0 -0.7812085845
O  O28  1  0.96920000  0.99072000  0.17120000  1.0 -0.7812085845
O  O29  1  0.19810000  0.40475000  0.74190000  1.0 -0.8101886945
O  O30  1  0.80190000  0.90475000  0.75810000  1.0 -0.8101886945
O  O31  1  0.80190000  0.59525000  0.25810000  1.0 -0.8101886945
O  O32  1  0.19810000  0.09525000  0.24190000  1.0 -0.8101886945
O  O33  1  0.82010000  0.15862000  0.38690000  1.0 -0.7649120338
O  O34  1  0.17990000  0.65862000  0.11310000  1.0 -0.7649120338
O  O35  1  0.17990000  0.84138000  0.61310000  1.0 -0.7690448113
O  O36  1  0.82010000  0.34138000  0.88690000  1.0 -0.7690448113
O  O37  1  0.30740000  0.27135000  0.65510000  1.0 -0.8101886945
O  O38  1  0.69260000  0.77135000  0.84490000  1.0 -0.8156730779
O  O39  1  0.69260000  0.72865000  0.34490000  1.0 -0.8156730779
O  O40  1  0.30740000  0.22865000  0.15510000  1.0 -0.8101886945
O  O41  1  0.88080000  0.38207000  0.68980000  1.0 -0.7812085845
O  O42  1  0.11920000  0.88207000  0.81020000  1.0 -0.7812085845
O  O43  1  0.11920000  0.61793000  0.31020000  1.0 -0.7812085845
O  O44  1  0.88080000  0.11793000  0.18980000  1.0 -0.7812085845
O  O45  1  0.88580000  0.11394000  0.63540000  1.0 -0.7690448113
O  O46  1  0.11420000  0.61394000  0.86460000  1.0 -0.7690448113
O  O47  1  0.11420000  0.88606000  0.36460000  1.0 -0.7690448113
O  O48  1  0.88580000  0.38606000  0.13540000  1.0 -0.7690448113
O  O49  1  0.26440000  0.22785000  0.41100000  1.0 -0.8038221844
O  O50  1  0.73560000  0.72785000  0.08900000  1.0 -0.8038221844
O  O51  1  0.73560000  0.77215000  0.58900000  1.0 -0.8101886945
O  O52  1  0.26440000  0.27215000  0.91100000  1.0 -0.8038221844
