# DDEC6 charges by PACMAN v1.1 (https://github.com/mtap-research/PACMAN-charge/)
data_VOLQAQ_FSR_pacman
_symmetry_space_group_name_H-M   'P 1'
_cell_length_a   17.22340000
_cell_length_b   17.22340000
_cell_length_c   17.22340000
_cell_angle_alpha   101.98300000
_cell_angle_beta   101.98300000
_cell_angle_gamma   125.78500000
_symmetry_Int_Tables_number   1
_chemical_formula_structural   CuSiH44C44N6(OF3)2
_chemical_formula_sum   'Cu2 Si2 H88 C88 N12 O4 F12'
_cell_volume   3689.45005096
_cell_formula_units_Z   2
loop_
 _symmetry_equiv_pos_site_id
 _symmetry_equiv_pos_as_xyz
  1  'x, y, z'
loop_
 _atom_site_type_symbol
 _atom_site_label
 _atom_site_symmetry_multiplicity
 _atom_site_fract_x
 _atom_site_fract_y
 _atom_site_fract_z
 _atom_site_occupancy
 _atom_site_charge
Cu  Cu1  1  0.66057000  0.66057000  0.00000000  1.0 0.6989313445
Cu  Cu2  1  0.16057000  0.16057000  0.00000000  1.0 0.6989313445
Si  Si1  1  0.41070000  0.41070000  0.00000000  1.0 1.7064634643
Si  Si2  1  0.91070000  0.91070000  0.00000000  1.0 1.7064634643
H  H1  1  0.45560000  0.61230000  0.96870000  1.0 0.1248883984
H  H2  1  0.64360000  0.48690000  0.03130000  1.0 0.1248883984
H  H3  1  0.48690000  0.45560000  0.84330000  1.0 0.1248883984
H  H4  1  0.61230000  0.64360000  0.15670000  1.0 0.1248883984
H  H5  1  0.14360000  0.11230000  0.15670000  1.0 0.1248883984
H  H6  1  0.95560000  0.98690000  0.84330000  1.0 0.1248883984
H  H7  1  0.11230000  0.95560000  0.96870000  1.0 0.1248883984
H  H8  1  0.98690000  0.14360000  0.03130000  1.0 0.1248883984
H  H9  1  0.39560000  0.70160000  0.97600000  1.0 0.1487810507
H  H10  1  0.72560000  0.41960000  0.02400000  1.0 0.1487810507
H  H11  1  0.41960000  0.39560000  0.69400000  1.0 0.1487810507
H  H12  1  0.70160000  0.72560000  0.30600000  1.0 0.1487810507
H  H13  1  0.22560000  0.20160000  0.30600000  1.0 0.1487810507
H  H14  1  0.89560000  0.91960000  0.69400000  1.0 0.1487810507
H  H15  1  0.20160000  0.89560000  0.97600000  1.0 0.1487810507
H  H16  1  0.91960000  0.22560000  0.02400000  1.0 0.1487810507
H  H17  1  0.69000000  0.97330000  0.10630000  1.0 0.1487810507
H  H18  1  0.86700000  0.58370000  0.89370000  1.0 0.1487810507
H  H19  1  0.58370000  0.69000000  0.71670000  1.0 0.1487810507
H  H20  1  0.97330000  0.86700000  0.28330000  1.0 0.1487810507
H  H21  1  0.36700000  0.47330000  0.28330000  1.0 0.1487810507
H  H22  1  0.19000000  0.08370000  0.71670000  1.0 0.1487810507
H  H23  1  0.47330000  0.19000000  0.10630000  1.0 0.1487810507
H  H24  1  0.08370000  0.36700000  0.89370000  1.0 0.1487810507
H  H25  1  0.74970000  0.87800000  0.09170000  1.0 0.1303729466
H  H26  1  0.78630000  0.65800000  0.90830000  1.0 0.1303729466
H  H27  1  0.65800000  0.74970000  0.87170000  1.0 0.1303729466
H  H28  1  0.87800000  0.78630000  0.12830000  1.0 0.1303729466
H  H29  1  0.28630000  0.37800000  0.12830000  1.0 0.1303729466
H  H30  1  0.24970000  0.15800000  0.87170000  1.0 0.1303729466
H  H31  1  0.37800000  0.24970000  0.09170000  1.0 0.1303729466
H  H32  1  0.15800000  0.28630000  0.90830000  1.0 0.1303729466
H  H33  1  0.44130000  0.86370000  0.12600000  1.0 0.1303729466
H  H34  1  0.73770000  0.31530000  0.87400000  1.0 0.1303729466
H  H35  1  0.31530000  0.44130000  0.57760000  1.0 0.1303729466
H  H36  1  0.86370000  0.73770000  0.42240000  1.0 0.1303729466
H  H37  1  0.23770000  0.36370000  0.42240000  1.0 0.1303729466
H  H38  1  0.94130000  0.81530000  0.57760000  1.0 0.1303729466
H  H39  1  0.36370000  0.94130000  0.12600000  1.0 0.1303729466
H  H40  1  0.81530000  0.23770000  0.87400000  1.0 0.1303729466
H  H41  1  0.44040000  0.82490000  0.82790000  1.0 0.1303729466
H  H42  1  0.99700000  0.61250000  0.17210000  1.0 0.1303729466
H  H43  1  0.61250000  0.44040000  0.61550000  1.0 0.1303729466
H  H44  1  0.82490000  0.99700000  0.38450000  1.0 0.1303729466
H  H45  1  0.49700000  0.32490000  0.38450000  1.0 0.1303729466
H  H46  1  0.94040000  0.11250000  0.61550000  1.0 0.1303729466
H  H47  1  0.32490000  0.94040000  0.82790000  1.0 0.1303729466
H  H48  1  0.11250000  0.49700000  0.17210000  1.0 0.1303729466
H  H49  1  0.53720000  0.89470000  0.80350000  1.0 0.1382187097
H  H50  1  0.09120000  0.73370000  0.19650000  1.0 0.1382187097
H  H51  1  0.73370000  0.53720000  0.64250000  1.0 0.1382187097
H  H52  1  0.89470000  0.09120000  0.35750000  1.0 0.1382187097
H  H53  1  0.59120000  0.39470000  0.35750000  1.0 0.1382187097
H  H54  1  0.03720000  0.23370000  0.64250000  1.0 0.1382187097
H  H55  1  0.39470000  0.03720000  0.80350000  1.0 0.1382187097
H  H56  1  0.23370000  0.59120000  0.19650000  1.0 0.1382187097
H  H57  1  0.54760000  0.84900000  0.87320000  1.0 0.1303729466
H  H58  1  0.97580000  0.67440000  0.12680000  1.0 0.1303729466
H  H59  1  0.67440000  0.54760000  0.69860000  1.0 0.1303729466
H  H60  1  0.84900000  0.97580000  0.30140000  1.0 0.1303729466
H  H61  1  0.47580000  0.34900000  0.30140000  1.0 0.1303729466
H  H62  1  0.04760000  0.17440000  0.69860000  1.0 0.1303729466
H  H63  1  0.34900000  0.04760000  0.87320000  1.0 0.1303729466
H  H64  1  0.17440000  0.47580000  0.12680000  1.0 0.1303729466
H  H65  1  0.70610000  0.01900000  0.97750000  1.0 0.1382187097
H  H66  1  0.04150000  0.72860000  0.02250000  1.0 0.1382187097
H  H67  1  0.72860000  0.70610000  0.68710000  1.0 0.1382187097
H  H68  1  0.01900000  0.04150000  0.31290000  1.0 0.1382187097
H  H69  1  0.54150000  0.51900000  0.31290000  1.0 0.1382187097
H  H70  1  0.20610000  0.22860000  0.68710000  1.0 0.1382187097
H  H71  1  0.51900000  0.20610000  0.97750000  1.0 0.1382187097
H  H72  1  0.22860000  0.54150000  0.02250000  1.0 0.1382187097
H  H73  1  0.70670000  0.08470000  0.92380000  1.0 0.1382187097
H  H74  1  0.16090000  0.78290000  0.07620000  1.0 0.1382187097
H  H75  1  0.78290000  0.70670000  0.62200000  1.0 0.1382187097
H  H76  1  0.08470000  0.16090000  0.37800000  1.0 0.1382187097
H  H77  1  0.66090000  0.58470000  0.37800000  1.0 0.1382187097
H  H78  1  0.20670000  0.28290000  0.62200000  1.0 0.1382187097
H  H79  1  0.58470000  0.20670000  0.92380000  1.0 0.1382187097
H  H80  1  0.28290000  0.66090000  0.07620000  1.0 0.1382187097
H  H81  1  0.70810000  0.11270000  0.01900000  1.0 0.1303729466
H  H82  1  0.09370000  0.68910000  0.98100000  1.0 0.1303729466
H  H83  1  0.68910000  0.70810000  0.59540000  1.0 0.1303729466
H  H84  1  0.11270000  0.09370000  0.40460000  1.0 0.1303729466
H  H85  1  0.59370000  0.61270000  0.40460000  1.0 0.1303729466
H  H86  1  0.20810000  0.18910000  0.59540000  1.0 0.1303729466
H  H87  1  0.61270000  0.20810000  0.01900000  1.0 0.1303729466
H  H88  1  0.18910000  0.59370000  0.98100000  1.0 0.1303729466
C  C1  1  0.50550000  0.68700000  0.99390000  1.0 0.111422674
C  C2  1  0.69310000  0.51160000  0.00610000  1.0 0.111422674
C  C3  1  0.51160000  0.50550000  0.81850000  1.0 0.111422674
C  C4  1  0.68700000  0.69310000  0.18150000  1.0 0.111422674
C  C5  1  0.19310000  0.18700000  0.18150000  1.0 0.111422674
C  C6  1  0.00550000  0.01160000  0.81850000  1.0 0.111422674
C  C7  1  0.18700000  0.00550000  0.99390000  1.0 0.111422674
C  C8  1  0.01160000  0.19310000  0.00610000  1.0 0.111422674
C  C9  1  0.46930000  0.74060000  0.99970000  1.0 -0.1798930813
C  C10  1  0.74090000  0.46960000  0.00030000  1.0 -0.1798930813
C  C11  1  0.46960000  0.46930000  0.72870000  1.0 -0.1798930813
C  C12  1  0.74060000  0.74090000  0.27130000  1.0 -0.1798930813
C  C13  1  0.24090000  0.24060000  0.27130000  1.0 -0.1798930813
C  C14  1  0.96930000  0.96960000  0.72870000  1.0 -0.1798930813
C  C15  1  0.24060000  0.96930000  0.99970000  1.0 -0.1798930813
C  C16  1  0.96960000  0.24090000  0.00030000  1.0 -0.1798930813
C  C17  1  0.53290000  0.84270000  0.03640000  1.0 0.111422674
C  C18  1  0.80630000  0.49650000  0.96360000  1.0 0.111422674
C  C19  1  0.49650000  0.53290000  0.69020000  1.0 0.111422674
C  C20  1  0.84270000  0.80630000  0.30980000  1.0 0.111422674
C  C21  1  0.30630000  0.34270000  0.30980000  1.0 0.111422674
C  C22  1  0.03290000  0.99650000  0.69020000  1.0 0.111422674
C  C23  1  0.34270000  0.03290000  0.03640000  1.0 0.111422674
C  C24  1  0.99650000  0.30630000  0.96360000  1.0 0.111422674
C  C25  1  0.64130000  0.89900000  0.07510000  1.0 -0.1893116658
C  C26  1  0.82390000  0.56620000  0.92490000  1.0 -0.1893116658
C  C27  1  0.56620000  0.64130000  0.74230000  1.0 -0.1893116658
C  C28  1  0.89900000  0.82390000  0.25770000  1.0 -0.1893116658
C  C29  1  0.32390000  0.39900000  0.25770000  1.0 -0.1893116658
C  C30  1  0.14130000  0.06620000  0.74230000  1.0 -0.1893116658
C  C31  1  0.39900000  0.14130000  0.07510000  1.0 -0.1893116658
C  C32  1  0.06620000  0.32390000  0.92490000  1.0 -0.1893116658
C  C33  1  0.67670000  0.84200000  0.06650000  1.0 0.0641510493
C  C34  1  0.77550000  0.61020000  0.93350000  1.0 0.0641510493
C  C35  1  0.61020000  0.67670000  0.83470000  1.0 0.0641510493
C  C36  1  0.84200000  0.77550000  0.16530000  1.0 0.0641510493
C  C37  1  0.27550000  0.34200000  0.16530000  1.0 0.0641510493
C  C38  1  0.17670000  0.11020000  0.83470000  1.0 0.0641510493
C  C39  1  0.34200000  0.17670000  0.06650000  1.0 0.0654544614
C  C40  1  0.11020000  0.27550000  0.93350000  1.0 0.0641510493
C  C41  1  0.49230000  0.90130000  0.03900000  1.0 0.0165794862
C  C42  1  0.86230000  0.45330000  0.96100000  1.0 0.0165794862
C  C43  1  0.45330000  0.49230000  0.59100000  1.0 0.0165794862
C  C44  1  0.90130000  0.86230000  0.40900000  1.0 0.0165794862
C  C45  1  0.36230000  0.40130000  0.40900000  1.0 0.0165794862
C  C46  1  0.99230000  0.95330000  0.59100000  1.0 0.0165794862
C  C47  1  0.40130000  0.99230000  0.03900000  1.0 0.0165794862
C  C48  1  0.95330000  0.36230000  0.96100000  1.0 0.0165794862
C  C49  1  0.44530000  0.89800000  0.08830000  1.0 -0.1351378032
C  C50  1  0.80970000  0.35700000  0.91170000  1.0 -0.1351378032
C  C51  1  0.35700000  0.44530000  0.54730000  1.0 -0.1351378032
C  C52  1  0.89800000  0.80970000  0.45270000  1.0 -0.1351378032
C  C53  1  0.30970000  0.39800000  0.45270000  1.0 -0.1351378032
C  C54  1  0.94530000  0.85700000  0.54730000  1.0 -0.1351378032
C  C55  1  0.39800000  0.94530000  0.08830000  1.0 -0.1351378032
C  C56  1  0.85700000  0.30970000  0.91170000  1.0 -0.1351378032
C  C57  1  0.50520000  0.95920000  0.98580000  1.0 -0.0386102156
C  C58  1  0.97340000  0.51940000  0.01420000  1.0 -0.0386102156
C  C59  1  0.51940000  0.50520000  0.54600000  1.0 -0.0386102156
C  C60  1  0.95920000  0.97340000  0.45400000  1.0 -0.0386102156
C  C61  1  0.47340000  0.45920000  0.45400000  1.0 -0.0386102156
C  C62  1  0.00520000  0.01940000  0.54600000  1.0 -0.0386102156
C  C63  1  0.45920000  0.00520000  0.98580000  1.0 -0.0386102156
C  C64  1  0.01940000  0.47340000  0.01420000  1.0 -0.0386102156
C  C65  1  0.55830000  0.97620000  0.92350000  1.0 0.2376387238
C  C66  1  0.05270000  0.63480000  0.07650000  1.0 0.2376387238
C  C67  1  0.63480000  0.55830000  0.58210000  1.0 0.2376387238
C  C68  1  0.97620000  0.05270000  0.41790000  1.0 0.2376387238
C  C69  1  0.55270000  0.47620000  0.41790000  1.0 0.2376387238
C  C70  1  0.05830000  0.13480000  0.58210000  1.0 0.2376387238
C  C71  1  0.47620000  0.05830000  0.92350000  1.0 0.2376387238
C  C72  1  0.13480000  0.55270000  0.07650000  1.0 0.2376387238
C  C73  1  0.51730000  0.87750000  0.85060000  1.0 -0.4791999192
C  C74  1  0.02690000  0.66666667  0.14940000  1.0 -0.4791999192
C  C75  1  0.66666667  0.51730000  0.63980000  1.0 -0.4791999192
C  C76  1  0.87750000  0.02690000  0.36020000  1.0 -0.4791999192
C  C77  1  0.52690000  0.37750000  0.36020000  1.0 -0.4791999192
C  C78  1  0.01730000  0.16670000  0.63980000  1.0 -0.4791999192
C  C79  1  0.37750000  0.01730000  0.85060000  1.0 -0.4791999192
C  C80  1  0.16670000  0.52690000  0.14940000  1.0 -0.4791999192
C  C81  1  0.68130000  0.05550000  0.96480000  1.0 -0.4933017933
C  C82  1  0.09070000  0.71650000  0.03520000  1.0 -0.4933017933
C  C83  1  0.71650000  0.68130000  0.62580000  1.0 -0.4933017933
C  C84  1  0.05550000  0.09070000  0.37420000  1.0 -0.4933017933
C  C85  1  0.59070000  0.55550000  0.37420000  1.0 -0.4933017933
C  C86  1  0.18130000  0.21650000  0.62580000  1.0 -0.4933017933
C  C87  1  0.55550000  0.18130000  0.96480000  1.0 -0.4933017933
C  C88  1  0.21650000  0.59070000  0.03520000  1.0 -0.4933017933
N  N1  1  0.60410000  0.73430000  0.02120000  1.0 -0.2264945798
N  N2  1  0.71310000  0.58290000  0.97880000  1.0 -0.2264945798
N  N3  1  0.58290000  0.60410000  0.86980000  1.0 -0.2264945798
N  N4  1  0.73430000  0.71310000  0.13020000  1.0 -0.2264945798
N  N5  1  0.21310000  0.23430000  0.13020000  1.0 -0.2264945798
N  N6  1  0.10410000  0.08290000  0.86980000  1.0 -0.2264945798
N  N7  1  0.23430000  0.10410000  0.02120000  1.0 -0.2264945798
N  N8  1  0.08290000  0.21310000  0.97880000  1.0 -0.2264945798
N  N9  1  0.53460000  0.03460000  0.88680000  1.0 0.1964653327
N  N10  1  0.14780000  0.64780000  0.11320000  1.0 0.1964653327
N  N11  1  0.64780000  0.53460000  0.50000000  1.0 0.1964653327
N  N12  1  0.03460000  0.14780000  0.50000000  1.0 0.1964653327
O  O1  1  0.56410000  0.06410000  0.82820000  1.0 -0.3191532113
O  O2  1  0.23590000  0.73590000  0.17180000  1.0 -0.3191532113
O  O3  1  0.73590000  0.56410000  0.50000000  1.0 -0.3191532113
O  O4  1  0.06410000  0.23590000  0.50000000  1.0 -0.3191532113
F  F1  1  0.51860000  0.51860000  0.00000000  1.0 -0.5516745367
F  F2  1  0.01860000  0.01860000  0.00000000  1.0 -0.5516745367
F  F3  1  0.38723000  0.48319000  0.05302000  1.0 -0.5619464063
F  F4  1  0.43017000  0.33421000  0.94698000  1.0 -0.5619464063
F  F5  1  0.33421000  0.38723000  0.90404000  1.0 -0.5619464063
F  F6  1  0.48319000  0.43017000  0.09596000  1.0 -0.5619464063
F  F7  1  0.93017000  0.98319000  0.09596000  1.0 -0.5619464063
F  F8  1  0.88723000  0.83421000  0.90404000  1.0 -0.5619464063
F  F9  1  0.98319000  0.88723000  0.05302000  1.0 -0.5619464063
F  F10  1  0.83421000  0.93017000  0.94698000  1.0 -0.5619464063
F  F11  1  0.30230000  0.30230000  0.00000000  1.0 -0.5141582408
F  F12  1  0.80230000  0.80230000  0.00000000  1.0 -0.5141582408
