# DDEC6 charges by PACMAN v1.1 (https://github.com/mtap-research/PACMAN-charge/)
data_VOMMAN_ASR_pacman
_symmetry_space_group_name_H-M   'P 1'
_cell_length_a   9.72100000
_cell_length_b   10.98040000
_cell_length_c   11.47900000
_cell_angle_alpha   97.96600000
_cell_angle_beta   96.21200000
_cell_angle_gamma   98.24400000
_symmetry_Int_Tables_number   1
_chemical_formula_structural   CoH28C33(NO2)2
_chemical_formula_sum   'Co2 H56 C66 N4 O8'
_cell_volume   1190.61333186
_cell_formula_units_Z   2
loop_
 _symmetry_equiv_pos_site_id
 _symmetry_equiv_pos_as_xyz
  1  'x, y, z'
loop_
 _atom_site_type_symbol
 _atom_site_label
 _atom_site_symmetry_multiplicity
 _atom_site_fract_x
 _atom_site_fract_y
 _atom_site_fract_z
 _atom_site_occupancy
 _atom_site_charge
Co  Co1  1  0.40233000  0.11669000  0.88896000  1.0 0.7237384458
Co  Co2  1  0.59767000  0.88331000  0.11104000  1.0 0.7237384458
H  H1  1  0.51770000  0.83210000  0.65560000  1.0 0.1404596631
H  H2  1  0.48230000  0.16790000  0.34440000  1.0 0.1404596631
H  H3  1  0.53720000  0.64510000  0.78370000  1.0 0.1093429732
H  H4  1  0.46280000  0.35490000  0.21630000  1.0 0.1093429732
H  H5  1  0.50900000  0.70820000  0.48540000  1.0 0.1093429732
H  H6  1  0.49100000  0.29180000  0.51460000  1.0 0.1093429732
H  H7  1  0.51280000  0.43650000  0.68340000  1.0 0.1008082303
H  H8  1  0.48720000  0.56350000  0.31660000  1.0 0.1008082303
H  H9  1  0.20510000  0.40430000  0.74030000  1.0 0.1281506632
H  H10  1  0.79490000  0.59570000  0.25970000  1.0 0.1281506632
H  H11  1  0.10210000  0.21270000  0.55830000  1.0 0.1008082303
H  H12  1  0.89790000  0.78730000  0.44170000  1.0 0.1008082303
H  H13  1  0.91540000  0.24700000  0.44890000  1.0 0.0781026845
H  H14  1  0.08460000  0.75300000  0.55110000  1.0 0.0781026845
H  H15  1  0.79990000  0.36220000  0.32670000  1.0 0.0781026845
H  H16  1  0.20010000  0.63780000  0.67330000  1.0 0.0781026845
H  H17  1  0.05390000  0.67470000  0.48900000  1.0 0.0911291001
H  H18  1  0.94610000  0.32530000  0.51100000  1.0 0.0911291001
H  H19  1  0.16940000  0.55960000  0.61120000  1.0 0.0911291001
H  H20  1  0.83060000  0.44040000  0.38880000  1.0 0.0911291001
H  H21  1  0.80160000  0.56450000  0.24550000  1.0 0.1093429732
H  H22  1  0.19840000  0.43550000  0.75450000  1.0 0.1093429732
H  H23  1  0.86490000  0.76270000  0.41800000  1.0 0.1093429732
H  H24  1  0.13510000  0.23730000  0.58200000  1.0 0.1093429732
H  H25  1  0.65370000  0.17460000  0.74420000  1.0 0.1008082303
H  H26  1  0.34630000  0.82540000  0.25580000  1.0 0.1008082303
H  H27  1  0.82600000  0.33100000  0.72730000  1.0 0.1161577393
H  H28  1  0.17400000  0.66900000  0.27270000  1.0 0.1161577393
H  H29  1  0.70840000  0.53650000  0.00150000  1.0 0.1281506632
H  H30  1  0.29160000  0.46350000  0.99850000  1.0 0.1281506632
H  H31  1  0.53950000  0.37330000  0.01030000  1.0 0.1008082303
H  H32  1  0.46050000  0.62670000  0.98970000  1.0 0.1008082303
H  H33  1  0.98840000  0.55010000  0.90670000  1.0 0.1008082303
H  H34  1  0.01160000  0.44990000  0.09330000  1.0 0.1008082303
H  H35  1  0.92780000  0.54870000  0.77480000  1.0 0.0911291001
H  H36  1  0.07220000  0.45130000  0.22520000  1.0 0.0911291001
H  H37  1  0.85000000  0.68960000  0.96380000  1.0 0.1008082303
H  H38  1  0.15000000  0.31040000  0.03620000  1.0 0.1008082303
H  H39  1  0.79850000  0.69150000  0.83040000  1.0 0.1093429732
H  H40  1  0.20150000  0.30850000  0.16960000  1.0 0.1093429732
H  H41  1  0.03750000  0.74850000  0.71330000  1.0 0.1008082303
H  H42  1  0.96250000  0.25150000  0.28670000  1.0 0.1008082303
H  H43  1  0.23950000  0.88900000  0.73320000  1.0 0.1093429732
H  H44  1  0.76050000  0.11100000  0.26680000  1.0 0.1093429732
H  H45  1  0.21030000  0.00400000  0.06130000  1.0 0.0911291001
H  H46  1  0.78970000  0.99600000  0.93870000  1.0 0.0911291001
H  H47  1  0.03220000  0.84160000  0.06120000  1.0 0.1008082303
H  H48  1  0.96780000  0.15840000  0.93880000  1.0 0.1008082303
H  H49  1  0.89680000  0.88010000  0.76570000  1.0 0.1093429732
H  H50  1  0.10320000  0.11990000  0.23430000  1.0 0.1093429732
H  H51  1  0.09520000  0.02830000  0.76450000  1.0 0.1008082303
H  H52  1  0.90480000  0.97170000  0.23550000  1.0 0.1008082303
H  H53  1  0.29350000  0.90100000  0.01120000  1.0 0.0911291001
H  H54  1  0.70650000  0.09900000  0.98880000  1.0 0.0911291001
H  H55  1  0.12320000  0.74410000  0.00580000  1.0 0.1008082303
H  H56  1  0.87680000  0.25590000  0.99420000  1.0 0.1008082303
C  C1  1  0.53620000  0.87810000  0.84130000  1.0 0.5866671343
C  C2  1  0.46380000  0.12190000  0.15870000  1.0 0.5866671343
C  C3  1  0.52550000  0.79600000  0.72410000  1.0 -0.2502442795
C  C4  1  0.47450000  0.20400000  0.27590000  1.0 -0.2502442795
C  C5  1  0.52650000  0.67780000  0.71340000  1.0 -0.1249193113
C  C6  1  0.47350000  0.32220000  0.28660000  1.0 -0.1249193113
C  C7  1  0.51290000  0.58810000  0.60270000  1.0 0.0911291001
C  C8  1  0.48710000  0.41190000  0.39730000  1.0 0.0781026845
C  C9  1  0.50530000  0.62430000  0.49180000  1.0 -0.1771658818
C  C10  1  0.49470000  0.37570000  0.50820000  1.0 -0.1771658818
C  C11  1  0.50760000  0.46260000  0.60960000  1.0 -0.1997063617
C  C12  1  0.49240000  0.53740000  0.39040000  1.0 -0.1997063617
C  C13  1  0.26070000  0.22600000  0.75290000  1.0 0.4351124306
C  C14  1  0.73930000  0.77400000  0.24710000  1.0 0.4345496436
C  C15  1  0.19500000  0.32400000  0.69800000  1.0 -0.0303649909
C  C16  1  0.80500000  0.67600000  0.30200000  1.0 -0.0303649909
C  C17  1  0.12000000  0.29340000  0.60020000  1.0 -0.0844958211
C  C18  1  0.88000000  0.70660000  0.39980000  1.0 -0.0844958211
C  C19  1  0.05380000  0.39190000  0.54210000  1.0 -0.0040547371
C  C20  1  0.94620000  0.60810000  0.45790000  1.0 -0.0040547371
C  C21  1  0.94310000  0.33280000  0.45690000  1.0 -0.1090738374
C  C22  1  0.05690000  0.66720000  0.54310000  1.0 -0.1090738374
C  C23  1  0.87400000  0.40170000  0.38370000  1.0 -0.1047271799
C  C24  1  0.12600000  0.59830000  0.61630000  1.0 -0.1047271799
C  C25  1  0.91550000  0.52980000  0.39570000  1.0 -0.0227406583
C  C26  1  0.08450000  0.47020000  0.60430000  1.0 -0.0227406583
C  C27  1  0.02620000  0.58900000  0.48090000  1.0 -0.0118144957
C  C28  1  0.97380000  0.41100000  0.51910000  1.0 -0.0118144957
C  C29  1  0.09530000  0.52000000  0.55420000  1.0 -0.0227406583
C  C30  1  0.90470000  0.48000000  0.44580000  1.0 -0.0227406583
C  C31  1  0.84210000  0.60350000  0.32110000  1.0 -0.0707869093
C  C32  1  0.15790000  0.39650000  0.67890000  1.0 -0.0707869093
C  C33  1  0.82800000  0.71840000  0.34400000  1.0 -0.0303649909
C  C34  1  0.17200000  0.28160000  0.65600000  1.0 -0.0359830854
C  C35  1  0.66510000  0.24860000  0.79720000  1.0 0.0489597645
C  C36  1  0.33490000  0.75140000  0.20280000  1.0 0.0489597645
C  C37  1  0.76920000  0.34210000  0.78680000  1.0 -0.261103055
C  C38  1  0.23080000  0.65790000  0.21320000  1.0 -0.261103055
C  C39  1  0.79130000  0.45370000  0.86430000  1.0 0.1404596631
C  C40  1  0.20870000  0.54630000  0.13570000  1.0 0.1404596631
C  C41  1  0.70060000  0.46330000  0.94800000  1.0 -0.2160167109
C  C42  1  0.29940000  0.53670000  0.05200000  1.0 -0.2160167109
C  C43  1  0.59860000  0.36450000  0.95220000  1.0 0.0489597645
C  C44  1  0.40140000  0.63550000  0.04780000  1.0 0.0489597645
C  C45  1  0.90540000  0.55870000  0.85550000  1.0 -0.261103055
C  C46  1  0.09460000  0.44130000  0.14450000  1.0 -0.261103055
C  C47  1  0.87780000  0.68090000  0.88480000  1.0 -0.261103055
C  C48  1  0.12220000  0.31910000  0.11520000  1.0 -0.261103055
C  C49  1  0.99560000  0.78450000  0.88240000  1.0 0.1008082303
C  C50  1  0.00440000  0.21550000  0.11760000  1.0 0.1008082303
C  C51  1  0.06860000  0.79980000  0.78560000  1.0 -0.0873555477
C  C52  1  0.93140000  0.20020000  0.21440000  1.0 -0.0873555477
C  C53  1  0.18560000  0.88950000  0.79540000  1.0 -0.0303649909
C  C54  1  0.81440000  0.11050000  0.20460000  1.0 -0.0303649909
C  C55  1  0.17180000  0.95370000  0.99000000  1.0 -0.0118144957
C  C56  1  0.82820000  0.04630000  0.01000000  1.0 -0.0118144957
C  C57  1  0.06220000  0.85780000  0.98990000  1.0 -0.0707869093
C  C58  1  0.93780000  0.14220000  0.01010000  1.0 -0.0707869093
C  C59  1  0.98210000  0.87680000  0.80950000  1.0 -0.1663356434
C  C60  1  0.01790000  0.12320000  0.19050000  1.0 -0.1663356434
C  C61  1  0.10130000  0.96820000  0.81370000  1.0 -0.0466101925
C  C62  1  0.89870000  0.03180000  0.18630000  1.0 -0.0466101925
C  C63  1  0.21490000  0.89720000  0.95610000  1.0 0.0578992654
C  C64  1  0.78510000  0.10280000  0.04390000  1.0 0.0578992654
C  C65  1  0.11030000  0.80180000  0.95510000  1.0 -0.0568497862
C  C66  1  0.88970000  0.19820000  0.04490000  1.0 -0.0568497862
N  N1  1  0.57890000  0.25790000  0.87940000  1.0 -0.2502442795
N  N2  1  0.42110000  0.74210000  0.12060000  1.0 -0.2502442795
N  N3  1  0.22390000  0.97600000  0.88940000  1.0 -0.0359830854
N  N4  1  0.77610000  0.02400000  0.11060000  1.0 -0.0359830854
O  O1  1  0.51750000  0.98740000  0.83800000  1.0 -0.5678913753
O  O2  1  0.48250000  0.01260000  0.16200000  1.0 -0.5678913753
O  O3  1  0.56590000  0.83330000  0.93280000  1.0 -0.5461166362
O  O4  1  0.43410000  0.16670000  0.06720000  1.0 -0.5461166362
O  O5  1  0.27400000  0.25940000  0.86160000  1.0 -0.508264647
O  O6  1  0.72600000  0.74060000  0.13840000  1.0 -0.508264647
O  O7  1  0.31580000  0.13820000  0.70910000  1.0 -0.5012392859
O  O8  1  0.68420000  0.86180000  0.29090000  1.0 -0.5012392859
