# DDEC6 charges by PACMAN v1.1 (https://github.com/mtap-research/PACMAN-charge/)
data_VONCOS_ASR_pacman
_symmetry_space_group_name_H-M   'P 1'
_cell_length_a   5.15090000
_cell_length_b   24.40800000
_cell_length_c   27.82700000
_cell_angle_alpha   90.00000000
_cell_angle_beta   90.00000000
_cell_angle_gamma   90.00000000
_symmetry_Int_Tables_number   1
_chemical_formula_structural   Zn3P4H22(C5O6)2
_chemical_formula_sum   'Zn12 P16 H88 C40 O48'
_cell_volume   3498.49857367
_cell_formula_units_Z   4
loop_
 _symmetry_equiv_pos_site_id
 _symmetry_equiv_pos_as_xyz
  1  'x, y, z'
loop_
 _atom_site_type_symbol
 _atom_site_label
 _atom_site_symmetry_multiplicity
 _atom_site_fract_x
 _atom_site_fract_y
 _atom_site_fract_z
 _atom_site_occupancy
 _atom_site_charge
Zn  Zn1  1  0.28711000  0.21491000  0.20070000  1.0 1.0602904523
Zn  Zn2  1  0.28711000  0.78509000  0.79930000  1.0 1.0602904523
Zn  Zn3  1  0.71289000  0.28509000  0.70070000  1.0 1.0602904523
Zn  Zn4  1  0.71289000  0.71491000  0.29930000  1.0 1.0602904523
Zn  Zn5  1  0.71289000  0.28509000  0.29930000  1.0 1.0602904523
Zn  Zn6  1  0.71289000  0.71491000  0.70070000  1.0 1.0602904523
Zn  Zn7  1  0.28711000  0.21491000  0.79930000  1.0 1.0602904523
Zn  Zn8  1  0.28711000  0.78509000  0.20070000  1.0 1.0602904523
Zn  Zn9  1  0.30610000  0.21138000  0.00000000  1.0 1.1369664634
Zn  Zn10  1  0.30610000  0.78862000  0.00000000  1.0 1.1369664634
Zn  Zn11  1  0.69390000  0.28862000  0.50000000  1.0 1.1369664634
Zn  Zn12  1  0.69390000  0.71138000  0.50000000  1.0 1.1369664634
P  P1  1  0.22400000  0.33125000  0.25163000  1.0 1.3353092636
P  P2  1  0.22400000  0.66875000  0.74837000  1.0 1.3353092636
P  P3  1  0.77600000  0.16875000  0.75163000  1.0 1.3353092636
P  P4  1  0.77600000  0.83125000  0.24837000  1.0 1.3353092636
P  P5  1  0.77600000  0.16875000  0.24837000  1.0 1.3308290076
P  P6  1  0.77600000  0.83125000  0.75163000  1.0 1.3353092636
P  P7  1  0.22400000  0.33125000  0.74837000  1.0 1.3353092636
P  P8  1  0.22400000  0.66875000  0.25163000  1.0 1.3353092636
P  P9  1  0.07680000  0.16671000  0.10413000  1.0 1.3308290076
P  P10  1  0.07680000  0.83329000  0.89587000  1.0 1.3308290076
P  P11  1  0.92320000  0.33329000  0.60413000  1.0 1.3308290076
P  P12  1  0.92320000  0.66666667  0.39587000  1.0 1.3308290076
P  P13  1  0.92320000  0.33329000  0.39587000  1.0 1.3308290076
P  P14  1  0.92320000  0.66666667  0.60413000  1.0 1.3308290076
P  P15  1  0.07680000  0.16671000  0.89587000  1.0 1.3308290076
P  P16  1  0.07680000  0.83329000  0.10413000  1.0 1.3308290076
H  H1  1  0.74620000  0.16360000  0.14260000  1.0 0.3792678083
H  H2  1  0.74620000  0.83640000  0.85740000  1.0 0.3792678083
H  H3  1  0.25380000  0.33640000  0.64260000  1.0 0.3792678083
H  H4  1  0.25380000  0.66360000  0.35740000  1.0 0.3792678083
H  H5  1  0.25380000  0.33640000  0.35740000  1.0 0.3792678083
H  H6  1  0.25380000  0.66360000  0.64260000  1.0 0.3792678083
H  H7  1  0.74620000  0.16360000  0.85740000  1.0 0.3792678083
H  H8  1  0.74620000  0.83640000  0.14260000  1.0 0.3792678083
H  H9  1  0.50580000  0.39900000  0.22750000  1.0 0.147830928
H  H10  1  0.50580000  0.60100000  0.77250000  1.0 0.147830928
H  H11  1  0.49420000  0.10100000  0.72750000  1.0 0.147830928
H  H12  1  0.49420000  0.89900000  0.27250000  1.0 0.147830928
H  H13  1  0.49420000  0.10100000  0.27250000  1.0 0.147830928
H  H14  1  0.49420000  0.89900000  0.72750000  1.0 0.147830928
H  H15  1  0.50580000  0.39900000  0.77250000  1.0 0.147830928
H  H16  1  0.50580000  0.60100000  0.22750000  1.0 0.147830928
H  H17  1  0.24290000  0.40230000  0.19740000  1.0 0.1386925208
H  H18  1  0.24290000  0.59770000  0.80260000  1.0 0.1386925208
H  H19  1  0.75710000  0.09770000  0.69740000  1.0 0.1386925208
H  H20  1  0.75710000  0.90230000  0.30260000  1.0 0.1386925208
H  H21  1  0.75710000  0.09770000  0.30260000  1.0 0.1386925208
H  H22  1  0.75710000  0.90230000  0.69740000  1.0 0.1386925208
H  H23  1  0.24290000  0.40230000  0.80260000  1.0 0.1386925208
H  H24  1  0.24290000  0.59770000  0.19740000  1.0 0.1386925208
H  H25  1  0.88320000  0.05170000  0.11140000  1.0 0.0996485676
H  H26  1  0.88320000  0.94830000  0.88860000  1.0 0.0996485676
H  H27  1  0.11680000  0.44830000  0.61140000  1.0 0.0996485676
H  H28  1  0.11680000  0.55170000  0.38860000  1.0 0.0996485676
H  H29  1  0.11680000  0.44830000  0.38860000  1.0 0.0996485676
H  H30  1  0.11680000  0.55170000  0.61140000  1.0 0.0996485676
H  H31  1  0.88320000  0.05170000  0.88860000  1.0 0.0996485676
H  H32  1  0.88320000  0.94830000  0.11140000  1.0 0.0996485676
H  H33  1  0.09080000  0.05310000  0.06860000  1.0 0.1104455574
H  H34  1  0.09080000  0.94690000  0.93140000  1.0 0.1104455574
H  H35  1  0.90920000  0.44690000  0.56860000  1.0 0.1104455574
H  H36  1  0.90920000  0.55310000  0.43140000  1.0 0.1104455574
H  H37  1  0.90920000  0.44690000  0.43140000  1.0 0.1104455574
H  H38  1  0.90920000  0.55310000  0.56860000  1.0 0.1104455574
H  H39  1  0.09080000  0.05310000  0.93140000  1.0 0.1104455574
H  H40  1  0.09080000  0.94690000  0.06860000  1.0 0.1104455574
H  H41  1  0.38500000  0.10080000  0.11990000  1.0 0.147830928
H  H42  1  0.38500000  0.89920000  0.88010000  1.0 0.147830928
H  H43  1  0.61500000  0.39920000  0.61990000  1.0 0.147830928
H  H44  1  0.61500000  0.60080000  0.38010000  1.0 0.147830928
H  H45  1  0.61500000  0.39920000  0.38010000  1.0 0.147830928
H  H46  1  0.61500000  0.60080000  0.61990000  1.0 0.147830928
H  H47  1  0.38500000  0.10080000  0.88010000  1.0 0.147830928
H  H48  1  0.38500000  0.89920000  0.11990000  1.0 0.147830928
H  H49  1  0.16940000  0.10120000  0.16110000  1.0 0.1386925208
H  H50  1  0.16940000  0.89880000  0.83890000  1.0 0.1386925208
H  H51  1  0.83060000  0.39880000  0.66110000  1.0 0.1386925208
H  H52  1  0.83060000  0.60120000  0.33890000  1.0 0.1386925208
H  H53  1  0.83060000  0.39880000  0.33890000  1.0 0.1386925208
H  H54  1  0.83060000  0.60120000  0.66110000  1.0 0.1386925208
H  H55  1  0.16940000  0.10120000  0.83890000  1.0 0.1386925208
H  H56  1  0.16940000  0.89880000  0.16110000  1.0 0.1386925208
H  H57  1  0.03760000  0.44710000  0.26220000  1.0 0.0996485676
H  H58  1  0.03760000  0.55290000  0.73780000  1.0 0.0996485676
H  H59  1  0.96240000  0.05290000  0.76220000  1.0 0.0996485676
H  H60  1  0.96240000  0.94710000  0.23780000  1.0 0.0996485676
H  H61  1  0.96240000  0.05290000  0.23780000  1.0 0.0996485676
H  H62  1  0.96240000  0.94710000  0.76220000  1.0 0.0996485676
H  H63  1  0.03760000  0.44710000  0.73780000  1.0 0.0996485676
H  H64  1  0.03760000  0.55290000  0.26220000  1.0 0.0996485676
H  H65  1  0.30030000  0.44340000  0.29280000  1.0 0.0996485676
H  H66  1  0.30030000  0.55660000  0.70720000  1.0 0.0996485676
H  H67  1  0.69970000  0.05660000  0.79280000  1.0 0.0996485676
H  H68  1  0.69970000  0.94340000  0.20720000  1.0 0.0996485676
H  H69  1  0.69970000  0.05660000  0.20720000  1.0 0.0996485676
H  H70  1  0.69970000  0.94340000  0.79280000  1.0 0.0996485676
H  H71  1  0.30030000  0.44340000  0.70720000  1.0 0.0996485676
H  H72  1  0.30030000  0.55660000  0.29280000  1.0 0.0996485676
H  H73  1  0.26870000  0.50000000  0.20370000  1.0 0.0996485676
H  H74  1  0.26870000  0.50000000  0.79630000  1.0 0.0996485676
H  H75  1  0.73130000  0.00000000  0.70370000  1.0 0.0996485676
H  H76  1  0.73130000  0.00000000  0.29630000  1.0 0.0996485676
H  H77  1  0.51320000  0.50000000  0.23870000  1.0 0.0996485676
H  H78  1  0.51320000  0.50000000  0.76130000  1.0 0.0996485676
H  H79  1  0.48680000  0.00000000  0.73870000  1.0 0.0996485676
H  H80  1  0.48680000  0.00000000  0.26130000  1.0 0.0996485676
H  H81  1  0.17860000  0.00000000  0.15810000  1.0 0.1104455574
H  H82  1  0.17860000  0.00000000  0.84190000  1.0 0.1104455574
H  H83  1  0.82140000  0.50000000  0.65810000  1.0 0.1104455574
H  H84  1  0.82140000  0.50000000  0.34190000  1.0 0.1104455574
H  H85  1  0.37780000  0.00000000  0.11410000  1.0 0.1104455574
H  H86  1  0.37780000  0.00000000  0.88590000  1.0 0.1104455574
H  H87  1  0.62220000  0.50000000  0.61410000  1.0 0.1104455574
H  H88  1  0.62220000  0.50000000  0.38590000  1.0 0.1104455574
C  C1  1  0.31420000  0.39790000  0.23020000  1.0 -0.4712941681
C  C2  1  0.31420000  0.60210000  0.76980000  1.0 -0.4712941681
C  C3  1  0.68580000  0.10210000  0.73020000  1.0 -0.4712941681
C  C4  1  0.68580000  0.89790000  0.26980000  1.0 -0.4712941681
C  C5  1  0.68580000  0.10210000  0.26980000  1.0 -0.4712941681
C  C6  1  0.68580000  0.89790000  0.73020000  1.0 -0.4712941681
C  C7  1  0.31420000  0.39790000  0.76980000  1.0 -0.4712941681
C  C8  1  0.31420000  0.60210000  0.23020000  1.0 -0.4712941681
C  C9  1  0.07120000  0.05180000  0.10390000  1.0 -0.1080095048
C  C10  1  0.07120000  0.94820000  0.89610000  1.0 -0.1080095048
C  C11  1  0.92880000  0.44820000  0.60390000  1.0 -0.1080095048
C  C12  1  0.92880000  0.55180000  0.39610000  1.0 -0.1080095048
C  C13  1  0.92880000  0.44820000  0.39610000  1.0 -0.1080095048
C  C14  1  0.92880000  0.55180000  0.60390000  1.0 -0.1080095048
C  C15  1  0.07120000  0.05180000  0.89610000  1.0 -0.1080095048
C  C16  1  0.07120000  0.94820000  0.10390000  1.0 -0.1080095048
C  C17  1  0.19570000  0.10240000  0.12590000  1.0 -0.5293896233
C  C18  1  0.19570000  0.89760000  0.87410000  1.0 -0.5293896233
C  C19  1  0.80430000  0.39760000  0.62590000  1.0 -0.5293896233
C  C20  1  0.80430000  0.60240000  0.37410000  1.0 -0.5293896233
C  C21  1  0.80430000  0.39760000  0.37410000  1.0 -0.5293896233
C  C22  1  0.80430000  0.60240000  0.62590000  1.0 -0.5293896233
C  C23  1  0.19570000  0.10240000  0.87410000  1.0 -0.5293896233
C  C24  1  0.19570000  0.89760000  0.12590000  1.0 -0.5293896233
C  C25  1  0.22940000  0.44680000  0.25980000  1.0 -0.124807093
C  C26  1  0.22940000  0.55320000  0.74020000  1.0 -0.124807093
C  C27  1  0.77060000  0.05320000  0.75980000  1.0 -0.124807093
C  C28  1  0.77060000  0.94680000  0.24020000  1.0 -0.1251223122
C  C29  1  0.77060000  0.05320000  0.24020000  1.0 -0.124807093
C  C30  1  0.77060000  0.94680000  0.75980000  1.0 -0.124807093
C  C31  1  0.22940000  0.44680000  0.74020000  1.0 -0.124807093
C  C32  1  0.22940000  0.55320000  0.25980000  1.0 -0.124807093
C  C33  1  0.32100000  0.50000000  0.23790000  1.0 -0.162493888
C  C34  1  0.32100000  0.50000000  0.76210000  1.0 -0.162493888
C  C35  1  0.67900000  0.00000000  0.73790000  1.0 -0.162493888
C  C36  1  0.67900000  0.00000000  0.26210000  1.0 -0.162493888
C  C37  1  0.19100000  0.00000000  0.12260000  1.0 -0.1763597314
C  C38  1  0.19100000  0.00000000  0.87740000  1.0 -0.1763597314
C  C39  1  0.80900000  0.50000000  0.62260000  1.0 -0.1763597314
C  C40  1  0.80900000  0.50000000  0.37740000  1.0 -0.1763597314
O  O1  1  0.93600000  0.32957000  0.25970000  1.0 -0.7873315101
O  O2  1  0.93600000  0.67043000  0.74030000  1.0 -0.7873315101
O  O3  1  0.06400000  0.17043000  0.75970000  1.0 -0.7873315101
O  O4  1  0.06400000  0.82957000  0.24030000  1.0 -0.7873315101
O  O5  1  0.06400000  0.17043000  0.24030000  1.0 -0.7873315101
O  O6  1  0.06400000  0.82957000  0.75970000  1.0 -0.7873315101
O  O7  1  0.93600000  0.32957000  0.74030000  1.0 -0.7873315101
O  O8  1  0.93600000  0.67043000  0.25970000  1.0 -0.7873315101
O  O9  1  0.31870000  0.29170000  0.21270000  1.0 -0.7801443373
O  O10  1  0.31870000  0.70830000  0.78730000  1.0 -0.7801443373
O  O11  1  0.68130000  0.20830000  0.71270000  1.0 -0.7801443373
O  O12  1  0.68130000  0.79170000  0.28730000  1.0 -0.7801443373
O  O13  1  0.68130000  0.20830000  0.28730000  1.0 -0.7801443373
O  O14  1  0.68130000  0.79170000  0.71270000  1.0 -0.7801443373
O  O15  1  0.31870000  0.29170000  0.78730000  1.0 -0.7801443373
O  O16  1  0.31870000  0.70830000  0.21270000  1.0 -0.7801443373
O  O17  1  0.37220000  0.31970000  0.29847000  1.0 -0.7873315101
O  O18  1  0.37220000  0.68030000  0.70153000  1.0 -0.7873315101
O  O19  1  0.62780000  0.18030000  0.79847000  1.0 -0.7873315101
O  O20  1  0.62780000  0.81970000  0.20153000  1.0 -0.7873315101
O  O21  1  0.62780000  0.18030000  0.20153000  1.0 -0.7873315101
O  O22  1  0.62780000  0.81970000  0.79847000  1.0 -0.7873315101
O  O23  1  0.37220000  0.31970000  0.70153000  1.0 -0.7873315101
O  O24  1  0.37220000  0.68030000  0.29847000  1.0 -0.7873315101
O  O25  1  0.19910000  0.21338000  0.13250000  1.0 -0.7619413582
O  O26  1  0.19910000  0.78662000  0.86750000  1.0 -0.7619413582
O  O27  1  0.80090000  0.28662000  0.63250000  1.0 -0.7619413582
O  O28  1  0.80090000  0.71338000  0.36750000  1.0 -0.7619413582
O  O29  1  0.80090000  0.28662000  0.36750000  1.0 -0.7619413582
O  O30  1  0.80090000  0.71338000  0.63250000  1.0 -0.7619413582
O  O31  1  0.19910000  0.21338000  0.86750000  1.0 -0.7619413582
O  O32  1  0.19910000  0.78662000  0.13250000  1.0 -0.7619413582
O  O33  1  0.77570000  0.16590000  0.11300000  1.0 -0.5843177274
O  O34  1  0.77570000  0.83410000  0.88700000  1.0 -0.5843177274
O  O35  1  0.22430000  0.33410000  0.61300000  1.0 -0.5843177274
O  O36  1  0.22430000  0.66590000  0.38700000  1.0 -0.585028175
O  O37  1  0.22430000  0.33410000  0.38700000  1.0 -0.585028175
O  O38  1  0.22430000  0.66590000  0.61300000  1.0 -0.5843177274
O  O39  1  0.77570000  0.16590000  0.88700000  1.0 -0.5843177274
O  O40  1  0.77570000  0.83410000  0.11300000  1.0 -0.5843177274
O  O41  1  0.10510000  0.17110000  0.05120000  1.0 -0.7619413582
O  O42  1  0.10510000  0.82890000  0.94880000  1.0 -0.7619413582
O  O43  1  0.89490000  0.32890000  0.55120000  1.0 -0.7619413582
O  O44  1  0.89490000  0.67110000  0.44880000  1.0 -0.7619413582
O  O45  1  0.89490000  0.32890000  0.44880000  1.0 -0.7619413582
O  O46  1  0.89490000  0.67110000  0.55120000  1.0 -0.7619413582
O  O47  1  0.10510000  0.17110000  0.94880000  1.0 -0.7619413582
O  O48  1  0.10510000  0.82890000  0.05120000  1.0 -0.7619413582
