# DDEC6 charges by PACMAN v1.1 (https://github.com/mtap-research/PACMAN-charge/)
data_VONMIX_ASR_pacman
_symmetry_space_group_name_H-M   'P 1'
_cell_length_a   5.80370000
_cell_length_b   13.18730000
_cell_length_c   23.83490000
_cell_angle_alpha   90.00000000
_cell_angle_beta   90.00000000
_cell_angle_gamma   90.00000000
_symmetry_Int_Tables_number   1
_chemical_formula_structural   CuH12C16N2O5
_chemical_formula_sum   'Cu4 H48 C64 N8 O20'
_cell_volume   1824.20724178
_cell_formula_units_Z   4
loop_
 _symmetry_equiv_pos_site_id
 _symmetry_equiv_pos_as_xyz
  1  'x, y, z'
loop_
 _atom_site_type_symbol
 _atom_site_label
 _atom_site_symmetry_multiplicity
 _atom_site_fract_x
 _atom_site_fract_y
 _atom_site_fract_z
 _atom_site_occupancy
 _atom_site_charge
Cu  Cu1  1  0.95643000  0.51640000  0.62599000  1.0 0.4168025529
Cu  Cu2  1  0.04357000  0.01640000  0.37401000  1.0 0.4168025529
Cu  Cu3  1  0.04357000  0.51640000  0.12599000  1.0 0.4168025529
Cu  Cu4  1  0.95643000  0.01640000  0.87401000  1.0 0.4168025529
H  H1  1  0.77057000  0.91789000  0.46852000  1.0 0.111821582
H  H2  1  0.79137000  0.77846000  0.52682000  1.0 0.1414950615
H  H3  1  0.37970000  0.70500000  0.45209000  1.0 0.1414950615
H  H4  1  0.33670000  0.84013000  0.39389000  1.0 0.097948262
H  H5  1  0.27991000  0.69922000  0.63626000  1.0 0.1189591996
H  H6  1  0.34774000  0.83260000  0.69729000  1.0 0.097948262
H  H7  1  0.76577000  0.60196000  0.72963000  1.0 0.111821582
H  H8  1  0.79703000  0.74114000  0.78484000  1.0 0.1189591996
H  H9  1  0.27182000  0.55855000  0.72397000  1.0 0.111821582
H  H10  1  0.33647000  0.68448000  0.79118000  1.0 0.097948262
H  H11  1  0.78830000  0.72211000  0.65340000  1.0 0.1189591996
H  H12  1  0.81650000  0.84152000  0.72189000  1.0 0.1189591996
H  H13  1  0.22943000  0.41789000  0.53148000  1.0 0.111821582
H  H14  1  0.20863000  0.27846000  0.47318000  1.0 0.1414950615
H  H15  1  0.62030000  0.20500000  0.54791000  1.0 0.1414950615
H  H16  1  0.66330000  0.34013000  0.60611000  1.0 0.097948262
H  H17  1  0.72009000  0.19922000  0.36374000  1.0 0.1189591996
H  H18  1  0.65226000  0.33260000  0.30271000  1.0 0.097948262
H  H19  1  0.23423000  0.10196000  0.27037000  1.0 0.111821582
H  H20  1  0.20297000  0.24114000  0.21516000  1.0 0.1189591996
H  H21  1  0.72818000  0.05855000  0.27603000  1.0 0.111821582
H  H22  1  0.66353000  0.18448000  0.20882000  1.0 0.097948262
H  H23  1  0.21170000  0.22211000  0.34660000  1.0 0.1189591996
H  H24  1  0.18350000  0.34152000  0.27811000  1.0 0.1189591996
H  H25  1  0.22943000  0.91789000  0.96852000  1.0 0.111821582
H  H26  1  0.20863000  0.77846000  0.02682000  1.0 0.1414950615
H  H27  1  0.62030000  0.70500000  0.95209000  1.0 0.1414950615
H  H28  1  0.66330000  0.84013000  0.89389000  1.0 0.097948262
H  H29  1  0.72009000  0.69922000  0.13626000  1.0 0.1189591996
H  H30  1  0.65226000  0.83260000  0.19729000  1.0 0.097948262
H  H31  1  0.23423000  0.60196000  0.22963000  1.0 0.111821582
H  H32  1  0.20297000  0.74114000  0.28484000  1.0 0.1189591996
H  H33  1  0.72818000  0.55855000  0.22397000  1.0 0.111821582
H  H34  1  0.66353000  0.68448000  0.29118000  1.0 0.097948262
H  H35  1  0.21170000  0.72211000  0.15340000  1.0 0.1189591996
H  H36  1  0.18350000  0.84152000  0.22189000  1.0 0.1189591996
H  H37  1  0.77057000  0.41789000  0.03148000  1.0 0.111821582
H  H38  1  0.79137000  0.27846000  0.97318000  1.0 0.1414950615
H  H39  1  0.37970000  0.20500000  0.04791000  1.0 0.1414950615
H  H40  1  0.33670000  0.34013000  0.10611000  1.0 0.097948262
H  H41  1  0.27991000  0.19922000  0.86374000  1.0 0.1189591996
H  H42  1  0.34774000  0.33260000  0.80271000  1.0 0.097948262
H  H43  1  0.76577000  0.10196000  0.77037000  1.0 0.111821582
H  H44  1  0.79703000  0.24114000  0.71516000  1.0 0.1189591996
H  H45  1  0.27182000  0.05855000  0.77603000  1.0 0.111821582
H  H46  1  0.33647000  0.18448000  0.70882000  1.0 0.097948262
H  H47  1  0.78830000  0.22211000  0.84660000  1.0 0.1189591996
H  H48  1  0.81650000  0.34152000  0.77811000  1.0 0.1189591996
C  C1  1  0.89500000  0.87400000  0.46490000  1.0 0.097948262
C  C2  1  0.90700000  0.79040000  0.50070000  1.0 -0.158274751
C  C3  1  0.09250000  0.72630000  0.49690000  1.0 0.0391410398
C  C4  1  0.25230000  0.74710000  0.45620000  1.0 -0.15029149
C  C5  1  0.22710000  0.82900000  0.42170000  1.0 0.0486268191
C  C6  1  0.12660000  0.63980000  0.53740000  1.0 0.5287197805
C  C7  1  0.19400000  0.70420000  0.66900000  1.0 -0.0039543277
C  C8  1  0.23500000  0.78410000  0.70470000  1.0 -0.158274751
C  C9  1  0.08790000  0.78790000  0.75650000  1.0 0.0230001169
C  C10  1  0.88600000  0.64720000  0.72320000  1.0 -0.0186272511
C  C11  1  0.91100000  0.72830000  0.75840000  1.0 -0.0502545624
C  C12  1  0.12620000  0.87240000  0.79850000  1.0 0.433390384
C  C13  1  0.18800000  0.61860000  0.72230000  1.0 -0.0186272511
C  C14  1  0.22900000  0.69290000  0.76260000  1.0 -0.1874349849
C  C15  1  0.90000000  0.71380000  0.68100000  1.0 0.0037659206
C  C16  1  0.92300000  0.78890000  0.72090000  1.0 -0.0502545624
C  C17  1  0.10500000  0.37400000  0.53510000  1.0 0.097948262
C  C18  1  0.09300000  0.29040000  0.49930000  1.0 -0.158274751
C  C19  1  0.90750000  0.22630000  0.50310000  1.0 0.0391410398
C  C20  1  0.74770000  0.24710000  0.54380000  1.0 -0.15029149
C  C21  1  0.77290000  0.32900000  0.57830000  1.0 0.0486268191
C  C22  1  0.87340000  0.13980000  0.46260000  1.0 0.5287197805
C  C23  1  0.80600000  0.20420000  0.33100000  1.0 -0.0039543277
C  C24  1  0.76500000  0.28410000  0.29530000  1.0 -0.158274751
C  C25  1  0.91210000  0.28790000  0.24350000  1.0 0.0230001169
C  C26  1  0.11400000  0.14720000  0.27680000  1.0 -0.0186272511
C  C27  1  0.08900000  0.22830000  0.24160000  1.0 -0.0502545624
C  C28  1  0.87380000  0.37240000  0.20150000  1.0 0.433390384
C  C29  1  0.81200000  0.11860000  0.27770000  1.0 -0.0186272511
C  C30  1  0.77100000  0.19290000  0.23740000  1.0 -0.1874349849
C  C31  1  0.10000000  0.21380000  0.31900000  1.0 0.0037659206
C  C32  1  0.07700000  0.28890000  0.27910000  1.0 -0.0502545624
C  C33  1  0.10500000  0.87400000  0.96490000  1.0 0.097948262
C  C34  1  0.09300000  0.79040000  0.00070000  1.0 -0.158274751
C  C35  1  0.90750000  0.72630000  0.99690000  1.0 0.0391410398
C  C36  1  0.74770000  0.74710000  0.95620000  1.0 -0.15029149
C  C37  1  0.77290000  0.82900000  0.92170000  1.0 0.0486268191
C  C38  1  0.87340000  0.63980000  0.03740000  1.0 0.5287197805
C  C39  1  0.80600000  0.70420000  0.16900000  1.0 -0.0039543277
C  C40  1  0.76500000  0.78410000  0.20470000  1.0 -0.158274751
C  C41  1  0.91210000  0.78790000  0.25650000  1.0 0.0230001169
C  C42  1  0.11400000  0.64720000  0.22320000  1.0 -0.0186272511
C  C43  1  0.08900000  0.72830000  0.25840000  1.0 -0.0502545624
C  C44  1  0.87380000  0.87240000  0.29850000  1.0 0.433390384
C  C45  1  0.81200000  0.61860000  0.22230000  1.0 -0.0186272511
C  C46  1  0.77100000  0.69290000  0.26260000  1.0 -0.1874349849
C  C47  1  0.10000000  0.71380000  0.18100000  1.0 0.0037659206
C  C48  1  0.07700000  0.78890000  0.22090000  1.0 -0.0502545624
C  C49  1  0.89500000  0.37400000  0.03510000  1.0 0.097948262
C  C50  1  0.90700000  0.29040000  0.99930000  1.0 -0.158274751
C  C51  1  0.09250000  0.22630000  0.00310000  1.0 0.0391410398
C  C52  1  0.25230000  0.24710000  0.04380000  1.0 -0.15029149
C  C53  1  0.22710000  0.32900000  0.07830000  1.0 0.0486268191
C  C54  1  0.12660000  0.13980000  0.96260000  1.0 0.5287197805
C  C55  1  0.19400000  0.20420000  0.83100000  1.0 -0.0039543277
C  C56  1  0.23500000  0.28410000  0.79530000  1.0 -0.158274751
C  C57  1  0.08790000  0.28790000  0.74350000  1.0 0.0230001169
C  C58  1  0.88600000  0.14720000  0.77680000  1.0 -0.0186272511
C  C59  1  0.91100000  0.22830000  0.74160000  1.0 -0.0502545624
C  C60  1  0.12620000  0.37240000  0.70150000  1.0 0.433390384
C  C61  1  0.18800000  0.11860000  0.77770000  1.0 -0.0186272511
C  C62  1  0.22900000  0.19290000  0.73740000  1.0 -0.1874349849
C  C63  1  0.90000000  0.21380000  0.81900000  1.0 0.0037659206
C  C64  1  0.92300000  0.28890000  0.77910000  1.0 -0.0502545624
N  N1  1  0.05000000  0.89390000  0.42630000  1.0 -0.2084761626
N  N2  1  0.02730000  0.63050000  0.67980000  1.0 -0.0039543277
N  N3  1  0.95000000  0.39390000  0.57370000  1.0 -0.2084761626
N  N4  1  0.97270000  0.13050000  0.32020000  1.0 -0.0039543277
N  N5  1  0.95000000  0.89390000  0.92630000  1.0 -0.2084761626
N  N6  1  0.97270000  0.63050000  0.17980000  1.0 -0.0039543277
N  N7  1  0.05000000  0.39390000  0.07370000  1.0 -0.2084761626
N  N8  1  0.02730000  0.13050000  0.82020000  1.0 -0.0039543277
O  O1  1  0.95330000  0.61270000  0.56440000  1.0 -0.5277638832
O  O2  1  0.32240000  0.60250000  0.54120000  1.0 -0.5508365804
O  O3  1  0.95210000  0.92110000  0.81180000  1.0 -0.5277638832
O  O4  1  0.32000000  0.87190000  0.82540000  1.0 -0.158274751
O  O5  1  0.32300000  0.91700000  0.79780000  1.0 -0.2084761626
O  O6  1  0.04670000  0.11270000  0.43560000  1.0 -0.5277638832
O  O7  1  0.67760000  0.10250000  0.45880000  1.0 -0.5508365804
O  O8  1  0.04790000  0.42110000  0.18820000  1.0 -0.5277638832
O  O9  1  0.68000000  0.37190000  0.17460000  1.0 -0.158274751
O  O10  1  0.67700000  0.41700000  0.20220000  1.0 -0.2084761626
O  O11  1  0.04670000  0.61270000  0.06440000  1.0 -0.5277638832
O  O12  1  0.67760000  0.60250000  0.04120000  1.0 -0.5508365804
O  O13  1  0.04790000  0.92110000  0.31180000  1.0 -0.5277638832
O  O14  1  0.68000000  0.87190000  0.32540000  1.0 -0.158274751
O  O15  1  0.67700000  0.91700000  0.29780000  1.0 -0.2084761626
O  O16  1  0.95330000  0.11270000  0.93560000  1.0 -0.5277638832
O  O17  1  0.32240000  0.10250000  0.95880000  1.0 -0.5508365804
O  O18  1  0.95210000  0.42110000  0.68820000  1.0 -0.5277638832
O  O19  1  0.32000000  0.37190000  0.67460000  1.0 -0.158274751
O  O20  1  0.32300000  0.41700000  0.70220000  1.0 -0.2004427487
