# DDEC6 charges by PACMAN v1.1 (https://github.com/mtap-research/PACMAN-charge/)
data_VONROH_ASR_pacman
_symmetry_space_group_name_H-M   'P 1'
_cell_length_a   6.97370000
_cell_length_b   21.96300000
_cell_length_c   23.27900000
_cell_angle_alpha   90.00000000
_cell_angle_beta   90.00000000
_cell_angle_gamma   90.00000000
_symmetry_Int_Tables_number   1
_chemical_formula_structural   PrH5C12(NO5)2
_chemical_formula_sum   'Pr8 H40 C96 N16 O80'
_cell_volume   3565.49016239
_cell_formula_units_Z   8
loop_
 _symmetry_equiv_pos_site_id
 _symmetry_equiv_pos_as_xyz
  1  'x, y, z'
loop_
 _atom_site_type_symbol
 _atom_site_label
 _atom_site_symmetry_multiplicity
 _atom_site_fract_x
 _atom_site_fract_y
 _atom_site_fract_z
 _atom_site_occupancy
 _atom_site_charge
Pr  Pr1  1  0.57816000  0.23208000  0.05066000  1.0 2.0688500514
Pr  Pr2  1  0.92184000  0.76792000  0.55066000  1.0 2.0688500514
Pr  Pr3  1  0.07816000  0.26792000  0.94934000  1.0 2.0688500514
Pr  Pr4  1  0.42184000  0.73208000  0.44934000  1.0 2.0688500514
Pr  Pr5  1  0.42184000  0.76792000  0.94934000  1.0 2.0688500514
Pr  Pr6  1  0.07816000  0.23208000  0.44934000  1.0 2.0688500514
Pr  Pr7  1  0.92184000  0.73208000  0.05066000  1.0 2.0688500514
Pr  Pr8  1  0.57816000  0.26792000  0.55066000  1.0 2.0688500514
H  H1  1  0.55960000  0.15760000  0.73750000  1.0 0.089497376
H  H2  1  0.94040000  0.84240000  0.23750000  1.0 0.089497376
H  H3  1  0.05960000  0.34240000  0.26250000  1.0 0.089497376
H  H4  1  0.44040000  0.65760000  0.76250000  1.0 0.089497376
H  H5  1  0.44040000  0.84240000  0.26250000  1.0 0.089497376
H  H6  1  0.05960000  0.15760000  0.76250000  1.0 0.089497376
H  H7  1  0.94040000  0.65760000  0.73750000  1.0 0.089497376
H  H8  1  0.55960000  0.34240000  0.23750000  1.0 0.089497376
H  H9  1  0.59470000  0.32910000  0.85570000  1.0 0.1408885678
H  H10  1  0.90530000  0.67090000  0.35570000  1.0 0.1408885678
H  H11  1  0.09470000  0.17090000  0.14430000  1.0 0.1408885678
H  H12  1  0.40530000  0.82910000  0.64430000  1.0 0.1408885678
H  H13  1  0.40530000  0.67090000  0.14430000  1.0 0.1408885678
H  H14  1  0.09470000  0.32910000  0.64430000  1.0 0.1408885678
H  H15  1  0.90530000  0.82910000  0.85570000  1.0 0.1408885678
H  H16  1  0.59470000  0.17090000  0.35570000  1.0 0.1408885678
H  H17  1  0.58710000  0.33740000  0.75620000  1.0 0.129931282
H  H18  1  0.91290000  0.66260000  0.25620000  1.0 0.129931282
H  H19  1  0.08710000  0.16260000  0.24380000  1.0 0.129931282
H  H20  1  0.41290000  0.83740000  0.74380000  1.0 0.129931282
H  H21  1  0.41290000  0.66260000  0.24380000  1.0 0.129931282
H  H22  1  0.08710000  0.33740000  0.74380000  1.0 0.129931282
H  H23  1  0.91290000  0.83740000  0.75620000  1.0 0.129931282
H  H24  1  0.58710000  0.16260000  0.25620000  1.0 0.129931282
H  H25  1  0.63270000  0.43580000  0.06660000  1.0 0.1014619207
H  H26  1  0.86730000  0.56420000  0.56660000  1.0 0.1014619207
H  H27  1  0.13270000  0.06420000  0.93340000  1.0 0.1014619207
H  H28  1  0.36730000  0.93580000  0.43340000  1.0 0.1014619207
H  H29  1  0.36730000  0.56420000  0.93340000  1.0 0.1014619207
H  H30  1  0.13270000  0.43580000  0.43340000  1.0 0.1014619207
H  H31  1  0.86730000  0.93580000  0.06660000  1.0 0.1014619207
H  H32  1  0.63270000  0.06420000  0.56660000  1.0 0.1014619207
H  H33  1  0.30440000  0.46090000  0.92890000  1.0 0.1247837951
H  H34  1  0.19560000  0.53910000  0.42890000  1.0 0.1247837951
H  H35  1  0.80440000  0.03910000  0.07110000  1.0 0.1247837951
H  H36  1  0.69560000  0.96090000  0.57110000  1.0 0.1247837951
H  H37  1  0.69560000  0.53910000  0.07110000  1.0 0.1247837951
H  H38  1  0.80440000  0.46090000  0.57110000  1.0 0.1247837951
H  H39  1  0.19560000  0.96090000  0.92890000  1.0 0.1247837951
H  H40  1  0.30440000  0.03910000  0.42890000  1.0 0.1247837951
C  C1  1  0.57750000  0.25660000  0.67360000  1.0 0.5560212692
C  C2  1  0.92250000  0.74340000  0.17360000  1.0 0.5560212692
C  C3  1  0.07750000  0.24340000  0.32640000  1.0 0.5560212692
C  C4  1  0.42250000  0.75660000  0.82640000  1.0 0.5560212692
C  C5  1  0.42250000  0.74340000  0.32640000  1.0 0.5560212692
C  C6  1  0.07750000  0.25660000  0.82640000  1.0 0.5560212692
C  C7  1  0.92250000  0.75660000  0.67360000  1.0 0.5560212692
C  C8  1  0.57750000  0.24340000  0.17360000  1.0 0.5560212692
C  C9  1  0.57700000  0.25030000  0.73790000  1.0 -0.0054386487
C  C10  1  0.92300000  0.74970000  0.23790000  1.0 -0.0054386487
C  C11  1  0.07700000  0.24970000  0.26210000  1.0 -0.0054386487
C  C12  1  0.42300000  0.75030000  0.76210000  1.0 -0.0054386487
C  C13  1  0.42300000  0.74970000  0.26210000  1.0 -0.0054386487
C  C14  1  0.07700000  0.25030000  0.76210000  1.0 -0.0054386487
C  C15  1  0.92300000  0.75030000  0.73790000  1.0 -0.0054386487
C  C16  1  0.57700000  0.24970000  0.23790000  1.0 -0.0054386487
C  C17  1  0.56710000  0.19180000  0.76100000  1.0 -0.3168805877
C  C18  1  0.93290000  0.80820000  0.26100000  1.0 -0.3168805877
C  C19  1  0.06710000  0.30820000  0.23900000  1.0 -0.3168805877
C  C20  1  0.43290000  0.69180000  0.73900000  1.0 -0.3168805877
C  C21  1  0.43290000  0.80820000  0.23900000  1.0 -0.3168805877
C  C22  1  0.06710000  0.19180000  0.73900000  1.0 -0.3168805877
C  C23  1  0.93290000  0.69180000  0.76100000  1.0 -0.3168805877
C  C24  1  0.56710000  0.30820000  0.26100000  1.0 -0.3168805877
C  C25  1  0.56880000  0.18670000  0.82010000  1.0 0.063354071
C  C26  1  0.93120000  0.81330000  0.32010000  1.0 0.063354071
C  C27  1  0.06880000  0.31330000  0.17990000  1.0 0.063354071
C  C28  1  0.43120000  0.68670000  0.67990000  1.0 0.063354071
C  C29  1  0.43120000  0.81330000  0.17990000  1.0 0.063354071
C  C30  1  0.06880000  0.18670000  0.67990000  1.0 0.063354071
C  C31  1  0.93120000  0.68670000  0.82010000  1.0 0.063354071
C  C32  1  0.56880000  0.31330000  0.32010000  1.0 0.063354071
C  C33  1  0.57320000  0.23610000  0.85750000  1.0 -0.1352873931
C  C34  1  0.92680000  0.76390000  0.35750000  1.0 -0.1352873931
C  C35  1  0.07320000  0.26390000  0.14250000  1.0 -0.1352873931
C  C36  1  0.42680000  0.73610000  0.64250000  1.0 -0.1352873931
C  C37  1  0.42680000  0.76390000  0.14250000  1.0 -0.1352873931
C  C38  1  0.07320000  0.23610000  0.64250000  1.0 -0.1352873931
C  C39  1  0.92680000  0.73610000  0.85750000  1.0 -0.1352873931
C  C40  1  0.57320000  0.26390000  0.35750000  1.0 -0.1352873931
C  C41  1  0.58550000  0.29450000  0.83280000  1.0 -0.0905750666
C  C42  1  0.91450000  0.70550000  0.33280000  1.0 -0.0905750666
C  C43  1  0.08550000  0.20550000  0.16720000  1.0 -0.0905750666
C  C44  1  0.41450000  0.79450000  0.66720000  1.0 -0.0905750666
C  C45  1  0.41450000  0.70550000  0.16720000  1.0 -0.0905750666
C  C46  1  0.08550000  0.29450000  0.66720000  1.0 -0.0905750666
C  C47  1  0.91450000  0.79450000  0.83280000  1.0 -0.0905750666
C  C48  1  0.58550000  0.20550000  0.33280000  1.0 -0.0905750666
C  C49  1  0.58360000  0.29890000  0.77270000  1.0 -0.0905750666
C  C50  1  0.91640000  0.70110000  0.27270000  1.0 -0.0905750666
C  C51  1  0.08360000  0.20110000  0.22730000  1.0 -0.0905750666
C  C52  1  0.41640000  0.79890000  0.72730000  1.0 -0.0905750666
C  C53  1  0.41640000  0.70110000  0.22730000  1.0 -0.0905750666
C  C54  1  0.08360000  0.29890000  0.72730000  1.0 -0.0905750666
C  C55  1  0.91640000  0.79890000  0.77270000  1.0 -0.0905750666
C  C56  1  0.58360000  0.20110000  0.27270000  1.0 -0.0905750666
C  C57  1  0.57190000  0.23200000  0.92050000  1.0 0.5560212692
C  C58  1  0.92810000  0.76800000  0.42050000  1.0 0.5560212692
C  C59  1  0.07190000  0.26800000  0.07950000  1.0 0.5560212692
C  C60  1  0.42810000  0.73200000  0.57950000  1.0 0.5560212692
C  C61  1  0.42810000  0.76800000  0.07950000  1.0 0.5560212692
C  C62  1  0.07190000  0.23200000  0.57950000  1.0 0.5560212692
C  C63  1  0.92810000  0.73200000  0.92050000  1.0 0.5560212692
C  C64  1  0.57190000  0.26800000  0.42050000  1.0 0.5560212692
C  C65  1  0.43100000  0.37000000  0.99260000  1.0 0.649426352
C  C66  1  0.06900000  0.63000000  0.49260000  1.0 0.649426352
C  C67  1  0.93100000  0.13000000  0.00740000  1.0 0.649426352
C  C68  1  0.56900000  0.87000000  0.50740000  1.0 0.649426352
C  C69  1  0.56900000  0.63000000  0.00740000  1.0 0.649426352
C  C70  1  0.93100000  0.37000000  0.50740000  1.0 0.649426352
C  C71  1  0.06900000  0.87000000  0.99260000  1.0 0.649426352
C  C72  1  0.43100000  0.13000000  0.49260000  1.0 0.649426352
C  C73  1  0.46420000  0.43800000  0.99790000  1.0 -0.0200085754
C  C74  1  0.03580000  0.56200000  0.49790000  1.0 -0.0200085754
C  C75  1  0.96420000  0.06200000  0.00210000  1.0 -0.0200085754
C  C76  1  0.53580000  0.93800000  0.50210000  1.0 -0.0200085754
C  C77  1  0.53580000  0.56200000  0.00210000  1.0 -0.0200085754
C  C78  1  0.96420000  0.43800000  0.50210000  1.0 -0.0200085754
C  C79  1  0.03580000  0.93800000  0.99790000  1.0 -0.0200085754
C  C80  1  0.46420000  0.06200000  0.49790000  1.0 -0.0200085754
C  C81  1  0.57860000  0.46170000  0.03940000  1.0 -0.132738543
C  C82  1  0.92140000  0.53830000  0.53940000  1.0 -0.132738543
C  C83  1  0.07860000  0.03830000  0.96060000  1.0 -0.132738543
C  C84  1  0.42140000  0.96170000  0.46060000  1.0 -0.132738543
C  C85  1  0.42140000  0.53830000  0.96060000  1.0 -0.132738543
C  C86  1  0.07860000  0.46170000  0.46060000  1.0 -0.132738543
C  C87  1  0.92140000  0.96170000  0.03940000  1.0 -0.132738543
C  C88  1  0.57860000  0.03830000  0.53940000  1.0 -0.132738543
C  C89  1  0.38340000  0.47630000  0.95760000  1.0 -0.132738543
C  C90  1  0.11660000  0.52370000  0.45760000  1.0 -0.132738543
C  C91  1  0.88340000  0.02370000  0.04240000  1.0 -0.132738543
C  C92  1  0.61660000  0.97630000  0.54240000  1.0 -0.132738543
C  C93  1  0.61660000  0.52370000  0.04240000  1.0 -0.132738543
C  C94  1  0.88340000  0.47630000  0.54240000  1.0 -0.132738543
C  C95  1  0.11660000  0.97630000  0.95760000  1.0 -0.132738543
C  C96  1  0.38340000  0.02370000  0.45760000  1.0 -0.132738543
N  N1  1  0.51400000  0.12640000  0.84410000  1.0 0.3095502069
N  N2  1  0.98600000  0.87360000  0.34410000  1.0 0.3095502069
N  N3  1  0.01400000  0.37360000  0.15590000  1.0 0.3095502069
N  N4  1  0.48600000  0.62640000  0.65590000  1.0 0.3095502069
N  N5  1  0.48600000  0.87360000  0.15590000  1.0 0.3095502069
N  N6  1  0.01400000  0.12640000  0.65590000  1.0 0.3095502069
N  N7  1  0.98600000  0.62640000  0.84410000  1.0 0.3095502069
N  N8  1  0.51400000  0.37360000  0.34410000  1.0 0.3095502069
N  N9  1  0.61400000  0.12530000  0.84410000  1.0 0.3095502069
N  N10  1  0.88600000  0.87470000  0.34410000  1.0 0.3095502069
N  N11  1  0.11400000  0.37470000  0.15590000  1.0 0.3095502069
N  N12  1  0.38600000  0.62530000  0.65590000  1.0 0.3095502069
N  N13  1  0.38600000  0.87470000  0.15590000  1.0 0.3095502069
N  N14  1  0.11400000  0.12530000  0.65590000  1.0 0.3095502069
N  N15  1  0.88600000  0.62530000  0.84410000  1.0 0.3095502069
N  N16  1  0.61400000  0.37470000  0.34410000  1.0 0.3095502069
O  O1  1  0.59510000  0.30910000  0.65130000  1.0 -0.6464474092
O  O2  1  0.90490000  0.69090000  0.15130000  1.0 -0.6464474092
O  O3  1  0.09510000  0.19090000  0.34870000  1.0 -0.6464474092
O  O4  1  0.40490000  0.80910000  0.84870000  1.0 -0.6464474092
O  O5  1  0.40490000  0.69090000  0.34870000  1.0 -0.6464474092
O  O6  1  0.09510000  0.30910000  0.84870000  1.0 -0.6464474092
O  O7  1  0.90490000  0.80910000  0.65130000  1.0 -0.6464474092
O  O8  1  0.59510000  0.19090000  0.15130000  1.0 -0.6464474092
O  O9  1  0.56330000  0.20980000  0.64180000  1.0 -0.6728080997
O  O10  1  0.93670000  0.79020000  0.14180000  1.0 -0.6728080997
O  O11  1  0.06330000  0.29020000  0.35820000  1.0 -0.6728080997
O  O12  1  0.43670000  0.70980000  0.85820000  1.0 -0.6728080997
O  O13  1  0.43670000  0.79020000  0.35820000  1.0 -0.6728080997
O  O14  1  0.06330000  0.20980000  0.85820000  1.0 -0.6728080997
O  O15  1  0.93670000  0.70980000  0.64180000  1.0 -0.6728080997
O  O16  1  0.56330000  0.29020000  0.14180000  1.0 -0.6728080997
O  O17  1  0.55900000  0.11660000  0.89440000  1.0 0.0159002037
O  O18  1  0.94100000  0.88340000  0.39440000  1.0 0.0159002037
O  O19  1  0.05900000  0.38340000  0.10560000  1.0 0.0159002037
O  O20  1  0.44100000  0.61660000  0.60560000  1.0 0.0159002037
O  O21  1  0.44100000  0.88340000  0.10560000  1.0 0.0159002037
O  O22  1  0.05900000  0.11660000  0.60560000  1.0 0.0159002037
O  O23  1  0.94100000  0.61660000  0.89440000  1.0 0.0159002037
O  O24  1  0.55900000  0.38340000  0.39440000  1.0 0.0159002037
O  O25  1  0.43900000  0.08610000  0.81580000  1.0 -0.0817189843
O  O26  1  0.06100000  0.91390000  0.31580000  1.0 -0.0817189843
O  O27  1  0.93900000  0.41390000  0.18420000  1.0 -0.0817189843
O  O28  1  0.56100000  0.58610000  0.68420000  1.0 -0.0817189843
O  O29  1  0.56100000  0.91390000  0.18420000  1.0 -0.0817189843
O  O30  1  0.93900000  0.08610000  0.68420000  1.0 -0.0817189843
O  O31  1  0.06100000  0.58610000  0.81580000  1.0 -0.0817189843
O  O32  1  0.43900000  0.41390000  0.31580000  1.0 -0.0817189843
O  O33  1  0.41580000  0.22540000  0.94670000  1.0 -0.6799654851
O  O34  1  0.08420000  0.77460000  0.44670000  1.0 -0.6799654851
O  O35  1  0.91580000  0.27460000  0.05330000  1.0 -0.6799654851
O  O36  1  0.58420000  0.72540000  0.55330000  1.0 -0.6799654851
O  O37  1  0.58420000  0.77460000  0.05330000  1.0 -0.6799654851
O  O38  1  0.91580000  0.22540000  0.55330000  1.0 -0.6799654851
O  O39  1  0.08420000  0.72540000  0.94670000  1.0 -0.6799654851
O  O40  1  0.41580000  0.27460000  0.44670000  1.0 -0.6799654851
O  O41  1  0.72680000  0.23980000  0.94741000  1.0 -0.6892109851
O  O42  1  0.77320000  0.76020000  0.44741000  1.0 -0.6892109851
O  O43  1  0.22680000  0.26020000  0.05259000  1.0 -0.6892109851
O  O44  1  0.27320000  0.73980000  0.55259000  1.0 -0.6892109851
O  O45  1  0.27320000  0.76020000  0.05259000  1.0 -0.6892109851
O  O46  1  0.22680000  0.23980000  0.55259000  1.0 -0.6892109851
O  O47  1  0.77320000  0.73980000  0.94741000  1.0 -0.6892109851
O  O48  1  0.72680000  0.26020000  0.44741000  1.0 -0.6892109851
O  O49  1  0.29460000  0.35230000  0.96180000  1.0 -0.6892109851
O  O50  1  0.20540000  0.64770000  0.46180000  1.0 -0.6892109851
O  O51  1  0.79460000  0.14770000  0.03820000  1.0 -0.6892109851
O  O52  1  0.70540000  0.85230000  0.53820000  1.0 -0.6892109851
O  O53  1  0.70540000  0.64770000  0.03820000  1.0 -0.6892109851
O  O54  1  0.79460000  0.35230000  0.53820000  1.0 -0.6892109851
O  O55  1  0.20540000  0.85230000  0.96180000  1.0 -0.6892109851
O  O56  1  0.29460000  0.14770000  0.46180000  1.0 -0.6892109851
O  O57  1  0.54750000  0.33570000  0.01900000  1.0 -0.6892109851
O  O58  1  0.95250000  0.66430000  0.51900000  1.0 -0.6892109851
O  O59  1  0.04750000  0.16430000  0.98100000  1.0 -0.6892109851
O  O60  1  0.45250000  0.83570000  0.48100000  1.0 -0.6892109851
O  O61  1  0.45250000  0.66430000  0.98100000  1.0 -0.6892109851
O  O62  1  0.04750000  0.33570000  0.48100000  1.0 -0.6892109851
O  O63  1  0.95250000  0.83570000  0.01900000  1.0 -0.6892109851
O  O64  1  0.54750000  0.16430000  0.51900000  1.0 -0.6892109851
O  O65  1  0.64100000  0.12010000  0.89540000  1.0 0.03929777
O  O66  1  0.85900000  0.87990000  0.39540000  1.0 0.03929777
O  O67  1  0.14100000  0.37990000  0.10460000  1.0 0.03929777
O  O68  1  0.35900000  0.62010000  0.60460000  1.0 0.03929777
O  O69  1  0.35900000  0.87990000  0.10460000  1.0 0.03929777
O  O70  1  0.14100000  0.12010000  0.60460000  1.0 0.03929777
O  O71  1  0.85900000  0.62010000  0.89540000  1.0 0.03929777
O  O72  1  0.64100000  0.37990000  0.39540000  1.0 0.03929777
O  O73  1  0.61400000  0.08030000  0.81210000  1.0 -0.0817189843
O  O74  1  0.88600000  0.91970000  0.31210000  1.0 -0.0817189843
O  O75  1  0.11400000  0.41970000  0.18790000  1.0 -0.0817189843
O  O76  1  0.38600000  0.58030000  0.68790000  1.0 -0.0817189843
O  O77  1  0.38600000  0.91970000  0.18790000  1.0 -0.0817189843
O  O78  1  0.11400000  0.08030000  0.68790000  1.0 -0.0817189843
O  O79  1  0.88600000  0.58030000  0.81210000  1.0 -0.0817189843
O  O80  1  0.61400000  0.41970000  0.31210000  1.0 -0.0817189843
