# DDEC6 charges by PACMAN v1.1 (https://github.com/mtap-research/PACMAN-charge/)
data_VONSAU_FSR_pacman
_symmetry_space_group_name_H-M   'P 1'
_cell_length_a   6.89040000
_cell_length_b   21.82110000
_cell_length_c   23.06420000
_cell_angle_alpha   90.00000000
_cell_angle_beta   90.00000000
_cell_angle_gamma   90.00000000
_symmetry_Int_Tables_number   1
_chemical_formula_structural   SmH5C12N3O13
_chemical_formula_sum   'Sm8 H40 C96 N24 O104'
_cell_volume   3467.84333322
_cell_formula_units_Z   8
loop_
 _symmetry_equiv_pos_site_id
 _symmetry_equiv_pos_as_xyz
  1  'x, y, z'
loop_
 _atom_site_type_symbol
 _atom_site_label
 _atom_site_symmetry_multiplicity
 _atom_site_fract_x
 _atom_site_fract_y
 _atom_site_fract_z
 _atom_site_occupancy
 _atom_site_charge
Sm  Sm1  1  0.57470000  0.23229000  0.04955000  1.0 2.0729828286
Sm  Sm2  1  0.92530000  0.76771000  0.54955000  1.0 2.0729828286
Sm  Sm3  1  0.07470000  0.26771000  0.95045000  1.0 2.0729828286
Sm  Sm4  1  0.42530000  0.73229000  0.45045000  1.0 2.0729828286
Sm  Sm5  1  0.42530000  0.76771000  0.95045000  1.0 2.0729828286
Sm  Sm6  1  0.07470000  0.23229000  0.45045000  1.0 2.0729828286
Sm  Sm7  1  0.92530000  0.73229000  0.04955000  1.0 2.0729828286
Sm  Sm8  1  0.57470000  0.26771000  0.54955000  1.0 2.0729828286
H  H1  1  0.56260000  0.15750000  0.73610000  1.0 0.118771113
H  H2  1  0.93740000  0.84250000  0.23610000  1.0 0.118771113
H  H3  1  0.06260000  0.34250000  0.26390000  1.0 0.118771113
H  H4  1  0.43740000  0.65750000  0.76390000  1.0 0.118771113
H  H5  1  0.43740000  0.84250000  0.26390000  1.0 0.118771113
H  H6  1  0.06260000  0.15750000  0.76390000  1.0 0.118771113
H  H7  1  0.93740000  0.65750000  0.73610000  1.0 0.118771113
H  H8  1  0.56260000  0.34250000  0.23610000  1.0 0.118771113
H  H9  1  0.58390000  0.33000000  0.85640000  1.0 0.1486564833
H  H10  1  0.91610000  0.67000000  0.35640000  1.0 0.1486564833
H  H11  1  0.08390000  0.17000000  0.14360000  1.0 0.1486564833
H  H12  1  0.41610000  0.83000000  0.64360000  1.0 0.1486564833
H  H13  1  0.41610000  0.67000000  0.14360000  1.0 0.1486564833
H  H14  1  0.08390000  0.33000000  0.64360000  1.0 0.1486564833
H  H15  1  0.91610000  0.83000000  0.85640000  1.0 0.1486564833
H  H16  1  0.58390000  0.17000000  0.35640000  1.0 0.1486564833
H  H17  1  0.58620000  0.33960000  0.75490000  1.0 0.1395573909
H  H18  1  0.91380000  0.66040000  0.25490000  1.0 0.1395573909
H  H19  1  0.08620000  0.16040000  0.24510000  1.0 0.1395573909
H  H20  1  0.41380000  0.83960000  0.74510000  1.0 0.1395573909
H  H21  1  0.41380000  0.66040000  0.24510000  1.0 0.1395573909
H  H22  1  0.08620000  0.33960000  0.74510000  1.0 0.1395573909
H  H23  1  0.91380000  0.83960000  0.75490000  1.0 0.1395573909
H  H24  1  0.58620000  0.16040000  0.25490000  1.0 0.1395573909
H  H25  1  0.62500000  0.43630000  0.06990000  1.0 0.2155052606
H  H26  1  0.87500000  0.56370000  0.56990000  1.0 0.2155052606
H  H27  1  0.12500000  0.06370000  0.93010000  1.0 0.2155052606
H  H28  1  0.37500000  0.93630000  0.43010000  1.0 0.2155052606
H  H29  1  0.37500000  0.56370000  0.93010000  1.0 0.2155052606
H  H30  1  0.12500000  0.43630000  0.43010000  1.0 0.2155052606
H  H31  1  0.87500000  0.93630000  0.06990000  1.0 0.2155052606
H  H32  1  0.62500000  0.06370000  0.56990000  1.0 0.2155052606
H  H33  1  0.31260000  0.46040000  0.92630000  1.0 0.1486564833
H  H34  1  0.18740000  0.53960000  0.42630000  1.0 0.1486564833
H  H35  1  0.81260000  0.03960000  0.07370000  1.0 0.1486564833
H  H36  1  0.68740000  0.96040000  0.57370000  1.0 0.1486564833
H  H37  1  0.68740000  0.53960000  0.07370000  1.0 0.1486564833
H  H38  1  0.81260000  0.46040000  0.57370000  1.0 0.1486564833
H  H39  1  0.18740000  0.96040000  0.92630000  1.0 0.1486564833
H  H40  1  0.31260000  0.03960000  0.42630000  1.0 0.1486564833
C  C1  1  0.57820000  0.25720000  0.67100000  1.0 0.553262833
C  C2  1  0.92180000  0.74280000  0.17100000  1.0 0.553262833
C  C3  1  0.07820000  0.24280000  0.32900000  1.0 0.553262833
C  C4  1  0.42180000  0.75720000  0.82900000  1.0 0.553262833
C  C5  1  0.42180000  0.74280000  0.32900000  1.0 0.553262833
C  C6  1  0.07820000  0.25720000  0.82900000  1.0 0.553262833
C  C7  1  0.92180000  0.75720000  0.67100000  1.0 0.553262833
C  C8  1  0.57820000  0.24280000  0.17100000  1.0 0.553262833
C  C9  1  0.57270000  0.25180000  0.73680000  1.0 0.0104518477
C  C10  1  0.92730000  0.74820000  0.23680000  1.0 0.0104518477
C  C11  1  0.07270000  0.24820000  0.26320000  1.0 0.0104518477
C  C12  1  0.42730000  0.75180000  0.76320000  1.0 0.0104518477
C  C13  1  0.42730000  0.74820000  0.26320000  1.0 0.0104518477
C  C14  1  0.07270000  0.25180000  0.76320000  1.0 0.0104518477
C  C15  1  0.92730000  0.75180000  0.73680000  1.0 0.0104518477
C  C16  1  0.57270000  0.24820000  0.23680000  1.0 0.0104518477
C  C17  1  0.56600000  0.19190000  0.76000000  1.0 -0.2894745921
C  C18  1  0.93400000  0.80810000  0.26000000  1.0 -0.2894745921
C  C19  1  0.06600000  0.30810000  0.24000000  1.0 -0.2894745921
C  C20  1  0.43400000  0.69190000  0.74000000  1.0 -0.2894745921
C  C21  1  0.43400000  0.80810000  0.24000000  1.0 -0.2894745921
C  C22  1  0.06600000  0.19190000  0.74000000  1.0 -0.2894745921
C  C23  1  0.93400000  0.69190000  0.76000000  1.0 -0.2894745921
C  C24  1  0.56600000  0.30810000  0.26000000  1.0 -0.2894745921
C  C25  1  0.56480000  0.18670000  0.81920000  1.0 0.065572293
C  C26  1  0.93520000  0.81330000  0.31920000  1.0 0.065572293
C  C27  1  0.06480000  0.31330000  0.18080000  1.0 0.065572293
C  C28  1  0.43520000  0.68670000  0.68080000  1.0 0.065572293
C  C29  1  0.43520000  0.81330000  0.18080000  1.0 0.065572293
C  C30  1  0.06480000  0.18670000  0.68080000  1.0 0.065572293
C  C31  1  0.93520000  0.68670000  0.81920000  1.0 0.065572293
C  C32  1  0.56480000  0.31330000  0.31920000  1.0 0.065572293
C  C33  1  0.57180000  0.23690000  0.85640000  1.0 -0.1008966835
C  C34  1  0.92820000  0.76310000  0.35640000  1.0 -0.1008966835
C  C35  1  0.07180000  0.26310000  0.14360000  1.0 -0.1008966835
C  C36  1  0.42820000  0.73690000  0.64360000  1.0 -0.1008966835
C  C37  1  0.42820000  0.76310000  0.14360000  1.0 -0.1008966835
C  C38  1  0.07180000  0.23690000  0.64360000  1.0 -0.1008966835
C  C39  1  0.92820000  0.73690000  0.85640000  1.0 -0.1008966835
C  C40  1  0.57180000  0.26310000  0.35640000  1.0 -0.1008966835
C  C41  1  0.57940000  0.29550000  0.83270000  1.0 -0.0902142073
C  C42  1  0.92060000  0.70450000  0.33270000  1.0 -0.0902142073
C  C43  1  0.07940000  0.20450000  0.16730000  1.0 -0.0902142073
C  C44  1  0.42060000  0.79550000  0.66730000  1.0 -0.0902142073
C  C45  1  0.42060000  0.70450000  0.16730000  1.0 -0.0902142073
C  C46  1  0.07940000  0.29550000  0.66730000  1.0 -0.0902142073
C  C47  1  0.92060000  0.79550000  0.83270000  1.0 -0.0902142073
C  C48  1  0.57940000  0.20450000  0.33270000  1.0 -0.0902142073
C  C49  1  0.58030000  0.30080000  0.77140000  1.0 -0.0902142073
C  C50  1  0.91970000  0.69920000  0.27140000  1.0 -0.0902142073
C  C51  1  0.08030000  0.19920000  0.22860000  1.0 -0.0902142073
C  C52  1  0.41970000  0.80080000  0.72860000  1.0 -0.0902142073
C  C53  1  0.41970000  0.69920000  0.22860000  1.0 -0.0902142073
C  C54  1  0.08030000  0.30080000  0.72860000  1.0 -0.0902142073
C  C55  1  0.91970000  0.80080000  0.77140000  1.0 -0.0902142073
C  C56  1  0.58030000  0.19920000  0.27140000  1.0 -0.0902142073
C  C57  1  0.57090000  0.23280000  0.92100000  1.0 0.553262833
C  C58  1  0.92910000  0.76720000  0.42100000  1.0 0.553262833
C  C59  1  0.07090000  0.26720000  0.07900000  1.0 0.553262833
C  C60  1  0.42910000  0.73280000  0.57900000  1.0 0.553262833
C  C61  1  0.42910000  0.76720000  0.07900000  1.0 0.553262833
C  C62  1  0.07090000  0.23280000  0.57900000  1.0 0.553262833
C  C63  1  0.92910000  0.73280000  0.92100000  1.0 0.553262833
C  C64  1  0.57090000  0.26720000  0.42100000  1.0 0.553262833
C  C65  1  0.42620000  0.36980000  0.99330000  1.0 0.6226629126
C  C66  1  0.07380000  0.63020000  0.49330000  1.0 0.6226629126
C  C67  1  0.92620000  0.13020000  0.00670000  1.0 0.6226629126
C  C68  1  0.57380000  0.86980000  0.50670000  1.0 0.6226629126
C  C69  1  0.57380000  0.63020000  0.00670000  1.0 0.6226629126
C  C70  1  0.92620000  0.36980000  0.50670000  1.0 0.6226629126
C  C71  1  0.07380000  0.86980000  0.99330000  1.0 0.6226629126
C  C72  1  0.42620000  0.13020000  0.49330000  1.0 0.6226629126
C  C73  1  0.46070000  0.43750000  0.99760000  1.0 -0.0162238002
C  C74  1  0.03930000  0.56250000  0.49760000  1.0 -0.0162238002
C  C75  1  0.96070000  0.06250000  0.00240000  1.0 -0.0162238002
C  C76  1  0.53930000  0.93750000  0.50240000  1.0 -0.0162238002
C  C77  1  0.53930000  0.56250000  0.00240000  1.0 -0.0162238002
C  C78  1  0.96070000  0.43750000  0.50240000  1.0 -0.0162238002
C  C79  1  0.03930000  0.93750000  0.99760000  1.0 -0.0162238002
C  C80  1  0.46070000  0.06250000  0.49760000  1.0 -0.0162238002
C  C81  1  0.57410000  0.46180000  0.04110000  1.0 -0.0469735419
C  C82  1  0.92590000  0.53820000  0.54110000  1.0 -0.0469735419
C  C83  1  0.07410000  0.03820000  0.95890000  1.0 -0.0469735419
C  C84  1  0.42590000  0.96180000  0.45890000  1.0 -0.0469735419
C  C85  1  0.42590000  0.53820000  0.95890000  1.0 -0.0469735419
C  C86  1  0.07410000  0.46180000  0.45890000  1.0 -0.0469735419
C  C87  1  0.92590000  0.96180000  0.04110000  1.0 -0.0469735419
C  C88  1  0.57410000  0.03820000  0.54110000  1.0 -0.0469735419
C  C89  1  0.38800000  0.47600000  0.95630000  1.0 -0.1244806652
C  C90  1  0.11200000  0.52400000  0.45630000  1.0 -0.1244806652
C  C91  1  0.88800000  0.02400000  0.04370000  1.0 -0.1244806652
C  C92  1  0.61200000  0.97600000  0.54370000  1.0 -0.1244806652
C  C93  1  0.61200000  0.52400000  0.04370000  1.0 -0.1244806652
C  C94  1  0.88800000  0.47600000  0.54370000  1.0 -0.1244806652
C  C95  1  0.11200000  0.97600000  0.95630000  1.0 -0.1244806652
C  C96  1  0.38800000  0.02400000  0.45630000  1.0 -0.1244806652
N  N1  1  0.51000000  0.12470000  0.84360000  1.0 0.3480180658
N  N2  1  0.99000000  0.87530000  0.34360000  1.0 0.3480180658
N  N3  1  0.01000000  0.37530000  0.15640000  1.0 0.3480180658
N  N4  1  0.49000000  0.62470000  0.65640000  1.0 0.340310901
N  N5  1  0.49000000  0.87530000  0.15640000  1.0 0.3480180658
N  N6  1  0.01000000  0.12470000  0.65640000  1.0 0.3480180658
N  N7  1  0.99000000  0.62470000  0.84360000  1.0 0.340310901
N  N8  1  0.51000000  0.37530000  0.34360000  1.0 0.3480180658
N  N9  1  0.61700000  0.12510000  0.84310000  1.0 0.340310901
N  N10  1  0.88300000  0.87490000  0.34310000  1.0 0.340310901
N  N11  1  0.11700000  0.37490000  0.15690000  1.0 0.3336272943
N  N12  1  0.38300000  0.62510000  0.65690000  1.0 0.340310901
N  N13  1  0.38300000  0.87490000  0.15690000  1.0 0.340310901
N  N14  1  0.11700000  0.12510000  0.65690000  1.0 0.340310901
N  N15  1  0.88300000  0.62510000  0.84310000  1.0 0.340310901
N  N16  1  0.61700000  0.37490000  0.34310000  1.0 0.3336272943
N  N17  1  0.60400000  0.43050000  0.10500000  1.0 0.2625396607
N  N18  1  0.89600000  0.56950000  0.60500000  1.0 0.2625396607
N  N19  1  0.10400000  0.06950000  0.89500000  1.0 0.2625396607
N  N20  1  0.39600000  0.93050000  0.39500000  1.0 0.2650020528
N  N21  1  0.39600000  0.56950000  0.89500000  1.0 0.2625396607
N  N22  1  0.10400000  0.43050000  0.39500000  1.0 0.2625396607
N  N23  1  0.89600000  0.93050000  0.10500000  1.0 0.2650020528
N  N24  1  0.60400000  0.06950000  0.60500000  1.0 0.2625396607
O  O1  1  0.38280000  0.13910000  0.04340000  1.0 -0.3674146948
O  O2  1  0.11720000  0.86090000  0.54340000  1.0 -0.3674146948
O  O3  1  0.88280000  0.36090000  0.95660000  1.0 -0.3674146948
O  O4  1  0.61720000  0.63910000  0.45660000  1.0 -0.3674146948
O  O5  1  0.61720000  0.86090000  0.95660000  1.0 -0.3674146948
O  O6  1  0.88280000  0.13910000  0.45660000  1.0 -0.3674146948
O  O7  1  0.11720000  0.63910000  0.04340000  1.0 -0.3674146948
O  O8  1  0.38280000  0.36090000  0.54340000  1.0 -0.3674146948
O  O9  1  0.59280000  0.30930000  0.64840000  1.0 -0.5631474746
O  O10  1  0.90720000  0.69070000  0.14840000  1.0 -0.5631474746
O  O11  1  0.09280000  0.19070000  0.35160000  1.0 -0.5631474746
O  O12  1  0.40720000  0.80930000  0.85160000  1.0 -0.5631474746
O  O13  1  0.40720000  0.69070000  0.35160000  1.0 -0.5631474746
O  O14  1  0.09280000  0.30930000  0.85160000  1.0 -0.5631474746
O  O15  1  0.90720000  0.80930000  0.64840000  1.0 -0.5631474746
O  O16  1  0.59280000  0.19070000  0.14840000  1.0 -0.5631474746
O  O17  1  0.56090000  0.21050000  0.63980000  1.0 -0.620690335
O  O18  1  0.93910000  0.78950000  0.13980000  1.0 -0.620690335
O  O19  1  0.06090000  0.28950000  0.36020000  1.0 -0.620690335
O  O20  1  0.43910000  0.71050000  0.86020000  1.0 -0.620690335
O  O21  1  0.43910000  0.78950000  0.36020000  1.0 -0.620690335
O  O22  1  0.06090000  0.21050000  0.86020000  1.0 -0.620690335
O  O23  1  0.93910000  0.71050000  0.63980000  1.0 -0.620690335
O  O24  1  0.56090000  0.28950000  0.13980000  1.0 -0.620690335
O  O25  1  0.55200000  0.11600000  0.89490000  1.0 0.0367879127
O  O26  1  0.94800000  0.88400000  0.39490000  1.0 0.0367879127
O  O27  1  0.05200000  0.38400000  0.10510000  1.0 0.0367879127
O  O28  1  0.44800000  0.61600000  0.60510000  1.0 0.0367879127
O  O29  1  0.44800000  0.88400000  0.10510000  1.0 0.0367879127
O  O30  1  0.05200000  0.11600000  0.60510000  1.0 0.0367879127
O  O31  1  0.94800000  0.61600000  0.89490000  1.0 0.0367879127
O  O32  1  0.55200000  0.38400000  0.39490000  1.0 0.0367879127
O  O33  1  0.44100000  0.08580000  0.81400000  1.0 -0.0759920073
O  O34  1  0.05900000  0.91420000  0.31400000  1.0 -0.0759920073
O  O35  1  0.94100000  0.41420000  0.18600000  1.0 -0.0743533713
O  O36  1  0.55900000  0.58580000  0.68600000  1.0 -0.0759920073
O  O37  1  0.55900000  0.91420000  0.18600000  1.0 -0.0759920073
O  O38  1  0.94100000  0.08580000  0.68600000  1.0 -0.0759920073
O  O39  1  0.05900000  0.58580000  0.81400000  1.0 -0.0759920073
O  O40  1  0.44100000  0.41420000  0.31400000  1.0 -0.0743533713
O  O41  1  0.41240000  0.22650000  0.94680000  1.0 -0.6309376923
O  O42  1  0.08760000  0.77350000  0.44680000  1.0 -0.6309376923
O  O43  1  0.91240000  0.27350000  0.05320000  1.0 -0.6309376923
O  O44  1  0.58760000  0.72650000  0.55320000  1.0 -0.6309376923
O  O45  1  0.58760000  0.77350000  0.05320000  1.0 -0.6309376923
O  O46  1  0.91240000  0.22650000  0.55320000  1.0 -0.6309376923
O  O47  1  0.08760000  0.72650000  0.94680000  1.0 -0.6309376923
O  O48  1  0.41240000  0.27350000  0.44680000  1.0 -0.6309376923
O  O49  1  0.72690000  0.24110000  0.94781000  1.0 -0.644271825
O  O50  1  0.77310000  0.75890000  0.44781000  1.0 -0.644271825
O  O51  1  0.22690000  0.25890000  0.05219000  1.0 -0.644271825
O  O52  1  0.27310000  0.74110000  0.55219000  1.0 -0.644271825
O  O53  1  0.27310000  0.75890000  0.05219000  1.0 -0.644271825
O  O54  1  0.22690000  0.24110000  0.55219000  1.0 -0.644271825
O  O55  1  0.77310000  0.74110000  0.94781000  1.0 -0.644271825
O  O56  1  0.72690000  0.25890000  0.44781000  1.0 -0.644271825
O  O57  1  0.28720000  0.35220000  0.96320000  1.0 -0.5994385709
O  O58  1  0.21280000  0.64780000  0.46320000  1.0 -0.5994385709
O  O59  1  0.78720000  0.14780000  0.03680000  1.0 -0.5994385709
O  O60  1  0.71280000  0.85220000  0.53680000  1.0 -0.5994385709
O  O61  1  0.71280000  0.64780000  0.03680000  1.0 -0.5994385709
O  O62  1  0.78720000  0.35220000  0.53680000  1.0 -0.5994385709
O  O63  1  0.21280000  0.85220000  0.96320000  1.0 -0.5994385709
O  O64  1  0.28720000  0.14780000  0.46320000  1.0 -0.5994385709
O  O65  1  0.54450000  0.33550000  0.01950000  1.0 -0.5994385709
O  O66  1  0.95550000  0.66450000  0.51950000  1.0 -0.5994385709
O  O67  1  0.04450000  0.16450000  0.98050000  1.0 -0.5994385709
O  O68  1  0.45550000  0.83550000  0.48050000  1.0 -0.5994385709
O  O69  1  0.45550000  0.66450000  0.98050000  1.0 -0.5994385709
O  O70  1  0.04450000  0.33550000  0.48050000  1.0 -0.5994385709
O  O71  1  0.95550000  0.83550000  0.01950000  1.0 -0.5994385709
O  O72  1  0.54450000  0.16450000  0.51950000  1.0 -0.5994385709
O  O73  1  0.64400000  0.11970000  0.89520000  1.0 0.0305712581
O  O74  1  0.85600000  0.88030000  0.39520000  1.0 0.0305712581
O  O75  1  0.14400000  0.38030000  0.10480000  1.0 0.0305712581
O  O76  1  0.35600000  0.61970000  0.60480000  1.0 0.0305712581
O  O77  1  0.35600000  0.88030000  0.10480000  1.0 0.0305712581
O  O78  1  0.14400000  0.11970000  0.60480000  1.0 0.0305712581
O  O79  1  0.85600000  0.61970000  0.89520000  1.0 0.0305712581
O  O80  1  0.64400000  0.38030000  0.39520000  1.0 0.0305712581
O  O81  1  0.61700000  0.08090000  0.80950000  1.0 -0.1008966835
O  O82  1  0.88300000  0.91910000  0.30950000  1.0 -0.1008966835
O  O83  1  0.11700000  0.41910000  0.19050000  1.0 -0.1008966835
O  O84  1  0.38300000  0.58090000  0.69050000  1.0 -0.1008966835
O  O85  1  0.38300000  0.91910000  0.19050000  1.0 -0.1008966835
O  O86  1  0.11700000  0.08090000  0.69050000  1.0 -0.1008966835
O  O87  1  0.88300000  0.58090000  0.80950000  1.0 -0.1008966835
O  O88  1  0.61700000  0.41910000  0.30950000  1.0 -0.1008966835
O  O89  1  0.46900000  0.41660000  0.13420000  1.0 -0.3630386149
O  O90  1  0.03100000  0.58340000  0.63420000  1.0 -0.3630386149
O  O91  1  0.96900000  0.08340000  0.86580000  1.0 -0.3630386149
O  O92  1  0.53100000  0.91660000  0.36580000  1.0 -0.3630386149
O  O93  1  0.53100000  0.58340000  0.86580000  1.0 -0.3630386149
O  O94  1  0.96900000  0.41660000  0.36580000  1.0 -0.3630386149
O  O95  1  0.03100000  0.91660000  0.13420000  1.0 -0.3630386149
O  O96  1  0.46900000  0.08340000  0.63420000  1.0 -0.3630386149
O  O97  1  0.77900000  0.41790000  0.10380000  1.0 -0.3412534748
O  O98  1  0.72100000  0.58210000  0.60380000  1.0 -0.3412534748
O  O99  1  0.27900000  0.08210000  0.89620000  1.0 -0.3412534748
O  O100  1  0.22100000  0.91790000  0.39620000  1.0 -0.3412534748
O  O101  1  0.22100000  0.58210000  0.89620000  1.0 -0.3412534748
O  O102  1  0.27900000  0.41790000  0.39620000  1.0 -0.3412534748
O  O103  1  0.72100000  0.91790000  0.10380000  1.0 -0.3412534748
O  O104  1  0.77900000  0.08210000  0.60380000  1.0 -0.3412534748
