# DDEC6 charges by PACMAN v1.1 (https://github.com/mtap-research/PACMAN-charge/)
data_VONSEY_FSR_pacman
_symmetry_space_group_name_H-M   'P 1'
_cell_length_a   6.83910000
_cell_length_b   21.74470000
_cell_length_c   22.92990000
_cell_angle_alpha   90.00000000
_cell_angle_beta   90.00000000
_cell_angle_gamma   90.00000000
_symmetry_Int_Tables_number   1
_chemical_formula_structural   GdH5C12N3O13
_chemical_formula_sum   'Gd8 H40 C96 N24 O104'
_cell_volume   3410.00122485
_cell_formula_units_Z   8
loop_
 _symmetry_equiv_pos_site_id
 _symmetry_equiv_pos_as_xyz
  1  'x, y, z'
loop_
 _atom_site_type_symbol
 _atom_site_label
 _atom_site_symmetry_multiplicity
 _atom_site_fract_x
 _atom_site_fract_y
 _atom_site_fract_z
 _atom_site_occupancy
 _atom_site_charge
Gd  Gd1  1  0.57145000  0.23258000  0.04897000  1.0 2.006018887
Gd  Gd2  1  0.92855000  0.76742000  0.54897000  1.0 2.0045281748
Gd  Gd3  1  0.07145000  0.26742000  0.95103000  1.0 2.006018887
Gd  Gd4  1  0.42855000  0.73258000  0.45103000  1.0 2.0045281748
Gd  Gd5  1  0.42855000  0.76742000  0.95103000  1.0 2.006018887
Gd  Gd6  1  0.07145000  0.23258000  0.45103000  1.0 2.006018887
Gd  Gd7  1  0.92855000  0.73258000  0.04897000  1.0 2.0045281748
Gd  Gd8  1  0.57145000  0.26742000  0.54897000  1.0 2.0045281748
H  H1  1  0.55180000  0.15710000  0.73580000  1.0 0.1159199203
H  H2  1  0.94820000  0.84290000  0.23580000  1.0 0.1159199203
H  H3  1  0.05180000  0.34290000  0.26420000  1.0 0.1159199203
H  H4  1  0.44820000  0.65710000  0.76420000  1.0 0.1159199203
H  H5  1  0.44820000  0.84290000  0.26420000  1.0 0.1159199203
H  H6  1  0.05180000  0.15710000  0.76420000  1.0 0.1159199203
H  H7  1  0.94820000  0.65710000  0.73580000  1.0 0.1159199203
H  H8  1  0.55180000  0.34290000  0.23580000  1.0 0.1159199203
H  H9  1  0.58580000  0.32980000  0.85450000  1.0 0.147969919
H  H10  1  0.91420000  0.67020000  0.35450000  1.0 0.147969919
H  H11  1  0.08580000  0.17020000  0.14550000  1.0 0.147969919
H  H12  1  0.41420000  0.82980000  0.64550000  1.0 0.147969919
H  H13  1  0.41420000  0.67020000  0.14550000  1.0 0.147969919
H  H14  1  0.08580000  0.32980000  0.64550000  1.0 0.147969919
H  H15  1  0.91420000  0.82980000  0.85450000  1.0 0.147969919
H  H16  1  0.58580000  0.17020000  0.35450000  1.0 0.147969919
H  H17  1  0.59050000  0.34000000  0.75360000  1.0 0.13802106
H  H18  1  0.90950000  0.66000000  0.25360000  1.0 0.13802106
H  H19  1  0.09050000  0.16000000  0.24640000  1.0 0.13802106
H  H20  1  0.40950000  0.84000000  0.74640000  1.0 0.13802106
H  H21  1  0.40950000  0.66000000  0.24640000  1.0 0.13802106
H  H22  1  0.09050000  0.34000000  0.74640000  1.0 0.13802106
H  H23  1  0.90950000  0.84000000  0.75360000  1.0 0.13802106
H  H24  1  0.59050000  0.16000000  0.25360000  1.0 0.13802106
H  H25  1  0.63400000  0.43460000  0.06790000  1.0 0.2028666667
H  H26  1  0.86600000  0.56540000  0.56790000  1.0 0.2028666667
H  H27  1  0.13400000  0.06540000  0.93210000  1.0 0.2028666667
H  H28  1  0.36600000  0.93460000  0.43210000  1.0 0.2028666667
H  H29  1  0.36600000  0.56540000  0.93210000  1.0 0.2028666667
H  H30  1  0.13400000  0.43460000  0.43210000  1.0 0.2028666667
H  H31  1  0.86600000  0.93460000  0.06790000  1.0 0.2028666667
H  H32  1  0.63400000  0.06540000  0.56790000  1.0 0.2028666667
H  H33  1  0.30200000  0.46150000  0.92780000  1.0 0.147969919
H  H34  1  0.19800000  0.53850000  0.42780000  1.0 0.147969919
H  H35  1  0.80200000  0.03850000  0.07220000  1.0 0.147969919
H  H36  1  0.69800000  0.96150000  0.57220000  1.0 0.147969919
H  H37  1  0.69800000  0.53850000  0.07220000  1.0 0.147969919
H  H38  1  0.80200000  0.46150000  0.57220000  1.0 0.147969919
H  H39  1  0.19800000  0.96150000  0.92780000  1.0 0.147969919
H  H40  1  0.30200000  0.03850000  0.42780000  1.0 0.147969919
C  C1  1  0.57440000  0.25650000  0.66996000  1.0 0.5484468888
C  C2  1  0.92560000  0.74350000  0.16996000  1.0 0.5484468888
C  C3  1  0.07440000  0.24350000  0.33004000  1.0 0.5484468888
C  C4  1  0.42560000  0.75650000  0.83004000  1.0 0.5484468888
C  C5  1  0.42560000  0.74350000  0.33004000  1.0 0.5484468888
C  C6  1  0.07440000  0.25650000  0.83004000  1.0 0.5484468888
C  C7  1  0.92560000  0.75650000  0.66996000  1.0 0.5484468888
C  C8  1  0.57440000  0.24350000  0.16996000  1.0 0.5484468888
C  C9  1  0.57100000  0.25050000  0.73489000  1.0 0.0052352005
C  C10  1  0.92900000  0.74950000  0.23489000  1.0 0.0046609968
C  C11  1  0.07100000  0.24950000  0.26511000  1.0 0.0046609968
C  C12  1  0.42900000  0.75050000  0.76511000  1.0 0.0052352005
C  C13  1  0.42900000  0.74950000  0.26511000  1.0 0.0046609968
C  C14  1  0.07100000  0.25050000  0.76511000  1.0 0.0052352005
C  C15  1  0.92900000  0.75050000  0.73489000  1.0 0.0046609968
C  C16  1  0.57100000  0.24950000  0.23489000  1.0 0.0046609968
C  C17  1  0.55890000  0.19180000  0.75939000  1.0 -0.27800138
C  C18  1  0.94110000  0.80820000  0.25939000  1.0 -0.27800138
C  C19  1  0.05890000  0.30820000  0.24061000  1.0 -0.27800138
C  C20  1  0.44110000  0.69180000  0.74061000  1.0 -0.27800138
C  C21  1  0.44110000  0.80820000  0.24061000  1.0 -0.2735662361
C  C22  1  0.05890000  0.19180000  0.74061000  1.0 -0.27800138
C  C23  1  0.94110000  0.69180000  0.75939000  1.0 -0.27800138
C  C24  1  0.55890000  0.30820000  0.25939000  1.0 -0.27800138
C  C25  1  0.55760000  0.18650000  0.81923000  1.0 0.0664506151
C  C26  1  0.94240000  0.81350000  0.31923000  1.0 0.0664506151
C  C27  1  0.05760000  0.31350000  0.18077000  1.0 0.0664506151
C  C28  1  0.44240000  0.68650000  0.68077000  1.0 0.0664506151
C  C29  1  0.44240000  0.81350000  0.18077000  1.0 0.0664506151
C  C30  1  0.05760000  0.18650000  0.68077000  1.0 0.0664506151
C  C31  1  0.94240000  0.68650000  0.81923000  1.0 0.0664506151
C  C32  1  0.55760000  0.31350000  0.31923000  1.0 0.0664506151
C  C33  1  0.56840000  0.23720000  0.85553000  1.0 -0.0918026541
C  C34  1  0.93160000  0.76280000  0.35553000  1.0 -0.0918026541
C  C35  1  0.06840000  0.26280000  0.14447000  1.0 -0.0918026541
C  C36  1  0.43160000  0.73720000  0.64447000  1.0 -0.0918026541
C  C37  1  0.43160000  0.76280000  0.14447000  1.0 -0.0918026541
C  C38  1  0.06840000  0.23720000  0.64447000  1.0 -0.0918026541
C  C39  1  0.93160000  0.73720000  0.85553000  1.0 -0.0918026541
C  C40  1  0.56840000  0.26280000  0.35553000  1.0 -0.0918026541
C  C41  1  0.57970000  0.29510000  0.83090000  1.0 -0.0824685891
C  C42  1  0.92030000  0.70490000  0.33090000  1.0 -0.0824685891
C  C43  1  0.07970000  0.20490000  0.16910000  1.0 -0.0824685891
C  C44  1  0.42030000  0.79510000  0.66910000  1.0 -0.0824685891
C  C45  1  0.42030000  0.70490000  0.16910000  1.0 -0.0824685891
C  C46  1  0.07970000  0.29510000  0.66910000  1.0 -0.0824685891
C  C47  1  0.92030000  0.79510000  0.83090000  1.0 -0.0824685891
C  C48  1  0.57970000  0.20490000  0.33090000  1.0 -0.0824685891
C  C49  1  0.58170000  0.30100000  0.77022000  1.0 -0.0918026541
C  C50  1  0.91830000  0.69900000  0.27022000  1.0 -0.0918026541
C  C51  1  0.08170000  0.19900000  0.22978000  1.0 -0.0918026541
C  C52  1  0.41830000  0.80100000  0.72978000  1.0 -0.0918026541
C  C53  1  0.41830000  0.69900000  0.22978000  1.0 -0.0918026541
C  C54  1  0.08170000  0.30100000  0.72978000  1.0 -0.0918026541
C  C55  1  0.91830000  0.80100000  0.77022000  1.0 -0.0918026541
C  C56  1  0.58170000  0.19900000  0.27022000  1.0 -0.0918026541
C  C57  1  0.56610000  0.23345000  0.92080000  1.0 0.5573346789
C  C58  1  0.93390000  0.76655000  0.42080000  1.0 0.5573346789
C  C59  1  0.06610000  0.26655000  0.07920000  1.0 0.5573346789
C  C60  1  0.43390000  0.73345000  0.57920000  1.0 0.5573346789
C  C61  1  0.43390000  0.76655000  0.07920000  1.0 0.5573346789
C  C62  1  0.06610000  0.23345000  0.57920000  1.0 0.5573346789
C  C63  1  0.93390000  0.73345000  0.92080000  1.0 0.5573346789
C  C64  1  0.56610000  0.26655000  0.42080000  1.0 0.5573346789
C  C65  1  0.42310000  0.36961000  0.99319000  1.0 0.6203630666
C  C66  1  0.07690000  0.63039000  0.49319000  1.0 0.6203630666
C  C67  1  0.92310000  0.13039000  0.00681000  1.0 0.6203630666
C  C68  1  0.57690000  0.86961000  0.50681000  1.0 0.6203630666
C  C69  1  0.57690000  0.63039000  0.00681000  1.0 0.6203630666
C  C70  1  0.92310000  0.36961000  0.50681000  1.0 0.6203630666
C  C71  1  0.07690000  0.86961000  0.99319000  1.0 0.6203630666
C  C72  1  0.42310000  0.13039000  0.49319000  1.0 0.6203630666
C  C73  1  0.45940000  0.43742000  0.99730000  1.0 -0.0213972885
C  C74  1  0.04060000  0.56258000  0.49730000  1.0 -0.0213972885
C  C75  1  0.95940000  0.06258000  0.00270000  1.0 -0.0213972885
C  C76  1  0.54060000  0.93742000  0.50270000  1.0 -0.0213972885
C  C77  1  0.54060000  0.56258000  0.00270000  1.0 -0.0213972885
C  C78  1  0.95940000  0.43742000  0.50270000  1.0 -0.0213972885
C  C79  1  0.04060000  0.93742000  0.99730000  1.0 -0.0213972885
C  C80  1  0.45940000  0.06258000  0.49730000  1.0 -0.0213972885
C  C81  1  0.57960000  0.46100000  0.03990000  1.0 -0.0388628718
C  C82  1  0.92040000  0.53900000  0.53990000  1.0 -0.0388628718
C  C83  1  0.07960000  0.03900000  0.96010000  1.0 -0.0388628718
C  C84  1  0.42040000  0.96100000  0.46010000  1.0 -0.0388628718
C  C85  1  0.42040000  0.53900000  0.96010000  1.0 -0.0388628718
C  C86  1  0.07960000  0.46100000  0.46010000  1.0 -0.0388628718
C  C87  1  0.92040000  0.96100000  0.03990000  1.0 -0.0388628718
C  C88  1  0.57960000  0.03900000  0.53990000  1.0 -0.0388628718
C  C89  1  0.38170000  0.47680000  0.95730000  1.0 -0.1305674048
C  C90  1  0.11830000  0.52320000  0.45730000  1.0 -0.1305674048
C  C91  1  0.88170000  0.02320000  0.04270000  1.0 -0.1305674048
C  C92  1  0.61830000  0.97680000  0.54270000  1.0 -0.1305674048
C  C93  1  0.61830000  0.52320000  0.04270000  1.0 -0.1305674048
C  C94  1  0.88170000  0.47680000  0.54270000  1.0 -0.1305674048
C  C95  1  0.11830000  0.97680000  0.95730000  1.0 -0.1305674048
C  C96  1  0.38170000  0.02320000  0.45730000  1.0 -0.1305674048
N  N1  1  0.50160000  0.12470000  0.84410000  1.0 0.334621359
N  N2  1  0.99840000  0.87530000  0.34410000  1.0 0.334621359
N  N3  1  0.00160000  0.37530000  0.15590000  1.0 0.3359702925
N  N4  1  0.49840000  0.62470000  0.65590000  1.0 0.3359702925
N  N5  1  0.49840000  0.87530000  0.15590000  1.0 0.334621359
N  N6  1  0.00160000  0.12470000  0.65590000  1.0 0.334621359
N  N7  1  0.99840000  0.62470000  0.84410000  1.0 0.334621359
N  N8  1  0.50160000  0.37530000  0.34410000  1.0 0.334621359
N  N9  1  0.60500000  0.12470000  0.84290000  1.0 0.3359702925
N  N10  1  0.89500000  0.87530000  0.34290000  1.0 0.334621359
N  N11  1  0.10500000  0.37530000  0.15710000  1.0 0.3359702925
N  N12  1  0.39500000  0.62470000  0.65710000  1.0 0.3359702925
N  N13  1  0.39500000  0.87530000  0.15710000  1.0 0.334621359
N  N14  1  0.10500000  0.12470000  0.65710000  1.0 0.3359702925
N  N15  1  0.89500000  0.62470000  0.84290000  1.0 0.334621359
N  N16  1  0.60500000  0.37530000  0.34290000  1.0 0.334621359
N  N17  1  0.59500000  0.42980000  0.10230000  1.0 0.2524086076
N  N18  1  0.90500000  0.57020000  0.60230000  1.0 0.2524086076
N  N19  1  0.09500000  0.07020000  0.89770000  1.0 0.2524086076
N  N20  1  0.40500000  0.92980000  0.39770000  1.0 0.2524086076
N  N21  1  0.40500000  0.57020000  0.89770000  1.0 0.2524086076
N  N22  1  0.09500000  0.42980000  0.39770000  1.0 0.2524086076
N  N23  1  0.90500000  0.92980000  0.10230000  1.0 0.2524086076
N  N24  1  0.59500000  0.07020000  0.60230000  1.0 0.2524086076
O  O1  1  0.37810000  0.14128000  0.04470000  1.0 -0.3403297638
O  O2  1  0.12190000  0.85872000  0.54470000  1.0 -0.3403297638
O  O3  1  0.87810000  0.35872000  0.95530000  1.0 -0.3403297638
O  O4  1  0.62190000  0.64128000  0.45530000  1.0 -0.3403297638
O  O5  1  0.62190000  0.85872000  0.95530000  1.0 -0.3403297638
O  O6  1  0.87810000  0.14128000  0.45530000  1.0 -0.3403297638
O  O7  1  0.12190000  0.64128000  0.04470000  1.0 -0.3403297638
O  O8  1  0.37810000  0.35872000  0.54470000  1.0 -0.3403297638
O  O9  1  0.59390000  0.30876000  0.64714000  1.0 -0.5551483532
O  O10  1  0.90610000  0.69124000  0.14714000  1.0 -0.5551483532
O  O11  1  0.09390000  0.19124000  0.35286000  1.0 -0.5544877946
O  O12  1  0.40610000  0.80876000  0.85286000  1.0 -0.5544877946
O  O13  1  0.40610000  0.69124000  0.35286000  1.0 -0.5544877946
O  O14  1  0.09390000  0.30876000  0.85286000  1.0 -0.5544877946
O  O15  1  0.90610000  0.80876000  0.64714000  1.0 -0.5544877946
O  O16  1  0.59390000  0.19124000  0.14714000  1.0 -0.5544877946
O  O17  1  0.55760000  0.20977000  0.63863000  1.0 -0.6029285987
O  O18  1  0.94240000  0.79023000  0.13863000  1.0 -0.6029285987
O  O19  1  0.05760000  0.29023000  0.36137000  1.0 -0.6029285987
O  O20  1  0.44240000  0.70977000  0.86137000  1.0 -0.6029285987
O  O21  1  0.44240000  0.79023000  0.36137000  1.0 -0.6029285987
O  O22  1  0.05760000  0.20977000  0.86137000  1.0 -0.6029285987
O  O23  1  0.94240000  0.70977000  0.63863000  1.0 -0.6029285987
O  O24  1  0.55760000  0.29023000  0.13863000  1.0 -0.6029285987
O  O25  1  0.54410000  0.11580000  0.89480000  1.0 0.02130493
O  O26  1  0.95590000  0.88420000  0.39480000  1.0 0.02130493
O  O27  1  0.04410000  0.38420000  0.10520000  1.0 0.02130493
O  O28  1  0.45590000  0.61580000  0.60520000  1.0 0.02130493
O  O29  1  0.45590000  0.88420000  0.10520000  1.0 0.02130493
O  O30  1  0.04410000  0.11580000  0.60520000  1.0 0.0259234763
O  O31  1  0.95590000  0.61580000  0.89480000  1.0 0.02130493
O  O32  1  0.54410000  0.38420000  0.39480000  1.0 0.02130493
O  O33  1  0.43560000  0.08500000  0.81420000  1.0 -0.0388628718
O  O34  1  0.06440000  0.91500000  0.31420000  1.0 -0.0388628718
O  O35  1  0.93560000  0.41500000  0.18580000  1.0 -0.0388628718
O  O36  1  0.56440000  0.58500000  0.68580000  1.0 -0.0388628718
O  O37  1  0.56440000  0.91500000  0.18580000  1.0 -0.0388628718
O  O38  1  0.93560000  0.08500000  0.68580000  1.0 -0.0388628718
O  O39  1  0.06440000  0.58500000  0.81420000  1.0 -0.0388628718
O  O40  1  0.43560000  0.41500000  0.31420000  1.0 -0.0388628718
O  O41  1  0.40740000  0.22742000  0.94708000  1.0 -0.6123855908
O  O42  1  0.09260000  0.77258000  0.44708000  1.0 -0.6123855908
O  O43  1  0.90740000  0.27258000  0.05292000  1.0 -0.6123855908
O  O44  1  0.59260000  0.72742000  0.55292000  1.0 -0.6123855908
O  O45  1  0.59260000  0.77258000  0.05292000  1.0 -0.6123855908
O  O46  1  0.90740000  0.22742000  0.55292000  1.0 -0.6123855908
O  O47  1  0.09260000  0.72742000  0.94708000  1.0 -0.6123855908
O  O48  1  0.40740000  0.27258000  0.44708000  1.0 -0.6123855908
O  O49  1  0.72450000  0.24073000  0.94778000  1.0 -0.6247359415
O  O50  1  0.77550000  0.75927000  0.44778000  1.0 -0.6247359415
O  O51  1  0.22450000  0.25927000  0.05222000  1.0 -0.6252879401
O  O52  1  0.27550000  0.74073000  0.55222000  1.0 -0.6252879401
O  O53  1  0.27550000  0.75927000  0.05222000  1.0 -0.6247359415
O  O54  1  0.22450000  0.24073000  0.55222000  1.0 -0.6252879401
O  O55  1  0.77550000  0.74073000  0.94778000  1.0 -0.6247359415
O  O56  1  0.72450000  0.25927000  0.44778000  1.0 -0.6252879401
O  O57  1  0.28050000  0.35234000  0.96363000  1.0 -0.5725326513
O  O58  1  0.21950000  0.64766000  0.46363000  1.0 -0.5725326513
O  O59  1  0.78050000  0.14766000  0.03637000  1.0 -0.5725326513
O  O60  1  0.71950000  0.85234000  0.53637000  1.0 -0.5725326513
O  O61  1  0.71950000  0.64766000  0.03637000  1.0 -0.5725326513
O  O62  1  0.78050000  0.35234000  0.53637000  1.0 -0.5725326513
O  O63  1  0.21950000  0.85234000  0.96363000  1.0 -0.5725326513
O  O64  1  0.28050000  0.14766000  0.46363000  1.0 -0.5725326513
O  O65  1  0.54270000  0.33506000  0.01910000  1.0 -0.5843503227
O  O66  1  0.95730000  0.66494000  0.51910000  1.0 -0.5843503227
O  O67  1  0.04270000  0.16494000  0.98090000  1.0 -0.5843503227
O  O68  1  0.45730000  0.83506000  0.48090000  1.0 -0.5843503227
O  O69  1  0.45730000  0.66494000  0.98090000  1.0 -0.5843503227
O  O70  1  0.04270000  0.33506000  0.48090000  1.0 -0.5843503227
O  O71  1  0.95730000  0.83506000  0.01910000  1.0 -0.5843503227
O  O72  1  0.54270000  0.16494000  0.51910000  1.0 -0.5843503227
O  O73  1  0.62420000  0.11850000  0.89500000  1.0 0.02130493
O  O74  1  0.87580000  0.88150000  0.39500000  1.0 0.02130493
O  O75  1  0.12420000  0.38150000  0.10500000  1.0 0.02130493
O  O76  1  0.37580000  0.61850000  0.60500000  1.0 0.02130493
O  O77  1  0.37580000  0.88150000  0.10500000  1.0 0.02130493
O  O78  1  0.12420000  0.11850000  0.60500000  1.0 0.02130493
O  O79  1  0.87580000  0.61850000  0.89500000  1.0 0.02130493
O  O80  1  0.62420000  0.38150000  0.39500000  1.0 0.02130493
O  O81  1  0.60360000  0.08030000  0.80930000  1.0 -0.0740491257
O  O82  1  0.89640000  0.91970000  0.30930000  1.0 -0.0740491257
O  O83  1  0.10360000  0.41970000  0.19070000  1.0 -0.0740491257
O  O84  1  0.39640000  0.58030000  0.69070000  1.0 -0.0740491257
O  O85  1  0.39640000  0.91970000  0.19070000  1.0 -0.0740491257
O  O86  1  0.10360000  0.08030000  0.69070000  1.0 -0.0740491257
O  O87  1  0.89640000  0.58030000  0.80930000  1.0 -0.0740491257
O  O88  1  0.60360000  0.41970000  0.30930000  1.0 -0.0740491257
O  O89  1  0.44300000  0.41590000  0.13540000  1.0 -0.5036554662
O  O90  1  0.05700000  0.58410000  0.63540000  1.0 -0.5036554662
O  O91  1  0.94300000  0.08410000  0.86460000  1.0 -0.5036554662
O  O92  1  0.55700000  0.91590000  0.36460000  1.0 -0.5055250426
O  O93  1  0.55700000  0.58410000  0.86460000  1.0 -0.5036554662
O  O94  1  0.94300000  0.41590000  0.36460000  1.0 -0.5036554662
O  O95  1  0.05700000  0.91590000  0.13540000  1.0 -0.5036554662
O  O96  1  0.44300000  0.08410000  0.63540000  1.0 -0.5036554662
O  O97  1  0.75700000  0.42230000  0.11600000  1.0 -0.27800138
O  O98  1  0.74300000  0.57770000  0.61600000  1.0 -0.27800138
O  O99  1  0.25700000  0.07770000  0.88400000  1.0 -0.27800138
O  O100  1  0.24300000  0.92230000  0.38400000  1.0 -0.27800138
O  O101  1  0.24300000  0.57770000  0.88400000  1.0 -0.27800138
O  O102  1  0.25700000  0.42230000  0.38400000  1.0 -0.27800138
O  O103  1  0.74300000  0.92230000  0.11600000  1.0 -0.27800138
O  O104  1  0.75700000  0.07770000  0.61600000  1.0 -0.27800138
