# DDEC6 charges by PACMAN v1.1 (https://github.com/mtap-research/PACMAN-charge/)
data_VOPMIZ_FSR_pacman
_symmetry_space_group_name_H-M   'P 1'
_cell_length_a   12.62390000
_cell_length_b   12.62390000
_cell_length_c   12.62390000
_cell_angle_alpha   60.00000000
_cell_angle_beta   60.00000000
_cell_angle_gamma   60.00000000
_symmetry_Int_Tables_number   1
_chemical_formula_structural   Hf3(C3O4)4
_chemical_formula_sum   'Hf6 C24 O32'
_cell_volume   1422.54377338
_cell_formula_units_Z   2
loop_
 _symmetry_equiv_pos_site_id
 _symmetry_equiv_pos_as_xyz
  1  'x, y, z'
loop_
 _atom_site_type_symbol
 _atom_site_label
 _atom_site_symmetry_multiplicity
 _atom_site_fract_x
 _atom_site_fract_y
 _atom_site_fract_z
 _atom_site_occupancy
 _atom_site_charge
Hf  Hf1  1  0.86723000  0.13277000  0.13277000  1.0 1.3523039251
Hf  Hf2  1  0.13277000  0.86723000  0.86723000  1.0 1.3523039251
Hf  Hf3  1  0.13277000  0.86723000  0.13277000  1.0 1.3523039251
Hf  Hf4  1  0.86723000  0.13277000  0.86723000  1.0 1.3523039251
Hf  Hf5  1  0.13277000  0.13277000  0.86723000  1.0 1.3523039251
Hf  Hf6  1  0.86723000  0.86723000  0.13277000  1.0 1.3523039251
C  C1  1  0.66100000  0.33900000  0.00000000  1.0 0.6525572518
C  C2  1  0.54720000  0.45280000  0.00000000  1.0 -0.0222631625
C  C3  1  0.33900000  0.66100000  0.00000000  1.0 0.6525572518
C  C4  1  0.45280000  0.54720000  0.00000000  1.0 -0.0222631625
C  C5  1  0.00000000  0.00000000  0.66100000  1.0 0.6525572518
C  C6  1  0.00000000  0.00000000  0.54720000  1.0 -0.0222631625
C  C7  1  0.00000000  0.00000000  0.33900000  1.0 0.6525572518
C  C8  1  0.00000000  0.00000000  0.45280000  1.0 -0.0222631625
C  C9  1  0.00000000  0.66100000  0.33900000  1.0 0.6525572518
C  C10  1  0.00000000  0.54720000  0.45280000  1.0 -0.0222631625
C  C11  1  0.00000000  0.33900000  0.66100000  1.0 0.6525572518
C  C12  1  0.00000000  0.45280000  0.54720000  1.0 -0.0222631625
C  C13  1  0.66100000  0.00000000  0.00000000  1.0 0.6525572518
C  C14  1  0.54720000  0.00000000  0.00000000  1.0 -0.0222631625
C  C15  1  0.33900000  0.00000000  0.00000000  1.0 0.6525572518
C  C16  1  0.45280000  0.00000000  0.00000000  1.0 -0.0255880674
C  C17  1  0.33900000  0.00000000  0.66100000  1.0 0.6525572518
C  C18  1  0.45280000  0.00000000  0.54720000  1.0 -0.0222631625
C  C19  1  0.66100000  0.00000000  0.33900000  1.0 0.6525572518
C  C20  1  0.54720000  0.00000000  0.45280000  1.0 -0.0222631625
C  C21  1  0.00000000  0.66100000  0.00000000  1.0 0.6525572518
C  C22  1  0.00000000  0.54720000  0.00000000  1.0 -0.0222631625
C  C23  1  0.00000000  0.33900000  0.00000000  1.0 0.6525572518
C  C24  1  0.00000000  0.45280000  0.00000000  1.0 -0.0222631625
O  O1  1  0.77311000  0.07563000  0.07563000  1.0 -0.624007838
O  O2  1  0.07563000  0.77311000  0.07563000  1.0 -0.6285683682
O  O3  1  0.07563000  0.07563000  0.77311000  1.0 -0.6285683682
O  O4  1  0.07563000  0.07563000  0.07563000  1.0 -0.6285683682
O  O5  1  0.22689000  0.92437000  0.92437000  1.0 -0.6285683682
O  O6  1  0.92437000  0.22689000  0.92437000  1.0 -0.6285683682
O  O7  1  0.92437000  0.92437000  0.92437000  1.0 -0.6285683682
O  O8  1  0.92437000  0.92437000  0.22689000  1.0 -0.6285683682
O  O9  1  0.70344000  0.29656000  0.09020000  1.0 -0.4435326726
O  O10  1  0.29656000  0.70344000  0.90980000  1.0 -0.4435326726
O  O11  1  0.09020000  0.90980000  0.70344000  1.0 -0.4452850591
O  O12  1  0.90980000  0.09020000  0.29656000  1.0 -0.4435326726
O  O13  1  0.09020000  0.70344000  0.29656000  1.0 -0.4435326726
O  O14  1  0.90980000  0.29656000  0.70344000  1.0 -0.4435326726
O  O15  1  0.70344000  0.09020000  0.90980000  1.0 -0.4435326726
O  O16  1  0.29656000  0.90980000  0.09020000  1.0 -0.4435326726
O  O17  1  0.29656000  0.09020000  0.70344000  1.0 -0.4435326726
O  O18  1  0.70344000  0.90980000  0.29656000  1.0 -0.4452850591
O  O19  1  0.90980000  0.70344000  0.09020000  1.0 -0.4435326726
O  O20  1  0.09020000  0.29656000  0.90980000  1.0 -0.4435326726
O  O21  1  0.29656000  0.70344000  0.09020000  1.0 -0.4435326726
O  O22  1  0.70344000  0.29656000  0.90980000  1.0 -0.4435326726
O  O23  1  0.90980000  0.09020000  0.70344000  1.0 -0.4435326726
O  O24  1  0.09020000  0.90980000  0.29656000  1.0 -0.4452850591
O  O25  1  0.90980000  0.29656000  0.09020000  1.0 -0.4435326726
O  O26  1  0.09020000  0.70344000  0.90980000  1.0 -0.4435326726
O  O27  1  0.29656000  0.90980000  0.70344000  1.0 -0.4435326726
O  O28  1  0.70344000  0.09020000  0.29656000  1.0 -0.4435326726
O  O29  1  0.70344000  0.90980000  0.09020000  1.0 -0.4435326726
O  O30  1  0.29656000  0.09020000  0.90980000  1.0 -0.4435326726
O  O31  1  0.09020000  0.29656000  0.70344000  1.0 -0.4435326726
O  O32  1  0.90980000  0.70344000  0.29656000  1.0 -0.4435326726
