# DDEC6 charges by PACMAN v1.1 (https://github.com/mtap-research/PACMAN-charge/)
data_VOSVEG_ASR_pacman
_symmetry_space_group_name_H-M   'P 1'
_cell_length_a   21.60330000
_cell_length_b   21.60330000
_cell_length_c   14.41830000
_cell_angle_alpha   81.47240000
_cell_angle_beta   98.52760000
_cell_angle_gamma   63.73040000
_symmetry_Int_Tables_number   1
_chemical_formula_structural   CoH29C47N3(O2F3)2
_chemical_formula_sum   'Co4 H116 C188 N12 O16 F24'
_cell_volume   5791.16520495
_cell_formula_units_Z   4
loop_
 _symmetry_equiv_pos_site_id
 _symmetry_equiv_pos_as_xyz
  1  'x, y, z'
loop_
 _atom_site_type_symbol
 _atom_site_label
 _atom_site_symmetry_multiplicity
 _atom_site_fract_x
 _atom_site_fract_y
 _atom_site_fract_z
 _atom_site_occupancy
 _atom_site_charge
Co  Co1  1  0.88428000  0.59808000  0.96277000  1.0 0.8937849761
Co  Co2  1  0.59808000  0.88428000  0.03723000  1.0 0.8937849761
Co  Co3  1  0.11572000  0.40193000  0.03723000  1.0 0.8954656483
Co  Co4  1  0.40193000  0.11572000  0.96277000  1.0 0.8954656483
H  H1  1  0.85910000  0.74850000  0.90480000  1.0 0.1118769458
H  H2  1  0.74850000  0.85910000  0.09520000  1.0 0.1118769458
H  H3  1  0.14090000  0.25150000  0.09520000  1.0 0.1118769458
H  H4  1  0.25150000  0.14090000  0.90480000  1.0 0.1118769458
H  H5  1  0.98070000  0.60550000  0.15780000  1.0 0.1118769458
H  H6  1  0.60550000  0.98070000  0.84220000  1.0 0.1118769458
H  H7  1  0.01930000  0.39450000  0.84220000  1.0 0.1118769458
H  H8  1  0.39450000  0.01930000  0.15780000  1.0 0.1118769458
H  H9  1  0.89240000  0.83120000  0.95090000  1.0 0.1118769458
H  H10  1  0.83120000  0.89240000  0.04910000  1.0 0.1118769458
H  H11  1  0.10760000  0.16880000  0.04910000  1.0 0.1118769458
H  H12  1  0.16880000  0.10760000  0.95090000  1.0 0.1118769458
H  H13  1  0.01170000  0.68710000  0.20850000  1.0 0.119650997
H  H14  1  0.68710000  0.01170000  0.79150000  1.0 0.119650997
H  H15  1  0.98830000  0.31290000  0.79150000  1.0 0.119650997
H  H16  1  0.31290000  0.98830000  0.20850000  1.0 0.119650997
H  H17  1  0.89140000  0.50460000  0.24270000  1.0 0.1296867354
H  H18  1  0.50460000  0.89140000  0.75730000  1.0 0.1296867354
H  H19  1  0.10860000  0.49540000  0.75730000  1.0 0.1296867354
H  H20  1  0.49540000  0.10860000  0.24270000  1.0 0.1296867354
H  H21  1  0.09240000  0.36240000  0.25340000  1.0 0.1296867354
H  H22  1  0.36240000  0.09240000  0.74660000  1.0 0.1296867354
H  H23  1  0.90760000  0.63760000  0.74660000  1.0 0.1296867354
H  H24  1  0.63760000  0.90760000  0.25340000  1.0 0.1296867354
H  H25  1  0.90340000  0.44680000  0.39890000  1.0 0.1699912162
H  H26  1  0.44680000  0.90340000  0.60110000  1.0 0.1699912162
H  H27  1  0.09660000  0.55320000  0.60110000  1.0 0.1699912162
H  H28  1  0.55320000  0.09660000  0.39890000  1.0 0.1699912162
H  H29  1  0.10390000  0.30490000  0.40950000  1.0 0.1560902656
H  H30  1  0.30490000  0.10390000  0.59050000  1.0 0.1560902656
H  H31  1  0.89610000  0.69510000  0.59050000  1.0 0.1560902656
H  H32  1  0.69510000  0.89610000  0.40950000  1.0 0.1560902656
H  H33  1  0.76170000  0.60170000  0.81830000  1.0 0.119650997
H  H34  1  0.60170000  0.76170000  0.18170000  1.0 0.119650997
H  H35  1  0.23830000  0.39830000  0.18170000  1.0 0.119650997
H  H36  1  0.39830000  0.23830000  0.81830000  1.0 0.119650997
H  H37  1  0.95260000  0.43960000  0.96050000  1.0 0.1118769458
H  H38  1  0.43960000  0.95260000  0.03950000  1.0 0.1118769458
H  H39  1  0.04740000  0.56040000  0.03950000  1.0 0.1118769458
H  H40  1  0.56040000  0.04740000  0.96050000  1.0 0.1118769458
H  H41  1  0.73220000  0.52380000  0.75100000  1.0 0.119650997
H  H42  1  0.52380000  0.73220000  0.24900000  1.0 0.119650997
H  H43  1  0.26780000  0.47620000  0.24900000  1.0 0.119650997
H  H44  1  0.47620000  0.26780000  0.75100000  1.0 0.119650997
H  H45  1  0.92270000  0.36130000  0.89620000  1.0 0.1118769458
H  H46  1  0.36130000  0.92270000  0.10380000  1.0 0.1118769458
H  H47  1  0.07730000  0.63870000  0.10380000  1.0 0.1118769458
H  H48  1  0.63870000  0.07730000  0.89620000  1.0 0.1118769458
H  H49  1  0.03770000  0.76070000  0.24250000  1.0 0.1026275209
H  H50  1  0.76070000  0.03770000  0.75750000  1.0 0.1026275209
H  H51  1  0.96230000  0.23930000  0.75750000  1.0 0.1026275209
H  H52  1  0.23930000  0.96230000  0.24250000  1.0 0.1026275209
H  H53  1  0.93770000  0.98990000  0.04420000  1.0 0.1296867354
H  H54  1  0.98990000  0.93770000  0.95580000  1.0 0.1296867354
H  H55  1  0.06230000  0.01010000  0.95580000  1.0 0.1296867354
H  H56  1  0.01010000  0.06230000  0.04420000  1.0 0.1296867354
H  H57  1  0.06560000  0.84820000  0.29000000  1.0 0.1296867354
H  H58  1  0.84820000  0.06560000  0.71000000  1.0 0.1296867354
H  H59  1  0.93440000  0.15180000  0.71000000  1.0 0.1296867354
H  H60  1  0.15180000  0.93440000  0.29000000  1.0 0.1296867354
H  H61  1  0.95110000  0.11930000  0.17710000  1.0 0.1026275209
H  H62  1  0.11930000  0.95110000  0.82290000  1.0 0.1026275209
H  H63  1  0.04890000  0.88070000  0.82290000  1.0 0.1026275209
H  H64  1  0.88070000  0.04890000  0.17710000  1.0 0.1026275209
H  H65  1  0.00010000  0.93510000  0.36620000  1.0 0.1026275209
H  H66  1  0.93510000  0.00010000  0.63380000  1.0 0.1026275209
H  H67  1  0.99990000  0.06490000  0.63380000  1.0 0.1026275209
H  H68  1  0.06490000  0.99990000  0.36620000  1.0 0.1026275209
H  H69  1  0.88560000  0.18520000  0.27750000  1.0 0.0916366414
H  H70  1  0.18520000  0.88560000  0.72250000  1.0 0.0916366414
H  H71  1  0.11440000  0.81480000  0.72250000  1.0 0.0916366414
H  H72  1  0.81480000  0.11440000  0.27750000  1.0 0.0916366414
H  H73  1  0.93760000  0.00080000  0.46720000  1.0 0.0832006932
H  H74  1  0.00080000  0.93760000  0.53280000  1.0 0.0832006932
H  H75  1  0.06240000  0.99920000  0.53280000  1.0 0.0832006932
H  H76  1  0.99920000  0.06240000  0.46720000  1.0 0.0832006932
H  H77  1  0.72970000  0.46490000  0.65460000  1.0 0.1118769458
H  H78  1  0.46490000  0.72970000  0.34540000  1.0 0.1118769458
H  H79  1  0.27030000  0.53510000  0.34540000  1.0 0.1118769458
H  H80  1  0.53510000  0.27030000  0.65460000  1.0 0.1118769458
H  H81  1  0.87110000  0.29630000  0.86730000  1.0 0.119650997
H  H82  1  0.29630000  0.87110000  0.13270000  1.0 0.119650997
H  H83  1  0.12890000  0.70370000  0.13270000  1.0 0.119650997
H  H84  1  0.70370000  0.12890000  0.86730000  1.0 0.119650997
H  H85  1  0.69810000  0.39070000  0.58030000  1.0 0.1296867354
H  H86  1  0.39070000  0.69810000  0.41970000  1.0 0.1296867354
H  H87  1  0.30190000  0.60930000  0.41970000  1.0 0.1296867354
H  H88  1  0.60930000  0.30190000  0.58030000  1.0 0.1296867354
H  H89  1  0.83910000  0.22290000  0.79460000  1.0 0.119650997
H  H90  1  0.22290000  0.83910000  0.20540000  1.0 0.119650997
H  H91  1  0.16090000  0.77710000  0.20540000  1.0 0.119650997
H  H92  1  0.77710000  0.16090000  0.79460000  1.0 0.119650997
H  H93  1  0.70610000  0.19190000  0.50100000  1.0 0.1296867354
H  H94  1  0.19190000  0.70610000  0.49900000  1.0 0.1296867354
H  H95  1  0.29390000  0.80810000  0.49900000  1.0 0.1296867354
H  H96  1  0.80810000  0.29390000  0.50100000  1.0 0.1296867354
H  H97  1  0.77310000  0.12290000  0.40460000  1.0 0.119650997
H  H98  1  0.12290000  0.77310000  0.59540000  1.0 0.119650997
H  H99  1  0.22690000  0.87710000  0.59540000  1.0 0.119650997
H  H100  1  0.87710000  0.22690000  0.40460000  1.0 0.119650997
H  H101  1  0.07230000  0.40990000  0.57540000  1.0 0.119650997
H  H102  1  0.40990000  0.07230000  0.42460000  1.0 0.119650997
H  H103  1  0.92770000  0.59010000  0.42460000  1.0 0.119650997
H  H104  1  0.59010000  0.92770000  0.57540000  1.0 0.119650997
H  H105  1  0.11400000  0.20600000  0.62310000  1.0 0.119650997
H  H106  1  0.20600000  0.11400000  0.37690000  1.0 0.119650997
H  H107  1  0.88600000  0.79400000  0.37690000  1.0 0.119650997
H  H108  1  0.79400000  0.88600000  0.62310000  1.0 0.119650997
H  H109  1  0.17550000  0.37770000  0.69110000  1.0 0.119650997
H  H110  1  0.37770000  0.17550000  0.30890000  1.0 0.119650997
H  H111  1  0.82450000  0.62230000  0.30890000  1.0 0.119650997
H  H112  1  0.62230000  0.82450000  0.69110000  1.0 0.119650997
H  H113  1  0.21650000  0.17450000  0.73970000  1.0 0.1118769458
H  H114  1  0.17450000  0.21650000  0.26030000  1.0 0.1118769458
H  H115  1  0.78350000  0.82550000  0.26030000  1.0 0.119650997
H  H116  1  0.82550000  0.78350000  0.73970000  1.0 0.1118769458
C  C1  1  0.89070000  0.73650000  0.96670000  1.0 0.0916366414
C  C2  1  0.73650000  0.89070000  0.03330000  1.0 0.0832006932
C  C3  1  0.10930000  0.26350000  0.03330000  1.0 0.0832006932
C  C4  1  0.26350000  0.10930000  0.96670000  1.0 0.0916366414
C  C5  1  0.96260000  0.65160000  0.11520000  1.0 0.0684181155
C  C6  1  0.65160000  0.96260000  0.88480000  1.0 0.0684181155
C  C7  1  0.03740000  0.34840000  0.88480000  1.0 0.0684181155
C  C8  1  0.34840000  0.03740000  0.11520000  1.0 0.0684181155
C  C9  1  0.97330000  0.47472000  0.12811000  1.0 0.5717501552
C  C10  1  0.47472000  0.97330000  0.87189000  1.0 0.5717501552
C  C11  1  0.02670000  0.52528000  0.87189000  1.0 0.5717501552
C  C12  1  0.52528000  0.02670000  0.12811000  1.0 0.5717501552
C  C13  1  0.91060000  0.78520000  0.99360000  1.0 -0.2183933261
C  C14  1  0.78520000  0.91060000  0.00640000  1.0 -0.2183933261
C  C15  1  0.08940000  0.21480000  0.00640000  1.0 -0.2102819357
C  C16  1  0.21480000  0.08940000  0.99360000  1.0 -0.2183933261
C  C17  1  0.98020000  0.69920000  0.14660000  1.0 -0.2102819357
C  C18  1  0.69920000  0.98020000  0.85340000  1.0 -0.2102819357
C  C19  1  0.01980000  0.30080000  0.85340000  1.0 -0.2102819357
C  C20  1  0.30080000  0.01980000  0.14660000  1.0 -0.2102819357
C  C21  1  0.99109000  0.43967000  0.23310000  1.0 -0.0234554033
C  C22  1  0.43967000  0.99109000  0.76690000  1.0 -0.0234554033
C  C23  1  0.00891000  0.56033000  0.76690000  1.0 -0.0234554033
C  C24  1  0.56033000  0.00891000  0.23310000  1.0 -0.0234554033
C  C25  1  0.95230000  0.76890000  0.08700000  1.0 0.1413781406
C  C26  1  0.76890000  0.95230000  0.91300000  1.0 0.1413781406
C  C27  1  0.04770000  0.23110000  0.91300000  1.0 0.1413781406
C  C28  1  0.23110000  0.04770000  0.08700000  1.0 0.1413781406
C  C29  1  0.93416000  0.46482000  0.27610000  1.0 -0.0907813874
C  C30  1  0.46482000  0.93416000  0.72390000  1.0 -0.0907813874
C  C31  1  0.06584000  0.53518000  0.72390000  1.0 -0.0907813874
C  C32  1  0.53518000  0.06584000  0.27610000  1.0 -0.0907813874
C  C33  1  0.05449000  0.37955000  0.28271000  1.0 -0.0707770991
C  C34  1  0.37955000  0.05449000  0.71729000  1.0 -0.0707770991
C  C35  1  0.94551000  0.62045000  0.71729000  1.0 -0.0707770991
C  C36  1  0.62045000  0.94551000  0.28271000  1.0 -0.0707770991
C  C37  1  0.94139000  0.43005000  0.36980000  1.0 -0.1800570044
C  C38  1  0.43005000  0.94139000  0.63020000  1.0 -0.1800570044
C  C39  1  0.05861000  0.56995000  0.63020000  1.0 -0.1909657519
C  C40  1  0.56995000  0.05861000  0.36980000  1.0 -0.1800570044
C  C41  1  0.06137000  0.34503000  0.37630000  1.0 -0.1909657519
C  C42  1  0.34503000  0.06137000  0.62370000  1.0 -0.1909657519
C  C43  1  0.93863000  0.65497000  0.62370000  1.0 -0.1909657519
C  C44  1  0.65497000  0.93863000  0.37630000  1.0 -0.1909657519
C  C45  1  0.00510000  0.37044000  0.41980000  1.0 0.0558095673
C  C46  1  0.37044000  0.00510000  0.58020000  1.0 0.0558095673
C  C47  1  0.99490000  0.62956000  0.58020000  1.0 0.0558095673
C  C48  1  0.62956000  0.99490000  0.41980000  1.0 0.0558095673
C  C49  1  0.79403000  0.55341000  0.83390000  1.0 0.1026275209
C  C50  1  0.55341000  0.79403000  0.16610000  1.0 0.1026275209
C  C51  1  0.20597000  0.44659000  0.16610000  1.0 0.1026275209
C  C52  1  0.44659000  0.20597000  0.83390000  1.0 0.1026275209
C  C53  1  0.90816000  0.45640000  0.91930000  1.0 0.0832006932
C  C54  1  0.45640000  0.90816000  0.08070000  1.0 0.0832006932
C  C55  1  0.09184000  0.54360000  0.08070000  1.0 0.0832006932
C  C56  1  0.54360000  0.09184000  0.91930000  1.0 0.0832006932
C  C57  1  0.77630000  0.50670000  0.79320000  1.0 -0.1909657519
C  C58  1  0.50670000  0.77630000  0.20680000  1.0 -0.1909657519
C  C59  1  0.22370000  0.49330000  0.20680000  1.0 -0.1909657519
C  C60  1  0.49330000  0.22370000  0.79320000  1.0 -0.1909657519
C  C61  1  0.89048000  0.40964000  0.87990000  1.0 -0.1909657519
C  C62  1  0.40964000  0.89048000  0.12010000  1.0 -0.1909657519
C  C63  1  0.10952000  0.59036000  0.12010000  1.0 -0.1909657519
C  C64  1  0.59036000  0.10952000  0.87990000  1.0 -0.1909657519
C  C65  1  0.82449000  0.43503000  0.81601000  1.0 0.119650997
C  C66  1  0.43503000  0.82449000  0.18399000  1.0 0.119650997
C  C67  1  0.17551000  0.56497000  0.18399000  1.0 0.119650997
C  C68  1  0.56497000  0.17551000  0.81601000  1.0 0.119650997
C  C69  1  0.27037000  0.24725000  0.80680000  1.0 0.5589466007
C  C70  1  0.24725000  0.27037000  0.19320000  1.0 0.5589466007
C  C71  1  0.72963000  0.75275000  0.19320000  1.0 0.5589466007
C  C72  1  0.75275000  0.72963000  0.80680000  1.0 0.5589466007
C  C73  1  0.96760000  0.82800000  0.11000000  1.0 0.0087759641
C  C74  1  0.82800000  0.96760000  0.89000000  1.0 0.0087759641
C  C75  1  0.03240000  0.17200000  0.89000000  1.0 0.0087759641
C  C76  1  0.17200000  0.03240000  0.11000000  1.0 0.0087759641
C  C77  1  0.94760000  0.88620000  0.04950000  1.0 0.0499102131
C  C78  1  0.88620000  0.94760000  0.95050000  1.0 0.0499102131
C  C79  1  0.05240000  0.11380000  0.95050000  1.0 0.0499102131
C  C80  1  0.11380000  0.05240000  0.04950000  1.0 0.0499102131
C  C81  1  0.01560000  0.80760000  0.20100000  1.0 -0.0907813874
C  C82  1  0.80760000  0.01560000  0.79900000  1.0 -0.0907813874
C  C83  1  0.98440000  0.19240000  0.79900000  1.0 -0.0907813874
C  C84  1  0.19240000  0.98440000  0.20100000  1.0 -0.0907813874
C  C85  1  0.95990000  0.94290000  0.08560000  1.0 -0.2270745262
C  C86  1  0.94290000  0.95990000  0.91440000  1.0 -0.2270745262
C  C87  1  0.04010000  0.05710000  0.91440000  1.0 -0.2270745262
C  C88  1  0.05710000  0.04010000  0.08560000  1.0 -0.2270745262
C  C89  1  0.03300000  0.85940000  0.22900000  1.0 -0.1909657519
C  C90  1  0.85940000  0.03300000  0.77100000  1.0 -0.1909657519
C  C91  1  0.96700000  0.14060000  0.77100000  1.0 -0.1909657519
C  C92  1  0.14060000  0.96700000  0.22900000  1.0 -0.1909657519
C  C93  1  0.00286000  0.92514000  0.16730000  1.0 0.1897751414
C  C94  1  0.92514000  0.00286000  0.83270000  1.0 0.1897751414
C  C95  1  0.99714000  0.07486000  0.83270000  1.0 0.1897751414
C  C96  1  0.07486000  0.99714000  0.16730000  1.0 0.1897751414
C  C97  1  0.98012000  0.01988000  0.26130000  1.0 0.119650997
C  C98  1  0.01988000  0.98012000  0.73870000  1.0 0.119650997
C  C99  1  0.94670000  0.09530000  0.23540000  1.0 -0.0707770991
C  C100  1  0.09530000  0.94670000  0.76460000  1.0 -0.0707770991
C  C101  1  0.05330000  0.90470000  0.76460000  1.0 -0.0707770991
C  C102  1  0.90470000  0.05330000  0.23540000  1.0 -0.0707770991
C  C103  1  0.97568000  0.98608000  0.34680000  1.0 -0.080589809
C  C104  1  0.98608000  0.97568000  0.65320000  1.0 -0.080589809
C  C105  1  0.02432000  0.01392000  0.65320000  1.0 -0.080589809
C  C106  1  0.01392000  0.02432000  0.34680000  1.0 -0.080589809
C  C107  1  0.90758000  0.13418000  0.29410000  1.0 -0.080589809
C  C108  1  0.13418000  0.90758000  0.70590000  1.0 -0.080589809
C  C109  1  0.09242000  0.86582000  0.70590000  1.0 -0.080589809
C  C110  1  0.86582000  0.09242000  0.29410000  1.0 -0.080589809
C  C111  1  0.93885000  0.02525000  0.40680000  1.0 -0.0618385938
C  C112  1  0.02525000  0.93885000  0.59320000  1.0 -0.0618385938
C  C113  1  0.06115000  0.97475000  0.59320000  1.0 -0.0618385938
C  C114  1  0.97475000  0.06115000  0.40680000  1.0 -0.0618385938
C  C115  1  0.90262000  0.09738000  0.37970000  1.0 0.0499102131
C  C116  1  0.09738000  0.90262000  0.62030000  1.0 0.0499102131
C  C117  1  0.80286000  0.38788000  0.76870000  1.0 0.0499102131
C  C118  1  0.38788000  0.80286000  0.23130000  1.0 0.0499102131
C  C119  1  0.19714000  0.61212000  0.23130000  1.0 0.0499102131
C  C120  1  0.61212000  0.19714000  0.76870000  1.0 0.0499102131
C  C121  1  0.75160000  0.41640000  0.68270000  1.0 -0.1306678406
C  C122  1  0.41640000  0.75160000  0.31730000  1.0 -0.1306678406
C  C123  1  0.24840000  0.58360000  0.31730000  1.0 -0.1306678406
C  C124  1  0.58360000  0.24840000  0.68270000  1.0 -0.1306678406
C  C125  1  0.83603000  0.31535000  0.80990000  1.0 -0.1199035361
C  C126  1  0.31535000  0.83603000  0.19010000  1.0 -0.1199035361
C  C127  1  0.16397000  0.68465000  0.19010000  1.0 -0.1199035361
C  C128  1  0.68465000  0.16397000  0.80990000  1.0 -0.1199035361
C  C129  1  0.73270000  0.37170000  0.63810000  1.0 -0.1728666085
C  C130  1  0.37170000  0.73270000  0.36190000  1.0 -0.1728666085
C  C131  1  0.26730000  0.62830000  0.36190000  1.0 -0.1728666085
C  C132  1  0.62830000  0.26730000  0.63810000  1.0 -0.1728666085
C  C133  1  0.81722000  0.27136000  0.76630000  1.0 -0.1728666085
C  C134  1  0.27136000  0.81722000  0.23370000  1.0 -0.1728666085
C  C135  1  0.18278000  0.72864000  0.23370000  1.0 -0.1728666085
C  C136  1  0.72864000  0.18278000  0.76630000  1.0 -0.1728666085
C  C137  1  0.76524000  0.29980000  0.67954000  1.0 0.1821393134
C  C138  1  0.29980000  0.76524000  0.32046000  1.0 0.1821393134
C  C139  1  0.23476000  0.70020000  0.32046000  1.0 0.1821393134
C  C140  1  0.70020000  0.23476000  0.67954000  1.0 0.1821393134
C  C141  1  0.78081000  0.21919000  0.55810000  1.0 0.2055285932
C  C142  1  0.21919000  0.78081000  0.44190000  1.0 0.2055285932
C  C143  1  0.75222000  0.18722000  0.49990000  1.0 -0.2102819357
C  C144  1  0.18722000  0.75222000  0.50010000  1.0 -0.2102819357
C  C145  1  0.24778000  0.81278000  0.50010000  1.0 -0.2102819357
C  C146  1  0.81278000  0.24778000  0.49990000  1.0 -0.2102819357
C  C147  1  0.79199000  0.14599000  0.44340000  1.0 -0.1800570044
C  C148  1  0.14599000  0.79199000  0.55660000  1.0 -0.1800570044
C  C149  1  0.20801000  0.85401000  0.55660000  1.0 -0.1800570044
C  C150  1  0.85401000  0.20801000  0.44340000  1.0 -0.1800570044
C  C151  1  0.85879000  0.14121000  0.44100000  1.0 0.0684181155
C  C152  1  0.14121000  0.85879000  0.55900000  1.0 0.0684181155
C  C153  1  0.01646000  0.32296000  0.51640000  1.0 -0.2614742978
C  C154  1  0.32296000  0.01646000  0.48360000  1.0 -0.2614742978
C  C155  1  0.98354000  0.67704000  0.48360000  1.0 -0.2614742978
C  C156  1  0.67704000  0.98354000  0.51640000  1.0 -0.2614742978
C  C157  1  0.08310000  0.31180000  0.58770000  1.0 0.0684181155
C  C158  1  0.31180000  0.08310000  0.41230000  1.0 0.0684181155
C  C159  1  0.91690000  0.68820000  0.41230000  1.0 0.0684181155
C  C160  1  0.68820000  0.91690000  0.58770000  1.0 0.0684181155
C  C161  1  0.10129000  0.36249000  0.60800000  1.0 -0.1306678406
C  C162  1  0.36249000  0.10129000  0.39200000  1.0 -0.1306678406
C  C163  1  0.89871000  0.63751000  0.39200000  1.0 -0.1306678406
C  C164  1  0.63751000  0.89871000  0.60800000  1.0 -0.1306678406
C  C165  1  0.12619000  0.24055000  0.63672000  1.0 -0.1630244865
C  C166  1  0.24055000  0.12619000  0.36328000  1.0 -0.1630244865
C  C167  1  0.87381000  0.75945000  0.36328000  1.0 -0.1630244865
C  C168  1  0.75945000  0.87381000  0.63672000  1.0 -0.1630244865
C  C169  1  0.16325000  0.34325000  0.67753000  1.0 -0.0907813874
C  C170  1  0.34325000  0.16325000  0.32247000  1.0 -0.0907813874
C  C171  1  0.83675000  0.65675000  0.32247000  1.0 -0.0907813874
C  C172  1  0.65675000  0.83675000  0.67753000  1.0 -0.0907813874
C  C173  1  0.18765000  0.22175000  0.70620000  1.0 -0.0907813874
C  C174  1  0.22175000  0.18765000  0.29380000  1.0 -0.0907813874
C  C175  1  0.81235000  0.77825000  0.29380000  1.0 -0.0907813874
C  C176  1  0.77825000  0.81235000  0.70620000  1.0 -0.0907813874
C  C177  1  0.20599000  0.27329000  0.72560000  1.0 -0.0293399761
C  C178  1  0.27329000  0.20599000  0.27440000  1.0 -0.0293399761
C  C179  1  0.79401000  0.72671000  0.27440000  1.0 -0.0293399761
C  C180  1  0.72671000  0.79401000  0.72560000  1.0 -0.0293399761
C  C181  1  0.95361000  0.35273000  0.56380000  1.0 0.6755487681
C  C182  1  0.35273000  0.95361000  0.43620000  1.0 0.6755487681
C  C183  1  0.04639000  0.64727000  0.43620000  1.0 0.6755487681
C  C184  1  0.64727000  0.04639000  0.56380000  1.0 0.6755487681
C  C185  1  0.02093000  0.26083000  0.47155000  1.0 0.636759317
C  C186  1  0.26083000  0.02093000  0.52845000  1.0 0.636759317
C  C187  1  0.97907000  0.73917000  0.52845000  1.0 0.636759317
C  C188  1  0.73917000  0.97907000  0.47155000  1.0 0.636759317
N  N1  1  0.91615000  0.66903000  0.02734000  1.0 -0.2541626631
N  N2  1  0.66903000  0.91615000  0.97266000  1.0 -0.2541626631
N  N3  1  0.08385000  0.33097000  0.97266000  1.0 -0.2541626631
N  N4  1  0.33097000  0.08385000  0.02734000  1.0 -0.2541626631
N  N5  1  0.85920000  0.52828000  0.89693000  1.0 -0.2686161785
N  N6  1  0.52828000  0.85920000  0.10307000  1.0 -0.2686161785
N  N7  1  0.14080000  0.47172000  0.10307000  1.0 -0.2686161785
N  N8  1  0.47172000  0.14080000  0.89693000  1.0 -0.2686161785
N  N9  1  0.01855000  0.98145000  0.19620000  1.0 -0.3161193667
N  N10  1  0.98145000  0.01855000  0.80380000  1.0 -0.3161193667
N  N11  1  0.74290000  0.25710000  0.62640000  1.0 -0.2183933261
N  N12  1  0.25710000  0.74290000  0.37360000  1.0 -0.2183933261
O  O1  1  0.92296000  0.53380000  0.09397000  1.0 -0.514641115
O  O2  1  0.53380000  0.92296000  0.90603000  1.0 -0.514641115
O  O3  1  0.07704000  0.46620000  0.90603000  1.0 -0.514641115
O  O4  1  0.46620000  0.07704000  0.09397000  1.0 -0.514641115
O  O5  1  0.02378000  0.43756000  0.09124000  1.0 -0.566381061
O  O6  1  0.43756000  0.02378000  0.90876000  1.0 -0.566381061
O  O7  1  0.97622000  0.56244000  0.90876000  1.0 -0.566381061
O  O8  1  0.56244000  0.97622000  0.09124000  1.0 -0.566381061
O  O9  1  0.31288000  0.18098000  0.83781000  1.0 -0.6040461301
O  O10  1  0.18098000  0.31288000  0.16219000  1.0 -0.6052376865
O  O11  1  0.68712000  0.81902000  0.16219000  1.0 -0.6040461301
O  O12  1  0.81902000  0.68712000  0.83781000  1.0 -0.6052376865
O  O13  1  0.26921000  0.29391000  0.84970000  1.0 -0.5389939039
O  O14  1  0.29391000  0.26921000  0.15030000  1.0 -0.5389939039
O  O15  1  0.73079000  0.70609000  0.15030000  1.0 -0.5389939039
O  O16  1  0.70609000  0.73079000  0.84970000  1.0 -0.5389939039
F  F1  1  0.97107000  0.38345000  0.62942000  1.0 -0.2102819357
F  F2  1  0.38345000  0.97107000  0.37058000  1.0 -0.2102819357
F  F3  1  0.02893000  0.61655000  0.37058000  1.0 -0.2102819357
F  F4  1  0.61655000  0.02893000  0.62942000  1.0 -0.2102819357
F  F5  1  0.94792000  0.29638000  0.60604000  1.0 -0.2362919687
F  F6  1  0.29638000  0.94792000  0.39396000  1.0 -0.2362919687
F  F7  1  0.05208000  0.70362000  0.39396000  1.0 -0.2362919687
F  F8  1  0.70362000  0.05208000  0.60604000  1.0 -0.2362919687
F  F9  1  0.89250000  0.39912000  0.50019000  1.0 -0.2270745262
F  F10  1  0.39912000  0.89250000  0.49981000  1.0 -0.2270745262
F  F11  1  0.10750000  0.60088000  0.49981000  1.0 -0.2270745262
F  F12  1  0.60088000  0.10750000  0.50019000  1.0 -0.2270745262
F  F13  1  0.00975000  0.21693000  0.53293000  1.0 -0.2270745262
F  F14  1  0.21693000  0.00975000  0.46707000  1.0 -0.2270745262
F  F15  1  0.99025000  0.78307000  0.46707000  1.0 -0.2183933261
F  F16  1  0.78307000  0.99025000  0.53293000  1.0 -0.2183933261
F  F17  1  0.96689000  0.28749000  0.39213000  1.0 -0.1909657519
F  F18  1  0.28749000  0.96689000  0.60787000  1.0 -0.1909657519
F  F19  1  0.03311000  0.71251000  0.60787000  1.0 -0.1909657519
F  F20  1  0.71251000  0.03311000  0.39213000  1.0 -0.1909657519
F  F21  1  0.08125000  0.23499000  0.44213000  1.0 -0.1909657519
F  F22  1  0.23499000  0.08125000  0.55787000  1.0 -0.1909657519
F  F23  1  0.91875000  0.76501000  0.55787000  1.0 -0.1909657519
F  F24  1  0.76501000  0.91875000  0.44213000  1.0 -0.1909657519
