# DDEC6 charges by PACMAN v1.1 (https://github.com/mtap-research/PACMAN-charge/)
data_VOTHAQ_ion_pacman
_symmetry_space_group_name_H-M   'P 1'
_cell_length_a   10.73730000
_cell_length_b   11.41480000
_cell_length_c   27.86390000
_cell_angle_alpha   90.00000000
_cell_angle_beta   105.20600000
_cell_angle_gamma   90.00000000
_symmetry_Int_Tables_number   1
_chemical_formula_structural   AgSbH12C29(N2F3)2
_chemical_formula_sum   'Ag4 Sb4 H48 C116 N16 F24'
_cell_volume   3295.54824933
_cell_formula_units_Z   4
loop_
 _symmetry_equiv_pos_site_id
 _symmetry_equiv_pos_as_xyz
  1  'x, y, z'
loop_
 _atom_site_type_symbol
 _atom_site_label
 _atom_site_symmetry_multiplicity
 _atom_site_fract_x
 _atom_site_fract_y
 _atom_site_fract_z
 _atom_site_occupancy
 _atom_site_charge
Ag  Ag1  1  0.15664000  0.74058000  0.61430000  1.0 0.5245237104
Ag  Ag2  1  0.84336000  0.24058000  0.88570000  1.0 0.5245237104
Ag  Ag3  1  0.84336000  0.25942000  0.38570000  1.0 0.5245237104
Ag  Ag4  1  0.15664000  0.75942000  0.11430000  1.0 0.5245237104
Sb  Sb1  1  0.70235000  0.73906000  0.66666667  1.0 1.8778272621
Sb  Sb2  1  0.29765000  0.23906000  0.83331000  1.0 1.8778272621
Sb  Sb3  1  0.29765000  0.26094000  0.33333333  1.0 1.8778272621
Sb  Sb4  1  0.70235000  0.76094000  0.16669000  1.0 1.8778272621
H  H1  1  0.45920000  0.06420000  0.60880000  1.0 0.1312063452
H  H2  1  0.67780000  0.15630000  0.77260000  1.0 0.1312063452
H  H3  1  0.83440000  0.40550000  0.60550000  1.0 0.1312063452
H  H4  1  0.42630000  0.28950000  0.45940000  1.0 0.1312063452
H  H5  1  0.86640000  0.30920000  0.77030000  1.0 0.1312063452
H  H6  1  0.83990000  0.05630000  0.62140000  1.0 0.1413746441
H  H7  1  0.49700000  0.42860000  0.62230000  1.0 0.1413746441
H  H8  1  0.59890000  0.12300000  0.45820000  1.0 0.1413746441
H  H9  1  0.30680000  0.44600000  0.47700000  1.0 0.1231200299
H  H10  1  0.51150000  0.01800000  0.75670000  1.0 0.1312063452
H  H11  1  0.76260000  0.98410000  0.47570000  1.0 0.1231200299
H  H12  1  0.00940000  0.44150000  0.75220000  1.0 0.1312063452
H  H13  1  0.54080000  0.56420000  0.89120000  1.0 0.1312063452
H  H14  1  0.32220000  0.65630000  0.72740000  1.0 0.1312063452
H  H15  1  0.16560000  0.90550000  0.89450000  1.0 0.1312063452
H  H16  1  0.57370000  0.78950000  0.04060000  1.0 0.1312063452
H  H17  1  0.13360000  0.80920000  0.72970000  1.0 0.1312063452
H  H18  1  0.16010000  0.55630000  0.87860000  1.0 0.1413746441
H  H19  1  0.50300000  0.92860000  0.87770000  1.0 0.1413746441
H  H20  1  0.40110000  0.62300000  0.04180000  1.0 0.1413746441
H  H21  1  0.69320000  0.94600000  0.02300000  1.0 0.1231200299
H  H22  1  0.48850000  0.51800000  0.74330000  1.0 0.1312063452
H  H23  1  0.23740000  0.48410000  0.02430000  1.0 0.1231200299
H  H24  1  0.99060000  0.94150000  0.74780000  1.0 0.1312063452
H  H25  1  0.54080000  0.93580000  0.39120000  1.0 0.1312063452
H  H26  1  0.32220000  0.84370000  0.22740000  1.0 0.1312063452
H  H27  1  0.16560000  0.59450000  0.39450000  1.0 0.1312063452
H  H28  1  0.57370000  0.71050000  0.54060000  1.0 0.1312063452
H  H29  1  0.13360000  0.69080000  0.22970000  1.0 0.1312063452
H  H30  1  0.16010000  0.94370000  0.37860000  1.0 0.1413746441
H  H31  1  0.50300000  0.57140000  0.37770000  1.0 0.1413746441
H  H32  1  0.40110000  0.87700000  0.54180000  1.0 0.1413746441
H  H33  1  0.69320000  0.55400000  0.52300000  1.0 0.1231200299
H  H34  1  0.48850000  0.98200000  0.24330000  1.0 0.1312063452
H  H35  1  0.23740000  0.01590000  0.52430000  1.0 0.1231200299
H  H36  1  0.99060000  0.55850000  0.24780000  1.0 0.1312063452
H  H37  1  0.45920000  0.43580000  0.10880000  1.0 0.1312063452
H  H38  1  0.67780000  0.34370000  0.27260000  1.0 0.1312063452
H  H39  1  0.83440000  0.09450000  0.10550000  1.0 0.1312063452
H  H40  1  0.42630000  0.21050000  0.95940000  1.0 0.1312063452
H  H41  1  0.86640000  0.19080000  0.27030000  1.0 0.1312063452
H  H42  1  0.83990000  0.44370000  0.12140000  1.0 0.1413746441
H  H43  1  0.49700000  0.07140000  0.12230000  1.0 0.1413746441
H  H44  1  0.59890000  0.37700000  0.95820000  1.0 0.1413746441
H  H45  1  0.30680000  0.05400000  0.97700000  1.0 0.1231200299
H  H46  1  0.51150000  0.48200000  0.25670000  1.0 0.1312063452
H  H47  1  0.76260000  0.51590000  0.97570000  1.0 0.1231200299
H  H48  1  0.00940000  0.05850000  0.25220000  1.0 0.1312063452
C  C1  1  0.55040000  0.30660000  0.57910000  1.0 0.0229113808
C  C2  1  0.53280000  0.26780000  0.53060000  1.0 0.0327366032
C  C3  1  0.65420000  0.23470000  0.61490000  1.0 0.0327366032
C  C4  1  0.50270000  0.08300000  0.64140000  1.0 -0.1630025082
C  C5  1  0.62710000  0.17420000  0.53010000  1.0 0.0327366032
C  C6  1  0.63410000  0.13740000  0.74000000  1.0 -0.1071445927
C  C7  1  0.66680000  0.19010000  0.70100000  1.0 0.0327366032
C  C8  1  0.60090000  0.16540000  0.65110000  1.0 0.0229113808
C  C9  1  0.84100000  0.38540000  0.63840000  1.0 -0.1630025082
C  C10  1  0.44020000  0.31760000  0.49170000  1.0 -0.1193946722
C  C11  1  0.86070000  0.32850000  0.73740000  1.0 -0.1071445927
C  C12  1  0.76770000  0.27720000  0.70020000  1.0 0.0405962621
C  C13  1  0.39020000  0.45140000  0.55160000  1.0 0.0327366032
C  C14  1  0.79280000  0.07100000  0.58880000  1.0 -0.1441823937
C  C15  1  0.76000000  0.30410000  0.65010000  1.0 0.0229113808
C  C16  1  0.93360000  0.43740000  0.67720000  1.0 0.0405962621
C  C17  1  0.48180000  0.40040000  0.58990000  1.0 -0.1495445319
C  C18  1  0.64810000  0.11040000  0.49060000  1.0 -0.1193946722
C  C19  1  0.37140000  0.94080000  0.67050000  1.0 0.3108397104
C  C20  1  0.81630000  0.00870000  0.54950000  1.0 0.0405962621
C  C21  1  0.36900000  0.41040000  0.50240000  1.0 -0.1193946722
C  C22  1  0.01740000  0.52550000  0.66500000  1.0 0.3178029857
C  C23  1  0.53470000  0.05500000  0.73060000  1.0 -0.0900986068
C  C24  1  0.47030000  0.02900000  0.68130000  1.0 0.0405962621
C  C25  1  0.74500000  0.02770000  0.50130000  1.0 -0.127167026
C  C26  1  0.31860000  0.55050000  0.56090000  1.0 0.3012383297
C  C27  1  0.94540000  0.40790000  0.72690000  1.0 -0.0900986068
C  C28  1  0.69790000  0.15510000  0.57840000  1.0 0.0229113808
C  C29  1  0.91830000  0.92430000  0.56020000  1.0 0.3012383297
C  C30  1  0.44960000  0.80660000  0.92090000  1.0 0.0229113808
C  C31  1  0.46720000  0.76780000  0.96940000  1.0 0.0327366032
C  C32  1  0.34580000  0.73470000  0.88510000  1.0 0.0327366032
C  C33  1  0.49730000  0.58300000  0.85860000  1.0 -0.1630025082
C  C34  1  0.37290000  0.67420000  0.96990000  1.0 0.0327366032
C  C35  1  0.36590000  0.63740000  0.76000000  1.0 -0.1071445927
C  C36  1  0.33320000  0.69010000  0.79900000  1.0 0.0327366032
C  C37  1  0.39910000  0.66540000  0.84890000  1.0 0.0229113808
C  C38  1  0.15900000  0.88540000  0.86160000  1.0 -0.1630025082
C  C39  1  0.55980000  0.81760000  0.00830000  1.0 -0.1193946722
C  C40  1  0.13930000  0.82850000  0.76260000  1.0 -0.1071445927
C  C41  1  0.23230000  0.77720000  0.79980000  1.0 0.0405962621
C  C42  1  0.60980000  0.95140000  0.94840000  1.0 0.0327366032
C  C43  1  0.20720000  0.57100000  0.91120000  1.0 -0.1441823937
C  C44  1  0.24000000  0.80410000  0.84990000  1.0 0.0229113808
C  C45  1  0.06640000  0.93740000  0.82280000  1.0 0.0405962621
C  C46  1  0.51820000  0.90040000  0.91010000  1.0 -0.1495445319
C  C47  1  0.35190000  0.61040000  0.00940000  1.0 -0.1193946722
C  C48  1  0.62860000  0.44080000  0.82950000  1.0 0.3108397104
C  C49  1  0.18370000  0.50870000  0.95050000  1.0 0.0405962621
C  C50  1  0.63100000  0.91040000  0.99760000  1.0 -0.1193946722
C  C51  1  0.98260000  0.02550000  0.83500000  1.0 0.3178029857
C  C52  1  0.46530000  0.55500000  0.76940000  1.0 -0.0900986068
C  C53  1  0.52970000  0.52900000  0.81870000  1.0 0.0405962621
C  C54  1  0.25500000  0.52770000  0.99870000  1.0 -0.127167026
C  C55  1  0.68140000  0.05050000  0.93910000  1.0 0.3012383297
C  C56  1  0.05460000  0.90790000  0.77310000  1.0 -0.0900986068
C  C57  1  0.30210000  0.65510000  0.92160000  1.0 0.0229113808
C  C58  1  0.08170000  0.42430000  0.93980000  1.0 0.3012383297
C  C59  1  0.44960000  0.69340000  0.42090000  1.0 0.0229113808
C  C60  1  0.46720000  0.73220000  0.46940000  1.0 0.0327366032
C  C61  1  0.34580000  0.76530000  0.38510000  1.0 0.0327366032
C  C62  1  0.49730000  0.91700000  0.35860000  1.0 -0.1630025082
C  C63  1  0.37290000  0.82580000  0.46990000  1.0 0.0327366032
C  C64  1  0.36590000  0.86260000  0.26000000  1.0 -0.1071445927
C  C65  1  0.33320000  0.80990000  0.29900000  1.0 0.0327366032
C  C66  1  0.39910000  0.83460000  0.34890000  1.0 0.0229113808
C  C67  1  0.15900000  0.61460000  0.36160000  1.0 -0.1630025082
C  C68  1  0.55980000  0.68240000  0.50830000  1.0 -0.1193946722
C  C69  1  0.13930000  0.67150000  0.26260000  1.0 -0.1071445927
C  C70  1  0.23230000  0.72280000  0.29980000  1.0 0.0405962621
C  C71  1  0.60980000  0.54860000  0.44840000  1.0 0.0327366032
C  C72  1  0.20720000  0.92900000  0.41120000  1.0 -0.1441823937
C  C73  1  0.24000000  0.69590000  0.34990000  1.0 0.0229113808
C  C74  1  0.06640000  0.56260000  0.32280000  1.0 0.0405962621
C  C75  1  0.51820000  0.59960000  0.41010000  1.0 -0.1495445319
C  C76  1  0.35190000  0.88960000  0.50940000  1.0 -0.1193946722
C  C77  1  0.62860000  0.05920000  0.32950000  1.0 0.3108397104
C  C78  1  0.18370000  0.99130000  0.45050000  1.0 0.0405962621
C  C79  1  0.63100000  0.58960000  0.49760000  1.0 -0.1193946722
C  C80  1  0.98260000  0.47450000  0.33500000  1.0 0.3178029857
C  C81  1  0.46530000  0.94500000  0.26940000  1.0 -0.0900986068
C  C82  1  0.52970000  0.97100000  0.31870000  1.0 0.0405962621
C  C83  1  0.25500000  0.97230000  0.49870000  1.0 -0.127167026
C  C84  1  0.68140000  0.44950000  0.43910000  1.0 0.3012383297
C  C85  1  0.05460000  0.59210000  0.27310000  1.0 -0.0900986068
C  C86  1  0.30210000  0.84490000  0.42160000  1.0 0.0229113808
C  C87  1  0.08170000  0.07570000  0.43980000  1.0 0.3012383297
C  C88  1  0.55040000  0.19340000  0.07910000  1.0 0.0229113808
C  C89  1  0.53280000  0.23220000  0.03060000  1.0 0.0327366032
C  C90  1  0.65420000  0.26530000  0.11490000  1.0 0.0327366032
C  C91  1  0.50270000  0.41700000  0.14140000  1.0 -0.1630025082
C  C92  1  0.62710000  0.32580000  0.03010000  1.0 0.0327366032
C  C93  1  0.63410000  0.36260000  0.24000000  1.0 -0.1071445927
C  C94  1  0.66680000  0.30990000  0.20100000  1.0 0.0327366032
C  C95  1  0.60090000  0.33460000  0.15110000  1.0 0.0229113808
C  C96  1  0.84100000  0.11460000  0.13840000  1.0 -0.1630025082
C  C97  1  0.44020000  0.18240000  0.99170000  1.0 -0.1193946722
C  C98  1  0.86070000  0.17150000  0.23740000  1.0 -0.1071445927
C  C99  1  0.76770000  0.22280000  0.20020000  1.0 0.0405962621
C  C100  1  0.39020000  0.04860000  0.05160000  1.0 0.0327366032
C  C101  1  0.79280000  0.42900000  0.08880000  1.0 -0.1441823937
C  C102  1  0.76000000  0.19590000  0.15010000  1.0 0.0229113808
C  C103  1  0.93360000  0.06260000  0.17720000  1.0 0.0405962621
C  C104  1  0.48180000  0.09960000  0.08990000  1.0 -0.1495445319
C  C105  1  0.64810000  0.38960000  0.99060000  1.0 -0.1193946722
C  C106  1  0.37140000  0.55920000  0.17050000  1.0 0.3108397104
C  C107  1  0.81630000  0.49130000  0.04950000  1.0 0.0405962621
C  C108  1  0.36900000  0.08960000  0.00240000  1.0 -0.1193946722
C  C109  1  0.01740000  0.97450000  0.16500000  1.0 0.3178029857
C  C110  1  0.53470000  0.44500000  0.23060000  1.0 -0.0900986068
C  C111  1  0.47030000  0.47100000  0.18130000  1.0 0.0405962621
C  C112  1  0.74500000  0.47230000  0.00130000  1.0 -0.127167026
C  C113  1  0.31860000  0.94950000  0.06090000  1.0 0.3012383297
C  C114  1  0.94540000  0.09210000  0.22690000  1.0 -0.0900986068
C  C115  1  0.69790000  0.34490000  0.07840000  1.0 0.0229113808
C  C116  1  0.91830000  0.57570000  0.06020000  1.0 0.3012383297
N  N1  1  0.29640000  0.87030000  0.66080000  1.0 -0.3712426075
N  N2  1  0.08040000  0.59380000  0.65470000  1.0 -0.3712426075
N  N3  1  0.26300000  0.62770000  0.56940000  1.0 -0.3607798688
N  N4  1  0.99760000  0.85590000  0.57040000  1.0 -0.3607798688
N  N5  1  0.70360000  0.37030000  0.83920000  1.0 -0.3712426075
N  N6  1  0.91960000  0.09380000  0.84530000  1.0 -0.3712426075
N  N7  1  0.73700000  0.12770000  0.93060000  1.0 -0.3607798688
N  N8  1  0.00240000  0.35590000  0.92960000  1.0 -0.3607798688
N  N9  1  0.70360000  0.12970000  0.33920000  1.0 -0.3712426075
N  N10  1  0.91960000  0.40620000  0.34530000  1.0 -0.3712426075
N  N11  1  0.73700000  0.37230000  0.43060000  1.0 -0.3607798688
N  N12  1  0.00240000  0.14410000  0.42960000  1.0 -0.3607798688
N  N13  1  0.29640000  0.62970000  0.16080000  1.0 -0.3712426075
N  N14  1  0.08040000  0.90620000  0.15470000  1.0 -0.3712426075
N  N15  1  0.26300000  0.87230000  0.06940000  1.0 -0.3607798688
N  N16  1  0.99760000  0.64410000  0.07040000  1.0 -0.3607798688
F  F1  1  0.84050000  0.67610000  0.71310000  1.0 -0.4402337656
F  F2  1  0.58010000  0.81760000  0.61860000  1.0 -0.4667805679
F  F3  1  0.75130000  0.66170000  0.61750000  1.0 -0.4489097245
F  F4  1  0.63780000  0.79780000  0.71580000  1.0 -0.4313104399
F  F5  1  0.80380000  0.86750000  0.66820000  1.0 -0.4489097245
F  F6  1  0.60290000  0.61220000  0.66770000  1.0 -0.4402337656
F  F7  1  0.15950000  0.17610000  0.78690000  1.0 -0.4402337656
F  F8  1  0.41990000  0.31760000  0.88140000  1.0 -0.4667805679
F  F9  1  0.24870000  0.16170000  0.88250000  1.0 -0.4489097245
F  F10  1  0.36220000  0.29780000  0.78420000  1.0 -0.4313104399
F  F11  1  0.19620000  0.36750000  0.83180000  1.0 -0.4489097245
F  F12  1  0.39710000  0.11220000  0.83230000  1.0 -0.4402337656
F  F13  1  0.15950000  0.32390000  0.28690000  1.0 -0.4402337656
F  F14  1  0.41990000  0.18240000  0.38140000  1.0 -0.4667805679
F  F15  1  0.24870000  0.33830000  0.38250000  1.0 -0.4489097245
F  F16  1  0.36220000  0.20220000  0.28420000  1.0 -0.4313104399
F  F17  1  0.19620000  0.13250000  0.33180000  1.0 -0.4489097245
F  F18  1  0.39710000  0.38780000  0.33230000  1.0 -0.4402337656
F  F19  1  0.84050000  0.82390000  0.21310000  1.0 -0.4402337656
F  F20  1  0.58010000  0.68240000  0.11860000  1.0 -0.4667805679
F  F21  1  0.75130000  0.83830000  0.11750000  1.0 -0.4489097245
F  F22  1  0.63780000  0.70220000  0.21580000  1.0 -0.4313104399
F  F23  1  0.80380000  0.63250000  0.16820000  1.0 -0.4489097245
F  F24  1  0.60290000  0.88780000  0.16770000  1.0 -0.4402337656
