# DDEC6 charges by PACMAN v1.1 (https://github.com/mtap-research/PACMAN-charge/)
data_VOVQEE_ASR_pacman
_symmetry_space_group_name_H-M   'P 1'
_cell_length_a   14.48500000
_cell_length_b   12.32100000
_cell_length_c   16.94800000
_cell_angle_alpha   90.00000000
_cell_angle_beta   93.49100000
_cell_angle_gamma   90.00000000
_symmetry_Int_Tables_number   1
_chemical_formula_structural   Cu3Ag2(CN)6
_chemical_formula_sum   'Cu12 Ag8 C24 N24'
_cell_volume   3019.09150639
_cell_formula_units_Z   4
loop_
 _symmetry_equiv_pos_site_id
 _symmetry_equiv_pos_as_xyz
  1  'x, y, z'
loop_
 _atom_site_type_symbol
 _atom_site_label
 _atom_site_symmetry_multiplicity
 _atom_site_fract_x
 _atom_site_fract_y
 _atom_site_fract_z
 _atom_site_occupancy
 _atom_site_charge
Cu  Cu1  1  0.69403000  0.83065000  0.00603000  1.0 0.4085567002
Cu  Cu2  1  0.30597000  0.16935000  0.99397000  1.0 0.41660669
Cu  Cu3  1  0.30597000  0.83065000  0.49397000  1.0 0.41660669
Cu  Cu4  1  0.69403000  0.16935000  0.50603000  1.0 0.4085567002
Cu  Cu5  1  0.19403000  0.33065000  0.00603000  1.0 0.41660669
Cu  Cu6  1  0.80597000  0.66935000  0.99397000  1.0 0.4085567002
Cu  Cu7  1  0.80597000  0.33065000  0.49397000  1.0 0.402464728
Cu  Cu8  1  0.19403000  0.66935000  0.50603000  1.0 0.41660669
Cu  Cu9  1  0.50000000  0.50000000  0.00000000  1.0 0.5258405015
Cu  Cu10  1  0.50000000  0.50000000  0.50000000  1.0 0.5258405015
Cu  Cu11  1  0.00000000  0.00000000  0.00000000  1.0 0.5198530659
Cu  Cu12  1  0.00000000  0.00000000  0.50000000  1.0 0.5096982524
Ag  Ag1  1  0.50000000  0.09738000  0.25000000  1.0 0.0560540232
Ag  Ag2  1  0.50000000  0.90262000  0.75000000  1.0 0.0560540232
Ag  Ag3  1  0.00000000  0.59738000  0.25000000  1.0 0.0560540232
Ag  Ag4  1  0.00000000  0.40262000  0.75000000  1.0 0.0560540232
Ag  Ag5  1  0.50000000  0.85413000  0.25000000  1.0 0.0520392797
Ag  Ag6  1  0.50000000  0.14587000  0.75000000  1.0 0.0520392797
Ag  Ag7  1  0.00000000  0.35413000  0.25000000  1.0 0.0520392797
Ag  Ag8  1  0.00000000  0.64587000  0.75000000  1.0 0.0520392797
C  C1  1  0.58288000  0.10967000  0.35011000  1.0 0.1143386558
C  C2  1  0.41712000  0.89033000  0.64989000  1.0 0.1143386558
C  C3  1  0.41712000  0.10967000  0.14989000  1.0 0.1143386558
C  C4  1  0.58288000  0.89033000  0.85011000  1.0 0.1143386558
C  C5  1  0.08288000  0.60967000  0.35011000  1.0 0.1143386558
C  C6  1  0.91712000  0.39033000  0.64989000  1.0 0.1208338154
C  C7  1  0.91712000  0.60967000  0.14989000  1.0 0.1208338154
C  C8  1  0.08288000  0.39033000  0.85011000  1.0 0.1208338154
C  C9  1  0.57890000  0.85028000  0.15426000  1.0 0.1208338154
C  C10  1  0.42110000  0.14972000  0.84574000  1.0 0.1208338154
C  C11  1  0.42110000  0.85028000  0.34574000  1.0 0.1208338154
C  C12  1  0.57890000  0.14972000  0.65426000  1.0 0.1208338154
C  C13  1  0.07890000  0.35028000  0.15426000  1.0 0.1208338154
C  C14  1  0.92110000  0.64972000  0.84574000  1.0 0.1288820205
C  C15  1  0.92110000  0.35028000  0.34574000  1.0 0.1208338154
C  C16  1  0.07890000  0.64972000  0.65426000  1.0 0.1288820205
C  C17  1  0.67329000  0.63638000  0.98646000  1.0 0.1527005389
C  C18  1  0.32671000  0.36362000  0.01354000  1.0 0.1288820205
C  C19  1  0.32671000  0.63638000  0.51354000  1.0 0.1288820205
C  C20  1  0.67329000  0.36362000  0.48646000  1.0 0.1527005389
C  C21  1  0.17329000  0.13638000  0.98646000  1.0 0.1288820205
C  C22  1  0.82671000  0.86362000  0.01354000  1.0 0.1398633301
C  C23  1  0.82671000  0.13638000  0.51354000  1.0 0.1288820205
C  C24  1  0.17329000  0.86362000  0.48646000  1.0 0.1288820205
N  N1  1  0.62616000  0.87329000  0.90955000  1.0 -0.3402082406
N  N2  1  0.37384000  0.12671000  0.09045000  1.0 -0.3402082406
N  N3  1  0.37384000  0.87329000  0.59045000  1.0 -0.3402082406
N  N4  1  0.62616000  0.12671000  0.40955000  1.0 -0.3402082406
N  N5  1  0.12616000  0.37329000  0.90955000  1.0 -0.3402082406
N  N6  1  0.87384000  0.62671000  0.09045000  1.0 -0.3402082406
N  N7  1  0.87384000  0.37329000  0.59045000  1.0 -0.3402082406
N  N8  1  0.12616000  0.62671000  0.40955000  1.0 -0.3402082406
N  N9  1  0.62418000  0.84747000  0.09901000  1.0 -0.3227106314
N  N10  1  0.37582000  0.15253000  0.90099000  1.0 -0.3251484826
N  N11  1  0.37582000  0.84747000  0.40099000  1.0 -0.3227106314
N  N12  1  0.62418000  0.15253000  0.59901000  1.0 -0.3227106314
N  N13  1  0.12418000  0.34747000  0.09901000  1.0 -0.3227106314
N  N14  1  0.87582000  0.65253000  0.90099000  1.0 -0.3227106314
N  N15  1  0.87582000  0.34747000  0.40099000  1.0 -0.3227106314
N  N16  1  0.12418000  0.65253000  0.59901000  1.0 -0.3227106314
N  N17  1  0.60505000  0.58345000  0.98709000  1.0 -0.4476019338
N  N18  1  0.39495000  0.41655000  0.01291000  1.0 -0.4384113074
N  N19  1  0.39495000  0.58345000  0.51291000  1.0 -0.4384113074
N  N20  1  0.60505000  0.41655000  0.48709000  1.0 -0.4476019338
N  N21  1  0.10505000  0.08345000  0.98709000  1.0 -0.4384113074
N  N22  1  0.89495000  0.91655000  0.01291000  1.0 -0.4384113074
N  N23  1  0.89495000  0.08345000  0.51291000  1.0 -0.4300826833
N  N24  1  0.10505000  0.91655000  0.48709000  1.0 -0.4300826833
