# DDEC6 charges by PACMAN v1.1 (https://github.com/mtap-research/PACMAN-charge/)
data_VOXRUY_ASR_pacman
_symmetry_space_group_name_H-M   'P 1'
_cell_length_a   9.41570000
_cell_length_b   13.28270000
_cell_length_c   19.84300000
_cell_angle_alpha   84.19200000
_cell_angle_beta   83.14800000
_cell_angle_gamma   81.06000000
_symmetry_Int_Tables_number   1
_chemical_formula_structural   GdH15(C3O)6
_chemical_formula_sum   'Gd4 H60 C72 O24'
_cell_volume   2425.36617181
_cell_formula_units_Z   4
loop_
 _symmetry_equiv_pos_site_id
 _symmetry_equiv_pos_as_xyz
  1  'x, y, z'
loop_
 _atom_site_type_symbol
 _atom_site_label
 _atom_site_symmetry_multiplicity
 _atom_site_fract_x
 _atom_site_fract_y
 _atom_site_fract_z
 _atom_site_occupancy
 _atom_site_charge
Gd  Gd1  1  0.24617000  0.00588000  0.02151000  1.0 2.0040432959
Gd  Gd2  1  0.25532000  0.51284000  0.47980000  1.0 2.0236935167
Gd  Gd3  1  0.75383000  0.99412000  0.97849000  1.0 2.0058078318
Gd  Gd4  1  0.74468000  0.48716000  0.52020000  1.0 2.0236935167
H  H1  1  0.73178000  0.58572000  0.35017000  1.0 0.1199984464
H  H2  1  0.61364000  0.68938000  0.26520000  1.0 0.091507539
H  H3  1  0.51405000  0.78821000  0.19367000  1.0 0.1004578023
H  H4  1  0.99475000  0.84262000  0.80259000  1.0 0.1199984464
H  H5  1  0.25236000  0.65329000  0.65653000  1.0 0.1004578023
H  H6  1  0.77567000  0.85137000  0.13315000  1.0 0.1138417496
H  H7  1  0.51562000  0.68633000  0.69775000  1.0 0.1301478444
H  H8  1  0.13284000  0.73362000  0.72694000  1.0 0.0821192814
H  H9  1  0.35111000  0.92716000  0.85154000  1.0 0.1004578023
H  H10  1  0.55206000  0.68966000  0.95847000  1.0 0.1199984464
H  H11  1  0.98216000  0.79679000  0.19479000  1.0 0.091507539
H  H12  1  0.51136000  0.17462000  0.55220000  1.0 0.1199984464
H  H13  1  0.10010000  0.69521000  0.28425000  1.0 0.091507539
H  H14  1  0.47550000  0.83270000  0.76935000  1.0 0.1004578023
H  H15  1  0.18281000  0.63439000  0.05650000  1.0 0.091507539
H  H16  1  0.19402000  0.12759000  0.45579000  1.0 0.1004578023
H  H17  1  0.27236000  0.46308000  0.07858000  1.0 0.091507539
H  H18  1  0.34189000  0.97523000  0.41674000  1.0 0.091507539
H  H19  1  0.25295000  0.89718000  0.83453000  1.0 0.1004578023
H  H20  1  0.97515000  0.66925000  0.29427000  1.0 0.091507539
H  H21  1  0.29181000  0.63460000  0.03346000  1.0 0.1004578023
H  H22  1  0.88829000  0.75251000  0.22281000  1.0 0.091507539
H  H23  1  0.02057000  0.73259000  0.71080000  1.0 0.091507539
H  H24  1  0.36748000  0.81530000  0.76205000  1.0 0.091507539
H  H25  1  0.30314000  0.14694000  0.46097000  1.0 0.1004578023
H  H26  1  0.62396000  0.50846000  0.95934000  1.0 0.0821192814
H  H27  1  0.39629000  0.75782000  0.20160000  1.0 0.0821192814
H  H28  1  0.52907000  0.63624000  0.27740000  1.0 0.1004578023
H  H29  1  0.16681000  0.60751000  0.64904000  1.0 0.091507539
H  H30  1  0.62384000  0.00918000  0.52687000  1.0 0.091507539
H  H31  1  0.26822000  0.41428000  0.64983000  1.0 0.1199984464
H  H32  1  0.38636000  0.31062000  0.73480000  1.0 0.091507539
H  H33  1  0.48595000  0.21179000  0.80633000  1.0 0.1004578023
H  H34  1  0.00525000  0.15738000  0.19741000  1.0 0.1301478444
H  H35  1  0.74764000  0.34671000  0.34347000  1.0 0.1004578023
H  H36  1  0.22433000  0.14863000  0.86685000  1.0 0.1138417496
H  H37  1  0.48438000  0.31367000  0.30225000  1.0 0.1301478444
H  H38  1  0.86716000  0.26638000  0.27306000  1.0 0.0744870304
H  H39  1  0.64889000  0.07284000  0.14846000  1.0 0.1004578023
H  H40  1  0.44794000  0.31034000  0.04153000  1.0 0.1199984464
H  H41  1  0.01784000  0.20321000  0.80521000  1.0 0.091507539
H  H42  1  0.48864000  0.82538000  0.44780000  1.0 0.1199984464
H  H43  1  0.89990000  0.30479000  0.71575000  1.0 0.091507539
H  H44  1  0.52450000  0.16730000  0.23065000  1.0 0.1004578023
H  H45  1  0.81719000  0.36561000  0.94350000  1.0 0.091507539
H  H46  1  0.80598000  0.87241000  0.54421000  1.0 0.1004578023
H  H47  1  0.72764000  0.53692000  0.92142000  1.0 0.091507539
H  H48  1  0.65811000  0.02477000  0.58326000  1.0 0.091507539
H  H49  1  0.74705000  0.10282000  0.16547000  1.0 0.1004578023
H  H50  1  0.02485000  0.33075000  0.70573000  1.0 0.091507539
H  H51  1  0.70819000  0.36540000  0.96654000  1.0 0.1004578023
H  H52  1  0.11171000  0.24749000  0.77719000  1.0 0.091507539
H  H53  1  0.97943000  0.26741000  0.28920000  1.0 0.091507539
H  H54  1  0.63252000  0.18470000  0.23795000  1.0 0.091507539
H  H55  1  0.69686000  0.85306000  0.53903000  1.0 0.1004578023
H  H56  1  0.37604000  0.49154000  0.04066000  1.0 0.0821192814
H  H57  1  0.60371000  0.24218000  0.79840000  1.0 0.0821192814
H  H58  1  0.47093000  0.36376000  0.72260000  1.0 0.1004578023
H  H59  1  0.83319000  0.39249000  0.35096000  1.0 0.091507539
H  H60  1  0.37616000  0.99082000  0.47313000  1.0 0.091507539
C  C1  1  0.05430000  0.96160000  0.88740000  1.0 0.6212715058
C  C2  1  0.99500000  0.56670000  0.38520000  1.0 0.6444456427
C  C3  1  0.15140000  0.89720000  0.83800000  1.0 -0.0900658728
C  C4  1  0.29900000  0.79280000  0.00600000  1.0 0.5584532766
C  C5  1  0.92020000  0.62900000  0.32660000  1.0 -0.0997606778
C  C6  1  0.30380000  0.28960000  0.49190000  1.0 0.5243380217
C  C7  1  0.78500000  0.62900000  0.31930000  1.0 -0.1684740982
C  C8  1  0.71400000  0.69040000  0.26750000  1.0 -0.0381013619
C  C9  1  0.57280000  0.82590000  0.16140000  1.0 -0.1271000953
C  C10  1  0.35200000  0.68110000  0.01030000  1.0 -0.0997606778
C  C11  1  0.09700000  0.83960000  0.79860000  1.0 -0.1684740982
C  C12  1  0.35500000  0.64600000  0.65560000  1.0 -0.1192272121
C  C13  1  0.50520000  0.89340000  0.10800000  1.0 0.6489920764
C  C14  1  0.78800000  0.75180000  0.22010000  1.0 -0.0479944921
C  C15  1  0.44970000  0.57680000  0.60750000  1.0 0.6599714904
C  C16  1  0.71770000  0.81510000  0.16670000  1.0 -0.1409108342
C  C17  1  0.41400000  0.69700000  0.69670000  1.0 -0.1639095099
C  C18  1  0.18000000  0.77440000  0.75120000  1.0 -0.0381013619
C  C19  1  0.30000000  0.89000000  0.82610000  1.0 -0.0997606778
C  C20  1  0.48900000  0.64410000  0.98050000  1.0 -0.1526381077
C  C21  1  0.32300000  0.77000000  0.74050000  1.0 -0.0381013619
C  C22  1  0.35000000  0.18540000  0.48700000  1.0 -0.1099630894
C  C23  1  0.53400000  0.53260000  0.98390000  1.0 -0.0381013619
C  C24  1  0.92900000  0.75400000  0.22640000  1.0 -0.0765115881
C  C25  1  0.47100000  0.13740000  0.52300000  1.0 -0.1192272121
C  C26  1  0.00100000  0.69300000  0.28000000  1.0 -0.0900658728
C  C27  1  0.53000000  0.03250000  0.51300000  1.0 -0.0479944921
C  C28  1  0.37400000  0.83100000  0.77760000  1.0 -0.0997606778
C  C29  1  0.28000000  0.61200000  0.04000000  1.0 -0.0479944921
C  C30  1  0.29200000  0.11200000  0.46400000  1.0 -0.0900658728
C  C31  1  0.32900000  0.50700000  0.05000000  1.0 -0.1526381077
C  C32  1  0.36800000  0.01000000  0.45200000  1.0 -0.1526381077
C  C33  1  0.12200000  0.72300000  0.71200000  1.0 -0.0997606778
C  C34  1  0.49600000  0.75900000  0.20400000  1.0 -0.0619787147
C  C35  1  0.57800000  0.68800000  0.25300000  1.0 -0.0997606778
C  C36  1  0.21300000  0.65400000  0.66900000  1.0 -0.0997606778
C  C37  1  0.94570000  0.03840000  0.11260000  1.0 0.6212715058
C  C38  1  0.00500000  0.43330000  0.61480000  1.0 0.6444456427
C  C39  1  0.84860000  0.10280000  0.16200000  1.0 -0.0997606778
C  C40  1  0.70100000  0.20720000  0.99400000  1.0 0.5584532766
C  C41  1  0.07980000  0.37100000  0.67340000  1.0 -0.0997606778
C  C42  1  0.69620000  0.71040000  0.50810000  1.0 0.5243380217
C  C43  1  0.21500000  0.37100000  0.68070000  1.0 -0.1684740982
C  C44  1  0.28600000  0.30960000  0.73250000  1.0 -0.0381013619
C  C45  1  0.42720000  0.17410000  0.83860000  1.0 -0.1271000953
C  C46  1  0.64800000  0.31890000  0.98970000  1.0 -0.0997606778
C  C47  1  0.90300000  0.16040000  0.20140000  1.0 -0.1751520486
C  C48  1  0.64500000  0.35400000  0.34440000  1.0 -0.1192272121
C  C49  1  0.49480000  0.10660000  0.89200000  1.0 0.6489920764
C  C50  1  0.21200000  0.24820000  0.77990000  1.0 -0.0479944921
C  C51  1  0.55030000  0.42320000  0.39250000  1.0 0.6599714904
C  C52  1  0.28230000  0.18490000  0.83330000  1.0 -0.1409108342
C  C53  1  0.58600000  0.30300000  0.30330000  1.0 -0.1639095099
C  C54  1  0.82000000  0.22560000  0.24880000  1.0 -0.0381013619
C  C55  1  0.70000000  0.11000000  0.17390000  1.0 -0.0997606778
C  C56  1  0.51100000  0.35590000  0.01950000  1.0 -0.1526381077
C  C57  1  0.67700000  0.23000000  0.25950000  1.0 -0.0381013619
C  C58  1  0.65000000  0.81460000  0.51300000  1.0 -0.1099630894
C  C59  1  0.46600000  0.46740000  0.01610000  1.0 -0.0381013619
C  C60  1  0.07100000  0.24600000  0.77360000  1.0 -0.0765115881
C  C61  1  0.52900000  0.86260000  0.47700000  1.0 -0.1192272121
C  C62  1  0.99900000  0.30700000  0.72000000  1.0 -0.0900658728
C  C63  1  0.47000000  0.96750000  0.48700000  1.0 -0.0479944921
C  C64  1  0.62600000  0.16900000  0.22240000  1.0 -0.0997606778
C  C65  1  0.72000000  0.38800000  0.96000000  1.0 -0.0479944921
C  C66  1  0.70800000  0.88800000  0.53600000  1.0 -0.0900658728
C  C67  1  0.67100000  0.49300000  0.95000000  1.0 -0.1526381077
C  C68  1  0.63200000  0.99000000  0.54800000  1.0 -0.1526381077
C  C69  1  0.87800000  0.27700000  0.28800000  1.0 -0.0997606778
C  C70  1  0.50400000  0.24100000  0.79600000  1.0 -0.0619787147
C  C71  1  0.42200000  0.31200000  0.74700000  1.0 -0.1099630894
C  C72  1  0.78700000  0.34600000  0.33100000  1.0 -0.0997606778
O  O1  1  0.38470000  0.85080000  0.97450000  1.0 -0.6063704939
O  O2  1  0.18030000  0.82530000  0.03780000  1.0 -0.5904274435
O  O3  1  0.36290000  0.34350000  0.52320000  1.0 -0.5478488655
O  O4  1  0.10830000  0.99660000  0.93170000  1.0 -0.6506074818
O  O5  1  0.37070000  0.90610000  0.11130000  1.0 -0.618744299
O  O6  1  0.58570000  0.56150000  0.61200000  1.0 -0.64061372
O  O7  1  0.91970000  0.52400000  0.43090000  1.0 -0.6799728425
O  O8  1  0.19730000  0.33440000  0.45980000  1.0 -0.5904274435
O  O9  1  0.58470000  0.93670000  0.05960000  1.0 -0.7528308184
O  O10  1  0.38990000  0.54350000  0.56090000  1.0 -0.7591273637
O  O11  1  0.12820000  0.56480000  0.38420000  1.0 -0.64061372
O  O12  1  0.92530000  0.97410000  0.88120000  1.0 -0.5904274435
O  O13  1  0.61530000  0.14920000  0.02550000  1.0 -0.6063704939
O  O14  1  0.81970000  0.17470000  0.96220000  1.0 -0.5904274435
O  O15  1  0.63710000  0.65650000  0.47680000  1.0 -0.5478488655
O  O16  1  0.89170000  0.00340000  0.06830000  1.0 -0.6506074818
O  O17  1  0.62930000  0.09390000  0.88870000  1.0 -0.618744299
O  O18  1  0.41430000  0.43850000  0.38800000  1.0 -0.64061372
O  O19  1  0.08030000  0.47600000  0.56910000  1.0 -0.6799728425
O  O20  1  0.80270000  0.66560000  0.54020000  1.0 -0.5904274435
O  O21  1  0.41530000  0.06330000  0.94040000  1.0 -0.7528308184
O  O22  1  0.61010000  0.45650000  0.43910000  1.0 -0.7591273637
O  O23  1  0.87180000  0.43520000  0.61580000  1.0 -0.64061372
O  O24  1  0.07470000  0.02590000  0.11880000  1.0 -0.5904274435
