# DDEC6 charges by PACMAN v1.1 (https://github.com/mtap-research/PACMAN-charge/)
data_VOXSAF_ASR_pacman
_symmetry_space_group_name_H-M   'P 1'
_cell_length_a   9.42030000
_cell_length_b   13.32790000
_cell_length_c   19.81700000
_cell_angle_alpha   83.92200000
_cell_angle_beta   82.99100000
_cell_angle_gamma   80.40500000
_symmetry_Int_Tables_number   1
_chemical_formula_structural   DyH15(C3O)6
_chemical_formula_sum   'Dy4 H60 C72 O24'
_cell_volume   2425.62020741
_cell_formula_units_Z   4
loop_
 _symmetry_equiv_pos_site_id
 _symmetry_equiv_pos_as_xyz
  1  'x, y, z'
loop_
 _atom_site_type_symbol
 _atom_site_label
 _atom_site_symmetry_multiplicity
 _atom_site_fract_x
 _atom_site_fract_y
 _atom_site_fract_z
 _atom_site_occupancy
 _atom_site_charge
Dy  Dy1  1  0.24618000  0.00589000  0.02152000  1.0 2.050216118
Dy  Dy2  1  0.25535000  0.51285000  0.47981000  1.0 2.050216118
Dy  Dy3  1  0.75382000  0.99411000  0.97848000  1.0 2.050216118
Dy  Dy4  1  0.74465000  0.48715000  0.52019000  1.0 2.050216118
H  H1  1  0.73109000  0.58692000  0.35012000  1.0 0.1206001595
H  H2  1  0.61522000  0.68871000  0.26437000  1.0 0.0908495189
H  H3  1  0.51621000  0.78606000  0.19262000  1.0 0.099731355
H  H4  1  0.99272000  0.84091000  0.80364000  1.0 0.1206001595
H  H5  1  0.25275000  0.65219000  0.65649000  1.0 0.1123554711
H  H6  1  0.77422000  0.85400000  0.13406000  1.0 0.1206001595
H  H7  1  0.51373000  0.68554000  0.69841000  1.0 0.1342776661
H  H8  1  0.13481000  0.73468000  0.72608000  1.0 0.0817241804
H  H9  1  0.35332000  0.92351000  0.85166000  1.0 0.099731355
H  H10  1  0.55029000  0.68966000  0.95993000  1.0 0.1206001595
H  H11  1  0.97791000  0.79824000  0.19601000  1.0 0.099731355
H  H12  1  0.51369000  0.17365000  0.54942000  1.0 0.1123554711
H  H13  1  0.10073000  0.69546000  0.28462000  1.0 0.0908495189
H  H14  1  0.47299000  0.83553000  0.76721000  1.0 0.099731355
H  H15  1  0.18097000  0.63449000  0.05576000  1.0 0.0908495189
H  H16  1  0.20242000  0.12743000  0.44987000  1.0 0.099731355
H  H17  1  0.33932000  0.96555000  0.42425000  1.0 0.0817241804
H  H18  1  0.27389000  0.46153000  0.07505000  1.0 0.0817241804
H  H19  1  0.25315000  0.89838000  0.83324000  1.0 0.099731355
H  H20  1  0.97559000  0.66811000  0.29342000  1.0 0.0908495189
H  H21  1  0.29254000  0.63445000  0.03354000  1.0 0.099731355
H  H22  1  0.88926000  0.75139000  0.22224000  1.0 0.0817241804
H  H23  1  0.02423000  0.72627000  0.71356000  1.0 0.099731355
H  H24  1  0.36838000  0.81317000  0.76274000  1.0 0.099731355
H  H25  1  0.30208000  0.14736000  0.46298000  1.0 0.0908495189
H  H26  1  0.62373000  0.50850000  0.95927000  1.0 0.0817241804
H  H27  1  0.39669000  0.76100000  0.20231000  1.0 0.0908495189
H  H28  1  0.52287000  0.64005000  0.28110000  1.0 0.099731355
H  H29  1  0.62375000  0.00778000  0.52659000  1.0 0.0817241804
H  H30  1  0.16919000  0.61053000  0.64788000  1.0 0.099731355
H  H31  1  0.26891000  0.41308000  0.64988000  1.0 0.1206001595
H  H32  1  0.38478000  0.31129000  0.73563000  1.0 0.0908495189
H  H33  1  0.48379000  0.21394000  0.80738000  1.0 0.099731355
H  H34  1  0.00728000  0.15909000  0.19636000  1.0 0.1206001595
H  H35  1  0.74725000  0.34781000  0.34351000  1.0 0.1123554711
H  H36  1  0.22578000  0.14600000  0.86594000  1.0 0.1123554711
H  H37  1  0.48627000  0.31446000  0.30159000  1.0 0.1342776661
H  H38  1  0.86519000  0.26532000  0.27392000  1.0 0.0817241804
H  H39  1  0.64668000  0.07649000  0.14834000  1.0 0.099731355
H  H40  1  0.44971000  0.31034000  0.04007000  1.0 0.1206001595
H  H41  1  0.02209000  0.20176000  0.80399000  1.0 0.099731355
H  H42  1  0.48631000  0.82635000  0.45058000  1.0 0.1123554711
H  H43  1  0.89927000  0.30454000  0.71538000  1.0 0.0908495189
H  H44  1  0.52701000  0.16447000  0.23279000  1.0 0.099731355
H  H45  1  0.81903000  0.36551000  0.94424000  1.0 0.0908495189
H  H46  1  0.79758000  0.87257000  0.55013000  1.0 0.099731355
H  H47  1  0.66068000  0.03445000  0.57575000  1.0 0.0817241804
H  H48  1  0.72611000  0.53847000  0.92495000  1.0 0.0908495189
H  H49  1  0.74685000  0.10162000  0.16676000  1.0 0.099731355
H  H50  1  0.02441000  0.33189000  0.70658000  1.0 0.0908495189
H  H51  1  0.70746000  0.36555000  0.96646000  1.0 0.099731355
H  H52  1  0.11074000  0.24861000  0.77776000  1.0 0.0817241804
H  H53  1  0.97577000  0.27373000  0.28644000  1.0 0.099731355
H  H54  1  0.63162000  0.18683000  0.23726000  1.0 0.099731355
H  H55  1  0.69792000  0.85264000  0.53702000  1.0 0.099731355
H  H56  1  0.37627000  0.49150000  0.04073000  1.0 0.0817241804
H  H57  1  0.60331000  0.23900000  0.79769000  1.0 0.0817241804
H  H58  1  0.47713000  0.35995000  0.71890000  1.0 0.099731355
H  H59  1  0.37625000  0.99222000  0.47341000  1.0 0.0908495189
H  H60  1  0.83081000  0.38947000  0.35212000  1.0 0.099731355
C  C1  1  0.05520000  0.96100000  0.88720000  1.0 0.6329211389
C  C2  1  0.99510000  0.56660000  0.38550000  1.0 0.6494518911
C  C3  1  0.15170000  0.89790000  0.83780000  1.0 -0.1007104219
C  C4  1  0.29750000  0.79300000  0.00590000  1.0 0.5604921972
C  C5  1  0.92050000  0.62870000  0.32610000  1.0 -0.0901804789
C  C6  1  0.30520000  0.28990000  0.49180000  1.0 0.5279298221
C  C7  1  0.78470000  0.62930000  0.31890000  1.0 -0.1604211137
C  C8  1  0.71490000  0.68990000  0.26710000  1.0 -0.0407666747
C  C9  1  0.57390000  0.82530000  0.16110000  1.0 -0.1316323596
C  C10  1  0.35240000  0.68070000  0.01030000  1.0 -0.0901804789
C  C11  1  0.09500000  0.83890000  0.79880000  1.0 -0.1384283284
C  C12  1  0.35500000  0.64520000  0.65560000  1.0 -0.1071168099
C  C13  1  0.50560000  0.89370000  0.10820000  1.0 0.6494518911
C  C14  1  0.78910000  0.75140000  0.21990000  1.0 -0.0473359654
C  C15  1  0.45020000  0.57650000  0.60740000  1.0 0.6494518911
C  C16  1  0.71740000  0.81590000  0.16680000  1.0 -0.1384283284
C  C17  1  0.41200000  0.69670000  0.69730000  1.0 -0.1670968215
C  C18  1  0.18100000  0.77450000  0.75110000  1.0 -0.0407666747
C  C19  1  0.30200000  0.88900000  0.82570000  1.0 -0.1007104219
C  C20  1  0.48700000  0.64420000  0.98140000  1.0 -0.1604211137
C  C21  1  0.32300000  0.76900000  0.74090000  1.0 -0.0473359654
C  C22  1  0.35100000  0.18530000  0.48790000  1.0 -0.1071168099
C  C23  1  0.53400000  0.53240000  0.98410000  1.0 -0.0407666747
C  C24  1  0.92700000  0.75400000  0.22710000  1.0 -0.0735679994
C  C25  1  0.47100000  0.13660000  0.52090000  1.0 -0.1977171803
C  C26  1  0.00200000  0.69300000  0.28040000  1.0 -0.1007104219
C  C27  1  0.53000000  0.03170000  0.51200000  1.0 -0.0407666747
C  C28  1  0.37300000  0.83100000  0.77710000  1.0 -0.1007104219
C  C29  1  0.27900000  0.61200000  0.03900000  1.0 -0.0616194921
C  C30  1  0.29700000  0.11000000  0.46300000  1.0 -0.1071168099
C  C31  1  0.37100000  0.00500000  0.45500000  1.0 -0.1007104219
C  C32  1  0.33100000  0.50600000  0.04800000  1.0 -0.1316323596
C  C33  1  0.12600000  0.72000000  0.71200000  1.0 -0.1007104219
C  C34  1  0.49700000  0.76000000  0.20500000  1.0 -0.0473359654
C  C35  1  0.57400000  0.68900000  0.25500000  1.0 -0.1007104219
C  C36  1  0.21600000  0.65400000  0.67000000  1.0 -0.1007104219
C  C37  1  0.94480000  0.03900000  0.11280000  1.0 0.6329211389
C  C38  1  0.00490000  0.43340000  0.61450000  1.0 0.6494518911
C  C39  1  0.84830000  0.10210000  0.16220000  1.0 -0.1071168099
C  C40  1  0.70250000  0.20700000  0.99410000  1.0 0.5604921972
C  C41  1  0.07950000  0.37130000  0.67390000  1.0 -0.0901804789
C  C42  1  0.69480000  0.71010000  0.50820000  1.0 0.5279298221
C  C43  1  0.21530000  0.37070000  0.68110000  1.0 -0.1604211137
C  C44  1  0.28510000  0.31010000  0.73290000  1.0 -0.0407666747
C  C45  1  0.42610000  0.17470000  0.83890000  1.0 -0.1316323596
C  C46  1  0.64760000  0.31930000  0.98970000  1.0 -0.0901804789
C  C47  1  0.90500000  0.16110000  0.20120000  1.0 -0.1384283284
C  C48  1  0.64500000  0.35480000  0.34440000  1.0 -0.1071168099
C  C49  1  0.49440000  0.10630000  0.89180000  1.0 0.6494518911
C  C50  1  0.21090000  0.24860000  0.78010000  1.0 -0.0473359654
C  C51  1  0.54980000  0.42350000  0.39260000  1.0 0.6494518911
C  C52  1  0.28260000  0.18410000  0.83320000  1.0 -0.1384283284
C  C53  1  0.58800000  0.30330000  0.30270000  1.0 -0.1670968215
C  C54  1  0.81900000  0.22550000  0.24890000  1.0 -0.0407666747
C  C55  1  0.69800000  0.11100000  0.17430000  1.0 -0.1007104219
C  C56  1  0.51300000  0.35580000  0.01860000  1.0 -0.1549561078
C  C57  1  0.67700000  0.23100000  0.25910000  1.0 -0.0407666747
C  C58  1  0.64900000  0.81470000  0.51210000  1.0 -0.1071168099
C  C59  1  0.46600000  0.46760000  0.01590000  1.0 -0.0473359654
C  C60  1  0.07300000  0.24600000  0.77290000  1.0 -0.0735679994
C  C61  1  0.52900000  0.86340000  0.47910000  1.0 -0.1977171803
C  C62  1  0.99800000  0.30700000  0.71960000  1.0 -0.1007104219
C  C63  1  0.47000000  0.96830000  0.48800000  1.0 -0.0407666747
C  C64  1  0.62700000  0.16900000  0.22290000  1.0 -0.1007104219
C  C65  1  0.72100000  0.38800000  0.96100000  1.0 -0.0616194921
C  C66  1  0.70300000  0.89000000  0.53700000  1.0 -0.1071168099
C  C67  1  0.62900000  0.99500000  0.54500000  1.0 -0.1007104219
C  C68  1  0.66900000  0.49400000  0.95200000  1.0 -0.1316323596
C  C69  1  0.87400000  0.28000000  0.28800000  1.0 -0.1007104219
C  C70  1  0.50300000  0.24000000  0.79500000  1.0 -0.0473359654
C  C71  1  0.42600000  0.31100000  0.74500000  1.0 -0.1071168099
C  C72  1  0.78400000  0.34600000  0.33000000  1.0 -0.1007104219
O  O1  1  0.38170000  0.85140000  0.97440000  1.0 -0.6116923595
O  O2  1  0.18060000  0.82520000  0.03750000  1.0 -0.5763251389
O  O3  1  0.36400000  0.34350000  0.52300000  1.0 -0.5634769405
O  O4  1  0.11050000  0.99650000  0.93160000  1.0 -0.6896302904
O  O5  1  0.37180000  0.90620000  0.11110000  1.0 -0.6192538495
O  O6  1  0.58440000  0.56190000  0.61140000  1.0 -0.6192538495
O  O7  1  0.92030000  0.52360000  0.43100000  1.0 -0.6820416058
O  O8  1  0.19710000  0.33370000  0.46030000  1.0 -0.5989033783
O  O9  1  0.58410000  0.93710000  0.05960000  1.0 -0.7574683631
O  O10  1  0.39150000  0.54310000  0.56100000  1.0 -0.7574683631
O  O11  1  0.13040000  0.56390000  0.38390000  1.0 -0.6687817181
O  O12  1  0.92420000  0.97440000  0.88070000  1.0 -0.6274844611
O  O13  1  0.61830000  0.14860000  0.02560000  1.0 -0.6116923595
O  O14  1  0.81940000  0.17480000  0.96250000  1.0 -0.5763251389
O  O15  1  0.63600000  0.65650000  0.47700000  1.0 -0.5634769405
O  O16  1  0.88950000  0.00350000  0.06840000  1.0 -0.6896302904
O  O17  1  0.62820000  0.09380000  0.88890000  1.0 -0.6192538495
O  O18  1  0.41560000  0.43810000  0.38860000  1.0 -0.6192538495
O  O19  1  0.07970000  0.47640000  0.56900000  1.0 -0.6820416058
O  O20  1  0.80290000  0.66630000  0.53970000  1.0 -0.5989033783
O  O21  1  0.41590000  0.06290000  0.94040000  1.0 -0.7574683631
O  O22  1  0.60850000  0.45690000  0.43900000  1.0 -0.7574683631
O  O23  1  0.86960000  0.43610000  0.61610000  1.0 -0.6687817181
O  O24  1  0.07580000  0.02560000  0.11930000  1.0 -0.6274844611
