# DDEC6 charges by PACMAN v1.1 (https://github.com/mtap-research/PACMAN-charge/)
data_VOXSEJ_FSR_pacman
_symmetry_space_group_name_H-M   'P 1'
_cell_length_a   9.20220000
_cell_length_b   20.56040000
_cell_length_c   13.49350000
_cell_angle_alpha   90.00000000
_cell_angle_beta   101.28200000
_cell_angle_gamma   90.00000000
_symmetry_Int_Tables_number   1
_chemical_formula_structural   EuH20(C3O)8
_chemical_formula_sum   'Eu4 H80 C96 O32'
_cell_volume   2503.64911382
_cell_formula_units_Z   4
loop_
 _symmetry_equiv_pos_site_id
 _symmetry_equiv_pos_as_xyz
  1  'x, y, z'
loop_
 _atom_site_type_symbol
 _atom_site_label
 _atom_site_symmetry_multiplicity
 _atom_site_fract_x
 _atom_site_fract_y
 _atom_site_fract_z
 _atom_site_occupancy
 _atom_site_charge
Eu  Eu1  1  0.24550000  0.47860000  0.51091000  1.0 2.0273813658
Eu  Eu2  1  0.75450000  0.97860000  0.98909000  1.0 2.0273813658
Eu  Eu3  1  0.75450000  0.52140000  0.48909000  1.0 2.0273813658
Eu  Eu4  1  0.24550000  0.02140000  0.01091000  1.0 2.0273813658
H  H1  1  0.18972000  0.40389000  0.68764000  1.0 0.3316093737
H  H2  1  0.04979000  0.42832000  0.64571000  1.0 0.3604711347
H  H3  1  0.38458000  0.48414000  0.72317000  1.0 0.346205061
H  H4  1  0.48846000  0.51255000  0.67356000  1.0 0.3604711347
H  H5  1  0.53546000  0.79598000  0.82698000  1.0 0.1091277248
H  H6  1  0.99775000  0.69382000  0.71125000  1.0 0.1091277248
H  H7  1  0.02786000  0.77803000  0.83364000  1.0 0.0754692496
H  H8  1  0.16957000  0.85729000  0.92972000  1.0 0.123261688
H  H9  1  0.31961000  0.45602000  0.14315000  1.0 0.123261688
H  H10  1  0.23133000  0.45925000  0.96861000  1.0 0.1001979818
H  H11  1  0.02701000  0.46789000  0.82626000  1.0 0.1001979818
H  H12  1  0.23142000  0.64518000  0.65338000  1.0 0.1091277248
H  H13  1  0.09947000  0.77318000  0.81672000  1.0 0.0717646756
H  H14  1  0.95429000  0.69194000  0.71776000  1.0 0.1001979818
H  H15  1  0.49418000  0.79645000  0.83226000  1.0 0.1091277248
H  H16  1  0.39265000  0.71488000  0.73553000  1.0 0.0883174865
H  H17  1  0.45392000  0.71001000  0.72722000  1.0 0.0883174865
H  H18  1  0.33237000  0.63185000  0.62771000  1.0 0.1001979818
H  H19  1  0.82681000  0.51208000  0.01639000  1.0 0.0883174865
H  H20  1  0.92269000  0.51438000  0.19258000  1.0 0.0754692496
H  H21  1  0.81028000  0.90389000  0.81236000  1.0 0.3316093737
H  H22  1  0.95021000  0.92832000  0.85429000  1.0 0.3604711347
H  H23  1  0.61542000  0.98414000  0.77683000  1.0 0.346205061
H  H24  1  0.51154000  0.01255000  0.82644000  1.0 0.3604711347
H  H25  1  0.46454000  0.29598000  0.67302000  1.0 0.1091277248
H  H26  1  0.00225000  0.19382000  0.78875000  1.0 0.1091277248
H  H27  1  0.97214000  0.27803000  0.66636000  1.0 0.0754692496
H  H28  1  0.83043000  0.35729000  0.57028000  1.0 0.123261688
H  H29  1  0.68039000  0.95602000  0.35685000  1.0 0.123261688
H  H30  1  0.76867000  0.95925000  0.53139000  1.0 0.1001979818
H  H31  1  0.97299000  0.96789000  0.67374000  1.0 0.1001979818
H  H32  1  0.76858000  0.14518000  0.84662000  1.0 0.1091277248
H  H33  1  0.90053000  0.27318000  0.68328000  1.0 0.0717646756
H  H34  1  0.04571000  0.19194000  0.78224000  1.0 0.1001979818
H  H35  1  0.50582000  0.29645000  0.66774000  1.0 0.1091277248
H  H36  1  0.60735000  0.21488000  0.76447000  1.0 0.0883174865
H  H37  1  0.54608000  0.21001000  0.77278000  1.0 0.0883174865
H  H38  1  0.66763000  0.13185000  0.87229000  1.0 0.1001979818
H  H39  1  0.17319000  0.01208000  0.48361000  1.0 0.0883174865
H  H40  1  0.07731000  0.01438000  0.30742000  1.0 0.0754692496
H  H41  1  0.81028000  0.59611000  0.31236000  1.0 0.3316093737
H  H42  1  0.95021000  0.57168000  0.35429000  1.0 0.3604711347
H  H43  1  0.61542000  0.51586000  0.27683000  1.0 0.346205061
H  H44  1  0.51154000  0.48745000  0.32644000  1.0 0.3604711347
H  H45  1  0.46454000  0.20402000  0.17302000  1.0 0.1091277248
H  H46  1  0.00225000  0.30618000  0.28875000  1.0 0.1091277248
H  H47  1  0.97214000  0.22197000  0.16636000  1.0 0.0754692496
H  H48  1  0.83043000  0.14271000  0.07028000  1.0 0.123261688
H  H49  1  0.68039000  0.54398000  0.85685000  1.0 0.123261688
H  H50  1  0.76867000  0.54075000  0.03139000  1.0 0.1001979818
H  H51  1  0.97299000  0.53211000  0.17374000  1.0 0.1001979818
H  H52  1  0.76858000  0.35482000  0.34662000  1.0 0.1091277248
H  H53  1  0.90053000  0.22682000  0.18328000  1.0 0.0717646756
H  H54  1  0.04571000  0.30806000  0.28224000  1.0 0.1001979818
H  H55  1  0.50582000  0.20355000  0.16774000  1.0 0.1091277248
H  H56  1  0.60735000  0.28512000  0.26447000  1.0 0.0883174865
H  H57  1  0.54608000  0.28999000  0.27278000  1.0 0.0883174865
H  H58  1  0.66763000  0.36815000  0.37229000  1.0 0.1001979818
H  H59  1  0.17319000  0.48792000  0.98361000  1.0 0.0883174865
H  H60  1  0.07731000  0.48562000  0.80742000  1.0 0.0754692496
H  H61  1  0.18972000  0.09611000  0.18764000  1.0 0.3316093737
H  H62  1  0.04979000  0.07168000  0.14571000  1.0 0.3604711347
H  H63  1  0.38458000  0.01586000  0.22317000  1.0 0.346205061
H  H64  1  0.48846000  0.98745000  0.17356000  1.0 0.3604711347
H  H65  1  0.53546000  0.70402000  0.32698000  1.0 0.1091277248
H  H66  1  0.99775000  0.80618000  0.21125000  1.0 0.1091277248
H  H67  1  0.02786000  0.72197000  0.33364000  1.0 0.0754692496
H  H68  1  0.16957000  0.64271000  0.42972000  1.0 0.123261688
H  H69  1  0.31961000  0.04398000  0.64315000  1.0 0.123261688
H  H70  1  0.23133000  0.04075000  0.46861000  1.0 0.1001979818
H  H71  1  0.02701000  0.03211000  0.32626000  1.0 0.1001979818
H  H72  1  0.23142000  0.85482000  0.15338000  1.0 0.1091277248
H  H73  1  0.09947000  0.72682000  0.31672000  1.0 0.0717646756
H  H74  1  0.95429000  0.80806000  0.21776000  1.0 0.1001979818
H  H75  1  0.49418000  0.70355000  0.33226000  1.0 0.1091277248
H  H76  1  0.39265000  0.78512000  0.23553000  1.0 0.0883174865
H  H77  1  0.45392000  0.78999000  0.22722000  1.0 0.0883174865
H  H78  1  0.33237000  0.86815000  0.12771000  1.0 0.1001979818
H  H79  1  0.82681000  0.98792000  0.51639000  1.0 0.0883174865
H  H80  1  0.92269000  0.98562000  0.69258000  1.0 0.0754692496
C  C1  1  0.45650000  0.89180000  0.94440000  1.0 0.5765729599
C  C2  1  0.19860000  0.49230000  0.29510000  1.0 0.5085024291
C  C3  1  0.02830000  0.60300000  0.59150000  1.0 0.5624507719
C  C4  1  0.35790000  0.83970000  0.89010000  1.0 0.0013931537
C  C5  1  0.12940000  0.64930000  0.65580000  1.0 -0.0717654678
C  C6  1  0.43300000  0.79230000  0.82800000  1.0 -0.0995762509
C  C7  1  0.14960000  0.49070000  0.18270000  1.0 -0.0195582693
C  C8  1  0.10000000  0.69050000  0.70900000  1.0 -0.0877766466
C  C9  1  0.34790000  0.74460000  0.77440000  1.0 -0.0195582693
C  C10  1  0.19600000  0.73870000  0.77540000  1.0 0.0563969554
C  C11  1  0.13050000  0.78150000  0.83270000  1.0 -0.0877766466
C  C12  1  0.21670000  0.82970000  0.88910000  1.0 -0.2495656705
C  C13  1  0.22160000  0.47130000  0.11900000  1.0 -0.2367490477
C  C14  1  0.16740000  0.47040000  0.01340000  1.0 -0.1134759023
C  C15  1  0.01600000  0.48630000  0.97460000  1.0 0.0563969554
C  C16  1  0.96300000  0.48740000  0.86500000  1.0 -0.0626180976
C  C17  1  0.14500000  0.74360000  0.77800000  1.0 -0.013488901
C  C18  1  0.05700000  0.69520000  0.71800000  1.0 -0.0877766466
C  C19  1  0.29200000  0.74730000  0.77950000  1.0 0.0407231503
C  C20  1  0.39300000  0.79790000  0.83800000  1.0 -0.0995762509
C  C21  1  0.35040000  0.70630000  0.72470000  1.0 -0.0837134502
C  C22  1  0.27830000  0.65890000  0.66460000  1.0 -0.2267729736
C  C23  1  0.92830000  0.50230000  0.04110000  1.0 -0.013488901
C  C24  1  0.98500000  0.50450000  0.14600000  1.0 -0.0877766466
C  C25  1  0.54350000  0.39180000  0.55560000  1.0 0.5765729599
C  C26  1  0.80140000  0.99230000  0.20490000  1.0 0.5085024291
C  C27  1  0.97170000  0.10300000  0.90850000  1.0 0.5624507719
C  C28  1  0.64210000  0.33970000  0.60990000  1.0 0.0013931537
C  C29  1  0.87060000  0.14930000  0.84420000  1.0 -0.0717654678
C  C30  1  0.56700000  0.29230000  0.67200000  1.0 -0.0995762509
C  C31  1  0.85040000  0.99070000  0.31730000  1.0 -0.0195582693
C  C32  1  0.90000000  0.19050000  0.79100000  1.0 -0.0877766466
C  C33  1  0.65210000  0.24460000  0.72560000  1.0 -0.0195582693
C  C34  1  0.80400000  0.23870000  0.72460000  1.0 0.0563969554
C  C35  1  0.86950000  0.28150000  0.66730000  1.0 -0.0837134502
C  C36  1  0.78330000  0.32970000  0.61090000  1.0 -0.2495656705
C  C37  1  0.77840000  0.97130000  0.38100000  1.0 -0.2367490477
C  C38  1  0.83260000  0.97040000  0.48660000  1.0 -0.1134759023
C  C39  1  0.98400000  0.98630000  0.52540000  1.0 0.0563969554
C  C40  1  0.03700000  0.98740000  0.63500000  1.0 -0.0626180976
C  C41  1  0.85500000  0.24360000  0.72200000  1.0 -0.013488901
C  C42  1  0.94300000  0.19520000  0.78200000  1.0 -0.0877766466
C  C43  1  0.70800000  0.24730000  0.72050000  1.0 0.0407231503
C  C44  1  0.60700000  0.29790000  0.66200000  1.0 -0.0995762509
C  C45  1  0.64960000  0.20630000  0.77530000  1.0 -0.0837134502
C  C46  1  0.72170000  0.15890000  0.83540000  1.0 -0.2267729736
C  C47  1  0.07170000  0.00230000  0.45890000  1.0 -0.013488901
C  C48  1  0.01500000  0.00450000  0.35400000  1.0 -0.0877766466
C  C49  1  0.54350000  0.10820000  0.05560000  1.0 0.5765729599
C  C50  1  0.80140000  0.50770000  0.70490000  1.0 0.5085024291
C  C51  1  0.97170000  0.39700000  0.40850000  1.0 0.5624507719
C  C52  1  0.64210000  0.16030000  0.10990000  1.0 0.0013931537
C  C53  1  0.87060000  0.35070000  0.34420000  1.0 -0.0717654678
C  C54  1  0.56700000  0.20770000  0.17200000  1.0 -0.0995762509
C  C55  1  0.85040000  0.50930000  0.81730000  1.0 -0.0195582693
C  C56  1  0.90000000  0.30950000  0.29100000  1.0 -0.0877766466
C  C57  1  0.65210000  0.25540000  0.22560000  1.0 -0.0195582693
C  C58  1  0.80400000  0.26130000  0.22460000  1.0 0.0563969554
C  C59  1  0.86950000  0.21850000  0.16730000  1.0 -0.0877766466
C  C60  1  0.78330000  0.17030000  0.11090000  1.0 -0.2495656705
C  C61  1  0.77840000  0.52870000  0.88100000  1.0 -0.2367490477
C  C62  1  0.83260000  0.52960000  0.98660000  1.0 -0.1134759023
C  C63  1  0.98400000  0.51370000  0.02540000  1.0 0.0563969554
C  C64  1  0.03700000  0.51260000  0.13500000  1.0 -0.0626180976
C  C65  1  0.85500000  0.25640000  0.22200000  1.0 -0.013488901
C  C66  1  0.94300000  0.30480000  0.28200000  1.0 -0.0877766466
C  C67  1  0.70800000  0.25270000  0.22050000  1.0 0.0407231503
C  C68  1  0.60700000  0.20210000  0.16200000  1.0 -0.0995762509
C  C69  1  0.64960000  0.29370000  0.27530000  1.0 -0.0837134502
C  C70  1  0.72170000  0.34110000  0.33540000  1.0 -0.2267729736
C  C71  1  0.07170000  0.49770000  0.95890000  1.0 -0.013488901
C  C72  1  0.01500000  0.49550000  0.85400000  1.0 -0.0877766466
C  C73  1  0.45650000  0.60820000  0.44440000  1.0 0.5765729599
C  C74  1  0.19860000  0.00770000  0.79510000  1.0 0.5085024291
C  C75  1  0.02830000  0.89700000  0.09150000  1.0 0.5624507719
C  C76  1  0.35790000  0.66030000  0.39010000  1.0 0.0013931537
C  C77  1  0.12940000  0.85070000  0.15580000  1.0 -0.0717654678
C  C78  1  0.43300000  0.70770000  0.32800000  1.0 -0.0995762509
C  C79  1  0.14960000  0.00930000  0.68270000  1.0 -0.0195582693
C  C80  1  0.10000000  0.80950000  0.20900000  1.0 -0.0877766466
C  C81  1  0.34790000  0.75540000  0.27440000  1.0 -0.0195582693
C  C82  1  0.19600000  0.76130000  0.27540000  1.0 0.0563969554
C  C83  1  0.13050000  0.71850000  0.33270000  1.0 -0.0877766466
C  C84  1  0.21670000  0.67030000  0.38910000  1.0 -0.2495656705
C  C85  1  0.22160000  0.02870000  0.61900000  1.0 -0.2367490477
C  C86  1  0.16740000  0.02960000  0.51340000  1.0 -0.1134759023
C  C87  1  0.01600000  0.01370000  0.47460000  1.0 0.0563969554
C  C88  1  0.96300000  0.01260000  0.36500000  1.0 -0.0626180976
C  C89  1  0.14500000  0.75640000  0.27800000  1.0 -0.013488901
C  C90  1  0.05700000  0.80480000  0.21800000  1.0 -0.0877766466
C  C91  1  0.29200000  0.75270000  0.27950000  1.0 0.0407231503
C  C92  1  0.39300000  0.70210000  0.33800000  1.0 -0.0995762509
C  C93  1  0.35040000  0.79370000  0.22470000  1.0 -0.0837134502
C  C94  1  0.27830000  0.84110000  0.16460000  1.0 -0.2267729736
C  C95  1  0.92830000  0.99770000  0.54110000  1.0 -0.013488901
C  C96  1  0.98500000  0.99550000  0.64600000  1.0 -0.0877766466
O  O1  1  0.08330000  0.55687000  0.55080000  1.0 -0.659647981
O  O2  1  0.14580000  0.42590000  0.64190000  1.0 -0.774452383
O  O3  1  0.12000000  0.52181000  0.34730000  1.0 -0.5679945297
O  O4  1  0.39240000  0.51313000  0.67550000  1.0 -0.7833334751
O  O5  1  0.89130000  0.61168000  0.58030000  1.0 -0.5679945297
O  O6  1  0.59020000  0.89039000  0.94070000  1.0 -0.5898510164
O  O7  1  0.39830000  0.93390000  0.99060000  1.0 -0.6348643846
O  O8  1  0.31630000  0.46350000  0.33570000  1.0 -0.5619197435
O  O9  1  0.91670000  0.05687000  0.94920000  1.0 -0.659647981
O  O10  1  0.85420000  0.92590000  0.85810000  1.0 -0.774452383
O  O11  1  0.88000000  0.02181000  0.15270000  1.0 -0.5679945297
O  O12  1  0.60760000  0.01313000  0.82450000  1.0 -0.7833334751
O  O13  1  0.10870000  0.11168000  0.91970000  1.0 -0.5679945297
O  O14  1  0.40980000  0.39039000  0.55930000  1.0 -0.5898510164
O  O15  1  0.60170000  0.43390000  0.50940000  1.0 -0.6348643846
O  O16  1  0.68370000  0.96350000  0.16430000  1.0 -0.5619197435
O  O17  1  0.91670000  0.44313000  0.44920000  1.0 -0.659647981
O  O18  1  0.85420000  0.57410000  0.35810000  1.0 -0.774452383
O  O19  1  0.88000000  0.47819000  0.65270000  1.0 -0.5679945297
O  O20  1  0.60760000  0.48687000  0.32450000  1.0 -0.7833334751
O  O21  1  0.10870000  0.38832000  0.41970000  1.0 -0.5679945297
O  O22  1  0.40980000  0.10961000  0.05930000  1.0 -0.5898510164
O  O23  1  0.60170000  0.06610000  0.00940000  1.0 -0.6348643846
O  O24  1  0.68370000  0.53650000  0.66430000  1.0 -0.5619197435
O  O25  1  0.08330000  0.94313000  0.05080000  1.0 -0.659647981
O  O26  1  0.14580000  0.07410000  0.14190000  1.0 -0.774452383
O  O27  1  0.12000000  0.97819000  0.84730000  1.0 -0.5679945297
O  O28  1  0.39240000  0.98687000  0.17550000  1.0 -0.7833334751
O  O29  1  0.89130000  0.88832000  0.08030000  1.0 -0.5679945297
O  O30  1  0.59020000  0.60961000  0.44070000  1.0 -0.5898510164
O  O31  1  0.39830000  0.56610000  0.49060000  1.0 -0.6348643846
O  O32  1  0.31630000  0.03650000  0.83570000  1.0 -0.5619197435
