# DDEC6 charges by PACMAN v1.1 (https://github.com/mtap-research/PACMAN-charge/)
data_VOXTUZ_ASR_pacman
_symmetry_space_group_name_H-M   'P 1'
_cell_length_a   15.33270000
_cell_length_b   9.59340000
_cell_length_c   15.43630000
_cell_angle_alpha   90.00000000
_cell_angle_beta   97.19900000
_cell_angle_gamma   90.00000000
_symmetry_Int_Tables_number   1
_chemical_formula_structural   BeP2H3O8
_chemical_formula_sum   'Be8 P16 H24 O64'
_cell_volume   2252.66828245
_cell_formula_units_Z   8
loop_
 _symmetry_equiv_pos_site_id
 _symmetry_equiv_pos_as_xyz
  1  'x, y, z'
loop_
 _atom_site_type_symbol
 _atom_site_label
 _atom_site_symmetry_multiplicity
 _atom_site_fract_x
 _atom_site_fract_y
 _atom_site_fract_z
 _atom_site_occupancy
 _atom_site_charge
Be  Be1  1  0.31839000  0.53446000  0.18852000  1.0 0.8871654773
Be  Be2  1  0.68161000  0.46554000  0.81148000  1.0 0.8840270146
Be  Be3  1  0.18160000  0.03445000  0.31147000  1.0 0.8871654773
Be  Be4  1  0.81840000  0.96555000  0.68853000  1.0 0.8871654773
Be  Be5  1  0.31980000  0.47356000  0.83194000  1.0 1.1315871581
Be  Be6  1  0.68020000  0.52644000  0.16806000  1.0 1.1315871581
Be  Be7  1  0.18020000  0.97356000  0.66805000  1.0 1.1315871581
Be  Be8  1  0.81980000  0.02644000  0.33195000  1.0 1.1315871581
P  P1  1  0.30047000  0.80708000  0.27120000  1.0 1.3489695891
P  P2  1  0.69953000  0.19292000  0.72880000  1.0 1.3437379106
P  P3  1  0.19952000  0.30707000  0.22878000  1.0 1.3489695891
P  P4  1  0.80048000  0.69293000  0.77122000  1.0 1.3437379106
P  P5  1  0.32175000  0.41171000  0.01716000  1.0 1.4474341377
P  P6  1  0.67825000  0.58829000  0.98284000  1.0 1.4474341377
P  P7  1  0.17824000  0.91171000  0.48283000  1.0 1.4474341377
P  P8  1  0.82176000  0.08829000  0.51717000  1.0 1.4474341377
P  P9  1  0.50267000  0.39005000  0.83351000  1.0 1.3489695891
P  P10  1  0.49733000  0.60995000  0.16649000  1.0 1.3558523163
P  P11  1  0.99732000  0.89005000  0.66649000  1.0 1.3558523163
P  P12  1  0.00268000  0.10995000  0.33351000  1.0 1.3489695891
P  P13  1  0.23793000  0.67417000  0.70650000  1.0 1.3766993388
P  P14  1  0.76207000  0.32583000  0.29350000  1.0 1.3766993388
P  P15  1  0.26207000  0.17417000  0.79349000  1.0 1.3766993388
P  P16  1  0.73793000  0.82583000  0.20651000  1.0 1.3766993388
H  H1  1  0.42050000  0.84994000  0.21386000  1.0 0.3897513255
H  H2  1  0.57950000  0.15006000  0.78614000  1.0 0.3897513255
H  H3  1  0.07950000  0.34994000  0.28614000  1.0 0.3897513255
H  H4  1  0.92050000  0.65006000  0.71386000  1.0 0.3897513255
H  H5  1  0.20003000  0.28718000  0.99559000  1.0 0.4108086612
H  H6  1  0.79997000  0.71282000  0.00441000  1.0 0.4108086612
H  H7  1  0.29997000  0.78718000  0.50441000  1.0 0.4108086612
H  H8  1  0.70003000  0.21282000  0.49559000  1.0 0.4108086612
H  H9  1  0.44037000  0.18663000  0.79804000  1.0 0.3897513255
H  H10  1  0.55963000  0.81337000  0.20196000  1.0 0.3897513255
H  H11  1  0.05963000  0.68663000  0.70196000  1.0 0.3897513255
H  H12  1  0.94037000  0.31337000  0.29804000  1.0 0.3897513255
H  H13  1  0.47474000  0.35945000  0.97697000  1.0 0.4108086612
H  H14  1  0.52526000  0.64055000  0.02303000  1.0 0.4108086612
H  H15  1  0.02526000  0.85946000  0.52303000  1.0 0.4108086612
H  H16  1  0.97474000  0.14054000  0.47697000  1.0 0.4108086612
H  H17  1  0.14363000  0.50436000  0.70596000  1.0 0.4108086612
H  H18  1  0.85637000  0.49564000  0.29404000  1.0 0.4108086612
H  H19  1  0.35638000  0.00436000  0.79404000  1.0 0.4108086612
H  H20  1  0.64362000  0.99564000  0.20596000  1.0 0.4108086612
H  H21  1  0.26996000  0.56244000  0.59197000  1.0 0.4108086612
H  H22  1  0.73004000  0.43756000  0.40803000  1.0 0.4108086612
H  H23  1  0.23004000  0.06244000  0.90803000  1.0 0.4108086612
H  H24  1  0.76996000  0.93756000  0.09197000  1.0 0.4108086612
O  O1  1  0.27805000  0.68038000  0.21341000  1.0 -0.5610433713
O  O2  1  0.72195000  0.31962000  0.78659000  1.0 -0.5610433713
O  O3  1  0.22195000  0.18036000  0.28657000  1.0 -0.5610433713
O  O4  1  0.77805000  0.81964000  0.71343000  1.0 -0.5610433713
O  O5  1  0.36688000  0.90359000  0.22830000  1.0 -0.6558015243
O  O6  1  0.63312000  0.09641000  0.77170000  1.0 -0.6558015243
O  O7  1  0.13312000  0.40359000  0.27169000  1.0 -0.6558015243
O  O8  1  0.86688000  0.59641000  0.72831000  1.0 -0.6558015243
O  O9  1  0.34214000  0.76627000  0.36343000  1.0 -0.7096958057
O  O10  1  0.65786000  0.23373000  0.63657000  1.0 -0.7096958057
O  O11  1  0.15785000  0.26628000  0.13655000  1.0 -0.7096958057
O  O12  1  0.84215000  0.73372000  0.86345000  1.0 -0.7096958057
O  O13  1  0.21713000  0.89380000  0.27325000  1.0 -0.5610433713
O  O14  1  0.78287000  0.10620000  0.72675000  1.0 -0.5610433713
O  O15  1  0.28287000  0.39380000  0.22673000  1.0 -0.5610433713
O  O16  1  0.71713000  0.60620000  0.77327000  1.0 -0.5610433713
O  O17  1  0.29388000  0.51232000  0.08509000  1.0 -0.5540159986
O  O18  1  0.70612000  0.48768000  0.91491000  1.0 -0.5540159986
O  O19  1  0.20612000  0.01232000  0.41491000  1.0 -0.5540159986
O  O20  1  0.79388000  0.98768000  0.58509000  1.0 -0.5540159986
O  O21  1  0.29616000  0.48005000  0.92894000  1.0 -0.6074023541
O  O22  1  0.70384000  0.51995000  0.07106000  1.0 -0.6074023541
O  O23  1  0.20384000  0.98006000  0.57105000  1.0 -0.6044359103
O  O24  1  0.79616000  0.01994000  0.42895000  1.0 -0.6074023541
O  O25  1  0.26094000  0.27520000  0.02166000  1.0 -0.642819126
O  O26  1  0.73906000  0.72480000  0.97834000  1.0 -0.642819126
O  O27  1  0.23906000  0.77520000  0.47834000  1.0 -0.642819126
O  O28  1  0.76094000  0.22480000  0.52166000  1.0 -0.642819126
O  O29  1  0.41539000  0.35730000  0.03412000  1.0 -0.7518768505
O  O30  1  0.58461000  0.64270000  0.96588000  1.0 -0.7518768505
O  O31  1  0.08461000  0.85730000  0.46588000  1.0 -0.7518768505
O  O32  1  0.91539000  0.14270000  0.53412000  1.0 -0.7518768505
O  O33  1  0.41947000  0.47431000  0.81554000  1.0 -0.5791509644
O  O34  1  0.58053000  0.52569000  0.18446000  1.0 -0.5791509644
O  O35  1  0.08053000  0.97431000  0.68446000  1.0 -0.5791509644
O  O36  1  0.91947000  0.02569000  0.31554000  1.0 -0.5791509644
O  O37  1  0.49184000  0.24110000  0.78402000  1.0 -0.6507629351
O  O38  1  0.50816000  0.75890000  0.21598000  1.0 -0.6507629351
O  O39  1  0.00816000  0.74110000  0.71598000  1.0 -0.6507629351
O  O40  1  0.99184000  0.25890000  0.28402000  1.0 -0.6507629351
O  O41  1  0.57739000  0.45666000  0.79352000  1.0 -0.5429259733
O  O42  1  0.42261000  0.54334000  0.20648000  1.0 -0.5429259733
O  O43  1  0.92261000  0.95666000  0.70648000  1.0 -0.5429259733
O  O44  1  0.07739000  0.04334000  0.29352000  1.0 -0.5429259733
O  O45  1  0.52515000  0.35296000  0.93191000  1.0 -0.6918010906
O  O46  1  0.47485000  0.64704000  0.06809000  1.0 -0.6918010906
O  O47  1  0.97485000  0.85297000  0.56809000  1.0 -0.6918010906
O  O48  1  0.02515000  0.14703000  0.43191000  1.0 -0.6918010906
O  O49  1  0.27714000  0.61393000  0.79140000  1.0 -0.5900731877
O  O50  1  0.72286000  0.38607000  0.20860000  1.0 -0.5900731877
O  O51  1  0.22286000  0.11392000  0.70860000  1.0 -0.5900731877
O  O52  1  0.77714000  0.88608000  0.29140000  1.0 -0.5900731877
O  O53  1  0.14433000  0.59570000  0.67763000  1.0 -0.6558015243
O  O54  1  0.85567000  0.40430000  0.32237000  1.0 -0.6558015243
O  O55  1  0.35567000  0.09570000  0.82237000  1.0 -0.6558015243
O  O56  1  0.64433000  0.90430000  0.17763000  1.0 -0.6558015243
O  O57  1  0.29334000  0.64003000  0.62875000  1.0 -0.5900731877
O  O58  1  0.70666000  0.35997000  0.37125000  1.0 -0.5900731877
O  O59  1  0.20666000  0.14003000  0.87124000  1.0 -0.5900731877
O  O60  1  0.79334000  0.85997000  0.12876000  1.0 -0.5900731877
O  O61  1  0.22372000  0.82913000  0.71030000  1.0 -0.6200578407
O  O62  1  0.77628000  0.17087000  0.28970000  1.0 -0.6200578407
O  O63  1  0.27628000  0.32912000  0.78969000  1.0 -0.6200578407
O  O64  1  0.72372000  0.67088000  0.21031000  1.0 -0.6200578407
