# DDEC6 charges by PACMAN v1.1 (https://github.com/mtap-research/PACMAN-charge/)
data_VOXVAH_FSR_pacman
_symmetry_space_group_name_H-M   'P 1'
_cell_length_a   15.69580000
_cell_length_b   15.69580000
_cell_length_c   9.49200000
_cell_angle_alpha   89.05490000
_cell_angle_beta   90.94510000
_cell_angle_gamma   93.27140000
_symmetry_Int_Tables_number   1
_chemical_formula_structural   Be4P9(H3O19)2
_chemical_formula_sum   'Be8 P18 H12 O76'
_cell_volume   2334.01984183
_cell_formula_units_Z   2
loop_
 _symmetry_equiv_pos_site_id
 _symmetry_equiv_pos_as_xyz
  1  'x, y, z'
loop_
 _atom_site_type_symbol
 _atom_site_label
 _atom_site_symmetry_multiplicity
 _atom_site_fract_x
 _atom_site_fract_y
 _atom_site_fract_z
 _atom_site_occupancy
 _atom_site_charge
Be  Be1  1  0.30697000  0.84011000  0.50860000  1.0 0.8784612968
Be  Be2  1  0.84011000  0.30697000  0.99140000  1.0 0.8918489371
Be  Be3  1  0.69303000  0.15989000  0.49140000  1.0 0.8918489371
Be  Be4  1  0.15989000  0.69303000  0.00860000  1.0 0.8918489371
Be  Be5  1  0.33811000  0.20049000  0.50460000  1.0 0.7473099186
Be  Be6  1  0.20049000  0.33811000  0.99540000  1.0 0.7473099186
Be  Be7  1  0.66189000  0.79951000  0.49540000  1.0 0.7473099186
Be  Be8  1  0.79951000  0.66189000  0.00460000  1.0 0.7292087032
P  P1  1  0.31370000  0.02030000  0.59367000  1.0 1.3215722197
P  P2  1  0.02030000  0.31370000  0.90633000  1.0 1.325334902
P  P3  1  0.68630000  0.97970000  0.40633000  1.0 1.3215722197
P  P4  1  0.97970000  0.68630000  0.09367000  1.0 1.3215722197
P  P5  1  0.24087000  0.24087000  0.75000000  1.0 1.1973667099
P  P6  1  0.75913000  0.75913000  0.25000000  1.0 1.1767357542
P  P7  1  0.48864000  0.81626000  0.59155000  1.0 1.2120324328
P  P8  1  0.81626000  0.48864000  0.90845000  1.0 1.1973667099
P  P9  1  0.51136000  0.18374000  0.40845000  1.0 1.2120324328
P  P10  1  0.18374000  0.51136000  0.09155000  1.0 1.2158145859
P  P11  1  0.26084000  0.79402000  0.80252000  1.0 0.769341345
P  P12  1  0.79402000  0.26084000  0.69748000  1.0 0.769341345
P  P13  1  0.73916000  0.20598000  0.19748000  1.0 0.769341345
P  P14  1  0.20598000  0.73916000  0.30252000  1.0 0.769341345
P  P15  1  0.29561000  0.31259000  0.26740000  1.0 0.2177080914
P  P16  1  0.31259000  0.29561000  0.23260000  1.0 0.2177080914
P  P17  1  0.70439000  0.68741000  0.73260000  1.0 0.2125350042
P  P18  1  0.68741000  0.70439000  0.76740000  1.0 0.2177080914
H  H1  1  0.41290000  0.06670000  0.70200000  1.0 0.405038382
H  H2  1  0.06670000  0.41290000  0.79800000  1.0 0.3987140809
H  H3  1  0.58710000  0.93330000  0.29800000  1.0 0.3987140809
H  H4  1  0.93330000  0.58710000  0.20200000  1.0 0.405038382
H  H5  1  0.20400000  0.15480000  0.89200000  1.0 0.3987140809
H  H6  1  0.15480000  0.20400000  0.60800000  1.0 0.3987140809
H  H7  1  0.79600000  0.84520000  0.10800000  1.0 0.3987140809
H  H8  1  0.84520000  0.79600000  0.39200000  1.0 0.3987140809
H  H9  1  0.56310000  0.92210000  0.60200000  1.0 0.3865142717
H  H10  1  0.92210000  0.56310000  0.89800000  1.0 0.3865142717
H  H11  1  0.43690000  0.07790000  0.39800000  1.0 0.3865142717
H  H12  1  0.07790000  0.43690000  0.10200000  1.0 0.3865142717
O  O1  1  0.29908000  0.94298000  0.50460000  1.0 -0.5298497723
O  O2  1  0.94298000  0.29908000  0.99540000  1.0 -0.5298497723
O  O3  1  0.70092000  0.05702000  0.49540000  1.0 -0.5298497723
O  O4  1  0.05702000  0.70092000  0.00460000  1.0 -0.5298497723
O  O5  1  0.30291000  0.10055000  0.50860000  1.0 -0.5488138617
O  O6  1  0.10055000  0.30291000  0.99140000  1.0 -0.5488138617
O  O7  1  0.69709000  0.89945000  0.49140000  1.0 -0.5488138617
O  O8  1  0.89945000  0.69709000  0.00860000  1.0 -0.5488138617
O  O9  1  0.40511000  0.02433000  0.65320000  1.0 -0.5839366362
O  O10  1  0.02433000  0.40511000  0.84680000  1.0 -0.5873635854
O  O11  1  0.59489000  0.97567000  0.34680000  1.0 -0.5873635854
O  O12  1  0.97567000  0.59489000  0.15320000  1.0 -0.5873635854
O  O13  1  0.25358000  0.01662000  0.71510000  1.0 -0.597806652
O  O14  1  0.01662000  0.25358000  0.78490000  1.0 -0.597806652
O  O15  1  0.74642000  0.98338000  0.28490000  1.0 -0.597806652
O  O16  1  0.98338000  0.74642000  0.21510000  1.0 -0.597806652
O  O17  1  0.31172000  0.24826000  0.64650000  1.0 -0.488142248
O  O18  1  0.24826000  0.31172000  0.85350000  1.0 -0.488142248
O  O19  1  0.68828000  0.75174000  0.35350000  1.0 -0.488142248
O  O20  1  0.75174000  0.68828000  0.14650000  1.0 -0.488142248
O  O21  1  0.24334000  0.15766000  0.83600000  1.0 -0.5583572732
O  O22  1  0.15766000  0.24334000  0.66400000  1.0 -0.5583572732
O  O23  1  0.75666000  0.84234000  0.16400000  1.0 -0.5583572732
O  O24  1  0.84234000  0.75666000  0.33600000  1.0 -0.5583572732
O  O25  1  0.40596000  0.81458000  0.51200000  1.0 -0.5488138617
O  O26  1  0.81458000  0.40596000  0.98800000  1.0 -0.5488138617
O  O27  1  0.59404000  0.18542000  0.48800000  1.0 -0.5488138617
O  O28  1  0.18542000  0.59404000  0.01200000  1.0 -0.5488138617
O  O29  1  0.48009000  0.76461000  0.72610000  1.0 -0.488142248
O  O30  1  0.76461000  0.48009000  0.77390000  1.0 -0.4825463341
O  O31  1  0.51991000  0.23539000  0.27390000  1.0 -0.488142248
O  O32  1  0.23539000  0.51991000  0.22610000  1.0 -0.488142248
O  O33  1  0.51470000  0.90972000  0.63000000  1.0 -0.6116645531
O  O34  1  0.90972000  0.51470000  0.87000000  1.0 -0.6116645531
O  O35  1  0.48530000  0.09028000  0.37000000  1.0 -0.6116645531
O  O36  1  0.09028000  0.48530000  0.13000000  1.0 -0.6116645531
O  O37  1  0.55835000  0.78587000  0.50270000  1.0 -0.5114032821
O  O38  1  0.78587000  0.55835000  0.99730000  1.0 -0.5114032821
O  O39  1  0.44165000  0.21413000  0.49730000  1.0 -0.5114032821
O  O40  1  0.21413000  0.44165000  0.00270000  1.0 -0.5114032821
O  O41  1  0.25731000  0.79603000  0.64490000  1.0 -0.4512057276
O  O42  1  0.79603000  0.25731000  0.85510000  1.0 -0.4512057276
O  O43  1  0.74269000  0.20397000  0.35510000  1.0 -0.4512057276
O  O44  1  0.20397000  0.74269000  0.14490000  1.0 -0.4512057276
O  O45  1  0.19562000  0.73712000  0.86530000  1.0 -0.4114211098
O  O46  1  0.73712000  0.19562000  0.63470000  1.0 -0.4114211098
O  O47  1  0.80438000  0.26288000  0.13470000  1.0 -0.4114211098
O  O48  1  0.26288000  0.80438000  0.36530000  1.0 -0.4114211098
O  O49  1  0.34330000  0.73070000  0.84280000  1.0 -0.1566910231
O  O50  1  0.73070000  0.34330000  0.65720000  1.0 -0.1566910231
O  O51  1  0.65670000  0.26930000  0.15720000  1.0 -0.1566910231
O  O52  1  0.26930000  0.65670000  0.34280000  1.0 -0.1566910231
O  O53  1  0.29030000  0.87330000  0.86590000  1.0 0.1000739712
O  O54  1  0.87330000  0.29030000  0.63410000  1.0 0.1000739712
O  O55  1  0.70970000  0.12670000  0.13410000  1.0 0.1096631466
O  O56  1  0.12670000  0.70970000  0.36590000  1.0 0.1000739712
O  O57  1  0.29433000  0.24157000  0.36460000  1.0 -0.3196755619
O  O58  1  0.24157000  0.29433000  0.13540000  1.0 -0.3196755619
O  O59  1  0.70567000  0.75843000  0.63540000  1.0 -0.3196755619
O  O60  1  0.75843000  0.70567000  0.86460000  1.0 -0.3196755619
O  O61  1  0.25560000  0.38440000  0.34740000  1.0 -0.1101001379
O  O62  1  0.38440000  0.25560000  0.15260000  1.0 -0.1101001379
O  O63  1  0.74440000  0.61560000  0.65260000  1.0 -0.1101001379
O  O64  1  0.61560000  0.74440000  0.84740000  1.0 -0.1101001379
O  O65  1  0.38840000  0.34420000  0.24130000  1.0 -0.0020525126
O  O66  1  0.34420000  0.38840000  0.25870000  1.0 0.0001703576
O  O67  1  0.61160000  0.65580000  0.75870000  1.0 -0.0020525126
O  O68  1  0.65580000  0.61160000  0.74130000  1.0 -0.0089230795
O  O69  1  0.34390000  0.81290000  0.86800000  1.0 0.0639105505
O  O70  1  0.81290000  0.34390000  0.63200000  1.0 0.0669709882
O  O71  1  0.65610000  0.18710000  0.13200000  1.0 0.0639105505
O  O72  1  0.18710000  0.65610000  0.36800000  1.0 0.0669709882
O  O73  1  0.20900000  0.88500000  0.84660000  1.0 -0.1769998529
O  O74  1  0.88500000  0.20900000  0.65340000  1.0 -0.1769998529
O  O75  1  0.79100000  0.11500000  0.15340000  1.0 -0.1769998529
O  O76  1  0.11500000  0.79100000  0.34660000  1.0 -0.1769998529
