# DDEC6 charges by PACMAN v1.1 (https://github.com/mtap-research/PACMAN-charge/)
data_VOZVEN01_ASR_pacman
_symmetry_space_group_name_H-M   'P 1'
_cell_length_a   18.11620000
_cell_length_b   18.11620000
_cell_length_c   31.03300000
_cell_angle_alpha   80.40280000
_cell_angle_beta   99.59720000
_cell_angle_gamma   131.09900000
_symmetry_Int_Tables_number   1
_chemical_formula_structural   Zn2H12C18I5N6
_chemical_formula_sum   'Zn16 H96 C144 I40 N48'
_cell_volume   7545.28828815
_cell_formula_units_Z   8
loop_
 _symmetry_equiv_pos_site_id
 _symmetry_equiv_pos_as_xyz
  1  'x, y, z'
loop_
 _atom_site_type_symbol
 _atom_site_label
 _atom_site_symmetry_multiplicity
 _atom_site_fract_x
 _atom_site_fract_y
 _atom_site_fract_z
 _atom_site_occupancy
 _atom_site_charge
Zn  Zn1  1  0.96090000  0.79948000  0.59426000  1.0 0.3014339966
Zn  Zn2  1  0.20052000  0.03910000  0.09426000  1.0 0.3014339966
Zn  Zn3  1  0.45871000  0.73661000  0.45540000  1.0 0.4546040681
Zn  Zn4  1  0.26339000  0.54129000  0.95540000  1.0 0.4546040681
Zn  Zn5  1  0.52964000  0.18326000  0.27303000  1.0 0.1414459062
Zn  Zn6  1  0.81674000  0.47036000  0.77303000  1.0 0.1414459062
Zn  Zn7  1  0.53790000  0.15870000  0.28770000  1.0 0.0878293862
Zn  Zn8  1  0.84130000  0.46210000  0.78770000  1.0 0.0878293862
Zn  Zn9  1  0.79948000  0.96090000  0.90574000  1.0 0.3014339966
Zn  Zn10  1  0.03910000  0.20052000  0.40574000  1.0 0.3014339966
Zn  Zn11  1  0.73661000  0.45871000  0.04460000  1.0 0.4546040681
Zn  Zn12  1  0.54129000  0.26339000  0.54460000  1.0 0.4546040681
Zn  Zn13  1  0.18326000  0.52964000  0.22697000  1.0 0.1414459062
Zn  Zn14  1  0.47036000  0.81674000  0.72697000  1.0 0.1414459062
Zn  Zn15  1  0.15870000  0.53790000  0.21230000  1.0 0.0878293862
Zn  Zn16  1  0.46210000  0.84130000  0.71230000  1.0 0.0878293862
H  H1  1  0.73390000  0.28370000  0.83530000  1.0 0.0801509309
H  H2  1  0.71630000  0.26610000  0.33530000  1.0 0.0801509309
H  H3  1  0.59180000  0.11880000  0.84020000  1.0 0.1287172077
H  H4  1  0.88120000  0.40820000  0.34020000  1.0 0.1287172077
H  H5  1  0.49230000  0.17290000  0.72270000  1.0 0.1287172077
H  H6  1  0.82710000  0.50770000  0.22270000  1.0 0.1287172077
H  H7  1  0.63290000  0.33530000  0.72370000  1.0 0.0704487612
H  H8  1  0.66470000  0.36710000  0.22370000  1.0 0.0704487612
H  H9  1  0.16070000  0.56110000  0.87270000  1.0 0.0801509309
H  H10  1  0.43890000  0.83930000  0.37270000  1.0 0.0801509309
H  H11  1  0.18470000  0.67850000  0.81990000  1.0 0.1076654329
H  H12  1  0.32150000  0.81530000  0.31990000  1.0 0.1076654329
H  H13  1  0.45810000  0.87510000  0.87670000  1.0 0.1076654329
H  H14  1  0.12490000  0.54190000  0.37670000  1.0 0.1076654329
H  H15  1  0.42280000  0.75100000  0.92990000  1.0 0.0704487612
H  H16  1  0.24900000  0.57720000  0.42990000  1.0 0.0704487612
H  H17  1  0.16800000  0.97420000  0.62320000  1.0 0.0878293862
H  H18  1  0.02580000  0.83200000  0.12320000  1.0 0.0878293862
H  H19  1  0.28780000  0.01740000  0.67910000  1.0 0.1201999498
H  H20  1  0.98260000  0.71220000  0.17910000  1.0 0.1201999498
H  H21  1  0.12020000  0.73200000  0.72330000  1.0 0.1201999498
H  H22  1  0.26800000  0.87980000  0.22330000  1.0 0.1201999498
H  H23  1  0.00860000  0.69560000  0.66350000  1.0 0.0576787239
H  H24  1  0.30440000  0.99140000  0.16350000  1.0 0.0576787239
H  H25  1  0.06210000  0.84770000  0.51380000  1.0 0.0801509309
H  H26  1  0.15230000  0.93790000  0.01380000  1.0 0.0801509309
H  H27  1  0.18180000  0.98400000  0.47170000  1.0 0.1287172077
H  H28  1  0.01600000  0.81820000  0.97170000  1.0 0.1287172077
H  H29  1  0.15440000  0.14860000  0.52910000  1.0 0.1287172077
H  H30  1  0.85140000  0.84560000  0.02910000  1.0 0.1287172077
H  H31  1  0.03610000  0.00790000  0.57120000  1.0 0.0704487612
H  H32  1  0.99210000  0.96390000  0.07120000  1.0 0.0704487612
H  H33  1  0.38550000  0.55330000  0.51690000  1.0 0.097944246
H  H34  1  0.44670000  0.61450000  0.01690000  1.0 0.097944246
H  H35  1  0.34230000  0.40210000  0.51470000  1.0 0.1287172077
H  H36  1  0.59790000  0.65770000  0.01470000  1.0 0.1287172077
H  H37  1  0.43560000  0.48660000  0.39280000  1.0 0.1287172077
H  H38  1  0.51340000  0.56440000  0.89280000  1.0 0.1287172077
H  H39  1  0.47720000  0.63520000  0.39930000  1.0 0.097944246
H  H40  1  0.36480000  0.52280000  0.89930000  1.0 0.097944246
H  H41  1  0.53150000  0.33090000  0.29940000  1.0 0.0878293862
H  H42  1  0.66910000  0.46850000  0.79940000  1.0 0.0878293862
H  H43  1  0.47830000  0.35930000  0.35320000  1.0 0.1201999498
H  H44  1  0.64070000  0.52170000  0.85320000  1.0 0.1201999498
H  H45  1  0.35150000  0.08450000  0.40830000  1.0 0.1287172077
H  H46  1  0.91550000  0.64850000  0.90830000  1.0 0.1287172077
H  H47  1  0.41480000  0.06660000  0.35490000  1.0 0.0576787239
H  H48  1  0.93340000  0.58520000  0.85490000  1.0 0.0576787239
H  H49  1  0.28370000  0.73390000  0.66470000  1.0 0.0801509309
H  H50  1  0.26610000  0.71630000  0.16470000  1.0 0.0801509309
H  H51  1  0.11880000  0.59180000  0.65980000  1.0 0.1287172077
H  H52  1  0.40820000  0.88120000  0.15980000  1.0 0.1287172077
H  H53  1  0.17290000  0.49230000  0.77730000  1.0 0.1287172077
H  H54  1  0.50770000  0.82710000  0.27730000  1.0 0.1287172077
H  H55  1  0.33530000  0.63290000  0.77630000  1.0 0.0704487612
H  H56  1  0.36710000  0.66470000  0.27630000  1.0 0.0704487612
H  H57  1  0.56110000  0.16070000  0.62730000  1.0 0.0801509309
H  H58  1  0.83930000  0.43890000  0.12730000  1.0 0.0801509309
H  H59  1  0.67850000  0.18470000  0.68010000  1.0 0.1076654329
H  H60  1  0.81530000  0.32150000  0.18010000  1.0 0.1076654329
H  H61  1  0.87510000  0.45810000  0.62330000  1.0 0.1076654329
H  H62  1  0.54190000  0.12490000  0.12330000  1.0 0.1076654329
H  H63  1  0.75100000  0.42280000  0.57010000  1.0 0.0704487612
H  H64  1  0.57720000  0.24900000  0.07010000  1.0 0.0704487612
H  H65  1  0.97420000  0.16800000  0.87680000  1.0 0.0878293862
H  H66  1  0.83200000  0.02580000  0.37680000  1.0 0.0878293862
H  H67  1  0.01740000  0.28780000  0.82090000  1.0 0.1201999498
H  H68  1  0.71220000  0.98260000  0.32090000  1.0 0.1201999498
H  H69  1  0.73200000  0.12020000  0.77670000  1.0 0.1201999498
H  H70  1  0.87980000  0.26800000  0.27670000  1.0 0.1201999498
H  H71  1  0.69560000  0.00860000  0.83650000  1.0 0.0576787239
H  H72  1  0.99140000  0.30440000  0.33650000  1.0 0.0576787239
H  H73  1  0.84770000  0.06210000  0.98620000  1.0 0.0801509309
H  H74  1  0.93790000  0.15230000  0.48620000  1.0 0.0801509309
H  H75  1  0.98400000  0.18180000  0.02830000  1.0 0.1287172077
H  H76  1  0.81820000  0.01600000  0.52830000  1.0 0.1287172077
H  H77  1  0.14860000  0.15440000  0.97090000  1.0 0.1287172077
H  H78  1  0.84560000  0.85140000  0.47090000  1.0 0.1287172077
H  H79  1  0.00790000  0.03610000  0.92880000  1.0 0.0704487612
H  H80  1  0.96390000  0.99210000  0.42880000  1.0 0.0704487612
H  H81  1  0.55330000  0.38550000  0.98310000  1.0 0.097944246
H  H82  1  0.61450000  0.44670000  0.48310000  1.0 0.097944246
H  H83  1  0.40210000  0.34230000  0.98530000  1.0 0.1287172077
H  H84  1  0.65770000  0.59790000  0.48530000  1.0 0.1287172077
H  H85  1  0.48660000  0.43560000  0.10720000  1.0 0.1287172077
H  H86  1  0.56440000  0.51340000  0.60720000  1.0 0.1287172077
H  H87  1  0.63520000  0.47720000  0.10070000  1.0 0.097944246
H  H88  1  0.52280000  0.36480000  0.60070000  1.0 0.097944246
H  H89  1  0.33090000  0.53150000  0.20060000  1.0 0.0878293862
H  H90  1  0.46850000  0.66910000  0.70060000  1.0 0.0878293862
H  H91  1  0.35930000  0.47830000  0.14680000  1.0 0.1201999498
H  H92  1  0.52170000  0.64070000  0.64680000  1.0 0.1201999498
H  H93  1  0.08450000  0.35150000  0.09170000  1.0 0.1287172077
H  H94  1  0.64850000  0.91550000  0.59170000  1.0 0.1287172077
H  H95  1  0.06660000  0.41480000  0.14510000  1.0 0.0576787239
H  H96  1  0.58520000  0.93340000  0.64510000  1.0 0.0576787239
C  C1  1  0.68320000  0.26020000  0.81240000  1.0 0.0528411685
C  C2  1  0.73980000  0.31680000  0.31240000  1.0 0.0528411685
C  C3  1  0.59850000  0.16170000  0.81580000  1.0 -0.1599535172
C  C4  1  0.83830000  0.40150000  0.31580000  1.0 -0.1599535172
C  C5  1  0.52440000  0.12880000  0.78250000  1.0 0.0576787239
C  C6  1  0.87120000  0.47560000  0.28250000  1.0 0.0576787239
C  C7  1  0.54010000  0.19450000  0.74690000  1.0 -0.1693860181
C  C8  1  0.80550000  0.45990000  0.24690000  1.0 -0.1693860181
C  C9  1  0.62490000  0.29010000  0.74720000  1.0 0.0407597256
C  C10  1  0.70990000  0.37510000  0.24720000  1.0 0.0407597256
C  C11  1  0.43190000  0.02450000  0.78240000  1.0 0.3430704487
C  C12  1  0.97550000  0.56810000  0.28240000  1.0 0.3430704487
C  C13  1  0.34180000  0.86740000  0.80880000  1.0 0.361999364
C  C14  1  0.13260000  0.65820000  0.30880000  1.0 0.3653293563
C  C15  1  0.28860000  0.90820000  0.74650000  1.0 0.361999364
C  C16  1  0.09180000  0.71140000  0.24650000  1.0 0.361999364
C  C17  1  0.22170000  0.62630000  0.87370000  1.0 0.0528411685
C  C18  1  0.37370000  0.77830000  0.37370000  1.0 0.0528411685
C  C19  1  0.23550000  0.69530000  0.84210000  1.0 -0.1599535172
C  C20  1  0.30470000  0.76450000  0.34210000  1.0 -0.1599535172
C  C21  1  0.32410000  0.78970000  0.84260000  1.0 0.0576787239
C  C22  1  0.21030000  0.67590000  0.34260000  1.0 0.0576787239
C  C23  1  0.39570000  0.81090000  0.87550000  1.0 -0.1783327503
C  C24  1  0.18910000  0.60430000  0.37550000  1.0 -0.1783327503
C  C25  1  0.37400000  0.73600000  0.90690000  1.0 0.0704487612
C  C26  1  0.26400000  0.62600000  0.40690000  1.0 0.0704487612
C  C27  1  0.15860000  0.92400000  0.64370000  1.0 0.0704487612
C  C28  1  0.07600000  0.84140000  0.14370000  1.0 0.0704487612
C  C29  1  0.22960000  0.95060000  0.67740000  1.0 -0.1486811178
C  C30  1  0.04940000  0.77040000  0.17740000  1.0 -0.1486811178
C  C31  1  0.21570000  0.88070000  0.70810000  1.0 0.0576787239
C  C32  1  0.11930000  0.78430000  0.20810000  1.0 0.0576787239
C  C33  1  0.13150000  0.78310000  0.70280000  1.0 -0.1693860181
C  C34  1  0.21690000  0.86850000  0.20280000  1.0 -0.1693860181
C  C35  1  0.06520000  0.76220000  0.66730000  1.0 0.0407597256
C  C36  1  0.23780000  0.93480000  0.16730000  1.0 0.0407597256
C  C37  1  0.08320000  0.91020000  0.51770000  1.0 0.0528411685
C  C38  1  0.08980000  0.91680000  0.01770000  1.0 0.0528411685
C  C39  1  0.15340000  0.99060000  0.49230000  1.0 -0.1486811178
C  C40  1  0.00940000  0.84660000  0.99230000  1.0 -0.1486811178
C  C41  1  0.18200000  0.08040000  0.49680000  1.0 0.0528411685
C  C42  1  0.91960000  0.81800000  0.99680000  1.0 0.0528411685
C  C43  1  0.13740000  0.08760000  0.52620000  1.0 -0.1486811178
C  C44  1  0.91240000  0.86260000  0.02620000  1.0 -0.1486811178
C  C45  1  0.06770000  0.00390000  0.55130000  1.0 0.0407597256
C  C46  1  0.99610000  0.93230000  0.05130000  1.0 0.0528411685
C  C47  1  0.26110000  0.16890000  0.47050000  1.0 0.3509814131
C  C48  1  0.83110000  0.73890000  0.97050000  1.0 0.3509814131
C  C49  1  0.35490000  0.33030000  0.45040000  1.0 0.3509814131
C  C50  1  0.66970000  0.64510000  0.95040000  1.0 0.3509814131
C  C51  1  0.36540000  0.23620000  0.41850000  1.0 0.3509814131
C  C52  1  0.76380000  0.63460000  0.91850000  1.0 0.3509814131
C  C53  1  0.39520000  0.53900000  0.49130000  1.0 0.0528411685
C  C54  1  0.46100000  0.60480000  0.99130000  1.0 0.0528411685
C  C55  1  0.37000000  0.44920000  0.49030000  1.0 -0.1783327503
C  C56  1  0.55080000  0.63000000  0.99030000  1.0 -0.1783327503
C  C57  1  0.38490000  0.42770000  0.45370000  1.0 0.0528411685
C  C58  1  0.57230000  0.61510000  0.95370000  1.0 0.0528411685
C  C59  1  0.42470000  0.49850000  0.41880000  1.0 -0.1783327503
C  C60  1  0.50150000  0.57530000  0.91880000  1.0 -0.1783327503
C  C61  1  0.44820000  0.58620000  0.42300000  1.0 0.0704487612
C  C62  1  0.41380000  0.55180000  0.92300000  1.0 0.0704487612
C  C63  1  0.49660000  0.28160000  0.32240000  1.0 0.0576787239
C  C64  1  0.71840000  0.50340000  0.82240000  1.0 0.0576787239
C  C65  1  0.46290000  0.29790000  0.35360000  1.0 -0.1599535172
C  C66  1  0.70210000  0.53710000  0.85360000  1.0 -0.1599535172
C  C67  1  0.40570000  0.22230000  0.38560000  1.0 0.0528411685
C  C68  1  0.77770000  0.59430000  0.88560000  1.0 0.0528411685
C  C69  1  0.38870000  0.13630000  0.38650000  1.0 -0.1486811178
C  C70  1  0.86370000  0.61130000  0.88650000  1.0 -0.1486811178
C  C71  1  0.42750000  0.12650000  0.35460000  1.0 0.0576787239
C  C72  1  0.87350000  0.57250000  0.85460000  1.0 0.0576787239
C  C73  1  0.26020000  0.68320000  0.68760000  1.0 0.0528411685
C  C74  1  0.31680000  0.73980000  0.18760000  1.0 0.0528411685
C  C75  1  0.16170000  0.59850000  0.68420000  1.0 -0.1599535172
C  C76  1  0.40150000  0.83830000  0.18420000  1.0 -0.1599535172
C  C77  1  0.12880000  0.52440000  0.71750000  1.0 0.0576787239
C  C78  1  0.47560000  0.87120000  0.21750000  1.0 0.0576787239
C  C79  1  0.19450000  0.54010000  0.75310000  1.0 -0.1693860181
C  C80  1  0.45990000  0.80550000  0.25310000  1.0 -0.1693860181
C  C81  1  0.29010000  0.62490000  0.75280000  1.0 0.0407597256
C  C82  1  0.37510000  0.70990000  0.25280000  1.0 0.0407597256
C  C83  1  0.02450000  0.43190000  0.71760000  1.0 0.3430704487
C  C84  1  0.56810000  0.97550000  0.21760000  1.0 0.3430704487
C  C85  1  0.86740000  0.34180000  0.69120000  1.0 0.3653293563
C  C86  1  0.65820000  0.13260000  0.19120000  1.0 0.361999364
C  C87  1  0.90820000  0.28860000  0.75350000  1.0 0.361999364
C  C88  1  0.71140000  0.09180000  0.25350000  1.0 0.361999364
C  C89  1  0.62630000  0.22170000  0.62630000  1.0 0.0528411685
C  C90  1  0.77830000  0.37370000  0.12630000  1.0 0.0528411685
C  C91  1  0.69530000  0.23550000  0.65790000  1.0 -0.1599535172
C  C92  1  0.76450000  0.30470000  0.15790000  1.0 -0.1599535172
C  C93  1  0.78970000  0.32410000  0.65740000  1.0 0.0576787239
C  C94  1  0.67590000  0.21030000  0.15740000  1.0 0.0576787239
C  C95  1  0.81090000  0.39570000  0.62450000  1.0 -0.1783327503
C  C96  1  0.60430000  0.18910000  0.12450000  1.0 -0.1783327503
C  C97  1  0.73600000  0.37400000  0.59310000  1.0 0.0704487612
C  C98  1  0.62600000  0.26400000  0.09310000  1.0 0.0704487612
C  C99  1  0.92400000  0.15860000  0.85630000  1.0 0.0704487612
C  C100  1  0.84140000  0.07600000  0.35630000  1.0 0.0704487612
C  C101  1  0.95060000  0.22960000  0.82260000  1.0 -0.1486811178
C  C102  1  0.77040000  0.04940000  0.32260000  1.0 -0.1486811178
C  C103  1  0.88070000  0.21570000  0.79190000  1.0 0.0576787239
C  C104  1  0.78430000  0.11930000  0.29190000  1.0 0.0576787239
C  C105  1  0.78310000  0.13150000  0.79720000  1.0 -0.1693860181
C  C106  1  0.86850000  0.21690000  0.29720000  1.0 -0.1693860181
C  C107  1  0.76220000  0.06520000  0.83270000  1.0 0.0407597256
C  C108  1  0.93480000  0.23780000  0.33270000  1.0 0.0407597256
C  C109  1  0.91020000  0.08320000  0.98230000  1.0 0.0528411685
C  C110  1  0.91680000  0.08980000  0.48230000  1.0 0.0528411685
C  C111  1  0.99060000  0.15340000  0.00770000  1.0 -0.1486811178
C  C112  1  0.84660000  0.00940000  0.50770000  1.0 -0.1486811178
C  C113  1  0.08040000  0.18200000  0.00320000  1.0 0.0528411685
C  C114  1  0.81800000  0.91960000  0.50320000  1.0 0.0528411685
C  C115  1  0.08760000  0.13740000  0.97380000  1.0 -0.1486811178
C  C116  1  0.86260000  0.91240000  0.47380000  1.0 -0.1486811178
C  C117  1  0.00390000  0.06770000  0.94870000  1.0 0.0407597256
C  C118  1  0.93230000  0.99610000  0.44870000  1.0 0.0407597256
C  C119  1  0.16890000  0.26110000  0.02950000  1.0 0.3509814131
C  C120  1  0.73890000  0.83110000  0.52950000  1.0 0.3509814131
C  C121  1  0.33030000  0.35490000  0.04960000  1.0 0.3509814131
C  C122  1  0.64510000  0.66970000  0.54960000  1.0 0.3509814131
C  C123  1  0.23620000  0.36540000  0.08150000  1.0 0.3509814131
C  C124  1  0.63460000  0.76380000  0.58150000  1.0 0.3509814131
C  C125  1  0.53900000  0.39520000  0.00870000  1.0 0.0528411685
C  C126  1  0.60480000  0.46100000  0.50870000  1.0 0.0528411685
C  C127  1  0.44920000  0.37000000  0.00970000  1.0 -0.1783327503
C  C128  1  0.63000000  0.55080000  0.50970000  1.0 -0.1783327503
C  C129  1  0.42770000  0.38490000  0.04630000  1.0 0.0528411685
C  C130  1  0.61510000  0.57230000  0.54630000  1.0 0.0528411685
C  C131  1  0.49850000  0.42470000  0.08120000  1.0 -0.1783327503
C  C132  1  0.57530000  0.50150000  0.58120000  1.0 -0.1783327503
C  C133  1  0.58620000  0.44820000  0.07700000  1.0 0.0704487612
C  C134  1  0.55180000  0.41380000  0.57700000  1.0 0.0704487612
C  C135  1  0.28160000  0.49660000  0.17760000  1.0 0.0576787239
C  C136  1  0.50340000  0.71840000  0.67760000  1.0 0.0576787239
C  C137  1  0.29790000  0.46290000  0.14640000  1.0 -0.1599535172
C  C138  1  0.53710000  0.70210000  0.64640000  1.0 -0.1599535172
C  C139  1  0.22230000  0.40570000  0.11440000  1.0 0.0528411685
C  C140  1  0.59430000  0.77770000  0.61440000  1.0 0.0528411685
C  C141  1  0.13630000  0.38870000  0.11350000  1.0 -0.1486811178
C  C142  1  0.61130000  0.86370000  0.61350000  1.0 -0.1486811178
C  C143  1  0.12650000  0.42750000  0.14540000  1.0 0.0576787239
C  C144  1  0.57250000  0.87350000  0.64540000  1.0 0.0576787239
I  I1  1  0.86955000  0.82125000  0.63444000  1.0 0.0275739196
I  I2  1  0.17875000  0.13045000  0.13444000  1.0 0.0232669773
I  I3  1  0.88628000  0.64632000  0.55727000  1.0 -0.0820725734
I  I4  1  0.35368000  0.11372000  0.05727000  1.0 -0.0820725734
I  I5  1  0.62133000  0.87223000  0.42465000  1.0 -0.4600125465
I  I6  1  0.12777000  0.37867000  0.92465000  1.0 -0.4600125465
I  I7  1  0.40344000  0.73838000  0.52504000  1.0 -0.4522485422
I  I8  1  0.26162000  0.59656000  0.02504000  1.0 -0.4522485422
I  I9  1  0.46022000  0.20286000  0.19848000  1.0 0.0275739196
I  I10  1  0.79714000  0.53978000  0.69848000  1.0 0.0275739196
I  I11  1  0.50658000  0.03060000  0.30011000  1.0 -0.0169385062
I  I12  1  0.96940000  0.49342000  0.80011000  1.0 -0.0169385062
I  I13  1  0.45210000  0.14850000  0.21190000  1.0 -0.0098634464
I  I14  1  0.85150000  0.54790000  0.71190000  1.0 -0.0098634464
I  I15  1  0.52750000  0.02530000  0.31720000  1.0 0.0232669773
I  I16  1  0.97470000  0.47250000  0.81720000  1.0 0.0232669773
I  I17  1  0.87890000  0.84890000  0.63180000  1.0 0.0528411685
I  I18  1  0.15110000  0.12110000  0.13180000  1.0 0.0528411685
I  I19  1  0.87470000  0.64390000  0.56480000  1.0 -0.0556990976
I  I20  1  0.35610000  0.12530000  0.06480000  1.0 -0.0556990976
I  I21  1  0.82125000  0.86955000  0.86556000  1.0 0.0275739196
I  I22  1  0.13045000  0.17875000  0.36556000  1.0 0.0232669773
I  I23  1  0.64632000  0.88628000  0.94273000  1.0 -0.0820725734
I  I24  1  0.11372000  0.35368000  0.44273000  1.0 -0.0820725734
I  I25  1  0.87223000  0.62133000  0.07535000  1.0 -0.4600125465
I  I26  1  0.37867000  0.12777000  0.57535000  1.0 -0.4600125465
I  I27  1  0.73838000  0.40344000  0.97496000  1.0 -0.4522485422
I  I28  1  0.59656000  0.26162000  0.47496000  1.0 -0.4522485422
I  I29  1  0.20286000  0.46022000  0.30152000  1.0 0.0275739196
I  I30  1  0.53978000  0.79714000  0.80152000  1.0 0.0275739196
I  I31  1  0.03060000  0.50658000  0.19989000  1.0 -0.0169385062
I  I32  1  0.49342000  0.96940000  0.69989000  1.0 -0.0169385062
I  I33  1  0.14850000  0.45210000  0.28810000  1.0 -0.0098634464
I  I34  1  0.54790000  0.85150000  0.78810000  1.0 -0.0098634464
I  I35  1  0.02530000  0.52750000  0.18280000  1.0 0.0232669773
I  I36  1  0.47250000  0.97470000  0.68280000  1.0 0.0232669773
I  I37  1  0.84890000  0.87890000  0.86820000  1.0 0.0528411685
I  I38  1  0.12110000  0.15110000  0.36820000  1.0 0.0528411685
I  I39  1  0.64390000  0.87470000  0.93520000  1.0 -0.0545424993
I  I40  1  0.12530000  0.35610000  0.43520000  1.0 -0.0556990976
N  N1  1  0.69700000  0.32280000  0.77900000  1.0 -0.1783327503
N  N2  1  0.67720000  0.30300000  0.27900000  1.0 -0.1783327503
N  N3  1  0.42280000  0.95920000  0.81330000  1.0 -0.4114241935
N  N4  1  0.04080000  0.57720000  0.31330000  1.0 -0.4114241935
N  N5  1  0.27310000  0.83730000  0.77490000  1.0 -0.4114241935
N  N6  1  0.16270000  0.72690000  0.27490000  1.0 -0.4114241935
N  N7  1  0.36470000  0.00370000  0.74930000  1.0 -0.4293490822
N  N8  1  0.99630000  0.63530000  0.24930000  1.0 -0.4293490822
N  N9  1  0.28980000  0.64540000  0.90640000  1.0 -0.1783327503
N  N10  1  0.35460000  0.71020000  0.40640000  1.0 -0.1783327503
N  N11  1  0.07730000  0.83150000  0.63830000  1.0 -0.1783327503
N  N12  1  0.16850000  0.92270000  0.13830000  1.0 -0.1783327503
N  N13  1  0.04341000  0.91699000  0.54816000  1.0 -0.1985350723
N  N14  1  0.08301000  0.95659000  0.04816000  1.0 -0.1985350723
N  N15  1  0.28851000  0.25629000  0.47720000  1.0 -0.4293490822
N  N16  1  0.74371000  0.71149000  0.97720000  1.0 -0.4293490822
N  N17  1  0.39645000  0.32495000  0.42070000  1.0 -0.4206407803
N  N18  1  0.67505000  0.60355000  0.92070000  1.0 -0.4206407803
N  N19  1  0.29839000  0.15541000  0.44260000  1.0 -0.4114241935
N  N20  1  0.84459000  0.70161000  0.94260000  1.0 -0.4114241935
N  N21  1  0.43320000  0.60680000  0.45740000  1.0 -0.1985350723
N  N22  1  0.39320000  0.56680000  0.95740000  1.0 -0.1985350723
N  N23  1  0.48140000  0.19800000  0.32390000  1.0 -0.1693860181
N  N24  1  0.80200000  0.51860000  0.82390000  1.0 -0.1783327503
N  N25  1  0.32280000  0.69700000  0.72100000  1.0 -0.1783327503
N  N26  1  0.30300000  0.67720000  0.22100000  1.0 -0.1783327503
N  N27  1  0.95920000  0.42280000  0.68670000  1.0 -0.4114241935
N  N28  1  0.57720000  0.04080000  0.18670000  1.0 -0.4114241935
N  N29  1  0.83730000  0.27310000  0.72510000  1.0 -0.4114241935
N  N30  1  0.72690000  0.16270000  0.22510000  1.0 -0.4114241935
N  N31  1  0.00370000  0.36470000  0.75070000  1.0 -0.4293490822
N  N32  1  0.63530000  0.99630000  0.25070000  1.0 -0.4293490822
N  N33  1  0.64540000  0.28980000  0.59360000  1.0 -0.1783327503
N  N34  1  0.71020000  0.35460000  0.09360000  1.0 -0.1783327503
N  N35  1  0.83150000  0.07730000  0.86170000  1.0 -0.1783327503
N  N36  1  0.92270000  0.16850000  0.36170000  1.0 -0.1783327503
N  N37  1  0.91699000  0.04341000  0.95184000  1.0 -0.1985350723
N  N38  1  0.95659000  0.08301000  0.45184000  1.0 -0.1985350723
N  N39  1  0.25629000  0.28851000  0.02280000  1.0 -0.4293490822
N  N40  1  0.71149000  0.74371000  0.52280000  1.0 -0.4293490822
N  N41  1  0.32495000  0.39645000  0.07930000  1.0 -0.4206407803
N  N42  1  0.60355000  0.67505000  0.57930000  1.0 -0.4206407803
N  N43  1  0.15541000  0.29839000  0.05740000  1.0 -0.4114241935
N  N44  1  0.70161000  0.84459000  0.55740000  1.0 -0.4114241935
N  N45  1  0.60680000  0.43320000  0.04260000  1.0 -0.1985350723
N  N46  1  0.56680000  0.39320000  0.54260000  1.0 -0.1985350723
N  N47  1  0.19800000  0.48140000  0.17610000  1.0 -0.1783327503
N  N48  1  0.51860000  0.80200000  0.67610000  1.0 -0.1783327503
