# DDEC6 charges by PACMAN v1.1 (https://github.com/mtap-research/PACMAN-charge/)
data_VUBFOQ_FSR_pacman
_symmetry_space_group_name_H-M   'P 1'
_cell_length_a   11.29800000
_cell_length_b   21.53860000
_cell_length_c   12.77800000
_cell_angle_alpha   90.00000000
_cell_angle_beta   91.41400000
_cell_angle_gamma   90.00000000
_symmetry_Int_Tables_number   1
_chemical_formula_structural   Li2H14C21NO13
_chemical_formula_sum   'Li8 H56 C84 N4 O52'
_cell_volume   3108.49131266
_cell_formula_units_Z   4
loop_
 _symmetry_equiv_pos_site_id
 _symmetry_equiv_pos_as_xyz
  1  'x, y, z'
loop_
 _atom_site_type_symbol
 _atom_site_label
 _atom_site_symmetry_multiplicity
 _atom_site_fract_x
 _atom_site_fract_y
 _atom_site_fract_z
 _atom_site_occupancy
 _atom_site_charge
Li  Li1  1  0.19700000  0.58910000  0.84160000  1.0 0.8122294831
Li  Li2  1  0.48400000  0.47500000  0.36490000  1.0 0.822661637
Li  Li3  1  0.80300000  0.41090000  0.15840000  1.0 0.8122294831
Li  Li4  1  0.51600000  0.52500000  0.63510000  1.0 0.822661637
Li  Li5  1  0.80300000  0.08910000  0.65840000  1.0 0.8122294831
Li  Li6  1  0.51600000  0.97500000  0.13510000  1.0 0.822661637
Li  Li7  1  0.19700000  0.91090000  0.34160000  1.0 0.8122294831
Li  Li8  1  0.48400000  0.02500000  0.86490000  1.0 0.822661637
H  H1  1  0.80390000  0.55970000  0.62340000  1.0 0.1307277536
H  H2  1  0.84540000  0.55040000  0.31150000  1.0 0.1388528961
H  H3  1  0.12340000  0.59530000  0.50020000  1.0 0.1307277536
H  H4  1  0.30940000  0.42720000  0.12980000  1.0 0.1388528961
H  H5  1  0.62990000  0.39920000  0.00240000  1.0 0.108516947
H  H6  1  0.35570000  0.46180000  0.82490000  1.0 0.1388528961
H  H7  1  0.17550000  0.63640000  0.06410000  1.0 0.108516947
H  H8  1  0.03650000  0.75030000  0.93070000  1.0 0.1388528961
H  H9  1  0.95180000  0.76240000  0.02390000  1.0 0.1481272342
H  H10  1  0.06890000  0.80090000  0.01490000  1.0 0.1164548999
H  H11  1  0.18970000  0.76810000  0.16460000  1.0 0.1554485212
H  H12  1  0.07170000  0.74360000  0.21170000  1.0 0.1481272342
H  H13  1  0.18000000  0.69870000  0.20080000  1.0 0.1388528961
H  H14  1  0.69000000  0.42500000  0.82800000  1.0 0.2662415194
H  H15  1  0.19610000  0.44030000  0.37660000  1.0 0.1307277536
H  H16  1  0.15460000  0.44960000  0.68850000  1.0 0.1388528961
H  H17  1  0.87660000  0.40470000  0.49980000  1.0 0.1307277536
H  H18  1  0.69060000  0.57280000  0.87020000  1.0 0.1388528961
H  H19  1  0.37010000  0.60080000  0.99760000  1.0 0.108516947
H  H20  1  0.64430000  0.53820000  0.17510000  1.0 0.1388528961
H  H21  1  0.82450000  0.36360000  0.93590000  1.0 0.108516947
H  H22  1  0.96350000  0.24970000  0.06930000  1.0 0.1388528961
H  H23  1  0.04820000  0.23760000  0.97610000  1.0 0.1481272342
H  H24  1  0.93110000  0.19910000  0.98510000  1.0 0.1164548999
H  H25  1  0.81030000  0.23190000  0.83540000  1.0 0.1554485212
H  H26  1  0.92830000  0.25640000  0.78830000  1.0 0.1481272342
H  H27  1  0.82000000  0.30130000  0.79920000  1.0 0.1388528961
H  H28  1  0.31000000  0.57500000  0.17200000  1.0 0.2662415194
H  H29  1  0.19610000  0.05970000  0.87660000  1.0 0.1307277536
H  H30  1  0.15460000  0.05040000  0.18850000  1.0 0.1388528961
H  H31  1  0.87660000  0.09530000  0.99980000  1.0 0.1307277536
H  H32  1  0.69060000  0.92720000  0.37020000  1.0 0.1388528961
H  H33  1  0.37010000  0.89920000  0.49760000  1.0 0.108516947
H  H34  1  0.64430000  0.96180000  0.67510000  1.0 0.1388528961
H  H35  1  0.82450000  0.13640000  0.43590000  1.0 0.108516947
H  H36  1  0.96350000  0.25030000  0.56930000  1.0 0.1388528961
H  H37  1  0.04820000  0.26240000  0.47610000  1.0 0.1481272342
H  H38  1  0.93110000  0.30090000  0.48510000  1.0 0.1164548999
H  H39  1  0.81030000  0.26810000  0.33540000  1.0 0.1554485212
H  H40  1  0.92830000  0.24360000  0.28830000  1.0 0.1481272342
H  H41  1  0.82000000  0.19870000  0.29920000  1.0 0.1388528961
H  H42  1  0.31000000  0.92500000  0.67200000  1.0 0.2662415194
H  H43  1  0.80390000  0.94030000  0.12340000  1.0 0.1307277536
H  H44  1  0.84540000  0.94960000  0.81150000  1.0 0.1388528961
H  H45  1  0.12340000  0.90470000  0.00020000  1.0 0.1307277536
H  H46  1  0.30940000  0.07280000  0.62980000  1.0 0.1388528961
H  H47  1  0.62990000  0.10080000  0.50240000  1.0 0.108516947
H  H48  1  0.35570000  0.03820000  0.32490000  1.0 0.1388528961
H  H49  1  0.17550000  0.86360000  0.56410000  1.0 0.108516947
H  H50  1  0.03650000  0.74970000  0.43070000  1.0 0.1388528961
H  H51  1  0.95180000  0.73760000  0.52390000  1.0 0.1481272342
H  H52  1  0.06890000  0.69910000  0.51490000  1.0 0.1164548999
H  H53  1  0.18970000  0.73190000  0.66460000  1.0 0.1554485212
H  H54  1  0.07170000  0.75640000  0.71170000  1.0 0.1481272342
H  H55  1  0.18000000  0.80130000  0.70080000  1.0 0.1388528961
H  H56  1  0.69000000  0.07500000  0.32800000  1.0 0.2662415194
C  C1  1  0.97700000  0.57760000  0.58160000  1.0 -0.0436465995
C  C2  1  0.85300000  0.56190000  0.56630000  1.0 -0.030807745
C  C3  1  0.80700000  0.54990000  0.46440000  1.0 -0.0087107418
C  C4  1  0.87700000  0.55720000  0.37850000  1.0 -0.0619368351
C  C5  1  0.99800000  0.57530000  0.39310000  1.0 0.001864063
C  C6  1  0.04400000  0.58430000  0.49220000  1.0 -0.1006170691
C  C7  1  0.02400000  0.58480000  0.68870000  1.0 0.5269056844
C  C8  1  0.68200000  0.52600000  0.45640000  1.0 0.5814181851
C  C9  1  0.07900000  0.58040000  0.30080000  1.0 0.5226233291
C  C10  1  0.31700000  0.44550000  0.97630000  1.0 0.001864063
C  C11  1  0.35900000  0.42830000  0.07300000  1.0 -0.093294659
C  C12  1  0.48000000  0.41200000  0.08510000  1.0 -0.0087107418
C  C13  1  0.55070000  0.41070000  0.99660000  1.0 -0.1006170691
C  C14  1  0.49900000  0.42740000  0.89610000  1.0 -0.0009382056
C  C15  1  0.38700000  0.44720000  0.88830000  1.0 -0.1144313527
C  C16  1  0.18700000  0.46810000  0.97050000  1.0 0.5579085785
C  C17  1  0.53800000  0.40180000  0.19050000  1.0 0.5814181851
C  C18  1  0.57700000  0.42960000  0.80270000  1.0 0.3794057208
C  C19  1  0.12600000  0.66250000  0.02540000  1.0 0.2970332491
C  C20  1  0.03300000  0.76100000  0.00350000  1.0 -0.2831088243
C  C21  1  0.13800000  0.73300000  0.16940000  1.0 -0.2988715706
C  C22  1  0.02300000  0.42240000  0.41840000  1.0 -0.0436465995
C  C23  1  0.14700000  0.43810000  0.43370000  1.0 -0.030807745
C  C24  1  0.19300000  0.45010000  0.53560000  1.0 -0.0087107418
C  C25  1  0.12300000  0.44280000  0.62150000  1.0 -0.0619368351
C  C26  1  0.00200000  0.42470000  0.60690000  1.0 0.0050214172
C  C27  1  0.95600000  0.41570000  0.50780000  1.0 -0.1006170691
C  C28  1  0.97600000  0.41520000  0.31130000  1.0 0.5269056844
C  C29  1  0.31800000  0.47400000  0.54360000  1.0 0.5814181851
C  C30  1  0.92100000  0.41960000  0.69920000  1.0 0.5226233291
C  C31  1  0.68300000  0.55450000  0.02370000  1.0 0.001864063
C  C32  1  0.64100000  0.57170000  0.92700000  1.0 -0.093294659
C  C33  1  0.52000000  0.58800000  0.91490000  1.0 -0.0087107418
C  C34  1  0.44930000  0.58930000  0.00340000  1.0 -0.1006170691
C  C35  1  0.50100000  0.57260000  0.10390000  1.0 -0.0009382056
C  C36  1  0.61300000  0.55280000  0.11170000  1.0 -0.1144313527
C  C37  1  0.81300000  0.53190000  0.02950000  1.0 0.5579085785
C  C38  1  0.46200000  0.59820000  0.80950000  1.0 0.5814181851
C  C39  1  0.42300000  0.57040000  0.19730000  1.0 0.3794057208
C  C40  1  0.87400000  0.33750000  0.97460000  1.0 0.2970332491
C  C41  1  0.96700000  0.23900000  0.99650000  1.0 -0.2831088243
C  C42  1  0.86200000  0.26700000  0.83060000  1.0 -0.2988715706
C  C43  1  0.02300000  0.07760000  0.91840000  1.0 -0.0436465995
C  C44  1  0.14700000  0.06190000  0.93370000  1.0 -0.030807745
C  C45  1  0.19300000  0.04990000  0.03560000  1.0 -0.0087107418
C  C46  1  0.12300000  0.05720000  0.12150000  1.0 -0.0619368351
C  C47  1  0.00200000  0.07530000  0.10690000  1.0 0.0050214172
C  C48  1  0.95600000  0.08430000  0.00780000  1.0 -0.1006170691
C  C49  1  0.97600000  0.08480000  0.81130000  1.0 0.5269056844
C  C50  1  0.31800000  0.02600000  0.04360000  1.0 0.5814181851
C  C51  1  0.92100000  0.08040000  0.19920000  1.0 0.5226233291
C  C52  1  0.68300000  0.94550000  0.52370000  1.0 0.001864063
C  C53  1  0.64100000  0.92830000  0.42700000  1.0 -0.093294659
C  C54  1  0.52000000  0.91200000  0.41490000  1.0 -0.0087107418
C  C55  1  0.44930000  0.91070000  0.50340000  1.0 -0.1006170691
C  C56  1  0.50100000  0.92740000  0.60390000  1.0 -0.0009382056
C  C57  1  0.61300000  0.94720000  0.61170000  1.0 -0.1144313527
C  C58  1  0.81300000  0.96810000  0.52950000  1.0 0.5579085785
C  C59  1  0.46200000  0.90180000  0.30950000  1.0 0.5814181851
C  C60  1  0.42300000  0.92960000  0.69730000  1.0 0.3794057208
C  C61  1  0.87400000  0.16250000  0.47460000  1.0 0.2970332491
C  C62  1  0.96700000  0.26100000  0.49650000  1.0 -0.2831088243
C  C63  1  0.86200000  0.23300000  0.33060000  1.0 -0.2988715706
C  C64  1  0.97700000  0.92240000  0.08160000  1.0 -0.0436465995
C  C65  1  0.85300000  0.93810000  0.06630000  1.0 -0.030807745
C  C66  1  0.80700000  0.95010000  0.96440000  1.0 -0.0087107418
C  C67  1  0.87700000  0.94280000  0.87850000  1.0 -0.0619368351
C  C68  1  0.99800000  0.92470000  0.89310000  1.0 0.001864063
C  C69  1  0.04400000  0.91570000  0.99220000  1.0 -0.1006170691
C  C70  1  0.02400000  0.91520000  0.18870000  1.0 0.5269056844
C  C71  1  0.68200000  0.97400000  0.95640000  1.0 0.5814181851
C  C72  1  0.07900000  0.91960000  0.80080000  1.0 0.5226233291
C  C73  1  0.31700000  0.05450000  0.47630000  1.0 0.001864063
C  C74  1  0.35900000  0.07170000  0.57300000  1.0 -0.093294659
C  C75  1  0.48000000  0.08800000  0.58510000  1.0 -0.0087107418
C  C76  1  0.55070000  0.08930000  0.49660000  1.0 -0.1006170691
C  C77  1  0.49900000  0.07260000  0.39610000  1.0 -0.0009382056
C  C78  1  0.38700000  0.05280000  0.38830000  1.0 -0.1144313527
C  C79  1  0.18700000  0.03190000  0.47050000  1.0 0.5579085785
C  C80  1  0.53800000  0.09820000  0.69050000  1.0 0.5814181851
C  C81  1  0.57700000  0.07040000  0.30270000  1.0 0.3794057208
C  C82  1  0.12600000  0.83750000  0.52540000  1.0 0.2970332491
C  C83  1  0.03300000  0.73900000  0.50350000  1.0 -0.2831088243
C  C84  1  0.13800000  0.76700000  0.66940000  1.0 -0.2988715706
N  N1  1  0.09510000  0.71540000  0.06450000  1.0 0.0449474926
N  N2  1  0.90490000  0.28460000  0.93550000  1.0 0.0449474926
N  N3  1  0.90490000  0.21540000  0.43550000  1.0 0.0449474926
N  N4  1  0.09510000  0.78460000  0.56450000  1.0 0.0460756111
O  O1  1  0.96160000  0.57190000  0.76270000  1.0 -0.3665725377
O  O2  1  0.14700000  0.59750000  0.69680000  1.0 -0.5484250647
O  O3  1  0.65920000  0.48630000  0.38550000  1.0 -0.5009408829
O  O4  1  0.60920000  0.54640000  0.52110000  1.0 -0.5692603675
O  O5  1  0.18300000  0.59660000  0.32280000  1.0 -0.443482065
O  O6  1  0.04000000  0.57080000  0.21080000  1.0 -0.4173928065
O  O7  1  0.15170000  0.50670000  0.89620000  1.0 -0.5009408829
O  O8  1  0.11520000  0.44780000  0.03380000  1.0 -0.3327665043
O  O9  1  0.47210000  0.40400000  0.26810000  1.0 -0.5060355378
O  O10  1  0.64800000  0.39310000  0.19590000  1.0 -0.5692603675
O  O11  1  0.68600000  0.40020000  0.81660000  1.0 -0.3858359021
O  O12  1  0.55250000  0.45410000  0.72420000  1.0 -0.3977320281
O  O13  1  0.08820000  0.64550000  0.93370000  1.0 -0.4549573076
O  O14  1  0.03840000  0.42810000  0.23730000  1.0 -0.3665725377
O  O15  1  0.85300000  0.40250000  0.30320000  1.0 -0.5484250647
O  O16  1  0.34080000  0.51370000  0.61450000  1.0 -0.5009408829
O  O17  1  0.39080000  0.45360000  0.47890000  1.0 -0.5692603675
O  O18  1  0.81700000  0.40340000  0.67720000  1.0 -0.443482065
O  O19  1  0.96000000  0.42920000  0.78920000  1.0 -0.4173928065
O  O20  1  0.84830000  0.49330000  0.10380000  1.0 -0.5009408829
O  O21  1  0.88480000  0.55220000  0.96620000  1.0 -0.3327665043
O  O22  1  0.52790000  0.59600000  0.73190000  1.0 -0.5060355378
O  O23  1  0.35200000  0.60690000  0.80410000  1.0 -0.5692603675
O  O24  1  0.31400000  0.59980000  0.18340000  1.0 -0.3858359021
O  O25  1  0.44750000  0.54590000  0.27580000  1.0 -0.3977320281
O  O26  1  0.91180000  0.35450000  0.06630000  1.0 -0.4549573076
O  O27  1  0.03840000  0.07190000  0.73730000  1.0 -0.3665725377
O  O28  1  0.85300000  0.09750000  0.80320000  1.0 -0.5484250647
O  O29  1  0.34080000  0.98630000  0.11450000  1.0 -0.5009408829
O  O30  1  0.39080000  0.04640000  0.97890000  1.0 -0.5692603675
O  O31  1  0.81700000  0.09660000  0.17720000  1.0 -0.443482065
O  O32  1  0.96000000  0.07080000  0.28920000  1.0 -0.4173928065
O  O33  1  0.84830000  0.00670000  0.60380000  1.0 -0.5009408829
O  O34  1  0.88480000  0.94780000  0.46620000  1.0 -0.3327665043
O  O35  1  0.52790000  0.90400000  0.23190000  1.0 -0.5060355378
O  O36  1  0.35200000  0.89310000  0.30410000  1.0 -0.5692603675
O  O37  1  0.31400000  0.90020000  0.68340000  1.0 -0.3858359021
O  O38  1  0.44750000  0.95410000  0.77580000  1.0 -0.3977320281
O  O39  1  0.91180000  0.14550000  0.56630000  1.0 -0.4549573076
O  O40  1  0.96160000  0.92810000  0.26270000  1.0 -0.3665725377
O  O41  1  0.14700000  0.90250000  0.19680000  1.0 -0.5484250647
O  O42  1  0.65920000  0.01370000  0.88550000  1.0 -0.5009408829
O  O43  1  0.60920000  0.95360000  0.02110000  1.0 -0.5692603675
O  O44  1  0.18300000  0.90340000  0.82280000  1.0 -0.443482065
O  O45  1  0.04000000  0.92920000  0.71080000  1.0 -0.4173928065
O  O46  1  0.15170000  0.99330000  0.39620000  1.0 -0.5009408829
O  O47  1  0.11520000  0.05220000  0.53380000  1.0 -0.3327665043
O  O48  1  0.47210000  0.09600000  0.76810000  1.0 -0.5060355378
O  O49  1  0.64800000  0.10690000  0.69590000  1.0 -0.5692603675
O  O50  1  0.68600000  0.09980000  0.31660000  1.0 -0.3858359021
O  O51  1  0.55250000  0.04590000  0.22420000  1.0 -0.3977320281
O  O52  1  0.08820000  0.85450000  0.43370000  1.0 -0.4549573076
