# DDEC6 charges by PACMAN v1.1 (https://github.com/mtap-research/PACMAN-charge/)
data_VUBGAD_FSR_pacman
_symmetry_space_group_name_H-M   'P 1'
_cell_length_a   8.25000000
_cell_length_b   11.30000000
_cell_length_c   14.40000000
_cell_angle_alpha   90.00000000
_cell_angle_beta   90.00000000
_cell_angle_gamma   90.00000000
_symmetry_Int_Tables_number   1
_chemical_formula_structural   Li2H4C9O7
_chemical_formula_sum   'Li8 H16 C36 O28'
_cell_volume   1342.44000000
_cell_formula_units_Z   4
loop_
 _symmetry_equiv_pos_site_id
 _symmetry_equiv_pos_as_xyz
  1  'x, y, z'
loop_
 _atom_site_type_symbol
 _atom_site_label
 _atom_site_symmetry_multiplicity
 _atom_site_fract_x
 _atom_site_fract_y
 _atom_site_fract_z
 _atom_site_occupancy
 _atom_site_charge
Li  Li1  1  0.58230000  0.21330000  0.77260000  1.0 0.8443614886
Li  Li2  1  0.50180000  0.89850000  0.91140000  1.0 0.8443614886
Li  Li3  1  0.08230000  0.78670000  0.22740000  1.0 0.8443614886
Li  Li4  1  0.00180000  0.10150000  0.08860000  1.0 0.8443614886
Li  Li5  1  0.58230000  0.71330000  0.72740000  1.0 0.8443614886
Li  Li6  1  0.50180000  0.39850000  0.58860000  1.0 0.8443614886
Li  Li7  1  0.08230000  0.28670000  0.27260000  1.0 0.8443614886
Li  Li8  1  0.00180000  0.60150000  0.41140000  1.0 0.8443614886
H  H1  1  0.36030000  0.79960000  0.59760000  1.0 0.1217813687
H  H2  1  0.24780000  0.02260000  0.38430000  1.0 0.1217813687
H  H3  1  0.37940000  0.15770000  0.63560000  1.0 0.1061920123
H  H4  1  0.59760000  0.07060000  0.99940000  1.0 0.4696525977
H  H5  1  0.86030000  0.20040000  0.40240000  1.0 0.1217813687
H  H6  1  0.74780000  0.97740000  0.61570000  1.0 0.1217813687
H  H7  1  0.87940000  0.84230000  0.36440000  1.0 0.1061920123
H  H8  1  0.09760000  0.92940000  0.00060000  1.0 0.4696525977
H  H9  1  0.36030000  0.29960000  0.90240000  1.0 0.1217813687
H  H10  1  0.24780000  0.52260000  0.11570000  1.0 0.1217813687
H  H11  1  0.37940000  0.65770000  0.86440000  1.0 0.1061920123
H  H12  1  0.59760000  0.57060000  0.50060000  1.0 0.4696525977
H  H13  1  0.86030000  0.70040000  0.09760000  1.0 0.1217813687
H  H14  1  0.74780000  0.47740000  0.88430000  1.0 0.1217813687
H  H15  1  0.87940000  0.34230000  0.13560000  1.0 0.1061920123
H  H16  1  0.09760000  0.42940000  0.49940000  1.0 0.4696525977
C  C1  1  0.34890000  0.87590000  0.57420000  1.0 -0.0675343541
C  C2  1  0.27820000  0.01100000  0.44580000  1.0 -0.0675343541
C  C3  1  0.27160000  0.23880000  0.46590000  1.0 0.5896202297
C  C4  1  0.30370000  0.11070000  0.50400000  1.0 0.0294729604
C  C5  1  0.25240000  0.78840000  0.41490000  1.0 0.5728675024
C  C6  1  0.35880000  0.09290000  0.59760000  1.0 -0.0789397164
C  C7  1  0.44760000  0.95690000  0.73270000  1.0 0.5896202297
C  C8  1  0.38210000  0.97590000  0.63230000  1.0 0.0294729604
C  C9  1  0.29820000  0.89350000  0.47990000  1.0 0.0294729604
C  C10  1  0.84890000  0.12410000  0.42580000  1.0 -0.0675343541
C  C11  1  0.77820000  0.98900000  0.55420000  1.0 -0.0675343541
C  C12  1  0.77160000  0.76120000  0.53410000  1.0 0.5896202297
C  C13  1  0.80370000  0.88930000  0.49600000  1.0 0.0294729604
C  C14  1  0.75240000  0.21160000  0.58510000  1.0 0.5728675024
C  C15  1  0.85880000  0.90710000  0.40240000  1.0 -0.0789397164
C  C16  1  0.94760000  0.04310000  0.26730000  1.0 0.5896202297
C  C17  1  0.88210000  0.02410000  0.36770000  1.0 0.0238611167
C  C18  1  0.79820000  0.10650000  0.52010000  1.0 0.0294729604
C  C19  1  0.34890000  0.37590000  0.92580000  1.0 -0.0675343541
C  C20  1  0.27820000  0.51100000  0.05420000  1.0 -0.0675343541
C  C21  1  0.27160000  0.73880000  0.03410000  1.0 0.5896202297
C  C22  1  0.30370000  0.61070000  0.99600000  1.0 0.0294729604
C  C23  1  0.25240000  0.28840000  0.08510000  1.0 0.5728675024
C  C24  1  0.35880000  0.59290000  0.90240000  1.0 -0.0789397164
C  C25  1  0.44760000  0.45690000  0.76730000  1.0 0.5896202297
C  C26  1  0.38210000  0.47590000  0.86770000  1.0 0.0238611167
C  C27  1  0.29820000  0.39350000  0.02010000  1.0 0.0294729604
C  C28  1  0.84890000  0.62410000  0.07420000  1.0 -0.0675343541
C  C29  1  0.77820000  0.48900000  0.94580000  1.0 -0.0675343541
C  C30  1  0.77160000  0.26120000  0.96590000  1.0 0.5896202297
C  C31  1  0.80370000  0.38930000  0.00400000  1.0 0.0294729604
C  C32  1  0.75240000  0.71160000  0.91490000  1.0 0.5728675024
C  C33  1  0.85880000  0.40710000  0.09760000  1.0 -0.0789397164
C  C34  1  0.94760000  0.54310000  0.23270000  1.0 0.5896202297
C  C35  1  0.88210000  0.52410000  0.13230000  1.0 0.0238611167
C  C36  1  0.79820000  0.60650000  0.97990000  1.0 0.0294729604
O  O1  1  0.48850000  0.04770000  0.78180000  1.0 -0.5952575608
O  O2  1  0.45210000  0.85020000  0.76760000  1.0 -0.6798929526
O  O3  1  0.30590000  0.32750000  0.51920000  1.0 -0.529481317
O  O4  1  0.21800000  0.68860000  0.45130000  1.0 -0.497538413
O  O5  1  0.21480000  0.24880000  0.38410000  1.0 -0.5595794424
O  O6  1  0.25250000  0.80930000  0.32410000  1.0 -0.6105017467
O  O7  1  0.50690000  0.04080000  0.00000000  1.0 -0.6581884279
O  O8  1  0.98850000  0.95230000  0.21820000  1.0 -0.5952575608
O  O9  1  0.95210000  0.14980000  0.23240000  1.0 -0.6798929526
O  O10  1  0.80590000  0.67250000  0.48080000  1.0 -0.529481317
O  O11  1  0.71800000  0.31140000  0.54870000  1.0 -0.497538413
O  O12  1  0.71480000  0.75120000  0.61590000  1.0 -0.5595794424
O  O13  1  0.75250000  0.19070000  0.67590000  1.0 -0.6105017467
O  O14  1  0.00690000  0.95920000  0.00000000  1.0 -0.6581884279
O  O15  1  0.48850000  0.54770000  0.71820000  1.0 -0.5952575608
O  O16  1  0.45210000  0.35020000  0.73240000  1.0 -0.6798929526
O  O17  1  0.30590000  0.82750000  0.98080000  1.0 -0.529481317
O  O18  1  0.21800000  0.18860000  0.04870000  1.0 -0.497538413
O  O19  1  0.21480000  0.74880000  0.11590000  1.0 -0.5595794424
O  O20  1  0.25250000  0.30930000  0.17590000  1.0 -0.6105017467
O  O21  1  0.50690000  0.54080000  0.50000000  1.0 -0.6581884279
O  O22  1  0.98850000  0.45230000  0.28180000  1.0 -0.5952575608
O  O23  1  0.95210000  0.64980000  0.26760000  1.0 -0.6798929526
O  O24  1  0.80590000  0.17250000  0.01920000  1.0 -0.529481317
O  O25  1  0.71800000  0.81140000  0.95130000  1.0 -0.497538413
O  O26  1  0.71480000  0.25120000  0.88410000  1.0 -0.5595794424
O  O27  1  0.75250000  0.69070000  0.82410000  1.0 -0.6105017467
O  O28  1  0.00690000  0.45920000  0.50000000  1.0 -0.6581884279
