# DDEC6 charges by PACMAN v1.1 (https://github.com/mtap-research/PACMAN-charge/)
data_VUBGIL_FSR_pacman
_symmetry_space_group_name_H-M   'P 1'
_cell_length_a   8.11160000
_cell_length_b   10.28110000
_cell_length_c   14.12440000
_cell_angle_alpha   90.00000000
_cell_angle_beta   90.00000000
_cell_angle_gamma   90.00000000
_symmetry_Int_Tables_number   1
_chemical_formula_structural   Li2H3(C3O2)3
_chemical_formula_sum   'Li8 H12 C36 O24'
_cell_volume   1177.92087428
_cell_formula_units_Z   4
loop_
 _symmetry_equiv_pos_site_id
 _symmetry_equiv_pos_as_xyz
  1  'x, y, z'
loop_
 _atom_site_type_symbol
 _atom_site_label
 _atom_site_symmetry_multiplicity
 _atom_site_fract_x
 _atom_site_fract_y
 _atom_site_fract_z
 _atom_site_occupancy
 _atom_site_charge
Li  Li1  1  0.19060000  0.82120000  0.20550000  1.0 0.8492332876
Li  Li2  1  0.62150000  0.88490000  0.87220000  1.0 0.8277390183
Li  Li3  1  0.69060000  0.17880000  0.79450000  1.0 0.8492332876
Li  Li4  1  0.12150000  0.11510000  0.12780000  1.0 0.8277390183
Li  Li5  1  0.19060000  0.32120000  0.29450000  1.0 0.8492332876
Li  Li6  1  0.62150000  0.38490000  0.62780000  1.0 0.8277390183
Li  Li7  1  0.69060000  0.67880000  0.70550000  1.0 0.8492332876
Li  Li8  1  0.12150000  0.61510000  0.37220000  1.0 0.8277390183
H  H1  1  0.95790000  0.69940000  0.06810000  1.0 0.1398128152
H  H2  1  0.96260000  0.32480000  0.14670000  1.0 0.1123875857
H  H3  1  0.83990000  0.42170000  0.88080000  1.0 0.1232806773
H  H4  1  0.45790000  0.30060000  0.93190000  1.0 0.1398128152
H  H5  1  0.46260000  0.67520000  0.85330000  1.0 0.1123875857
H  H6  1  0.33990000  0.57830000  0.11920000  1.0 0.1232806773
H  H7  1  0.95790000  0.19940000  0.43190000  1.0 0.1398128152
H  H8  1  0.96260000  0.82480000  0.35330000  1.0 0.1123875857
H  H9  1  0.83990000  0.92170000  0.61920000  1.0 0.1232806773
H  H10  1  0.45790000  0.80060000  0.56810000  1.0 0.1398128152
H  H11  1  0.46260000  0.17520000  0.64670000  1.0 0.1123875857
H  H12  1  0.33990000  0.07830000  0.38080000  1.0 0.1232806773
C  C1  1  0.94130000  0.61220000  0.05360000  1.0 -0.0747800886
C  C2  1  0.03200000  0.55670000  0.21900000  1.0 0.6323951662
C  C3  1  0.94520000  0.38770000  0.10050000  1.0 -0.1006020016
C  C4  1  0.89490000  0.35020000  0.00960000  1.0 0.0019435778
C  C5  1  0.86980000  0.44570000  0.94190000  1.0 -0.0819520361
C  C6  1  0.87290000  0.20770000  0.98620000  1.0 0.6211777509
C  C7  1  0.96930000  0.51760000  0.12190000  1.0 -0.0014647091
C  C8  1  0.84550000  0.67970000  0.89100000  1.0 0.5979219854
C  C9  1  0.88860000  0.57660000  0.96350000  1.0 0.0195864544
C  C10  1  0.44130000  0.38780000  0.94640000  1.0 -0.0747800886
C  C11  1  0.53200000  0.44330000  0.78100000  1.0 0.6323951662
C  C12  1  0.44520000  0.61230000  0.89950000  1.0 -0.1006020016
C  C13  1  0.39490000  0.64980000  0.99040000  1.0 0.0019435778
C  C14  1  0.36980000  0.55430000  0.05810000  1.0 -0.0819520361
C  C15  1  0.37290000  0.79230000  0.01380000  1.0 0.6211777509
C  C16  1  0.46930000  0.48240000  0.87810000  1.0 -0.0014647091
C  C17  1  0.34550000  0.32030000  0.10900000  1.0 0.5979219854
C  C18  1  0.38860000  0.42340000  0.03650000  1.0 0.0195864544
C  C19  1  0.94130000  0.11220000  0.44640000  1.0 -0.0747800886
C  C20  1  0.03200000  0.05670000  0.28100000  1.0 0.6323951662
C  C21  1  0.94520000  0.88770000  0.39950000  1.0 -0.1006020016
C  C22  1  0.89490000  0.85020000  0.49040000  1.0 0.0019435778
C  C23  1  0.86980000  0.94570000  0.55810000  1.0 -0.0819520361
C  C24  1  0.87290000  0.70770000  0.51380000  1.0 0.6211777509
C  C25  1  0.96930000  0.01760000  0.37810000  1.0 -0.0014647091
C  C26  1  0.84550000  0.17970000  0.60900000  1.0 0.5979219854
C  C27  1  0.88860000  0.07660000  0.53650000  1.0 0.0195864544
C  C28  1  0.44130000  0.88780000  0.55360000  1.0 -0.0747800886
C  C29  1  0.53200000  0.94330000  0.71900000  1.0 0.6323951662
C  C30  1  0.44520000  0.11230000  0.60050000  1.0 -0.1006020016
C  C31  1  0.39490000  0.14980000  0.50960000  1.0 0.0019435778
C  C32  1  0.36980000  0.05430000  0.44190000  1.0 -0.0819520361
C  C33  1  0.37290000  0.29230000  0.48620000  1.0 0.6211777509
C  C34  1  0.46930000  0.98240000  0.62190000  1.0 -0.0014647091
C  C35  1  0.34550000  0.82030000  0.39100000  1.0 0.5979219854
C  C36  1  0.38860000  0.92340000  0.46350000  1.0 0.0195864544
O  O1  1  0.05860000  0.67540000  0.23480000  1.0 -0.6720201194
O  O2  1  0.05180000  0.47240000  0.28190000  1.0 -0.6270310998
O  O3  1  0.79360000  0.17780000  0.91470000  1.0 -0.5898879289
O  O4  1  0.93760000  0.12490000  0.04090000  1.0 -0.5707619011
O  O5  1  0.84830000  0.64760000  0.80500000  1.0 -0.6170905053
O  O6  1  0.80640000  0.79020000  0.92180000  1.0 -0.5898879289
O  O7  1  0.55860000  0.32460000  0.76520000  1.0 -0.6720201194
O  O8  1  0.55180000  0.52760000  0.71810000  1.0 -0.6270310998
O  O9  1  0.29360000  0.82220000  0.08530000  1.0 -0.5898879289
O  O10  1  0.43760000  0.87510000  0.95910000  1.0 -0.5707619011
O  O11  1  0.34830000  0.35240000  0.19500000  1.0 -0.6170905053
O  O12  1  0.30640000  0.20980000  0.07820000  1.0 -0.5898879289
O  O13  1  0.05860000  0.17540000  0.26520000  1.0 -0.6720201194
O  O14  1  0.05180000  0.97240000  0.21810000  1.0 -0.6270310998
O  O15  1  0.79360000  0.67780000  0.58530000  1.0 -0.5898879289
O  O16  1  0.93760000  0.62490000  0.45910000  1.0 -0.5707619011
O  O17  1  0.84830000  0.14760000  0.69500000  1.0 -0.6170905053
O  O18  1  0.80640000  0.29020000  0.57820000  1.0 -0.5898879289
O  O19  1  0.55860000  0.82460000  0.73480000  1.0 -0.6720201194
O  O20  1  0.55180000  0.02760000  0.78190000  1.0 -0.6270310998
O  O21  1  0.29360000  0.32220000  0.41470000  1.0 -0.5898879289
O  O22  1  0.43760000  0.37510000  0.54090000  1.0 -0.5707619011
O  O23  1  0.34830000  0.85240000  0.30500000  1.0 -0.6170905053
O  O24  1  0.30640000  0.70980000  0.42180000  1.0 -0.5898879289
