# DDEC6 charges by PACMAN v1.1 (https://github.com/mtap-research/PACMAN-charge/)
data_VUCHIN_FSR_pacman
_symmetry_space_group_name_H-M   'P 1'
_cell_length_a   13.92940000
_cell_length_b   13.92940000
_cell_length_c   26.26400000
_cell_angle_alpha   90.00000000
_cell_angle_beta   90.00000000
_cell_angle_gamma   120.00000000
_symmetry_Int_Tables_number   1
_chemical_formula_structural   Co3H24C48N12(Cl3O8)2
_chemical_formula_sum   'Co6 H48 C96 N24 Cl12 O32'
_cell_volume   4413.22755524
_cell_formula_units_Z   2
loop_
 _symmetry_equiv_pos_site_id
 _symmetry_equiv_pos_as_xyz
  1  'x, y, z'
loop_
 _atom_site_type_symbol
 _atom_site_label
 _atom_site_symmetry_multiplicity
 _atom_site_fract_x
 _atom_site_fract_y
 _atom_site_fract_z
 _atom_site_occupancy
 _atom_site_charge
Co  Co1  1  0.35221000  0.81952000  0.75000000  1.0 1.2315985983
Co  Co2  1  0.18048000  0.53269000  0.75000000  1.0 1.2315985983
Co  Co3  1  0.46731000  0.64779000  0.75000000  1.0 1.2315985983
Co  Co4  1  0.53269000  0.18048000  0.25000000  1.0 1.2315985983
Co  Co5  1  0.64779000  0.46731000  0.25000000  1.0 1.2315985983
Co  Co6  1  0.81952000  0.35221000  0.25000000  1.0 1.2315985983
H  H1  1  0.83372000  0.95128000  0.57233000  1.0 0.1228489603
H  H2  1  0.67914000  0.82590000  0.61713000  1.0 0.1228489603
H  H3  1  0.62623000  0.06964000  0.66697000  1.0 0.1370402214
H  H4  1  0.86164000  0.28440000  0.61669000  1.0 0.290494057
H  H5  1  0.04872000  0.88244000  0.57233000  1.0 0.1228489603
H  H6  1  0.17410000  0.85324000  0.61713000  1.0 0.1228489603
H  H7  1  0.93036000  0.55659000  0.66697000  1.0 0.1370402214
H  H8  1  0.71560000  0.57724000  0.61669000  1.0 0.290494057
H  H9  1  0.11756000  0.16628000  0.57233000  1.0 0.1228489603
H  H10  1  0.14676000  0.32086000  0.61713000  1.0 0.1228489603
H  H11  1  0.44341000  0.37377000  0.66697000  1.0 0.1370402214
H  H12  1  0.42276000  0.13836000  0.61669000  1.0 0.290494057
H  H13  1  0.83372000  0.95128000  0.92767000  1.0 0.1228489603
H  H14  1  0.67914000  0.82590000  0.88287000  1.0 0.1228489603
H  H15  1  0.62623000  0.06964000  0.83303000  1.0 0.1370402214
H  H16  1  0.86164000  0.28440000  0.88331000  1.0 0.290494057
H  H17  1  0.04872000  0.88244000  0.92767000  1.0 0.1228489603
H  H18  1  0.17410000  0.85324000  0.88287000  1.0 0.1228489603
H  H19  1  0.93036000  0.55659000  0.83303000  1.0 0.1370402214
H  H20  1  0.71560000  0.57724000  0.88331000  1.0 0.290494057
H  H21  1  0.11756000  0.16628000  0.92767000  1.0 0.1228489603
H  H22  1  0.14676000  0.32086000  0.88287000  1.0 0.1228489603
H  H23  1  0.44341000  0.37377000  0.83303000  1.0 0.1370402214
H  H24  1  0.42276000  0.13836000  0.88331000  1.0 0.290494057
H  H25  1  0.88244000  0.04872000  0.42767000  1.0 0.1228489603
H  H26  1  0.85324000  0.17410000  0.38287000  1.0 0.1228489603
H  H27  1  0.55659000  0.93036000  0.33303000  1.0 0.1370402214
H  H28  1  0.57724000  0.71560000  0.38331000  1.0 0.290494057
H  H29  1  0.16628000  0.11756000  0.42767000  1.0 0.1228489603
H  H30  1  0.32086000  0.14676000  0.38287000  1.0 0.1228489603
H  H31  1  0.37377000  0.44341000  0.33303000  1.0 0.1370402214
H  H32  1  0.13836000  0.42276000  0.38331000  1.0 0.290494057
H  H33  1  0.95128000  0.83372000  0.42767000  1.0 0.1228489603
H  H34  1  0.82590000  0.67914000  0.38287000  1.0 0.1228489603
H  H35  1  0.06964000  0.62623000  0.33303000  1.0 0.1370402214
H  H36  1  0.28440000  0.86164000  0.38331000  1.0 0.290494057
H  H37  1  0.88244000  0.04872000  0.07233000  1.0 0.1228489603
H  H38  1  0.85324000  0.17410000  0.11713000  1.0 0.1228489603
H  H39  1  0.55659000  0.93036000  0.16697000  1.0 0.1370402214
H  H40  1  0.57724000  0.71560000  0.11669000  1.0 0.290494057
H  H41  1  0.16628000  0.11756000  0.07233000  1.0 0.1228489603
H  H42  1  0.32086000  0.14676000  0.11713000  1.0 0.1228489603
H  H43  1  0.37377000  0.44341000  0.16697000  1.0 0.1370402214
H  H44  1  0.13836000  0.42276000  0.11669000  1.0 0.290494057
H  H45  1  0.95128000  0.83372000  0.07233000  1.0 0.1228489603
H  H46  1  0.82590000  0.67914000  0.11713000  1.0 0.1228489603
H  H47  1  0.06964000  0.62623000  0.16697000  1.0 0.1370402214
H  H48  1  0.28440000  0.86164000  0.11669000  1.0 0.290494057
C  C1  1  0.72450000  0.28270000  0.61840000  1.0 0.544882896
C  C2  1  0.75460000  0.12410000  0.61780000  1.0 0.1595740865
C  C3  1  0.81650000  0.08620000  0.58870000  1.0 0.0625691215
C  C4  1  0.79030000  0.97520000  0.59040000  1.0 -0.1785978253
C  C5  1  0.70170000  0.90250000  0.61830000  1.0 -0.0777938341
C  C6  1  0.64250000  0.93760000  0.64870000  1.0 -0.0053982312
C  C7  1  0.66850000  0.04690000  0.64730000  1.0 -0.1680727452
C  C8  1  0.54930000  0.85900000  0.68190000  1.0 0.5778535033
C  C9  1  0.71730000  0.44180000  0.61840000  1.0 0.544882896
C  C10  1  0.87590000  0.63050000  0.61780000  1.0 0.1595740865
C  C11  1  0.91380000  0.73030000  0.58870000  1.0 0.0625691215
C  C12  1  0.02480000  0.81510000  0.59040000  1.0 -0.1785978253
C  C13  1  0.09750000  0.79920000  0.61830000  1.0 -0.0777938341
C  C14  1  0.06240000  0.70490000  0.64870000  1.0 -0.0053982312
C  C15  1  0.95310000  0.62160000  0.64730000  1.0 -0.1680727452
C  C16  1  0.14100000  0.69030000  0.68190000  1.0 0.5778535033
C  C17  1  0.55820000  0.27550000  0.61840000  1.0 0.544882896
C  C18  1  0.36950000  0.24540000  0.61780000  1.0 0.1595740865
C  C19  1  0.26970000  0.18350000  0.58870000  1.0 0.0625691215
C  C20  1  0.18490000  0.20970000  0.59040000  1.0 -0.1785978253
C  C21  1  0.20080000  0.29830000  0.61830000  1.0 -0.0777938341
C  C22  1  0.29510000  0.35750000  0.64870000  1.0 -0.0048873436
C  C23  1  0.37840000  0.33150000  0.64730000  1.0 -0.1680727452
C  C24  1  0.30970000  0.45070000  0.68190000  1.0 0.5778535033
C  C25  1  0.72450000  0.28270000  0.88160000  1.0 0.544882896
C  C26  1  0.75460000  0.12410000  0.88220000  1.0 0.1595740865
C  C27  1  0.81650000  0.08620000  0.91130000  1.0 0.0625691215
C  C28  1  0.79030000  0.97520000  0.90960000  1.0 -0.1785978253
C  C29  1  0.70170000  0.90250000  0.88170000  1.0 -0.0777938341
C  C30  1  0.64250000  0.93760000  0.85130000  1.0 -0.0048873436
C  C31  1  0.66850000  0.04690000  0.85270000  1.0 -0.1680727452
C  C32  1  0.54930000  0.85900000  0.81810000  1.0 0.5778535033
C  C33  1  0.71730000  0.44180000  0.88160000  1.0 0.544882896
C  C34  1  0.87590000  0.63050000  0.88220000  1.0 0.1595740865
C  C35  1  0.91380000  0.73030000  0.91130000  1.0 0.0625691215
C  C36  1  0.02480000  0.81510000  0.90960000  1.0 -0.1785978253
C  C37  1  0.09750000  0.79920000  0.88170000  1.0 -0.0777938341
C  C38  1  0.06240000  0.70490000  0.85130000  1.0 -0.0053982312
C  C39  1  0.95310000  0.62160000  0.85270000  1.0 -0.1680727452
C  C40  1  0.14100000  0.69030000  0.81810000  1.0 0.5778535033
C  C41  1  0.55820000  0.27550000  0.88160000  1.0 0.544882896
C  C42  1  0.36950000  0.24540000  0.88220000  1.0 0.1595740865
C  C43  1  0.26970000  0.18350000  0.91130000  1.0 0.0625691215
C  C44  1  0.18490000  0.20970000  0.90960000  1.0 -0.1785978253
C  C45  1  0.20080000  0.29830000  0.88170000  1.0 -0.0777938341
C  C46  1  0.29510000  0.35750000  0.85130000  1.0 -0.0048873436
C  C47  1  0.37840000  0.33150000  0.85270000  1.0 -0.1680727452
C  C48  1  0.30970000  0.45070000  0.81810000  1.0 0.5778535033
C  C49  1  0.44180000  0.71730000  0.38160000  1.0 0.544882896
C  C50  1  0.63050000  0.87590000  0.38220000  1.0 0.1595740865
C  C51  1  0.73030000  0.91380000  0.41130000  1.0 0.0625691215
C  C52  1  0.81510000  0.02480000  0.40960000  1.0 -0.1785978253
C  C53  1  0.79920000  0.09750000  0.38170000  1.0 -0.0777938341
C  C54  1  0.70490000  0.06240000  0.35130000  1.0 -0.0048873436
C  C55  1  0.62160000  0.95310000  0.35270000  1.0 -0.1680727452
C  C56  1  0.69030000  0.14100000  0.31810000  1.0 0.5778535033
C  C57  1  0.27550000  0.55820000  0.38160000  1.0 0.544882896
C  C58  1  0.24540000  0.36950000  0.38220000  1.0 0.1595740865
C  C59  1  0.18350000  0.26970000  0.41130000  1.0 0.0625691215
C  C60  1  0.20970000  0.18490000  0.40960000  1.0 -0.1785978253
C  C61  1  0.29830000  0.20080000  0.38170000  1.0 -0.0777938341
C  C62  1  0.35750000  0.29510000  0.35130000  1.0 -0.0048873436
C  C63  1  0.33150000  0.37840000  0.35270000  1.0 -0.1680727452
C  C64  1  0.45070000  0.30970000  0.31810000  1.0 0.5778535033
C  C65  1  0.28270000  0.72450000  0.38160000  1.0 0.544882896
C  C66  1  0.12410000  0.75460000  0.38220000  1.0 0.1595740865
C  C67  1  0.08620000  0.81650000  0.41130000  1.0 0.0625691215
C  C68  1  0.97520000  0.79030000  0.40960000  1.0 -0.1785978253
C  C69  1  0.90250000  0.70170000  0.38170000  1.0 -0.0777938341
C  C70  1  0.93760000  0.64250000  0.35130000  1.0 -0.0048873436
C  C71  1  0.04690000  0.66850000  0.35270000  1.0 -0.1680727452
C  C72  1  0.85900000  0.54930000  0.31810000  1.0 0.5778535033
C  C73  1  0.44180000  0.71730000  0.11840000  1.0 0.544882896
C  C74  1  0.63050000  0.87590000  0.11780000  1.0 0.1595740865
C  C75  1  0.73030000  0.91380000  0.08870000  1.0 0.0625691215
C  C76  1  0.81510000  0.02480000  0.09040000  1.0 -0.1785978253
C  C77  1  0.79920000  0.09750000  0.11830000  1.0 -0.0777938341
C  C78  1  0.70490000  0.06240000  0.14870000  1.0 -0.0048873436
C  C79  1  0.62160000  0.95310000  0.14730000  1.0 -0.1680727452
C  C80  1  0.69030000  0.14100000  0.18190000  1.0 0.5778535033
C  C81  1  0.27550000  0.55820000  0.11840000  1.0 0.544882896
C  C82  1  0.24540000  0.36950000  0.11780000  1.0 0.1595740865
C  C83  1  0.18350000  0.26970000  0.08870000  1.0 0.0625691215
C  C84  1  0.20970000  0.18490000  0.09040000  1.0 -0.1785978253
C  C85  1  0.29830000  0.20080000  0.11830000  1.0 -0.0777938341
C  C86  1  0.35750000  0.29510000  0.14870000  1.0 -0.0048873436
C  C87  1  0.33150000  0.37840000  0.14730000  1.0 -0.1680727452
C  C88  1  0.45070000  0.30970000  0.18190000  1.0 0.5778535033
C  C89  1  0.28270000  0.72450000  0.11840000  1.0 0.544882896
C  C90  1  0.12410000  0.75460000  0.11780000  1.0 0.1595740865
C  C91  1  0.08620000  0.81650000  0.08870000  1.0 0.0625691215
C  C92  1  0.97520000  0.79030000  0.09040000  1.0 -0.1785978253
C  C93  1  0.90250000  0.70170000  0.11830000  1.0 -0.0777938341
C  C94  1  0.93760000  0.64250000  0.14870000  1.0 -0.0048873436
C  C95  1  0.04690000  0.66850000  0.14730000  1.0 -0.1680727452
C  C96  1  0.85900000  0.54930000  0.18190000  1.0 0.5778535033
N  N1  1  0.78970000  0.23810000  0.61750000  1.0 -0.33958255
N  N2  1  0.61780000  0.22020000  0.61780000  1.0 -0.5007129883
N  N3  1  0.76190000  0.55160000  0.61750000  1.0 -0.33958255
N  N4  1  0.77980000  0.39760000  0.61780000  1.0 -0.5007129883
N  N5  1  0.44840000  0.21030000  0.61750000  1.0 -0.33958255
N  N6  1  0.60240000  0.38220000  0.61780000  1.0 -0.5007129883
N  N7  1  0.78970000  0.23810000  0.88250000  1.0 -0.33958255
N  N8  1  0.61780000  0.22020000  0.88220000  1.0 -0.5007129883
N  N9  1  0.76190000  0.55160000  0.88250000  1.0 -0.33958255
N  N10  1  0.77980000  0.39760000  0.88220000  1.0 -0.5007129883
N  N11  1  0.44840000  0.21030000  0.88250000  1.0 -0.33958255
N  N12  1  0.60240000  0.38220000  0.88220000  1.0 -0.5007129883
N  N13  1  0.55160000  0.76190000  0.38250000  1.0 -0.33958255
N  N14  1  0.39760000  0.77980000  0.38220000  1.0 -0.5007129883
N  N15  1  0.21030000  0.44840000  0.38250000  1.0 -0.33958255
N  N16  1  0.38220000  0.60240000  0.38220000  1.0 -0.5007129883
N  N17  1  0.23810000  0.78970000  0.38250000  1.0 -0.33958255
N  N18  1  0.22020000  0.61780000  0.38220000  1.0 -0.5007129883
N  N19  1  0.55160000  0.76190000  0.11750000  1.0 -0.33958255
N  N20  1  0.39760000  0.77980000  0.11780000  1.0 -0.5007129883
N  N21  1  0.21030000  0.44840000  0.11750000  1.0 -0.33958255
N  N22  1  0.38220000  0.60240000  0.11780000  1.0 -0.5007129883
N  N23  1  0.23810000  0.78970000  0.11750000  1.0 -0.33958255
N  N24  1  0.22020000  0.61780000  0.11780000  1.0 -0.5007129883
Cl  Cl1  1  0.92280000  0.17850000  0.54976000  1.0 -0.0878323851
Cl  Cl2  1  0.82150000  0.74430000  0.54976000  1.0 -0.0878323851
Cl  Cl3  1  0.25570000  0.07720000  0.54976000  1.0 -0.0878323851
Cl  Cl4  1  0.92280000  0.17850000  0.95024000  1.0 -0.0878323851
Cl  Cl5  1  0.82150000  0.74430000  0.95024000  1.0 -0.0878323851
Cl  Cl6  1  0.25570000  0.07720000  0.95024000  1.0 -0.0878323851
Cl  Cl7  1  0.74430000  0.82150000  0.45024000  1.0 -0.0878323851
Cl  Cl8  1  0.07720000  0.25570000  0.45024000  1.0 -0.0878323851
Cl  Cl9  1  0.17850000  0.92280000  0.45024000  1.0 -0.0878323851
Cl  Cl10  1  0.74430000  0.82150000  0.04976000  1.0 -0.0878323851
Cl  Cl11  1  0.07720000  0.25570000  0.04976000  1.0 -0.0878323851
Cl  Cl12  1  0.17850000  0.92280000  0.04976000  1.0 -0.0878323851
O  O1  1  0.47740000  0.88370000  0.69430000  1.0 -0.541045554
O  O2  1  0.54740000  0.76940000  0.69290000  1.0 -0.541045554
O  O3  1  0.11630000  0.59370000  0.69430000  1.0 -0.541045554
O  O4  1  0.23060000  0.77800000  0.69290000  1.0 -0.541045554
O  O5  1  0.40630000  0.52260000  0.69430000  1.0 -0.541045554
O  O6  1  0.22200000  0.45260000  0.69290000  1.0 -0.541045554
O  O7  1  0.47740000  0.88370000  0.80570000  1.0 -0.541045554
O  O8  1  0.54740000  0.76940000  0.80710000  1.0 -0.541045554
O  O9  1  0.11630000  0.59370000  0.80570000  1.0 -0.541045554
O  O10  1  0.23060000  0.77800000  0.80710000  1.0 -0.541045554
O  O11  1  0.40630000  0.52260000  0.80570000  1.0 -0.541045554
O  O12  1  0.22200000  0.45260000  0.80710000  1.0 -0.541045554
O  O13  1  0.36290000  0.97740000  0.75000000  1.0 -0.0777938341
O  O14  1  0.02260000  0.38550000  0.75000000  1.0 -0.0777938341
O  O15  1  0.61450000  0.63710000  0.75000000  1.0 -0.0777938341
O  O16  1  0.33333333  0.66666667  0.75000000  1.0 -0.9318941211
O  O17  1  0.59370000  0.11630000  0.30570000  1.0 -0.541045554
O  O18  1  0.77800000  0.23060000  0.30710000  1.0 -0.541045554
O  O19  1  0.52260000  0.40630000  0.30570000  1.0 -0.541045554
O  O20  1  0.45260000  0.22200000  0.30710000  1.0 -0.541045554
O  O21  1  0.88370000  0.47740000  0.30570000  1.0 -0.541045554
O  O22  1  0.76940000  0.54740000  0.30710000  1.0 -0.541045554
O  O23  1  0.59370000  0.11630000  0.19430000  1.0 -0.541045554
O  O24  1  0.77800000  0.23060000  0.19290000  1.0 -0.541045554
O  O25  1  0.52260000  0.40630000  0.19430000  1.0 -0.541045554
O  O26  1  0.45260000  0.22200000  0.19290000  1.0 -0.541045554
O  O27  1  0.88370000  0.47740000  0.19430000  1.0 -0.541045554
O  O28  1  0.76940000  0.54740000  0.19290000  1.0 -0.541045554
O  O29  1  0.38550000  0.02260000  0.25000000  1.0 -0.0777938341
O  O30  1  0.63710000  0.61450000  0.25000000  1.0 -0.0777938341
O  O31  1  0.97740000  0.36290000  0.25000000  1.0 -0.0777938341
O  O32  1  0.66666667  0.33333333  0.25000000  1.0 -0.9318941211
