# DDEC6 charges by PACMAN v1.1 (https://github.com/mtap-research/PACMAN-charge/)
data_VUDQET_ASR_pacman
_symmetry_space_group_name_H-M   'P 1'
_cell_length_a   7.19800000
_cell_length_b   7.19800000
_cell_length_c   20.22400000
_cell_angle_alpha   90.00000000
_cell_angle_beta   90.00000000
_cell_angle_gamma   90.00000000
_symmetry_Int_Tables_number   1
_chemical_formula_structural   ZnH2C7NO4
_chemical_formula_sum   'Zn4 H8 C28 N4 O16'
_cell_volume   1047.82978970
_cell_formula_units_Z   4
loop_
 _symmetry_equiv_pos_site_id
 _symmetry_equiv_pos_as_xyz
  1  'x, y, z'
loop_
 _atom_site_type_symbol
 _atom_site_label
 _atom_site_symmetry_multiplicity
 _atom_site_fract_x
 _atom_site_fract_y
 _atom_site_fract_z
 _atom_site_occupancy
 _atom_site_charge
Zn  Zn1  1  0.50000000  0.50000000  0.72207000  1.0 0.8760769606
Zn  Zn2  1  0.00000000  0.00000000  0.22207000  1.0 0.8760769606
Zn  Zn3  1  0.00000000  0.00000000  0.77793000  1.0 0.8760769606
Zn  Zn4  1  0.50000000  0.50000000  0.27793000  1.0 0.8760769606
H  H1  1  0.20090000  0.20090000  0.55180000  1.0 0.1398829013
H  H2  1  0.79910000  0.79910000  0.55180000  1.0 0.1398829013
H  H3  1  0.29910000  0.70090000  0.05180000  1.0 0.1398829013
H  H4  1  0.70090000  0.29910000  0.05180000  1.0 0.1398829013
H  H5  1  0.29910000  0.70090000  0.94820000  1.0 0.1398829013
H  H6  1  0.70090000  0.29910000  0.94820000  1.0 0.1398829013
H  H7  1  0.20090000  0.20090000  0.44820000  1.0 0.1398829013
H  H8  1  0.79910000  0.79910000  0.44820000  1.0 0.1398829013
C  C1  1  0.00000000  0.00000000  0.53770000  1.0 0.1116397917
C  C2  1  0.50000000  0.50000000  0.03770000  1.0 0.1116397917
C  C3  1  0.50000000  0.50000000  0.96230000  1.0 0.1116397917
C  C4  1  0.00000000  0.00000000  0.46230000  1.0 0.1116397917
C  C5  1  0.23590000  0.23590000  0.68880000  1.0 0.5477519274
C  C6  1  0.11420000  0.11420000  0.64380000  1.0 0.1730487585
C  C7  1  0.12050000  0.12050000  0.57370000  1.0 -0.1988647268
C  C8  1  0.76410000  0.76410000  0.68880000  1.0 0.5477519274
C  C9  1  0.88580000  0.88580000  0.64380000  1.0 0.1730487585
C  C10  1  0.87950000  0.87950000  0.57370000  1.0 -0.1988647268
C  C11  1  0.26410000  0.73590000  0.18880000  1.0 0.5477519274
C  C12  1  0.38580000  0.61420000  0.14380000  1.0 0.1730487585
C  C13  1  0.37950000  0.62050000  0.07370000  1.0 -0.1988647268
C  C14  1  0.73590000  0.26410000  0.18880000  1.0 0.5477519274
C  C15  1  0.61420000  0.38580000  0.14380000  1.0 0.1730487585
C  C16  1  0.62050000  0.37950000  0.07370000  1.0 -0.1988647268
C  C17  1  0.26410000  0.73590000  0.81120000  1.0 0.5477519274
C  C18  1  0.38580000  0.61420000  0.85620000  1.0 0.1730487585
C  C19  1  0.37950000  0.62050000  0.92630000  1.0 -0.1988647268
C  C20  1  0.73590000  0.26410000  0.81120000  1.0 0.5477519274
C  C21  1  0.61420000  0.38580000  0.85620000  1.0 0.1730487585
C  C22  1  0.62050000  0.37950000  0.92630000  1.0 -0.1988647268
C  C23  1  0.23590000  0.23590000  0.31120000  1.0 0.5477519274
C  C24  1  0.11420000  0.11420000  0.35620000  1.0 0.1730487585
C  C25  1  0.12050000  0.12050000  0.42630000  1.0 -0.1988647268
C  C26  1  0.76410000  0.76410000  0.31120000  1.0 0.5477519274
C  C27  1  0.88580000  0.88580000  0.35620000  1.0 0.1730487585
C  C28  1  0.87950000  0.87950000  0.42630000  1.0 -0.1988647268
N  N1  1  0.00000000  0.00000000  0.67660000  1.0 -0.2574077904
N  N2  1  0.50000000  0.50000000  0.17660000  1.0 -0.2574077904
N  N3  1  0.50000000  0.50000000  0.82340000  1.0 -0.2574077904
N  N4  1  0.00000000  0.00000000  0.32340000  1.0 -0.2574077904
O  O1  1  0.34830000  0.34830000  0.66110000  1.0 -0.5042586386
O  O2  1  0.21470000  0.21470000  0.75060000  1.0 -0.5227147027
O  O3  1  0.65170000  0.65170000  0.66110000  1.0 -0.5042586386
O  O4  1  0.78530000  0.78530000  0.75060000  1.0 -0.5227147027
O  O5  1  0.15170000  0.84830000  0.16110000  1.0 -0.5042586386
O  O6  1  0.28530000  0.71470000  0.25060000  1.0 -0.5227147027
O  O7  1  0.84830000  0.15170000  0.16110000  1.0 -0.5042586386
O  O8  1  0.71470000  0.28530000  0.25060000  1.0 -0.5227147027
O  O9  1  0.15170000  0.84830000  0.83890000  1.0 -0.5042586386
O  O10  1  0.28530000  0.71470000  0.74940000  1.0 -0.5227147027
O  O11  1  0.84830000  0.15170000  0.83890000  1.0 -0.5042586386
O  O12  1  0.71470000  0.28530000  0.74940000  1.0 -0.5227147027
O  O13  1  0.34830000  0.34830000  0.33890000  1.0 -0.5042586386
O  O14  1  0.21470000  0.21470000  0.24940000  1.0 -0.5227147027
O  O15  1  0.65170000  0.65170000  0.33890000  1.0 -0.5042586386
O  O16  1  0.78530000  0.78530000  0.24940000  1.0 -0.5227147027
