# DDEC6 charges by PACMAN v1.1 (https://github.com/mtap-research/PACMAN-charge/)
data_VUHMUI_ASR_pacman
_symmetry_space_group_name_H-M   'P 1'
_cell_length_a   18.93630000
_cell_length_b   18.93630000
_cell_length_c   30.05700000
_cell_angle_alpha   79.43990000
_cell_angle_beta   100.56000000
_cell_angle_gamma   133.63100000
_symmetry_Int_Tables_number   1
_chemical_formula_structural   Zn7H48C72(I5N6)4
_chemical_formula_sum   'Zn14 H96 C144 I40 N48'
_cell_volume   7644.45426694
_cell_formula_units_Z   2
loop_
 _symmetry_equiv_pos_site_id
 _symmetry_equiv_pos_as_xyz
  1  'x, y, z'
loop_
 _atom_site_type_symbol
 _atom_site_label
 _atom_site_symmetry_multiplicity
 _atom_site_fract_x
 _atom_site_fract_y
 _atom_site_fract_z
 _atom_site_occupancy
 _atom_site_charge
Zn  Zn1  1  0.02493000  0.76569000  0.80386000  1.0 0.288594156
Zn  Zn2  1  0.08848000  0.24858000  0.65813000  1.0 0.4536540801
Zn  Zn3  1  0.76195000  0.10941000  0.47708000  1.0 0.2589897956
Zn  Zn4  1  0.82339000  0.56561000  0.30203000  1.0 0.462351888
Zn  Zn5  1  0.34841000  0.50473000  0.16046000  1.0 0.462351888
Zn  Zn6  1  0.48790000  0.82990000  0.98140000  1.0 0.288594156
Zn  Zn7  1  0.47560000  0.83640000  0.97240000  1.0 0.2659382517
Zn  Zn8  1  0.76569000  0.02493000  0.19614000  1.0 0.288594156
Zn  Zn9  1  0.24858000  0.08848000  0.34187000  1.0 0.4536540801
Zn  Zn10  1  0.10941000  0.76195000  0.52292000  1.0 0.2589897956
Zn  Zn11  1  0.56561000  0.82339000  0.69797000  1.0 0.462351888
Zn  Zn12  1  0.50473000  0.34841000  0.83954000  1.0 0.462351888
Zn  Zn13  1  0.82990000  0.48790000  0.01860000  1.0 0.288594156
Zn  Zn14  1  0.83640000  0.47560000  0.02760000  1.0 0.2659382517
H  H1  1  0.55830000  0.02230000  0.92760000  1.0 0.0805623625
H  H2  1  0.70270000  0.18570000  0.92000000  1.0 0.1393377403
H  H3  1  0.83220000  0.12480000  0.02220000  1.0 0.1314837369
H  H4  1  0.68840000  0.96440000  0.02440000  1.0 0.0717102657
H  H5  1  0.87450000  0.54510000  0.82160000  1.0 0.0997650022
H  H6  1  0.84390000  0.42350000  0.87400000  1.0 0.1314837369
H  H7  1  0.10820000  0.63340000  0.94020000  1.0 0.108117266
H  H8  1  0.12610000  0.75130000  0.88950000  1.0 0.0595453192
H  H9  1  0.14810000  0.33270000  0.12690000  1.0 0.0805623625
H  H10  1  0.03820000  0.29180000  0.06350000  1.0 0.1218692357
H  H11  1  0.18570000  0.57090000  0.03180000  1.0 0.1314837369
H  H12  1  0.29330000  0.60970000  0.09710000  1.0 0.0888947364
H  H13  1  0.84740000  0.69840000  0.73680000  1.0 0.0805623625
H  H14  1  0.69820000  0.64960000  0.73780000  1.0 0.1393377403
H  H15  1  0.77160000  0.72920000  0.86610000  1.0 0.1314837369
H  H16  1  0.91310000  0.75610000  0.86450000  1.0 0.0717102657
H  H17  1  0.14210000  0.35390000  0.73760000  1.0 0.0997650022
H  H18  1  0.27810000  0.47410000  0.78280000  1.0 0.1314837369
H  H19  1  0.43910000  0.44970000  0.72440000  1.0 0.1314837369
H  H20  1  0.29750000  0.32970000  0.68040000  1.0 0.0997650022
H  H21  1  0.38210000  0.72270000  0.89580000  1.0 0.0805623625
H  H22  1  0.39230000  0.65890000  0.84440000  1.0 0.1393377403
H  H23  1  0.65370000  0.76990000  0.90560000  1.0 0.1314837369
H  H24  1  0.63550000  0.83630000  0.95420000  1.0 0.0888947364
H  H25  1  0.98510000  0.29090000  0.58680000  1.0 0.0805623625
H  H26  1  0.01670000  0.41110000  0.53340000  1.0 0.108117266
H  H27  1  0.30380000  0.57340000  0.57100000  1.0 0.1218692357
H  H28  1  0.26320000  0.45640000  0.62570000  1.0 0.108117266
H  H29  1  0.84520000  0.47400000  0.39160000  1.0 0.0888947364
H  H30  1  0.96340000  0.49740000  0.44310000  1.0 0.0997650022
H  H31  1  0.16240000  0.74360000  0.36920000  1.0 0.1393377403
H  H32  1  0.03980000  0.71700000  0.32110000  1.0 0.108117266
H  H33  1  0.62890000  0.90750000  0.51880000  1.0 0.0717102657
H  H34  1  0.46190000  0.76370000  0.51500000  1.0 0.1393377403
H  H35  1  0.40650000  0.89590000  0.41850000  1.0 0.1455635126
H  H36  1  0.57320000  0.03780000  0.42530000  1.0 0.0805623625
H  H37  1  0.90670000  0.75010000  0.23920000  1.0 0.108117266
H  H38  1  0.95300000  0.89940000  0.23920000  1.0 0.1314837369
H  H39  1  0.86340000  0.81320000  0.36460000  1.0 0.1314837369
H  H40  1  0.80600000  0.66160000  0.35960000  1.0 0.0997650022
H  H41  1  0.25070000  0.29130000  0.17700000  1.0 0.108117266
H  H42  1  0.12940000  0.15080000  0.21610000  1.0 0.1393377403
H  H43  1  0.14500000  0.31560000  0.29260000  1.0 0.1314837369
H  H44  1  0.25930000  0.44990000  0.24850000  1.0 0.108117266
H  H45  1  0.75710000  0.96090000  0.45430000  1.0 0.0997650022
H  H46  1  0.81730000  0.93710000  0.40630000  1.0 0.1393377403
H  H47  1  0.96190000  0.21250000  0.34780000  1.0 0.1393377403
H  H48  1  0.87900000  0.22320000  0.39600000  1.0 0.0595453192
H  H49  1  0.02230000  0.55830000  0.07240000  1.0 0.0805623625
H  H50  1  0.18570000  0.70270000  0.08000000  1.0 0.1393377403
H  H51  1  0.12480000  0.83220000  0.97780000  1.0 0.1314837369
H  H52  1  0.96440000  0.68840000  0.97560000  1.0 0.0717102657
H  H53  1  0.54510000  0.87450000  0.17840000  1.0 0.0997650022
H  H54  1  0.42350000  0.84390000  0.12600000  1.0 0.1314837369
H  H55  1  0.63340000  0.10820000  0.05980000  1.0 0.108117266
H  H56  1  0.75130000  0.12610000  0.11050000  1.0 0.0595453192
H  H57  1  0.33270000  0.14810000  0.87310000  1.0 0.0805623625
H  H58  1  0.29180000  0.03820000  0.93650000  1.0 0.1218692357
H  H59  1  0.57090000  0.18570000  0.96820000  1.0 0.1314837369
H  H60  1  0.60970000  0.29330000  0.90290000  1.0 0.0888947364
H  H61  1  0.69840000  0.84740000  0.26320000  1.0 0.0805623625
H  H62  1  0.64960000  0.69820000  0.26220000  1.0 0.1393377403
H  H63  1  0.72920000  0.77160000  0.13390000  1.0 0.1314837369
H  H64  1  0.75610000  0.91310000  0.13550000  1.0 0.0717102657
H  H65  1  0.35390000  0.14210000  0.26240000  1.0 0.0997650022
H  H66  1  0.47410000  0.27810000  0.21720000  1.0 0.1314837369
H  H67  1  0.44970000  0.43910000  0.27560000  1.0 0.1314837369
H  H68  1  0.32970000  0.29750000  0.31960000  1.0 0.0997650022
H  H69  1  0.72270000  0.38210000  0.10420000  1.0 0.0805623625
H  H70  1  0.65890000  0.39230000  0.15560000  1.0 0.1393377403
H  H71  1  0.76990000  0.65370000  0.09440000  1.0 0.1314837369
H  H72  1  0.83630000  0.63550000  0.04580000  1.0 0.0888947364
H  H73  1  0.29090000  0.98510000  0.41320000  1.0 0.0805623625
H  H74  1  0.41110000  0.01670000  0.46660000  1.0 0.108117266
H  H75  1  0.57340000  0.30380000  0.42900000  1.0 0.1218692357
H  H76  1  0.45640000  0.26320000  0.37430000  1.0 0.108117266
H  H77  1  0.47400000  0.84520000  0.60840000  1.0 0.0888947364
H  H78  1  0.49740000  0.96340000  0.55690000  1.0 0.0997650022
H  H79  1  0.74360000  0.16240000  0.63080000  1.0 0.1393377403
H  H80  1  0.71700000  0.03980000  0.67890000  1.0 0.108117266
H  H81  1  0.90750000  0.62890000  0.48120000  1.0 0.0717102657
H  H82  1  0.76370000  0.46190000  0.48500000  1.0 0.1393377403
H  H83  1  0.89590000  0.40650000  0.58150000  1.0 0.1455635126
H  H84  1  0.03780000  0.57320000  0.57470000  1.0 0.0805623625
H  H85  1  0.75010000  0.90670000  0.76080000  1.0 0.108117266
H  H86  1  0.89940000  0.95300000  0.76080000  1.0 0.1314837369
H  H87  1  0.81320000  0.86340000  0.63540000  1.0 0.1314837369
H  H88  1  0.66160000  0.80600000  0.64040000  1.0 0.0997650022
H  H89  1  0.29130000  0.25070000  0.82300000  1.0 0.108117266
H  H90  1  0.15080000  0.12940000  0.78390000  1.0 0.1393377403
H  H91  1  0.31560000  0.14500000  0.70740000  1.0 0.1314837369
H  H92  1  0.44990000  0.25930000  0.75150000  1.0 0.108117266
H  H93  1  0.96090000  0.75710000  0.54570000  1.0 0.0997650022
H  H94  1  0.93710000  0.81730000  0.59370000  1.0 0.1393377403
H  H95  1  0.21250000  0.96190000  0.65220000  1.0 0.1393377403
H  H96  1  0.22320000  0.87900000  0.60400000  1.0 0.0595453192
C  C1  1  0.61550000  0.04410000  0.94640000  1.0 0.0296121731
C  C2  1  0.70090000  0.14230000  0.94270000  1.0 -0.1316711768
C  C3  1  0.78470000  0.17830000  0.97210000  1.0 0.0491516993
C  C4  1  0.77720000  0.10600000  0.00250000  1.0 -0.1602677982
C  C5  1  0.69110000  0.01010000  0.00330000  1.0 0.0805623625
C  C6  1  0.92060000  0.56220000  0.84690000  1.0 0.0595453192
C  C7  1  0.90360000  0.48960000  0.87690000  1.0 -0.14990487
C  C8  1  0.97540000  0.51300000  0.91240000  1.0 0.0491516993
C  C9  1  0.05890000  0.61390000  0.91620000  1.0 -0.1602677982
C  C10  1  0.06980000  0.68420000  0.88600000  1.0 0.0491516993
C  C11  1  0.15850000  0.38390000  0.10690000  1.0 0.0888947364
C  C12  1  0.08950000  0.35850000  0.06990000  1.0 -0.1602677982
C  C13  1  0.09510000  0.42490000  0.04460000  1.0 0.0717102657
C  C14  1  0.17530000  0.52010000  0.05210000  1.0 -0.1602677982
C  C15  1  0.24250000  0.54370000  0.08950000  1.0 0.0595453192
C  C16  1  0.87760000  0.28120000  0.97270000  1.0 0.3132859017
C  C17  1  0.96090000  0.43750000  0.94470000  1.0 0.3581602531
C  C18  1  0.01980000  0.39740000  0.00650000  1.0 0.3394899314
C  C19  1  0.83030000  0.70030000  0.76410000  1.0 0.0717102657
C  C20  1  0.74360000  0.67460000  0.76380000  1.0 -0.14990487
C  C21  1  0.72280000  0.68560000  0.80230000  1.0 0.0717102657
C  C22  1  0.78450000  0.71870000  0.84010000  1.0 -0.1316711768
C  C23  1  0.86920000  0.73660000  0.83800000  1.0 0.0491516993
C  C24  1  0.20370000  0.37530000  0.73480000  1.0 0.0717102657
C  C25  1  0.28430000  0.44750000  0.76160000  1.0 -0.14990487
C  C26  1  0.37750000  0.48110000  0.75640000  1.0 0.0805623625
C  C27  1  0.37970000  0.43290000  0.72680000  1.0 -0.1701678192
C  C28  1  0.29420000  0.36020000  0.70080000  1.0 0.0805623625
C  C29  1  0.43830000  0.73130000  0.89820000  1.0 0.0491516993
C  C30  1  0.44300000  0.69260000  0.86790000  1.0 -0.1316711768
C  C31  1  0.52490000  0.70170000  0.87080000  1.0 0.0595453192
C  C32  1  0.59500000  0.75700000  0.90280000  1.0 -0.1412319218
C  C33  1  0.58320000  0.79600000  0.93220000  1.0 0.0717102657
C  C34  1  0.62240000  0.65280000  0.80570000  1.0 0.3394899314
C  C35  1  0.46860000  0.56240000  0.78340000  1.0 0.3488013032
C  C36  1  0.53370000  0.66190000  0.83900000  1.0 0.3394899314
C  C37  1  0.05140000  0.35040000  0.58390000  1.0 0.0888947364
C  C38  1  0.06940000  0.41960000  0.55030000  1.0 -0.1890169785
C  C39  1  0.16580000  0.50280000  0.54120000  1.0 0.0428211677
C  C40  1  0.23680000  0.51480000  0.57300000  1.0 -0.1412319218
C  C41  1  0.21230000  0.44590000  0.60560000  1.0 0.0595453192
C  C42  1  0.91170000  0.53070000  0.38690000  1.0 0.0428211677
C  C43  1  0.98120000  0.54380000  0.41780000  1.0 -0.1602677982
C  C44  1  0.07630000  0.62390000  0.41180000  1.0 0.0491516993
C  C45  1  0.09620000  0.68700000  0.37470000  1.0 -0.1602677982
C  C46  1  0.02330000  0.67010000  0.34590000  1.0 0.0805623625
C  C47  1  0.58340000  0.90560000  0.49790000  1.0 0.0595453192
C  C48  1  0.48350000  0.81970000  0.49520000  1.0 -0.1316711768
C  C49  1  0.42000000  0.81420000  0.46680000  1.0 0.0717102657
C  C50  1  0.45080000  0.89620000  0.43940000  1.0 -0.177510377
C  C51  1  0.55080000  0.98020000  0.44370000  1.0 0.0888947364
C  C52  1  0.19310000  0.57710000  0.50490000  1.0 0.3581602531
C  C53  1  0.15350000  0.63590000  0.44430000  1.0 0.3581602531
C  C54  1  0.31130000  0.72230000  0.46680000  1.0 0.3488013032
C  C55  1  0.89600000  0.76340000  0.26500000  1.0 0.0717102657
C  C56  1  0.92440000  0.85320000  0.26480000  1.0 -0.1246491564
C  C57  1  0.91110000  0.87530000  0.30160000  1.0 0.0296121731
C  C58  1  0.86970000  0.80030000  0.33730000  1.0 -0.1602677982
C  C59  1  0.83900000  0.71100000  0.33530000  1.0 0.0888947364
C  C60  1  0.22580000  0.29520000  0.20020000  1.0 0.0097778244
C  C61  1  0.15570000  0.21230000  0.22330000  1.0 -0.14990487
C  C62  1  0.12360000  0.21920000  0.25760000  1.0 0.0491516993
C  C63  1  0.16450000  0.30930000  0.26780000  1.0 -0.1602677982
C  C64  1  0.23240000  0.38780000  0.24170000  1.0 0.0805623625
C  C65  1  0.79720000  0.01200000  0.43180000  1.0 0.0595453192
C  C66  1  0.83270000  0.99710000  0.40390000  1.0 -0.14990487
C  C67  1  0.89560000  0.07500000  0.36950000  1.0 0.0595453192
C  C68  1  0.91700000  0.15860000  0.36810000  1.0 -0.1412319218
C  C69  1  0.86970000  0.16650000  0.39880000  1.0 0.0717102657
C  C70  1  0.94030000  0.96670000  0.30420000  1.0 0.3581602531
C  C71  1  0.04200000  0.13240000  0.28360000  1.0 0.3488013032
C  C72  1  0.93620000  0.06140000  0.33640000  1.0 0.3488013032
C  C73  1  0.04410000  0.61550000  0.05360000  1.0 0.0296121731
C  C74  1  0.14230000  0.70090000  0.05730000  1.0 -0.1316711768
C  C75  1  0.17830000  0.78470000  0.02790000  1.0 0.0491516993
C  C76  1  0.10600000  0.77720000  0.99750000  1.0 -0.1701678192
C  C77  1  0.01010000  0.69110000  0.99670000  1.0 0.0805623625
C  C78  1  0.56220000  0.92060000  0.15310000  1.0 0.0595453192
C  C79  1  0.48960000  0.90360000  0.12310000  1.0 -0.14990487
C  C80  1  0.51300000  0.97540000  0.08760000  1.0 0.0491516993
C  C81  1  0.61390000  0.05890000  0.08380000  1.0 -0.1602677982
C  C82  1  0.68420000  0.06980000  0.11400000  1.0 0.0491516993
C  C83  1  0.38390000  0.15850000  0.89310000  1.0 0.0888947364
C  C84  1  0.35850000  0.08950000  0.93010000  1.0 -0.1602677982
C  C85  1  0.42490000  0.09510000  0.95540000  1.0 0.0717102657
C  C86  1  0.52010000  0.17530000  0.94790000  1.0 -0.1602677982
C  C87  1  0.54370000  0.24250000  0.91050000  1.0 0.0595453192
C  C88  1  0.28120000  0.87760000  0.02730000  1.0 0.3132859017
C  C89  1  0.43750000  0.96090000  0.05530000  1.0 0.3581602531
C  C90  1  0.39740000  0.01980000  0.99350000  1.0 0.3394899314
C  C91  1  0.70030000  0.83030000  0.23590000  1.0 0.0717102657
C  C92  1  0.67460000  0.74360000  0.23620000  1.0 -0.14990487
C  C93  1  0.68560000  0.72280000  0.19770000  1.0 0.0717102657
C  C94  1  0.71870000  0.78450000  0.15990000  1.0 -0.1316711768
C  C95  1  0.73660000  0.86920000  0.16200000  1.0 0.0491516993
C  C96  1  0.37530000  0.20370000  0.26520000  1.0 0.0717102657
C  C97  1  0.44750000  0.28430000  0.23840000  1.0 -0.1412319218
C  C98  1  0.48110000  0.37750000  0.24360000  1.0 0.0805623625
C  C99  1  0.43290000  0.37970000  0.27320000  1.0 -0.1701678192
C  C100  1  0.36020000  0.29420000  0.29920000  1.0 0.0805623625
C  C101  1  0.73130000  0.43830000  0.10180000  1.0 0.0491516993
C  C102  1  0.69260000  0.44300000  0.13210000  1.0 -0.1316711768
C  C103  1  0.70170000  0.52490000  0.12920000  1.0 0.0491516993
C  C104  1  0.75700000  0.59500000  0.09720000  1.0 -0.1412319218
C  C105  1  0.79600000  0.58320000  0.06780000  1.0 0.0717102657
C  C106  1  0.65280000  0.62240000  0.19430000  1.0 0.3394899314
C  C107  1  0.56240000  0.46860000  0.21660000  1.0 0.3488013032
C  C108  1  0.66190000  0.53370000  0.16100000  1.0 0.3394899314
C  C109  1  0.35040000  0.05140000  0.41610000  1.0 0.0888947364
C  C110  1  0.41960000  0.06940000  0.44970000  1.0 -0.1890169785
C  C111  1  0.50280000  0.16580000  0.45880000  1.0 0.0428211677
C  C112  1  0.51480000  0.23680000  0.42700000  1.0 -0.1412319218
C  C113  1  0.44590000  0.21230000  0.39440000  1.0 0.0595453192
C  C114  1  0.53070000  0.91170000  0.61310000  1.0 0.0491516993
C  C115  1  0.54380000  0.98120000  0.58220000  1.0 -0.1602677982
C  C116  1  0.62390000  0.07630000  0.58820000  1.0 0.0491516993
C  C117  1  0.68700000  0.09620000  0.62530000  1.0 -0.1602677982
C  C118  1  0.67010000  0.02330000  0.65410000  1.0 0.0805623625
C  C119  1  0.90560000  0.58340000  0.50210000  1.0 0.0595453192
C  C120  1  0.81970000  0.48350000  0.50480000  1.0 -0.1316711768
C  C121  1  0.81420000  0.42000000  0.53320000  1.0 0.0717102657
C  C122  1  0.89620000  0.45080000  0.56060000  1.0 -0.177510377
C  C123  1  0.98020000  0.55080000  0.55630000  1.0 0.0888947364
C  C124  1  0.57710000  0.19310000  0.49510000  1.0 0.3581602531
C  C125  1  0.63590000  0.15350000  0.55570000  1.0 0.3581602531
C  C126  1  0.72230000  0.31130000  0.53320000  1.0 0.3488013032
C  C127  1  0.76340000  0.89600000  0.73500000  1.0 0.0717102657
C  C128  1  0.85320000  0.92440000  0.73520000  1.0 -0.1246491564
C  C129  1  0.87530000  0.91110000  0.69840000  1.0 0.0296121731
C  C130  1  0.80030000  0.86970000  0.66270000  1.0 -0.1602677982
C  C131  1  0.71100000  0.83900000  0.66470000  1.0 0.0888947364
C  C132  1  0.29520000  0.22580000  0.79980000  1.0 0.0097778244
C  C133  1  0.21230000  0.15570000  0.77670000  1.0 -0.14990487
C  C134  1  0.21920000  0.12360000  0.74240000  1.0 0.0491516993
C  C135  1  0.30930000  0.16450000  0.73220000  1.0 -0.1602677982
C  C136  1  0.38780000  0.23240000  0.75830000  1.0 0.0805623625
C  C137  1  0.01200000  0.79720000  0.56820000  1.0 0.0595453192
C  C138  1  0.99710000  0.83270000  0.59610000  1.0 -0.14990487
C  C139  1  0.07500000  0.89560000  0.63050000  1.0 0.0595453192
C  C140  1  0.15860000  0.91700000  0.63190000  1.0 -0.1412319218
C  C141  1  0.16650000  0.86970000  0.60120000  1.0 0.0717102657
C  C142  1  0.96670000  0.94030000  0.69580000  1.0 0.3581602531
C  C143  1  0.13240000  0.04200000  0.71640000  1.0 0.3488013032
C  C144  1  0.06140000  0.93620000  0.66360000  1.0 0.3488013032
I  I1  1  0.66418000  0.43378000  0.33630000  1.0 -0.43954327
I  I2  1  0.86920000  0.56462000  0.22902000  1.0 -0.4099431005
I  I3  1  0.42420000  0.65354000  0.19928000  1.0 -0.4343918567
I  I4  1  0.42849000  0.47779000  0.11605000  1.0 -0.4178448473
I  I5  1  0.50791000  0.76169000  0.05787000  1.0 -0.1412319218
I  I6  1  0.33660000  0.80160000  0.95280000  1.0 -0.0585762025
I  I7  1  0.14803000  0.92645000  0.84079000  1.0 0.0595453192
I  I8  1  0.04013000  0.73447000  0.72990000  1.0 0.0097778244
I  I9  1  0.11646000  0.16874000  0.61373000  1.0 -0.4510566498
I  I10  1  0.93960000  0.17320000  0.69760000  1.0 -0.4734566217
I  I11  1  0.82404000  0.08096000  0.55780000  1.0 0.0888947364
I  I12  1  0.79420000  0.26060000  0.45180000  1.0 0.0491516993
I  I13  1  0.49320000  0.76400000  0.05700000  1.0 -0.1602677982
I  I14  1  0.33420000  0.81580000  0.94460000  1.0 -0.0689715226
I  I15  1  0.14510000  0.90430000  0.83560000  1.0 0.0595453192
I  I16  1  0.00910000  0.70690000  0.72990000  1.0 0.0296121731
I  I17  1  0.83240000  0.10380000  0.54790000  1.0 0.0428211677
I  I18  1  0.93940000  0.16620000  0.69580000  1.0 -0.4510566498
I  I19  1  0.12260000  0.17740000  0.61780000  1.0 -0.4099431005
I  I20  1  0.77480000  0.25780000  0.43820000  1.0 0.0888947364
I  I21  1  0.43378000  0.66418000  0.66370000  1.0 -0.43954327
I  I22  1  0.56462000  0.86920000  0.77098000  1.0 -0.4099431005
I  I23  1  0.65354000  0.42420000  0.80072000  1.0 -0.4343918567
I  I24  1  0.47779000  0.42849000  0.88395000  1.0 -0.4178448473
I  I25  1  0.76169000  0.50791000  0.94213000  1.0 -0.14990487
I  I26  1  0.80160000  0.33660000  0.04720000  1.0 -0.0585762025
I  I27  1  0.92645000  0.14803000  0.15921000  1.0 0.0595453192
I  I28  1  0.73447000  0.04013000  0.27010000  1.0 0.0097778244
I  I29  1  0.16874000  0.11646000  0.38627000  1.0 -0.4510566498
I  I30  1  0.17320000  0.93960000  0.30240000  1.0 -0.4734566217
I  I31  1  0.08096000  0.82404000  0.44220000  1.0 0.0888947364
I  I32  1  0.26060000  0.79420000  0.54820000  1.0 0.0491516993
I  I33  1  0.76400000  0.49320000  0.94300000  1.0 -0.1602677982
I  I34  1  0.81580000  0.33420000  0.05540000  1.0 -0.0689715226
I  I35  1  0.90430000  0.14510000  0.16440000  1.0 0.0595453192
I  I36  1  0.70690000  0.00910000  0.27010000  1.0 0.0296121731
I  I37  1  0.10380000  0.83240000  0.45210000  1.0 0.0428211677
I  I38  1  0.16620000  0.93940000  0.30420000  1.0 -0.4510566498
I  I39  1  0.17740000  0.12260000  0.38220000  1.0 -0.4099431005
I  I40  1  0.25780000  0.77480000  0.56180000  1.0 0.0888947364
N  N1  1  0.61180000  0.97700000  0.97680000  1.0 -0.1966295694
N  N2  1  0.00230000  0.65950000  0.85180000  1.0 -0.2113230084
N  N3  1  0.23450000  0.47210000  0.11490000  1.0 -0.1602677982
N  N4  1  0.87890000  0.34350000  0.93950000  1.0 -0.4510566498
N  N5  1  0.03180000  0.46780000  0.97800000  1.0 -0.4099431005
N  N6  1  0.94410000  0.30230000  0.00170000  1.0 -0.3740030234
N  N7  1  0.89220000  0.72760000  0.80050000  1.0 -0.2113230084
N  N8  1  0.20900000  0.33300000  0.70400000  1.0 -0.177510377
N  N9  1  0.50550000  0.78070000  0.93130000  1.0 -0.1701678192
N  N10  1  0.54990000  0.58650000  0.77670000  1.0 -0.3902923569
N  N11  1  0.45150000  0.59350000  0.81320000  1.0 -0.3902923569
N  N12  1  0.62140000  0.69580000  0.83620000  1.0 -0.3902923569
N  N13  1  0.11750000  0.35990000  0.61220000  1.0 -0.1412319218
N  N14  1  0.93020000  0.59160000  0.35030000  1.0 -0.177510377
N  N15  1  0.61290000  0.98410000  0.47060000  1.0 -0.177510377
N  N16  1  0.12250000  0.56530000  0.47770000  1.0 -0.4099431005
N  N17  1  0.24680000  0.71620000  0.43750000  1.0 -0.3986347819
N  N18  1  0.28870000  0.65430000  0.50220000  1.0 -0.43954327
N  N19  1  0.85370000  0.69330000  0.30010000  1.0 -0.1890169785
N  N20  1  0.26430000  0.38570000  0.20760000  1.0 -0.1966295694
N  N21  1  0.81440000  0.09400000  0.43020000  1.0 -0.1890169785
N  N22  1  0.00420000  0.04080000  0.27740000  1.0 -0.3986347819
N  N23  1  0.00570000  0.13970000  0.31250000  1.0 -0.3620539014
N  N24  1  0.90450000  0.97210000  0.33460000  1.0 -0.3986347819
N  N25  1  0.97700000  0.61180000  0.02320000  1.0 -0.1966295694
N  N26  1  0.65950000  0.00230000  0.14820000  1.0 -0.2113230084
N  N27  1  0.47210000  0.23450000  0.88510000  1.0 -0.1602677982
N  N28  1  0.34350000  0.87890000  0.06050000  1.0 -0.4510566498
N  N29  1  0.46780000  0.03180000  0.02200000  1.0 -0.4099431005
N  N30  1  0.30230000  0.94410000  0.99830000  1.0 -0.3740030234
N  N31  1  0.72760000  0.89220000  0.19950000  1.0 -0.2113230084
N  N32  1  0.33300000  0.20900000  0.29600000  1.0 -0.1701678192
N  N33  1  0.78070000  0.50550000  0.06870000  1.0 -0.1701678192
N  N34  1  0.58650000  0.54990000  0.22330000  1.0 -0.3902923569
N  N35  1  0.59350000  0.45150000  0.18680000  1.0 -0.3902923569
N  N36  1  0.69580000  0.62140000  0.16380000  1.0 -0.3902923569
N  N37  1  0.35990000  0.11750000  0.38780000  1.0 -0.1412319218
N  N38  1  0.59160000  0.93020000  0.64970000  1.0 -0.177510377
N  N39  1  0.98410000  0.61290000  0.52940000  1.0 -0.177510377
N  N40  1  0.56530000  0.12250000  0.52230000  1.0 -0.4099431005
N  N41  1  0.71620000  0.24680000  0.56250000  1.0 -0.3986347819
N  N42  1  0.65430000  0.28870000  0.49780000  1.0 -0.43954327
N  N43  1  0.69330000  0.85370000  0.69990000  1.0 -0.1890169785
N  N44  1  0.38570000  0.26430000  0.79240000  1.0 -0.1966295694
N  N45  1  0.09400000  0.81440000  0.56980000  1.0 -0.1890169785
N  N46  1  0.04080000  0.00420000  0.72260000  1.0 -0.3986347819
N  N47  1  0.13970000  0.00570000  0.68750000  1.0 -0.3620539014
N  N48  1  0.97210000  0.90450000  0.66540000  1.0 -0.3986347819
