# DDEC6 charges by PACMAN v1.1 (https://github.com/mtap-research/PACMAN-charge/)
data_VUHNAP_FSR_pacman
_symmetry_space_group_name_H-M   'P 1'
_cell_length_a   18.83220000
_cell_length_b   18.83220000
_cell_length_c   30.62030000
_cell_angle_alpha   79.74700000
_cell_angle_beta   100.25300000
_cell_angle_gamma   133.29700000
_symmetry_Int_Tables_number   1
_chemical_formula_structural   Zn3H16C24(I3N4)2
_chemical_formula_sum   'Zn18 H96 C144 I36 N48'
_cell_volume   7753.70684148
_cell_formula_units_Z   6
loop_
 _symmetry_equiv_pos_site_id
 _symmetry_equiv_pos_as_xyz
  1  'x, y, z'
loop_
 _atom_site_type_symbol
 _atom_site_label
 _atom_site_symmetry_multiplicity
 _atom_site_fract_x
 _atom_site_fract_y
 _atom_site_fract_z
 _atom_site_occupancy
 _atom_site_charge
Zn  Zn1  1  0.22942000  0.97160000  0.80643000  1.0 0.4436490704
Zn  Zn2  1  0.29180000  0.45058000  0.65791000  1.0 0.4518552292
Zn  Zn3  1  0.02403000  0.76639000  0.30784000  1.0 0.4518552292
Zn  Zn4  1  0.54643000  0.70177000  0.15758000  1.0 0.3599167634
Zn  Zn5  1  0.68758000  0.03474000  0.97708000  1.0 0.146581078
Zn  Zn6  1  0.96471000  0.30949000  0.47970000  1.0 0.1371345663
Zn  Zn7  1  0.53480000  0.70520000  0.16200000  1.0 0.3924465198
Zn  Zn8  1  0.66060000  0.04540000  0.96360000  1.0 0.070316556
Zn  Zn9  1  0.95680000  0.32760000  0.46630000  1.0 0.1371345663
Zn  Zn10  1  0.97160000  0.22942000  0.19357000  1.0 0.4436490704
Zn  Zn11  1  0.45058000  0.29180000  0.34209000  1.0 0.4518552292
Zn  Zn12  1  0.76639000  0.02403000  0.69216000  1.0 0.4518552292
Zn  Zn13  1  0.70177000  0.54643000  0.84242000  1.0 0.3599167634
Zn  Zn14  1  0.03474000  0.68758000  0.02292000  1.0 0.1560605634
Zn  Zn15  1  0.30949000  0.96471000  0.52030000  1.0 0.146581078
Zn  Zn16  1  0.70520000  0.53480000  0.83800000  1.0 0.3924465198
Zn  Zn17  1  0.04540000  0.66060000  0.03640000  1.0 0.0787809623
Zn  Zn18  1  0.32760000  0.95680000  0.53370000  1.0 0.1289534041
H  H1  1  0.51350000  0.81230000  0.08380000  1.0 0.070316556
H  H2  1  0.39140000  0.77640000  0.02850000  1.0 0.1220769645
H  H3  1  0.22660000  0.49020000  0.06930000  1.0 0.1220769645
H  H4  1  0.35260000  0.53220000  0.11700000  1.0 0.089656583
H  H5  1  0.75940000  0.22900000  0.92420000  1.0 0.0787809623
H  H6  1  0.90610000  0.39170000  0.91860000  1.0 0.1289534041
H  H7  1  0.02540000  0.32520000  0.02000000  1.0 0.1289534041
H  H8  1  0.88000000  0.16860000  0.02590000  1.0 0.0787809623
H  H9  1  0.33100000  0.95340000  0.88930000  1.0 0.0787809623
H  H10  1  0.31250000  0.83810000  0.93900000  1.0 0.1147933323
H  H11  1  0.04720000  0.63280000  0.87670000  1.0 0.1220769645
H  H12  1  0.07780000  0.75660000  0.82520000  1.0 0.0787809623
H  H13  1  0.57020000  0.91560000  0.89410000  1.0 0.070316556
H  H14  1  0.58070000  0.83890000  0.84880000  1.0 0.1220769645
H  H15  1  0.86150000  0.99310000  0.89660000  1.0 0.1220769645
H  H16  1  0.83790000  0.04610000  0.94840000  1.0 0.1000502255
H  H17  1  0.10770000  0.95110000  0.86430000  1.0 0.1000502255
H  H18  1  0.97360000  0.93080000  0.86370000  1.0 0.1371345663
H  H19  1  0.90270000  0.84810000  0.74030000  1.0 0.1371345663
H  H20  1  0.05090000  0.88870000  0.74380000  1.0 0.089656583
H  H21  1  0.35270000  0.57650000  0.72900000  1.0 0.1000502255
H  H22  1  0.47510000  0.67970000  0.77480000  1.0 0.1371345663
H  H23  1  0.64520000  0.65780000  0.72250000  1.0 0.1289534041
H  H24  1  0.50010000  0.52950000  0.68460000  1.0 0.1000502255
H  H25  1  0.46570000  0.65630000  0.62990000  1.0 0.089656583
H  H26  1  0.50690000  0.76050000  0.55990000  1.0 0.1220769645
H  H27  1  0.22520000  0.60040000  0.52460000  1.0 0.1220769645
H  H28  1  0.18980000  0.49500000  0.58850000  1.0 0.0787809623
H  H29  1  0.83180000  0.10500000  0.51510000  1.0 0.0787809623
H  H30  1  0.66570000  0.95890000  0.51460000  1.0 0.1289534041
H  H31  1  0.60930000  0.09670000  0.42070000  1.0 0.1371345663
H  H32  1  0.77830000  0.23810000  0.42940000  1.0 0.070316556
H  H33  1  0.24270000  0.91730000  0.32540000  1.0 0.1000502255
H  H34  1  0.36860000  0.94320000  0.37060000  1.0 0.1289534041
H  H35  1  0.16710000  0.69190000  0.44330000  1.0 0.1000502255
H  H36  1  0.04590000  0.67070000  0.39490000  1.0 0.089656583
H  H37  1  0.09800000  0.94440000  0.24170000  1.0 0.1000502255
H  H38  1  0.14410000  0.09630000  0.24050000  1.0 0.1289534041
H  H39  1  0.07720000  0.02880000  0.37100000  1.0 0.1289534041
H  H40  1  0.01320000  0.86980000  0.36320000  1.0 0.089656583
H  H41  1  0.97400000  0.17100000  0.45730000  1.0 0.0787809623
H  H42  1  0.03900000  0.15080000  0.40810000  1.0 0.1289534041
H  H43  1  0.13190000  0.40530000  0.34140000  1.0 0.1289534041
H  H44  1  0.05540000  0.40880000  0.39360000  1.0 0.060286953
H  H45  1  0.45580000  0.49140000  0.17980000  1.0 0.0787809623
H  H46  1  0.34720000  0.35760000  0.22720000  1.0 0.1371345663
H  H47  1  0.31100000  0.50860000  0.27920000  1.0 0.1289534041
H  H48  1  0.44240000  0.65420000  0.23520000  1.0 0.070316556
H  H49  1  0.81230000  0.51350000  0.91620000  1.0 0.070316556
H  H50  1  0.77640000  0.39140000  0.97150000  1.0 0.1220769645
H  H51  1  0.49020000  0.22660000  0.93070000  1.0 0.1220769645
H  H52  1  0.53220000  0.35260000  0.88300000  1.0 0.089656583
H  H53  1  0.22900000  0.75940000  0.07580000  1.0 0.0787809623
H  H54  1  0.39170000  0.90610000  0.08140000  1.0 0.1289534041
H  H55  1  0.32520000  0.02540000  0.98000000  1.0 0.1289534041
H  H56  1  0.16860000  0.88000000  0.97410000  1.0 0.0787809623
H  H57  1  0.95340000  0.33100000  0.11070000  1.0 0.0787809623
H  H58  1  0.83810000  0.31250000  0.06100000  1.0 0.1147933323
H  H59  1  0.63280000  0.04720000  0.12330000  1.0 0.1220769645
H  H60  1  0.75660000  0.07780000  0.17480000  1.0 0.0787809623
H  H61  1  0.91560000  0.57020000  0.10590000  1.0 0.070316556
H  H62  1  0.83890000  0.58070000  0.15120000  1.0 0.1220769645
H  H63  1  0.99310000  0.86150000  0.10340000  1.0 0.1220769645
H  H64  1  0.04610000  0.83790000  0.05160000  1.0 0.1000502255
H  H65  1  0.95110000  0.10770000  0.13570000  1.0 0.1000502255
H  H66  1  0.93080000  0.97360000  0.13630000  1.0 0.1371345663
H  H67  1  0.84810000  0.90270000  0.25970000  1.0 0.1371345663
H  H68  1  0.88870000  0.05090000  0.25620000  1.0 0.089656583
H  H69  1  0.57650000  0.35270000  0.27100000  1.0 0.1000502255
H  H70  1  0.67970000  0.47510000  0.22520000  1.0 0.1371345663
H  H71  1  0.65780000  0.64520000  0.27750000  1.0 0.1289534041
H  H72  1  0.52950000  0.50010000  0.31540000  1.0 0.1000502255
H  H73  1  0.65630000  0.46570000  0.37010000  1.0 0.089656583
H  H74  1  0.76050000  0.50690000  0.44010000  1.0 0.1220769645
H  H75  1  0.60040000  0.22520000  0.47540000  1.0 0.1220769645
H  H76  1  0.49500000  0.18980000  0.41150000  1.0 0.0787809623
H  H77  1  0.10500000  0.83180000  0.48490000  1.0 0.0787809623
H  H78  1  0.95890000  0.66570000  0.48540000  1.0 0.1289534041
H  H79  1  0.09670000  0.60930000  0.57930000  1.0 0.1371345663
H  H80  1  0.23810000  0.77830000  0.57060000  1.0 0.070316556
H  H81  1  0.91730000  0.24270000  0.67460000  1.0 0.1000502255
H  H82  1  0.94320000  0.36860000  0.62940000  1.0 0.1289534041
H  H83  1  0.69190000  0.16710000  0.55670000  1.0 0.1000502255
H  H84  1  0.67070000  0.04590000  0.60510000  1.0 0.089656583
H  H85  1  0.94440000  0.09800000  0.75830000  1.0 0.1000502255
H  H86  1  0.09630000  0.14410000  0.75950000  1.0 0.1289534041
H  H87  1  0.02880000  0.07720000  0.62900000  1.0 0.1289534041
H  H88  1  0.86980000  0.01320000  0.63680000  1.0 0.089656583
H  H89  1  0.17100000  0.97400000  0.54270000  1.0 0.0787809623
H  H90  1  0.15080000  0.03900000  0.59190000  1.0 0.1289534041
H  H91  1  0.40530000  0.13190000  0.65860000  1.0 0.1289534041
H  H92  1  0.40880000  0.05540000  0.60640000  1.0 0.060286953
H  H93  1  0.49140000  0.45580000  0.82020000  1.0 0.0787809623
H  H94  1  0.35760000  0.34720000  0.77280000  1.0 0.1371345663
H  H95  1  0.50860000  0.31100000  0.72080000  1.0 0.1289534041
H  H96  1  0.65420000  0.44240000  0.76480000  1.0 0.070316556
C  C1  1  0.45430000  0.74630000  0.08050000  1.0 -0.0080571789
C  C2  1  0.38460000  0.72580000  0.04680000  1.0 -0.1612467013
C  C3  1  0.29980000  0.62260000  0.04050000  1.0 0.060286953
C  C4  1  0.28670000  0.55650000  0.06960000  1.0 -0.1269562244
C  C5  1  0.35920000  0.58340000  0.09980000  1.0 0.0469499125
C  C6  1  0.81550000  0.24870000  0.94300000  1.0 0.0294929694
C  C7  1  0.90310000  0.34690000  0.94010000  1.0 -0.1419920645
C  C8  1  0.98360000  0.37900000  0.96720000  1.0 0.0469499125
C  C9  1  0.97130000  0.30630000  0.99980000  1.0 -0.1612467013
C  C10  1  0.88610000  0.21270000  0.00250000  1.0 0.0398138143
C  C11  1  0.27310000  0.88670000  0.88630000  1.0 0.070316556
C  C12  1  0.26310000  0.81950000  0.91570000  1.0 -0.1612467013
C  C13  1  0.17620000  0.71820000  0.91160000  1.0 0.060286953
C  C14  1  0.10800000  0.69820000  0.87920000  1.0 -0.1612467013
C  C15  1  0.12530000  0.77270000  0.84910000  1.0 0.060286953
C  C16  1  0.22230000  0.59810000  0.00150000  1.0 0.3599167634
C  C17  1  0.07510000  0.48050000  0.96880000  1.0 0.2938629557
C  C18  1  0.16190000  0.63510000  0.94230000  1.0 0.3532418851
C  C19  1  0.62850000  0.92730000  0.89620000  1.0 0.0134652456
C  C20  1  0.63550000  0.88430000  0.86820000  1.0 -0.1269562244
C  C21  1  0.72050000  0.90550000  0.86780000  1.0 0.0398138143
C  C22  1  0.79930000  0.97230000  0.89730000  1.0 -0.1612467013
C  C23  1  0.78510000  0.00630000  0.92690000  1.0 0.0787809623
C  C24  1  0.06820000  0.93720000  0.83720000  1.0 0.070316556
C  C25  1  0.98500000  0.91860000  0.83810000  1.0 -0.1778364244
C  C26  1  0.91730000  0.88210000  0.80220000  1.0 0.060286953
C  C27  1  0.94550000  0.87290000  0.76660000  1.0 -0.1893636752
C  C28  1  0.03530000  0.89930000  0.76830000  1.0 0.0787809623
C  C29  1  0.41140000  0.58960000  0.72940000  1.0 0.070316556
C  C30  1  0.48280000  0.65280000  0.75470000  1.0 -0.170096065
C  C31  1  0.57670000  0.68370000  0.75260000  1.0 0.0787809623
C  C32  1  0.58470000  0.63910000  0.72530000  1.0 -0.170096065
C  C33  1  0.49870000  0.56510000  0.70220000  1.0 0.0294929694
C  C34  1  0.73060000  0.86680000  0.83560000  1.0 0.3269865681
C  C35  1  0.82180000  0.85420000  0.80300000  1.0 0.3418623228
C  C36  1  0.66740000  0.76620000  0.78190000  1.0 0.3202501554
C  C37  1  0.41670000  0.64230000  0.60730000  1.0 0.089656583
C  C38  1  0.44070000  0.70950000  0.56690000  1.0 -0.1419920645
C  C39  1  0.36680000  0.69880000  0.53880000  1.0 0.0294929694
C  C40  1  0.27730000  0.61630000  0.54550000  1.0 -0.1451291274
C  C41  1  0.25630000  0.55010000  0.58320000  1.0 0.1000502255
C  C42  1  0.78410000  0.10330000  0.49700000  1.0 0.0398138143
C  C43  1  0.68520000  0.01540000  0.49640000  1.0 -0.1419920645
C  C44  1  0.61900000  0.01260000  0.46960000  1.0 0.060286953
C  C45  1  0.65210000  0.09590000  0.44200000  1.0 -0.1778364244
C  C46  1  0.75430000  0.18010000  0.44750000  1.0 0.089656583
C  C47  1  0.22670000  0.86990000  0.34930000  1.0 0.1000502255
C  C48  1  0.30260000  0.88700000  0.37630000  1.0 -0.170096065
C  C49  1  0.28040000  0.81940000  0.41230000  1.0 0.0294929694
C  C50  1  0.18400000  0.73880000  0.41890000  1.0 -0.1419920645
C  C51  1  0.11250000  0.72670000  0.39010000  1.0 0.0204609573
C  C52  1  0.39640000  0.77400000  0.50460000  1.0 0.3599167634
C  C53  1  0.51240000  0.92060000  0.46820000  1.0 0.3599167634
C  C54  1  0.35260000  0.83260000  0.44470000  1.0 0.3202501554
C  C55  1  0.09360000  0.96220000  0.26760000  1.0 0.060286953
C  C56  1  0.11940000  0.05160000  0.26620000  1.0 -0.1612467013
C  C57  1  0.10750000  0.07250000  0.30420000  1.0 0.060286953
C  C58  1  0.07720000  0.01080000  0.34400000  1.0 -0.1778364244
C  C59  1  0.04670000  0.91930000  0.33970000  1.0 0.089656583
C  C60  1  0.00830000  0.21950000  0.43350000  1.0 0.0204609573
C  C61  1  0.04540000  0.20600000  0.40390000  1.0 -0.1419920645
C  C62  1  0.09200000  0.27480000  0.36820000  1.0 0.060286953
C  C63  1  0.09920000  0.35480000  0.36470000  1.0 -0.1451291274
C  C64  1  0.05570000  0.35770000  0.39740000  1.0 0.1000502255
C  C65  1  0.42800000  0.49720000  0.20040000  1.0 0.0787809623
C  C66  1  0.36060000  0.41620000  0.22750000  1.0 -0.170096065
C  C67  1  0.31120000  0.41880000  0.25580000  1.0 0.0398138143
C  C68  1  0.33990000  0.50310000  0.25920000  1.0 -0.1188784112
C  C69  1  0.41830000  0.59150000  0.23190000  1.0 0.0398138143
C  C70  1  0.13750000  0.16890000  0.30520000  1.0 0.3418623228
C  C71  1  0.13290000  0.26250000  0.33630000  1.0 0.3532418851
C  C72  1  0.23560000  0.33340000  0.28140000  1.0 0.3599167634
C  C73  1  0.74630000  0.45430000  0.91950000  1.0 -0.0080571789
C  C74  1  0.72580000  0.38460000  0.95320000  1.0 -0.1612467013
C  C75  1  0.62260000  0.29980000  0.95950000  1.0 0.060286953
C  C76  1  0.55650000  0.28670000  0.93040000  1.0 -0.1269562244
C  C77  1  0.58340000  0.35920000  0.90020000  1.0 0.0469499125
C  C78  1  0.24870000  0.81550000  0.05700000  1.0 0.0294929694
C  C79  1  0.34690000  0.90310000  0.05990000  1.0 -0.1419920645
C  C80  1  0.37900000  0.98360000  0.03280000  1.0 0.0469499125
C  C81  1  0.30630000  0.97130000  0.00020000  1.0 -0.1612467013
C  C82  1  0.21270000  0.88610000  0.99750000  1.0 0.0398138143
C  C83  1  0.88670000  0.27310000  0.11370000  1.0 0.070316556
C  C84  1  0.81950000  0.26310000  0.08430000  1.0 -0.1612467013
C  C85  1  0.71820000  0.17620000  0.08840000  1.0 0.060286953
C  C86  1  0.69820000  0.10800000  0.12080000  1.0 -0.1612467013
C  C87  1  0.77270000  0.12530000  0.15090000  1.0 0.060286953
C  C88  1  0.59810000  0.22230000  0.99850000  1.0 0.3599167634
C  C89  1  0.48050000  0.07510000  0.03120000  1.0 0.2938629557
C  C90  1  0.63510000  0.16190000  0.05770000  1.0 0.3532418851
C  C91  1  0.92730000  0.62850000  0.10380000  1.0 0.0134652456
C  C92  1  0.88430000  0.63550000  0.13180000  1.0 -0.1269562244
C  C93  1  0.90550000  0.72050000  0.13220000  1.0 0.0398138143
C  C94  1  0.97230000  0.79930000  0.10270000  1.0 -0.1612467013
C  C95  1  0.00630000  0.78510000  0.07310000  1.0 0.0787809623
C  C96  1  0.93720000  0.06820000  0.16280000  1.0 0.070316556
C  C97  1  0.91860000  0.98500000  0.16190000  1.0 -0.170096065
C  C98  1  0.88210000  0.91730000  0.19780000  1.0 0.060286953
C  C99  1  0.87290000  0.94550000  0.23340000  1.0 -0.1893636752
C  C100  1  0.89930000  0.03530000  0.23170000  1.0 0.0787809623
C  C101  1  0.58960000  0.41140000  0.27060000  1.0 0.070316556
C  C102  1  0.65280000  0.48280000  0.24530000  1.0 -0.170096065
C  C103  1  0.68370000  0.57670000  0.24740000  1.0 0.0787809623
C  C104  1  0.63910000  0.58470000  0.27470000  1.0 -0.170096065
C  C105  1  0.56510000  0.49870000  0.29780000  1.0 0.0294929694
C  C106  1  0.86680000  0.73060000  0.16440000  1.0 0.3269865681
C  C107  1  0.85420000  0.82180000  0.19700000  1.0 0.3418623228
C  C108  1  0.76620000  0.66740000  0.21810000  1.0 0.3202501554
C  C109  1  0.64230000  0.41670000  0.39270000  1.0 0.089656583
C  C110  1  0.70950000  0.44070000  0.43310000  1.0 -0.1419920645
C  C111  1  0.69880000  0.36680000  0.46120000  1.0 0.0294929694
C  C112  1  0.61630000  0.27730000  0.45450000  1.0 -0.1451291274
C  C113  1  0.55010000  0.25630000  0.41680000  1.0 0.1000502255
C  C114  1  0.10330000  0.78410000  0.50300000  1.0 0.0398138143
C  C115  1  0.01540000  0.68520000  0.50360000  1.0 -0.1419920645
C  C116  1  0.01260000  0.61900000  0.53040000  1.0 0.060286953
C  C117  1  0.09590000  0.65210000  0.55800000  1.0 -0.1778364244
C  C118  1  0.18010000  0.75430000  0.55250000  1.0 0.089656583
C  C119  1  0.86990000  0.22670000  0.65070000  1.0 0.1000502255
C  C120  1  0.88700000  0.30260000  0.62370000  1.0 -0.170096065
C  C121  1  0.81940000  0.28040000  0.58770000  1.0 0.0294929694
C  C122  1  0.73880000  0.18400000  0.58110000  1.0 -0.1419920645
C  C123  1  0.72670000  0.11250000  0.60990000  1.0 0.0204609573
C  C124  1  0.77400000  0.39640000  0.49540000  1.0 0.3599167634
C  C125  1  0.92060000  0.51240000  0.53180000  1.0 0.3599167634
C  C126  1  0.83260000  0.35260000  0.55530000  1.0 0.3202501554
C  C127  1  0.96220000  0.09360000  0.73240000  1.0 0.060286953
C  C128  1  0.05160000  0.11940000  0.73380000  1.0 -0.1612467013
C  C129  1  0.07250000  0.10750000  0.69580000  1.0 0.060286953
C  C130  1  0.01080000  0.07720000  0.65600000  1.0 -0.1778364244
C  C131  1  0.91930000  0.04670000  0.66030000  1.0 0.089656583
C  C132  1  0.21950000  0.00830000  0.56650000  1.0 0.0204609573
C  C133  1  0.20600000  0.04540000  0.59610000  1.0 -0.1419920645
C  C134  1  0.27480000  0.09200000  0.63180000  1.0 0.060286953
C  C135  1  0.35480000  0.09920000  0.63530000  1.0 -0.1419920645
C  C136  1  0.35770000  0.05570000  0.60260000  1.0 0.1000502255
C  C137  1  0.49720000  0.42800000  0.79960000  1.0 0.0787809623
C  C138  1  0.41620000  0.36060000  0.77250000  1.0 -0.170096065
C  C139  1  0.41880000  0.31120000  0.74420000  1.0 0.0398138143
C  C140  1  0.50310000  0.33990000  0.74080000  1.0 -0.1188784112
C  C141  1  0.59150000  0.41830000  0.76810000  1.0 0.0398138143
C  C142  1  0.16890000  0.13750000  0.69480000  1.0 0.3418623228
C  C143  1  0.26250000  0.13290000  0.66370000  1.0 0.3532418851
C  C144  1  0.33340000  0.23560000  0.71860000  1.0 0.3599167634
I  I1  1  0.35434000  0.12872000  0.84368000  1.0 -0.4375112286
I  I2  1  0.24170000  0.93702000  0.73422000  1.0 -0.4375112286
I  I3  1  0.14222000  0.37564000  0.69567000  1.0 -0.4569088252
I  I4  1  0.32118000  0.36656000  0.61849000  1.0 -0.4340813589
I  I5  1  0.05884000  0.75332000  0.23605000  1.0 -0.4375112286
I  I6  1  0.86580000  0.64058000  0.34417000  1.0 -0.4516938757
I  I7  1  0.61926000  0.85308000  0.19407000  1.0 -0.0777210314
I  I8  1  0.63073000  0.67197000  0.11990000  1.0 0.0038860636
I  I9  1  0.70953000  0.96539000  0.05211000  1.0 0.0204609573
I  I10  1  0.53884000  0.01432000  0.94946000  1.0 -0.0382499993
I  I11  1  0.02908000  0.28342000  0.55565000  1.0 0.0294929694
I  I12  1  0.99046000  0.46046000  0.45391000  1.0 -0.0282981014
I  I13  1  0.59070000  0.85430000  0.19300000  1.0 -0.0193457054
I  I14  1  0.63300000  0.69500000  0.14220000  1.0 -0.0382499993
I  I15  1  0.53410000  0.04610000  0.91820000  1.0 0.0469499125
I  I16  1  0.64820000  0.96700000  0.03280000  1.0 -0.0637838151
I  I17  1  0.02900000  0.31520000  0.54290000  1.0 -0.0282981014
I  I18  1  0.96650000  0.46170000  0.43450000  1.0 0.0294929694
I  I19  1  0.12872000  0.35434000  0.15632000  1.0 -0.4375112286
I  I20  1  0.93702000  0.24170000  0.26578000  1.0 -0.4340813589
I  I21  1  0.37564000  0.14222000  0.30433000  1.0 -0.4569088252
I  I22  1  0.36656000  0.32118000  0.38151000  1.0 -0.4340813589
I  I23  1  0.75332000  0.05884000  0.76395000  1.0 -0.4340813589
I  I24  1  0.64058000  0.86580000  0.65583000  1.0 -0.4569088252
I  I25  1  0.85308000  0.61926000  0.80593000  1.0 -0.0777210314
I  I26  1  0.67197000  0.63073000  0.88010000  1.0 0.0038860636
I  I27  1  0.96539000  0.70953000  0.94789000  1.0 0.0134652456
I  I28  1  0.01432000  0.53884000  0.05054000  1.0 -0.0382499993
I  I29  1  0.28342000  0.02908000  0.44435000  1.0 0.0294929694
I  I30  1  0.46046000  0.99046000  0.54609000  1.0 -0.0282981014
I  I31  1  0.85430000  0.59070000  0.80700000  1.0 -0.0193457054
I  I32  1  0.69500000  0.63300000  0.85780000  1.0 -0.0382499993
I  I33  1  0.04610000  0.53410000  0.08180000  1.0 0.0469499125
I  I34  1  0.96700000  0.64820000  0.96720000  1.0 -0.0674890708
I  I35  1  0.31520000  0.02900000  0.45710000  1.0 -0.0382499993
I  I36  1  0.46170000  0.96650000  0.56550000  1.0 0.0294929694
N  N1  1  0.44040000  0.67420000  0.10900000  1.0 -0.2190687638
N  N2  1  0.80860000  0.17960000  0.97270000  1.0 -0.1778364244
N  N3  1  0.20760000  0.86640000  0.85330000  1.0 -0.1778364244
N  N4  1  0.14400000  0.50500000  0.00000000  1.0 -0.3897570402
N  N5  1  0.08410000  0.55050000  0.93880000  1.0 -0.3897570402
N  N6  1  0.23690000  0.67310000  0.97380000  1.0 -0.4375112286
N  N7  1  0.70660000  0.99040000  0.92900000  1.0 -0.1974917483
N  N8  1  0.09740000  0.93740000  0.80230000  1.0 -0.1974917483
N  N9  1  0.41020000  0.53980000  0.70330000  1.0 -0.2190687638
N  N10  1  0.82070000  0.89610000  0.83290000  1.0 -0.4172184151
N  N11  1  0.75530000  0.79490000  0.77470000  1.0 -0.4172184151
N  N12  1  0.65290000  0.79850000  0.80900000  1.0 -0.379490478
N  N13  1  0.32320000  0.56160000  0.61040000  1.0 -0.1612467013
N  N14  1  0.81200000  0.18300000  0.47320000  1.0 -0.170096065
N  N15  1  0.13420000  0.79380000  0.35390000  1.0 -0.1893636752
N  N16  1  0.49290000  0.84870000  0.50050000  1.0 -0.4516938757
N  N17  1  0.45200000  0.91720000  0.43790000  1.0 -0.4172184151
N  N18  1  0.32900000  0.76300000  0.47800000  1.0 -0.3962228577
N  N19  1  0.06180000  0.89800000  0.30560000  1.0 -0.2190687638
N  N20  1  0.01930000  0.29990000  0.42960000  1.0 -0.1778364244
N  N21  1  0.45390000  0.57890000  0.20200000  1.0 -0.2190687638
N  N22  1  0.10230000  0.17830000  0.33560000  1.0 -0.3897570402
N  N23  1  0.20030000  0.34690000  0.31110000  1.0 -0.4172184151
N  N24  1  0.20660000  0.24860000  0.27650000  1.0 -0.3962228577
N  N25  1  0.67420000  0.44040000  0.89100000  1.0 -0.2190687638
N  N26  1  0.17960000  0.80860000  0.02730000  1.0 -0.1778364244
N  N27  1  0.86640000  0.20760000  0.14670000  1.0 -0.1778364244
N  N28  1  0.50500000  0.14400000  0.00000000  1.0 -0.3897570402
N  N29  1  0.55050000  0.08410000  0.06120000  1.0 -0.3897570402
N  N30  1  0.67310000  0.23690000  0.02620000  1.0 -0.4375112286
N  N31  1  0.99040000  0.70660000  0.07100000  1.0 -0.1974917483
N  N32  1  0.93740000  0.09740000  0.19770000  1.0 -0.1974917483
N  N33  1  0.53980000  0.41020000  0.29670000  1.0 -0.2190687638
N  N34  1  0.89610000  0.82070000  0.16710000  1.0 -0.4172184151
N  N35  1  0.79490000  0.75530000  0.22530000  1.0 -0.4172184151
N  N36  1  0.79850000  0.65290000  0.19100000  1.0 -0.379490478
N  N37  1  0.56160000  0.32320000  0.38960000  1.0 -0.1612467013
N  N38  1  0.18300000  0.81200000  0.52680000  1.0 -0.170096065
N  N39  1  0.79380000  0.13420000  0.64610000  1.0 -0.1893636752
N  N40  1  0.84870000  0.49290000  0.49950000  1.0 -0.4516938757
N  N41  1  0.91720000  0.45200000  0.56210000  1.0 -0.4172184151
N  N42  1  0.76300000  0.32900000  0.52200000  1.0 -0.3962228577
N  N43  1  0.89800000  0.06180000  0.69440000  1.0 -0.2190687638
N  N44  1  0.29990000  0.01930000  0.57040000  1.0 -0.1778364244
N  N45  1  0.57890000  0.45390000  0.79800000  1.0 -0.2190687638
N  N46  1  0.17830000  0.10230000  0.66440000  1.0 -0.3897570402
N  N47  1  0.34690000  0.20030000  0.68890000  1.0 -0.4172184151
N  N48  1  0.24860000  0.20660000  0.72350000  1.0 -0.3962228577
