# DDEC6 charges by PACMAN v1.1 (https://github.com/mtap-research/PACMAN-charge/)
data_VUKSEB_ASR_pacman
_symmetry_space_group_name_H-M   'P 1'
_cell_length_a   10.95530000
_cell_length_b   10.95530000
_cell_length_c   10.01920000
_cell_angle_alpha   78.01680000
_cell_angle_beta   101.98300000
_cell_angle_gamma   102.57000000
_symmetry_Int_Tables_number   1
_chemical_formula_structural   Zn2H4C6O7
_chemical_formula_sum   'Zn8 H16 C24 O28'
_cell_volume   1131.35398813
_cell_formula_units_Z   4
loop_
 _symmetry_equiv_pos_site_id
 _symmetry_equiv_pos_as_xyz
  1  'x, y, z'
loop_
 _atom_site_type_symbol
 _atom_site_label
 _atom_site_symmetry_multiplicity
 _atom_site_fract_x
 _atom_site_fract_y
 _atom_site_fract_z
 _atom_site_occupancy
 _atom_site_charge
Zn  Zn1  1  0.14410000  0.08672000  0.60292000  1.0 0.8833381424
Zn  Zn2  1  0.08672000  0.14410000  0.89708000  1.0 0.8833381424
Zn  Zn3  1  0.85590000  0.91328000  0.39708000  1.0 0.8833381424
Zn  Zn4  1  0.91328000  0.85590000  0.10292000  1.0 0.8833381424
Zn  Zn5  1  0.87658000  0.92178000  0.74350000  1.0 0.602941085
Zn  Zn6  1  0.92178000  0.87658000  0.75650000  1.0 0.602941085
Zn  Zn7  1  0.12342000  0.07822000  0.25650000  1.0 0.602941085
Zn  Zn8  1  0.07822000  0.12342000  0.24350000  1.0 0.602941085
H  H1  1  0.51580000  0.21400000  0.06790000  1.0 0.1355483423
H  H2  1  0.21400000  0.51580000  0.43210000  1.0 0.1355483423
H  H3  1  0.48420000  0.78600000  0.93210000  1.0 0.1355483423
H  H4  1  0.78600000  0.48420000  0.56790000  1.0 0.1355483423
H  H5  1  0.74530000  0.19310000  0.09190000  1.0 0.1319380592
H  H6  1  0.19310000  0.74530000  0.40810000  1.0 0.1319380592
H  H7  1  0.25470000  0.80690000  0.90810000  1.0 0.1319380592
H  H8  1  0.80690000  0.25470000  0.59190000  1.0 0.1319380592
H  H9  1  0.75370000  0.78890000  0.58230000  1.0 0.3709710728
H  H10  1  0.78890000  0.75370000  0.91770000  1.0 0.3709710728
H  H11  1  0.24630000  0.21110000  0.41770000  1.0 0.3709710728
H  H12  1  0.21110000  0.24630000  0.08230000  1.0 0.3709710728
H  H13  1  0.96900000  0.09060000  0.66080000  1.0 0.2640991698
H  H14  1  0.09060000  0.96900000  0.83920000  1.0 0.2640991698
H  H15  1  0.03100000  0.90940000  0.33920000  1.0 0.2640991698
H  H16  1  0.90940000  0.03100000  0.16080000  1.0 0.2653750072
C  C1  1  0.35240000  0.12400000  0.82910000  1.0 0.5459329675
C  C2  1  0.12400000  0.35240000  0.67090000  1.0 0.5459329675
C  C3  1  0.64760000  0.87600000  0.17090000  1.0 0.5459329675
C  C4  1  0.87600000  0.64760000  0.32910000  1.0 0.5459329675
C  C5  1  0.48880000  0.14020000  0.89120000  1.0 0.0701821468
C  C6  1  0.14020000  0.48880000  0.60880000  1.0 0.0701821468
C  C7  1  0.51120000  0.85980000  0.10880000  1.0 0.0701821468
C  C8  1  0.85980000  0.51120000  0.39120000  1.0 0.0701821468
C  C9  1  0.55060000  0.18320000  0.00740000  1.0 -0.182711817
C  C10  1  0.18320000  0.55060000  0.49260000  1.0 -0.182711817
C  C11  1  0.44940000  0.81680000  0.99260000  1.0 -0.182711817
C  C12  1  0.81680000  0.44940000  0.50740000  1.0 -0.182711817
C  C13  1  0.68810000  0.12710000  0.90750000  1.0 0.0612671937
C  C14  1  0.12710000  0.68810000  0.59250000  1.0 0.0612671937
C  C15  1  0.31190000  0.87290000  0.09250000  1.0 0.0612671937
C  C16  1  0.87290000  0.31190000  0.40750000  1.0 0.0612671937
C  C17  1  0.67970000  0.17270000  0.02030000  1.0 -0.1884469648
C  C18  1  0.17270000  0.67970000  0.47970000  1.0 -0.1884469648
C  C19  1  0.32030000  0.82730000  0.97970000  1.0 -0.1884469648
C  C20  1  0.82730000  0.32030000  0.52030000  1.0 -0.1884469648
C  C21  1  0.79300000  0.09040000  0.86490000  1.0 0.5270648638
C  C22  1  0.09040000  0.79300000  0.63510000  1.0 0.5270648638
C  C23  1  0.20700000  0.90960000  0.13510000  1.0 0.5270648638
C  C24  1  0.90960000  0.20700000  0.36490000  1.0 0.5270648638
O  O1  1  0.31930000  0.07910000  0.71760000  1.0 -0.5487474759
O  O2  1  0.07910000  0.31930000  0.78240000  1.0 -0.5487474759
O  O3  1  0.68070000  0.92090000  0.28240000  1.0 -0.5487474759
O  O4  1  0.92090000  0.68070000  0.21760000  1.0 -0.5487474759
O  O5  1  0.09820000  0.89700000  0.55260000  1.0 -0.5995506157
O  O6  1  0.89700000  0.09820000  0.94740000  1.0 -0.5995506157
O  O7  1  0.90180000  0.10300000  0.44740000  1.0 -0.5995506157
O  O8  1  0.10300000  0.90180000  0.05260000  1.0 -0.5995506157
O  O9  1  0.15440000  0.28300000  0.60330000  1.0 -0.5792563368
O  O10  1  0.28300000  0.15440000  0.89670000  1.0 -0.5792563368
O  O11  1  0.84560000  0.71700000  0.39670000  1.0 -0.5792563368
O  O12  1  0.71700000  0.84560000  0.10330000  1.0 -0.5792563368
O  O13  1  0.19590000  0.13990000  0.42060000  1.0 -0.7103148063
O  O14  1  0.13990000  0.19590000  0.07940000  1.0 -0.7103148063
O  O15  1  0.80410000  0.86010000  0.57940000  1.0 -0.7103148063
O  O16  1  0.86010000  0.80410000  0.92060000  1.0 -0.7103148063
O  O17  1  0.02090000  0.04970000  0.72720000  1.0 -0.1712325287
O  O18  1  0.04970000  0.02090000  0.77280000  1.0 -0.1712325287
O  O19  1  0.97910000  0.95030000  0.27280000  1.0 -0.1712325287
O  O20  1  0.95030000  0.97910000  0.22720000  1.0 -0.1712325287
O  O21  1  0.57160000  0.10600000  0.82560000  1.0 -0.1044223268
O  O22  1  0.10600000  0.57160000  0.67440000  1.0 -0.1044223268
O  O23  1  0.42840000  0.89400000  0.17440000  1.0 -0.1051725109
O  O24  1  0.89400000  0.42840000  0.32560000  1.0 -0.1044223268
O  O25  1  0.77250000  0.05190000  0.75040000  1.0 -0.5087315847
O  O26  1  0.05190000  0.77250000  0.74960000  1.0 -0.5087315847
O  O27  1  0.22750000  0.94810000  0.24960000  1.0 -0.5087315847
O  O28  1  0.94810000  0.22750000  0.25040000  1.0 -0.5087315847
