# DDEC6 charges by PACMAN v1.1 (https://github.com/mtap-research/PACMAN-charge/)
data_VUKSIF_ion_pacman
_symmetry_space_group_name_H-M   'P 1'
_cell_length_a   12.69470000
_cell_length_b   12.82420000
_cell_length_c   14.79710000
_cell_angle_alpha   94.89000000
_cell_angle_beta   114.01200000
_cell_angle_gamma   89.66300000
_symmetry_Int_Tables_number   1
_chemical_formula_structural   Zn3H16C26NO21
_chemical_formula_sum   'Zn6 H32 C52 N2 O42'
_cell_volume   2191.38012970
_cell_formula_units_Z   2
loop_
 _symmetry_equiv_pos_site_id
 _symmetry_equiv_pos_as_xyz
  1  'x, y, z'
loop_
 _atom_site_type_symbol
 _atom_site_label
 _atom_site_symmetry_multiplicity
 _atom_site_fract_x
 _atom_site_fract_y
 _atom_site_fract_z
 _atom_site_occupancy
 _atom_site_charge
Zn  Zn1  1  0.71718000  0.95218000  0.44211000  1.0 0.8429526751
Zn  Zn2  1  0.28282000  0.04782000  0.55789000  1.0 0.8429526751
Zn  Zn3  1  0.50000000  0.00000000  0.50000000  1.0 0.9925131863
Zn  Zn4  1  0.15528000  0.59715000  0.86813000  1.0 0.9127985304
Zn  Zn5  1  0.84472000  0.40285000  0.13187000  1.0 0.9127985304
Zn  Zn6  1  0.00000000  0.50000000  0.00000000  1.0 1.026036567
H  H1  1  0.28790000  0.57830000  0.27440000  1.0 0.1498758895
H  H2  1  0.71210000  0.42170000  0.72560000  1.0 0.1498758895
H  H3  1  0.42280000  0.71730000  0.40300000  1.0 0.1498758895
H  H4  1  0.57720000  0.28270000  0.59700000  1.0 0.1498758895
H  H5  1  0.34090000  0.07690000  0.20430000  1.0 0.1498758895
H  H6  1  0.65910000  0.92310000  0.79570000  1.0 0.1498758895
H  H7  1  0.23230000  0.21030000  0.08240000  1.0 0.1417661955
H  H8  1  0.76770000  0.78970000  0.91760000  1.0 0.1417661955
H  H9  1  0.51690000  0.55040000  0.74540000  1.0 0.1498758895
H  H10  1  0.48310000  0.44960000  0.25460000  1.0 0.1498758895
H  H11  1  0.55160000  0.67750000  0.63490000  1.0 0.1417661955
H  H12  1  0.44840000  0.32250000  0.36510000  1.0 0.1417661955
H  H13  1  0.13210000  0.77340000  0.26630000  1.0 0.1571914022
H  H14  1  0.86790000  0.22660000  0.73370000  1.0 0.1571914022
H  H15  1  0.08080000  0.91080000  0.37650000  1.0 0.1417661955
H  H16  1  0.91920000  0.08920000  0.62350000  1.0 0.1417661955
H  H17  1  0.30170000  0.26900000  0.89360000  1.0 0.2460395759
H  H18  1  0.29910000  0.37570000  0.86400000  1.0 0.2771647041
H  H19  1  0.41470000  0.27380000  0.80940000  1.0 0.1343680983
H  H20  1  0.48580000  0.37180000  0.88300000  1.0 0.1343680983
H  H21  1  0.49480000  0.25860000  0.92300000  1.0 0.1417661955
H  H22  1  0.30880000  0.38920000  0.01970000  1.0 0.1343680983
H  H23  1  0.42080000  0.31920000  0.05320000  1.0 0.124487101
H  H24  1  0.42720000  0.43490000  0.02230000  1.0 0.1417661955
H  H25  1  0.69830000  0.73100000  0.10640000  1.0 0.2460395759
H  H26  1  0.70090000  0.62430000  0.13600000  1.0 0.2771647041
H  H27  1  0.58530000  0.72620000  0.19060000  1.0 0.1343680983
H  H28  1  0.51420000  0.62820000  0.11700000  1.0 0.1343680983
H  H29  1  0.50520000  0.74140000  0.07700000  1.0 0.1417661955
H  H30  1  0.69120000  0.61080000  0.98030000  1.0 0.1343680983
H  H31  1  0.57920000  0.68080000  0.94680000  1.0 0.124487101
H  H32  1  0.57280000  0.56510000  0.97770000  1.0 0.1417661955
C  C1  1  0.23540000  0.62260000  0.06850000  1.0 0.5432796543
C  C2  1  0.76460000  0.37740000  0.93150000  1.0 0.5432796543
C  C3  1  0.30050000  0.66980000  0.17100000  1.0 0.082059646
C  C4  1  0.69950000  0.33020000  0.82900000  1.0 0.082059646
C  C5  1  0.31910000  0.63950000  0.26130000  1.0 -0.1711974936
C  C6  1  0.68090000  0.36050000  0.73870000  1.0 -0.1711974936
C  C7  1  0.39410000  0.71650000  0.33280000  1.0 -0.1711974936
C  C8  1  0.60590000  0.28350000  0.66720000  1.0 -0.1711974936
C  C9  1  0.41650000  0.78830000  0.28080000  1.0 0.0957468664
C  C10  1  0.58350000  0.21170000  0.71920000  1.0 0.0957468664
C  C11  1  0.49530000  0.88220000  0.31080000  1.0 0.5432796543
C  C12  1  0.50470000  0.11780000  0.68920000  1.0 0.5432796543
C  C13  1  0.26680000  0.07050000  0.36770000  1.0 0.559029459
C  C14  1  0.73320000  0.92950000  0.63230000  1.0 0.559029459
C  C15  1  0.23870000  0.12570000  0.27690000  1.0 0.0877409493
C  C16  1  0.76130000  0.87430000  0.72310000  1.0 0.0877409493
C  C17  1  0.28200000  0.12100000  0.20760000  1.0 -0.1711974936
C  C18  1  0.71800000  0.87900000  0.79240000  1.0 -0.1711974936
C  C19  1  0.22190000  0.19550000  0.14020000  1.0 -0.1711974936
C  C20  1  0.77810000  0.80450000  0.85980000  1.0 -0.1711974936
C  C21  1  0.14690000  0.24140000  0.17430000  1.0 0.082059646
C  C22  1  0.85310000  0.75860000  0.82570000  1.0 0.082059646
C  C23  1  0.05750000  0.32060000  0.13600000  1.0 0.559029459
C  C24  1  0.94250000  0.67940000  0.86400000  1.0 0.559029459
C  C25  1  0.31700000  0.60250000  0.78990000  1.0 0.5282070105
C  C26  1  0.68300000  0.39750000  0.21010000  1.0 0.5282070105
C  C27  1  0.37600000  0.64030000  0.73040000  1.0 0.0702040633
C  C28  1  0.62400000  0.35970000  0.26960000  1.0 0.0702040633
C  C29  1  0.47170000  0.60840000  0.71840000  1.0 -0.1711974936
C  C30  1  0.52830000  0.39160000  0.28160000  1.0 -0.1711974936
C  C31  1  0.49100000  0.67940000  0.65700000  1.0 -0.1711974936
C  C32  1  0.50900000  0.32060000  0.34300000  1.0 -0.1711974936
C  C33  1  0.40630000  0.74970000  0.63630000  1.0 0.082059646
C  C34  1  0.59370000  0.25030000  0.36370000  1.0 0.082059646
C  C35  1  0.38570000  0.84610000  0.58440000  1.0 0.559029459
C  C36  1  0.61430000  0.15390000  0.41560000  1.0 0.559029459
C  C37  1  0.95140000  0.60540000  0.17350000  1.0 0.559029459
C  C38  1  0.04860000  0.39460000  0.82650000  1.0 0.559029459
C  C39  1  0.97430000  0.70520000  0.23800000  1.0 0.082059646
C  C40  1  0.02570000  0.29480000  0.76200000  1.0 0.082059646
C  C41  1  0.06330000  0.77500000  0.27710000  1.0 -0.1509485627
C  C42  1  0.93670000  0.22500000  0.72290000  1.0 -0.1509485627
C  C43  1  0.03460000  0.85180000  0.33790000  1.0 -0.1974618668
C  C44  1  0.96540000  0.14820000  0.66210000  1.0 -0.1974618668
C  C45  1  0.92830000  0.82380000  0.32970000  1.0 0.0702040633
C  C46  1  0.07170000  0.17620000  0.67030000  1.0 0.0702040633
C  C47  1  0.84880000  0.87090000  0.37120000  1.0 0.412373132
C  C48  1  0.15120000  0.12910000  0.62880000  1.0 0.412373132
C  C49  1  0.44330000  0.30640000  0.87780000  1.0 -0.3122423524
C  C50  1  0.37820000  0.37170000  0.00870000  1.0 -0.3122423524
C  C51  1  0.55670000  0.69360000  0.12220000  1.0 -0.3122423524
C  C52  1  0.62180000  0.62830000  0.99130000  1.0 -0.3122423524
N  N1  1  0.34460000  0.32910000  0.90470000  1.0 -0.1018560762
N  N2  1  0.65540000  0.67090000  0.09530000  1.0 -0.1018560762
O  O1  1  0.18120000  0.53740000  0.05640000  1.0 -0.5526392991
O  O2  1  0.81880000  0.46260000  0.94360000  1.0 -0.5526392991
O  O3  1  0.24210000  0.67010000  0.99970000  1.0 -0.5189916948
O  O4  1  0.75790000  0.32990000  0.00030000  1.0 -0.5189916948
O  O5  1  0.36020000  0.76230000  0.18150000  1.0 -0.0910754418
O  O6  1  0.63980000  0.23770000  0.81850000  1.0 -0.0910754418
O  O7  1  0.50540000  0.93420000  0.24950000  1.0 -0.4620536501
O  O8  1  0.49460000  0.06580000  0.75050000  1.0 -0.4620536501
O  O9  1  0.55610000  0.89860000  0.40730000  1.0 -0.587717467
O  O10  1  0.44390000  0.10140000  0.59270000  1.0 -0.587717467
O  O11  1  0.34070000  0.00120000  0.38260000  1.0 -0.5265036558
O  O12  1  0.65930000  0.99880000  0.61740000  1.0 -0.5265036558
O  O13  1  0.21430000  0.09640000  0.42250000  1.0 -0.5418023899
O  O14  1  0.78570000  0.90360000  0.57750000  1.0 -0.5418023899
O  O15  1  0.15580000  0.19970000  0.25900000  1.0 -0.0798413242
O  O16  1  0.84420000  0.80030000  0.74100000  1.0 -0.0798413242
O  O17  1  0.04910000  0.35760000  0.05840000  1.0 -0.5265036558
O  O18  1  0.95090000  0.64240000  0.94160000  1.0 -0.5265036558
O  O19  1  0.99680000  0.34100000  0.18500000  1.0 -0.5265036558
O  O20  1  0.00320000  0.65900000  0.81500000  1.0 -0.5265036558
O  O21  1  0.22690000  0.65080000  0.78540000  1.0 -0.5189916948
O  O22  1  0.77310000  0.34920000  0.21460000  1.0 -0.5189916948
O  O23  1  0.35840000  0.52920000  0.84030000  1.0 -0.5189916948
O  O24  1  0.64160000  0.47080000  0.15970000  1.0 -0.5189916948
O  O25  1  0.33300000  0.72690000  0.67970000  1.0 -0.0910754418
O  O26  1  0.66700000  0.27310000  0.32030000  1.0 -0.0910754418
O  O27  1  0.29850000  0.89810000  0.58050000  1.0 -0.5418023899
O  O28  1  0.70150000  0.10190000  0.41950000  1.0 -0.5418023899
O  O29  1  0.45820000  0.86760000  0.55110000  1.0 -0.5189916948
O  O30  1  0.54180000  0.13240000  0.44890000  1.0 -0.5189916948
O  O31  1  0.02130000  0.58070000  0.13670000  1.0 -0.5071578557
O  O32  1  0.97870000  0.41930000  0.86330000  1.0 -0.5071578557
O  O33  1  0.86200000  0.55360000  0.16350000  1.0 -0.5418023899
O  O34  1  0.13800000  0.44640000  0.83650000  1.0 -0.5418023899
O  O35  1  0.88930000  0.73370000  0.26940000  1.0 -0.1135165067
O  O36  1  0.11070000  0.26630000  0.73060000  1.0 -0.1135165067
O  O37  1  0.75360000  0.83610000  0.34720000  1.0 -0.3925858522
O  O38  1  0.24640000  0.16390000  0.65280000  1.0 -0.3925858522
O  O39  1  0.86510000  0.96030000  0.41110000  1.0 0.042365062
O  O40  1  0.13490000  0.03970000  0.58890000  1.0 0.0453275432
O  O41  1  0.90350000  0.93990000  0.44980000  1.0 0.0198981156
O  O42  1  0.09650000  0.06010000  0.55020000  1.0 0.0198981156
