# DDEC6 charges by PACMAN v1.1 (https://github.com/mtap-research/PACMAN-charge/)
data_VUKYUX_FSR_pacman
_symmetry_space_group_name_H-M   'P 1'
_cell_length_a   18.18140000
_cell_length_b   18.18140000
_cell_length_c   33.89700000
_cell_angle_alpha   76.00180000
_cell_angle_beta   103.99800000
_cell_angle_gamma   133.35100000
_symmetry_Int_Tables_number   1
_chemical_formula_structural   Zn11H48C72(N12Cl11)2
_chemical_formula_sum   'Zn22 H96 C144 N48 Cl44'
_cell_volume   7860.15851918
_cell_formula_units_Z   2
loop_
 _symmetry_equiv_pos_site_id
 _symmetry_equiv_pos_as_xyz
  1  'x, y, z'
loop_
 _atom_site_type_symbol
 _atom_site_label
 _atom_site_symmetry_multiplicity
 _atom_site_fract_x
 _atom_site_fract_y
 _atom_site_fract_z
 _atom_site_occupancy
 _atom_site_charge
Zn  Zn1  1  0.02490000  0.23070000  0.16446000  1.0 0.2600264139
Zn  Zn2  1  0.15195000  0.53925000  0.96360000  1.0 0.4565313942
Zn  Zn3  1  0.72520000  0.50420000  0.81074000  1.0 0.4806518591
Zn  Zn4  1  0.75299000  0.99649000  0.66383000  1.0 0.2262824699
Zn  Zn5  1  0.49591000  0.27243000  0.30558000  1.0 0.5973122007
Zn  Zn6  1  0.45991000  0.85909000  0.45439000  1.0 0.2767892665
Zn  Zn7  1  0.04330000  0.21610000  0.15560000  1.0 0.1700896508
Zn  Zn8  1  0.14210000  0.54190000  0.95800000  1.0 0.4527787155
Zn  Zn9  1  0.74100000  0.50700000  0.80690000  1.0 0.4806518591
Zn  Zn10  1  0.78690000  0.97050000  0.65880000  1.0 0.2116460389
Zn  Zn11  1  0.47850000  0.84610000  0.47060000  1.0 0.2262824699
Zn  Zn12  1  0.23070000  0.02490000  0.83554000  1.0 0.2600264139
Zn  Zn13  1  0.53925000  0.15195000  0.03640000  1.0 0.4565313942
Zn  Zn14  1  0.50420000  0.72520000  0.18926000  1.0 0.4806518591
Zn  Zn15  1  0.99649000  0.75299000  0.33617000  1.0 0.2262824699
Zn  Zn16  1  0.27243000  0.49591000  0.69442000  1.0 0.5973122007
Zn  Zn17  1  0.85909000  0.45991000  0.54561000  1.0 0.2767892665
Zn  Zn18  1  0.21610000  0.04330000  0.84440000  1.0 0.1784849054
Zn  Zn19  1  0.54190000  0.14210000  0.04200000  1.0 0.4527787155
Zn  Zn20  1  0.50700000  0.74100000  0.19310000  1.0 0.4806518591
Zn  Zn21  1  0.97050000  0.78690000  0.34120000  1.0 0.2116460389
Zn  Zn22  1  0.84610000  0.47850000  0.52940000  1.0 0.2262824699
H  H1  1  0.81140000  0.05000000  0.13500000  1.0 0.0702000672
H  H2  1  0.70020000  0.00000000  0.07420000  1.0 0.0990756345
H  H3  1  0.90880000  0.28700000  0.02060000  1.0 0.0990756345
H  H4  1  0.01590000  0.32190000  0.08040000  1.0 0.0510840702
H  H5  1  0.25340000  0.74460000  0.91450000  1.0 0.0788545416
H  H6  1  0.40380000  0.90940000  0.91350000  1.0 0.1289407796
H  H7  1  0.50110000  0.82830000  0.01970000  1.0 0.1289407796
H  H8  1  0.34570000  0.66370000  0.01710000  1.0 0.0702000672
H  H9  1  0.83990000  0.48530000  0.88680000  1.0 0.0510840702
H  H10  1  0.81880000  0.36180000  0.93790000  1.0 0.0990756345
H  H11  1  0.53580000  0.14960000  0.88020000  1.0 0.0929001188
H  H12  1  0.56450000  0.27770000  0.83250000  1.0 0.0702000672
H  H13  1  0.05080000  0.44740000  0.88550000  1.0 0.0788545416
H  H14  1  0.06700000  0.38920000  0.83860000  1.0 0.1289407796
H  H15  1  0.32700000  0.47760000  0.90510000  1.0 0.1289407796
H  H16  1  0.29490000  0.52570000  0.94990000  1.0 0.0788545416
H  H17  1  0.94340000  0.03340000  0.70220000  1.0 0.0599740737
H  H18  1  0.09180000  0.14480000  0.74770000  1.0 0.1128363765
H  H19  1  0.96990000  0.25350000  0.76340000  1.0 0.1222671068
H  H20  1  0.83140000  0.14740000  0.71800000  1.0 0.0788545416
H  H21  1  0.63950000  0.56590000  0.84380000  1.0 0.0702000672
H  H22  1  0.48720000  0.52620000  0.84370000  1.0 0.1222671068
H  H23  1  0.35290000  0.30730000  0.76940000  1.0 0.1128363765
H  H24  1  0.51660000  0.37040000  0.76620000  1.0 0.0702000672
H  H25  1  0.67610000  0.99350000  0.57600000  1.0 0.0510840702
H  H26  1  0.71610000  0.10110000  0.51670000  1.0 0.0990756345
H  H27  1  0.99870000  0.31630000  0.57360000  1.0 0.0990756345
H  H28  1  0.95020000  0.20060000  0.63160000  1.0 0.0929001188
H  H29  1  0.71860000  0.43900000  0.32820000  1.0 0.0788545416
H  H30  1  0.85140000  0.47160000  0.37860000  1.0 0.0929001188
H  H31  1  0.64440000  0.18780000  0.43300000  1.0 0.0929001188
H  H32  1  0.51870000  0.16410000  0.38250000  1.0 0.0788545416
H  H33  1  0.34010000  0.67490000  0.51470000  1.0 0.0510840702
H  H34  1  0.17050000  0.51390000  0.51880000  1.0 0.1222671068
H  H35  1  0.09300000  0.59800000  0.40580000  1.0 0.1128363765
H  H36  1  0.26300000  0.74740000  0.40290000  1.0 0.0788545416
H  H37  1  0.43010000  0.35250000  0.34300000  1.0 0.0990756345
H  H38  1  0.48830000  0.50970000  0.34900000  1.0 0.1222671068
H  H39  1  0.67420000  0.63760000  0.26210000  1.0 0.1128363765
H  H40  1  0.61030000  0.47430000  0.25770000  1.0 0.0929001188
H  H41  1  0.48920000  0.71280000  0.45310000  1.0 0.0702000672
H  H42  1  0.52690000  0.67370000  0.40210000  1.0 0.1289407796
H  H43  1  0.63480000  0.94200000  0.33940000  1.0 0.1289407796
H  H44  1  0.56600000  0.95720000  0.38260000  1.0 0.0599740737
H  H45  1  0.96710000  0.02910000  0.20390000  1.0 0.0702000672
H  H46  1  0.85420000  0.88960000  0.24690000  1.0 0.1128363765
H  H47  1  0.76590000  0.03390000  0.26170000  1.0 0.1222671068
H  H48  1  0.87590000  0.16630000  0.21620000  1.0 0.0702000672
H  H49  1  0.05000000  0.81140000  0.86500000  1.0 0.0702000672
H  H50  1  0.00000000  0.70020000  0.92580000  1.0 0.0990756345
H  H51  1  0.28700000  0.90880000  0.97940000  1.0 0.0990756345
H  H52  1  0.32190000  0.01590000  0.91960000  1.0 0.0510840702
H  H53  1  0.74460000  0.25340000  0.08550000  1.0 0.0788545416
H  H54  1  0.90940000  0.40380000  0.08650000  1.0 0.1289407796
H  H55  1  0.82830000  0.50110000  0.98030000  1.0 0.1289407796
H  H56  1  0.66370000  0.34570000  0.98290000  1.0 0.0702000672
H  H57  1  0.48530000  0.83990000  0.11320000  1.0 0.0510840702
H  H58  1  0.36180000  0.81880000  0.06210000  1.0 0.0990756345
H  H59  1  0.14960000  0.53580000  0.11980000  1.0 0.0929001188
H  H60  1  0.27770000  0.56450000  0.16750000  1.0 0.0702000672
H  H61  1  0.44740000  0.05080000  0.11450000  1.0 0.0788545416
H  H62  1  0.38920000  0.06700000  0.16140000  1.0 0.1289407796
H  H63  1  0.47760000  0.32700000  0.09490000  1.0 0.1289407796
H  H64  1  0.52570000  0.29490000  0.05010000  1.0 0.0788545416
H  H65  1  0.03340000  0.94340000  0.29780000  1.0 0.0599740737
H  H66  1  0.14480000  0.09180000  0.25230000  1.0 0.1128363765
H  H67  1  0.25350000  0.96990000  0.23660000  1.0 0.1222671068
H  H68  1  0.14740000  0.83140000  0.28200000  1.0 0.0788545416
H  H69  1  0.56590000  0.63950000  0.15620000  1.0 0.0702000672
H  H70  1  0.52620000  0.48720000  0.15630000  1.0 0.1222671068
H  H71  1  0.30730000  0.35290000  0.23060000  1.0 0.1128363765
H  H72  1  0.37040000  0.51660000  0.23380000  1.0 0.0702000672
H  H73  1  0.99350000  0.67610000  0.42400000  1.0 0.0510840702
H  H74  1  0.10110000  0.71610000  0.48330000  1.0 0.0990756345
H  H75  1  0.31630000  0.99870000  0.42640000  1.0 0.0990756345
H  H76  1  0.20060000  0.95020000  0.36840000  1.0 0.0929001188
H  H77  1  0.43900000  0.71860000  0.67180000  1.0 0.0788545416
H  H78  1  0.47160000  0.85140000  0.62140000  1.0 0.0929001188
H  H79  1  0.18780000  0.64440000  0.56700000  1.0 0.0929001188
H  H80  1  0.16410000  0.51870000  0.61750000  1.0 0.0788545416
H  H81  1  0.67490000  0.34010000  0.48530000  1.0 0.0510840702
H  H82  1  0.51390000  0.17050000  0.48120000  1.0 0.1222671068
H  H83  1  0.59800000  0.09300000  0.59420000  1.0 0.1128363765
H  H84  1  0.74740000  0.26300000  0.59710000  1.0 0.0788545416
H  H85  1  0.35250000  0.43010000  0.65700000  1.0 0.0990756345
H  H86  1  0.50970000  0.48830000  0.65100000  1.0 0.1222671068
H  H87  1  0.63760000  0.67420000  0.73790000  1.0 0.1128363765
H  H88  1  0.47430000  0.61030000  0.74230000  1.0 0.0929001188
H  H89  1  0.71280000  0.48920000  0.54690000  1.0 0.0702000672
H  H90  1  0.67370000  0.52690000  0.59790000  1.0 0.1289407796
H  H91  1  0.94200000  0.63480000  0.66060000  1.0 0.1289407796
H  H92  1  0.95720000  0.56600000  0.61740000  1.0 0.0702000672
H  H93  1  0.02910000  0.96710000  0.79610000  1.0 0.0702000672
H  H94  1  0.88960000  0.85420000  0.75310000  1.0 0.1128363765
H  H95  1  0.03390000  0.76590000  0.73830000  1.0 0.1222671068
H  H96  1  0.16630000  0.87590000  0.78380000  1.0 0.0702000672
C  C1  1  0.83180000  0.09680000  0.11100000  1.0 0.0405746965
C  C2  1  0.76380000  0.06800000  0.07510000  1.0 -0.1890258673
C  C3  1  0.78900000  0.13760000  0.04130000  1.0 0.0510840702
C  C4  1  0.88730000  0.23630000  0.04330000  1.0 -0.2015471609
C  C5  1  0.95000000  0.25600000  0.07900000  1.0 0.0038125258
C  C6  1  0.30570000  0.76170000  0.93600000  1.0 -0.0016210304
C  C7  1  0.39430000  0.86050000  0.93550000  1.0 -0.1596719757
C  C8  1  0.47040000  0.88880000  0.96740000  1.0 0.0599740737
C  C9  1  0.45080000  0.81280000  0.99740000  1.0 -0.1684185039
C  C10  1  0.35830000  0.71410000  0.99540000  1.0 0.018935792
C  C11  1  0.77770000  0.41670000  0.88610000  1.0 -0.0177534334
C  C12  1  0.76610000  0.34310000  0.91640000  1.0 -0.1890258673
C  C13  1  0.67400000  0.23920000  0.91460000  1.0 0.0510840702
C  C14  1  0.59870000  0.21750000  0.88240000  1.0 -0.1890258673
C  C15  1  0.61650000  0.29470000  0.85430000  1.0 0.0405746965
C  C16  1  0.71490000  0.11170000  0.00450000  1.0 0.3232517328
C  C17  1  0.56620000  0.99560000  0.97030000  1.0 0.314600516
C  C18  1  0.66230000  0.16110000  0.94590000  1.0 0.3278839624
C  C19  1  0.10690000  0.45110000  0.88980000  1.0 -0.0122625941
C  C20  1  0.11550000  0.41590000  0.86200000  1.0 -0.1684185039
C  C21  1  0.19470000  0.41890000  0.86780000  1.0 0.0510840702
C  C22  1  0.26660000  0.46660000  0.90080000  1.0 -0.1890258673
C  C23  1  0.24730000  0.49670000  0.92640000  1.0 0.0307212311
C  C24  1  0.94990000  0.07990000  0.71440000  1.0 0.0599740737
C  C25  1  0.03860000  0.14560000  0.74190000  1.0 -0.1596719757
C  C26  1  0.04330000  0.20910000  0.75930000  1.0 0.0599740737
C  C27  1  0.96650000  0.20970000  0.75080000  1.0 -0.1419238449
C  C28  1  0.88480000  0.14680000  0.72410000  1.0 0.0307212311
C  C29  1  0.58060000  0.51440000  0.82790000  1.0 0.0510840702
C  C30  1  0.49020000  0.48980000  0.82920000  1.0 -0.1684185039
C  C31  1  0.40400000  0.40840000  0.80810000  1.0 0.0510840702
C  C32  1  0.41130000  0.36170000  0.78440000  1.0 -0.1797697915
C  C33  1  0.50900000  0.39840000  0.78350000  1.0 0.0065426402
C  C34  1  0.20540000  0.37860000  0.83880000  1.0 0.3510348893
C  C35  1  0.13720000  0.28360000  0.78780000  1.0 0.3760975785
C  C36  1  0.30350000  0.37510000  0.81040000  1.0 0.3510348893
C  C37  1  0.74170000  0.05970000  0.57530000  1.0 -0.0177534334
C  C38  1  0.76520000  0.12300000  0.54000000  1.0 -0.1797697915
C  C39  1  0.86180000  0.22060000  0.53810000  1.0 0.0405746965
C  C40  1  0.93250000  0.25050000  0.57350000  1.0 -0.1797697915
C  C41  1  0.90240000  0.18120000  0.60790000  1.0 0.0510840702
C  C42  1  0.70390000  0.38770000  0.34980000  1.0 0.0702000672
C  C43  1  0.78380000  0.40780000  0.37970000  1.0 -0.1890258673
C  C44  1  0.75940000  0.33100000  0.41050000  1.0 0.0510840702
C  C45  1  0.66150000  0.24070000  0.41170000  1.0 -0.1797697915
C  C46  1  0.58700000  0.22680000  0.38160000  1.0 0.0599740737
C  C47  1  0.28940000  0.65700000  0.49240000  1.0 0.018935792
C  C48  1  0.18770000  0.56150000  0.49520000  1.0 -0.1489112589
C  C49  1  0.11650000  0.54030000  0.46330000  1.0 0.0510840702
C  C50  1  0.14290000  0.61130000  0.42790000  1.0 -0.1797697915
C  C51  1  0.24330000  0.70010000  0.42680000  1.0 0.0510840702
C  C52  1  0.88920000  0.29500000  0.50150000  1.0 0.3558912611
C  C53  1  0.84300000  0.35020000  0.44190000  1.0 0.3510348893
C  C54  1  0.00680000  0.44440000  0.46630000  1.0 0.3510348893
C  C55  1  0.48190000  0.41130000  0.32720000  1.0 0.0702000672
C  C56  1  0.51490000  0.50430000  0.33010000  1.0 -0.1797697915
C  C57  1  0.58650000  0.59030000  0.30580000  1.0 0.0405746965
C  C58  1  0.62440000  0.58020000  0.27900000  1.0 -0.1797697915
C  C59  1  0.58770000  0.48310000  0.27720000  1.0 0.0599740737
C  C60  1  0.51200000  0.75580000  0.42810000  1.0 0.0702000672
C  C61  1  0.54110000  0.73570000  0.39880000  1.0 -0.1596719757
C  C62  1  0.58890000  0.80650000  0.36650000  1.0 0.0510840702
C  C63  1  0.60020000  0.89060000  0.36130000  1.0 -0.1489112589
C  C64  1  0.56140000  0.90060000  0.38760000  1.0 0.0038125258
C  C65  1  0.92410000  0.02850000  0.21560000  1.0 -0.0177534334
C  C66  1  0.85810000  0.94590000  0.24120000  1.0 -0.1684185039
C  C67  1  0.79600000  0.94540000  0.25880000  1.0 0.0510840702
C  C68  1  0.80550000  0.03110000  0.24950000  1.0 -0.1797697915
C  C69  1  0.87200000  0.11000000  0.22290000  1.0 0.0405746965
C  C70  1  0.62470000  0.69190000  0.30900000  1.0 0.3232517328
C  C71  1  0.62620000  0.79140000  0.33750000  1.0 0.3510348893
C  C72  1  0.72500000  0.85900000  0.28700000  1.0 0.3232517328
C  C73  1  0.09680000  0.83180000  0.88900000  1.0 0.0405746965
C  C74  1  0.06800000  0.76380000  0.92490000  1.0 -0.1890258673
C  C75  1  0.13760000  0.78900000  0.95870000  1.0 0.0510840702
C  C76  1  0.23630000  0.88730000  0.95670000  1.0 -0.2015471609
C  C77  1  0.25600000  0.95000000  0.92100000  1.0 0.0038125258
C  C78  1  0.76170000  0.30570000  0.06400000  1.0 -0.0016210304
C  C79  1  0.86050000  0.39430000  0.06450000  1.0 -0.1596719757
C  C80  1  0.88880000  0.47040000  0.03260000  1.0 0.0599740737
C  C81  1  0.81280000  0.45080000  0.00260000  1.0 -0.1684185039
C  C82  1  0.71410000  0.35830000  0.00460000  1.0 0.018935792
C  C83  1  0.41670000  0.77770000  0.11390000  1.0 -0.0177534334
C  C84  1  0.34310000  0.76610000  0.08360000  1.0 -0.1890258673
C  C85  1  0.23920000  0.67400000  0.08540000  1.0 0.0510840702
C  C86  1  0.21750000  0.59870000  0.11760000  1.0 -0.1890258673
C  C87  1  0.29470000  0.61650000  0.14570000  1.0 0.0405746965
C  C88  1  0.11170000  0.71490000  0.99550000  1.0 0.3232517328
C  C89  1  0.99560000  0.56620000  0.02970000  1.0 0.314600516
C  C90  1  0.16110000  0.66230000  0.05410000  1.0 0.3278839624
C  C91  1  0.45110000  0.10690000  0.11020000  1.0 -0.0122625941
C  C92  1  0.41590000  0.11550000  0.13800000  1.0 -0.1596719757
C  C93  1  0.41890000  0.19470000  0.13220000  1.0 0.0510840702
C  C94  1  0.46660000  0.26660000  0.09920000  1.0 -0.1890258673
C  C95  1  0.49670000  0.24730000  0.07360000  1.0 0.0307212311
C  C96  1  0.07990000  0.94990000  0.28560000  1.0 0.0599740737
C  C97  1  0.14560000  0.03860000  0.25810000  1.0 -0.1596719757
C  C98  1  0.20910000  0.04330000  0.24070000  1.0 0.0510840702
C  C99  1  0.20970000  0.96650000  0.24920000  1.0 -0.1419238449
C  C100  1  0.14680000  0.88480000  0.27590000  1.0 0.0307212311
C  C101  1  0.51440000  0.58060000  0.17210000  1.0 0.0510840702
C  C102  1  0.48980000  0.49020000  0.17080000  1.0 -0.1684185039
C  C103  1  0.40840000  0.40400000  0.19190000  1.0 0.0510840702
C  C104  1  0.36170000  0.41130000  0.21560000  1.0 -0.1797697915
C  C105  1  0.39840000  0.50900000  0.21650000  1.0 0.0065426402
C  C106  1  0.37860000  0.20540000  0.16120000  1.0 0.3510348893
C  C107  1  0.28360000  0.13720000  0.21220000  1.0 0.3760975785
C  C108  1  0.37510000  0.30350000  0.18960000  1.0 0.3510348893
C  C109  1  0.05970000  0.74170000  0.42470000  1.0 -0.0177534334
C  C110  1  0.12300000  0.76520000  0.46000000  1.0 -0.1797697915
C  C111  1  0.22060000  0.86180000  0.46190000  1.0 0.0405746965
C  C112  1  0.25050000  0.93250000  0.42650000  1.0 -0.1797697915
C  C113  1  0.18120000  0.90240000  0.39210000  1.0 0.0510840702
C  C114  1  0.38770000  0.70390000  0.65020000  1.0 0.0788545416
C  C115  1  0.40780000  0.78380000  0.62030000  1.0 -0.1890258673
C  C116  1  0.33100000  0.75940000  0.58950000  1.0 0.0510840702
C  C117  1  0.24070000  0.66150000  0.58830000  1.0 -0.1797697915
C  C118  1  0.22680000  0.58700000  0.61840000  1.0 0.0599740737
C  C119  1  0.65700000  0.28940000  0.50760000  1.0 0.018935792
C  C120  1  0.56150000  0.18770000  0.50480000  1.0 -0.1489112589
C  C121  1  0.54030000  0.11650000  0.53670000  1.0 0.0510840702
C  C122  1  0.61130000  0.14290000  0.57210000  1.0 -0.1797697915
C  C123  1  0.70010000  0.24330000  0.57320000  1.0 0.0510840702
C  C124  1  0.29500000  0.88920000  0.49850000  1.0 0.3558912611
C  C125  1  0.35020000  0.84300000  0.55810000  1.0 0.3510348893
C  C126  1  0.44440000  0.00680000  0.53370000  1.0 0.3510348893
C  C127  1  0.41130000  0.48190000  0.67280000  1.0 0.0702000672
C  C128  1  0.50430000  0.51490000  0.66990000  1.0 -0.1797697915
C  C129  1  0.59030000  0.58650000  0.69420000  1.0 0.0405746965
C  C130  1  0.58020000  0.62440000  0.72100000  1.0 -0.1890258673
C  C131  1  0.48310000  0.58770000  0.72280000  1.0 0.0599740737
C  C132  1  0.75580000  0.51200000  0.57190000  1.0 0.0702000672
C  C133  1  0.73570000  0.54110000  0.60120000  1.0 -0.1596719757
C  C134  1  0.80650000  0.58890000  0.63350000  1.0 0.0510840702
C  C135  1  0.89060000  0.60020000  0.63870000  1.0 -0.1489112589
C  C136  1  0.90060000  0.56140000  0.61240000  1.0 0.0038125258
C  C137  1  0.02850000  0.92410000  0.78440000  1.0 -0.0177534334
C  C138  1  0.94590000  0.85810000  0.75880000  1.0 -0.1684185039
C  C139  1  0.94540000  0.79600000  0.74120000  1.0 0.0510840702
C  C140  1  0.03110000  0.80550000  0.75050000  1.0 -0.1797697915
C  C141  1  0.11000000  0.87200000  0.77710000  1.0 0.0405746965
C  C142  1  0.69190000  0.62470000  0.69100000  1.0 0.3232517328
C  C143  1  0.79140000  0.62620000  0.66250000  1.0 0.3510348893
C  C144  1  0.85900000  0.72500000  0.71300000  1.0 0.3232517328
N  N1  1  0.92430000  0.18870000  0.11170000  1.0 -0.1890258673
N  N2  1  0.28660000  0.68720000  0.96440000  1.0 -0.290692974
N  N3  1  0.70200000  0.39280000  0.85520000  1.0 -0.290692974
N  N4  1  0.63420000  0.01520000  0.00190000  1.0 -0.4548345619
N  N5  1  0.57360000  0.06500000  0.94030000  1.0 -0.5104976409
N  N6  1  0.73250000  0.18990000  0.97760000  1.0 -0.4882557604
N  N7  1  0.17190000  0.49010000  0.92220000  1.0 -0.2594373339
N  N8  1  0.87800000  0.08320000  0.70580000  1.0 -0.2015471609
N  N9  1  0.59110000  0.47090000  0.80590000  1.0 -0.3087095135
N  N10  1  0.12290000  0.31490000  0.81320000  1.0 -0.4172131979
N  N11  1  0.22450000  0.30850000  0.78370000  1.0 -0.4882557604
N  N12  1  0.29610000  0.40590000  0.83930000  1.0 -0.4287318462
N  N13  1  0.80880000  0.08740000  0.61010000  1.0 -0.2200297826
N  N14  1  0.60980000  0.29960000  0.35140000  1.0 -0.2015471609
N  N15  1  0.31300000  0.72160000  0.45800000  1.0 -0.2200297826
N  N16  1  0.81480000  0.27720000  0.47440000  1.0 -0.440873366
N  N17  1  0.93780000  0.43280000  0.43730000  1.0 -0.4287318462
N  N18  1  0.98930000  0.37770000  0.49910000  1.0 -0.4620164209
N  N19  1  0.52140000  0.40260000  0.30260000  1.0 -0.2200297826
N  N20  1  0.51730000  0.83250000  0.42030000  1.0 -0.2015471609
N  N21  1  0.93140000  0.11120000  0.20590000  1.0 -0.228931786
N  N22  1  0.59030000  0.69930000  0.33700000  1.0 -0.4287318462
N  N23  1  0.69400000  0.87600000  0.31320000  1.0 -0.4620164209
N  N24  1  0.69070000  0.76850000  0.28310000  1.0 -0.4801795297
N  N25  1  0.18870000  0.92430000  0.88830000  1.0 -0.1890258673
N  N26  1  0.68720000  0.28660000  0.03560000  1.0 -0.290692974
N  N27  1  0.39280000  0.70200000  0.14480000  1.0 -0.290692974
N  N28  1  0.01520000  0.63420000  0.99810000  1.0 -0.4620164209
N  N29  1  0.06500000  0.57360000  0.05970000  1.0 -0.5104976409
N  N30  1  0.18990000  0.73250000  0.02240000  1.0 -0.4882557604
N  N31  1  0.49010000  0.17190000  0.07780000  1.0 -0.2594373339
N  N32  1  0.08320000  0.87800000  0.29420000  1.0 -0.2015471609
N  N33  1  0.47090000  0.59110000  0.19410000  1.0 -0.3087095135
N  N34  1  0.31490000  0.12290000  0.18680000  1.0 -0.4172131979
N  N35  1  0.30850000  0.22450000  0.21630000  1.0 -0.4953729921
N  N36  1  0.40590000  0.29610000  0.16070000  1.0 -0.4287318462
N  N37  1  0.08740000  0.80880000  0.38990000  1.0 -0.2200297826
N  N38  1  0.29960000  0.60980000  0.64860000  1.0 -0.2015471609
N  N39  1  0.72160000  0.31300000  0.54200000  1.0 -0.2200297826
N  N40  1  0.27720000  0.81480000  0.52560000  1.0 -0.440873366
N  N41  1  0.43280000  0.93780000  0.56270000  1.0 -0.4287318462
N  N42  1  0.37770000  0.98930000  0.50090000  1.0 -0.4620164209
N  N43  1  0.40260000  0.52140000  0.69740000  1.0 -0.228931786
N  N44  1  0.83250000  0.51730000  0.57970000  1.0 -0.2015471609
N  N45  1  0.11120000  0.93140000  0.79410000  1.0 -0.228931786
N  N46  1  0.69930000  0.59030000  0.66300000  1.0 -0.440873366
N  N47  1  0.87600000  0.69400000  0.68680000  1.0 -0.4620164209
N  N48  1  0.76850000  0.69070000  0.71690000  1.0 -0.4801795297
Cl  Cl1  1  0.13240000  0.21640000  0.15650000  1.0 0.0405746965
Cl  Cl2  1  0.06960000  0.36780000  0.18170000  1.0 0.0599740737
Cl  Cl3  1  0.15160000  0.46720000  0.02590000  1.0 0.0599740737
Cl  Cl4  1  0.02813000  0.53827000  0.93440000  1.0 0.0065426402
Cl  Cl5  1  0.84680000  0.65020000  0.83780000  1.0 -0.1489112589
Cl  Cl6  1  0.72610000  0.46550000  0.75340000  1.0 0.0510840702
Cl  Cl7  1  0.72150000  0.85570000  0.66541000  1.0 -0.0479742345
Cl  Cl8  1  0.63829000  0.00311000  0.67169000  1.0 -0.083237663
Cl  Cl9  1  0.54544000  0.28656000  0.24841000  1.0 -0.5340607875
Cl  Cl10  1  0.35197000  0.14483000  0.33363000  1.0 -0.5340607875
Cl  Cl11  1  0.45740000  0.97640000  0.41770000  1.0 0.0405746965
Cl  Cl12  1  0.53100000  0.87280000  0.51760000  1.0 0.0405746965
Cl  Cl13  1  0.13900000  0.18500000  0.15000000  1.0 0.0599740737
Cl  Cl14  1  0.10900000  0.36500000  0.17100000  1.0 -0.0177534334
Cl  Cl15  1  0.12500000  0.47300000  0.02200000  1.0 0.0599740737
Cl  Cl16  1  0.04300000  0.55100000  0.90700000  1.0 0.0307212311
Cl  Cl17  1  0.85600000  0.63800000  0.83800000  1.0 -0.1318294146
Cl  Cl18  1  0.76000000  0.49000000  0.76200000  1.0 0.0307212311
Cl  Cl19  1  0.81620000  0.88180000  0.64280000  1.0 -0.1419238449
Cl  Cl20  1  0.64340000  0.91660000  0.67780000  1.0 -0.0630646908
Cl  Cl21  1  0.54290000  0.83090000  0.53220000  1.0 0.0307212311
Cl  Cl22  1  0.49060000  0.97620000  0.44510000  1.0 -0.0016210304
Cl  Cl23  1  0.21640000  0.13240000  0.84350000  1.0 0.0405746965
Cl  Cl24  1  0.36780000  0.06960000  0.81830000  1.0 0.0510840702
Cl  Cl25  1  0.46720000  0.15160000  0.97410000  1.0 0.0599740737
Cl  Cl26  1  0.53827000  0.02813000  0.06560000  1.0 0.0065426402
Cl  Cl27  1  0.65020000  0.84680000  0.16220000  1.0 -0.1489112589
Cl  Cl28  1  0.46550000  0.72610000  0.24660000  1.0 0.0510840702
Cl  Cl29  1  0.85570000  0.72150000  0.33459000  1.0 -0.0479742345
Cl  Cl30  1  0.00311000  0.63829000  0.32831000  1.0 -0.083237663
Cl  Cl31  1  0.28656000  0.54544000  0.75159000  1.0 -0.5340607875
Cl  Cl32  1  0.14483000  0.35197000  0.66637000  1.0 -0.5340607875
Cl  Cl33  1  0.97640000  0.45740000  0.58230000  1.0 0.0405746965
Cl  Cl34  1  0.87280000  0.53100000  0.48240000  1.0 0.0405746965
Cl  Cl35  1  0.18500000  0.13900000  0.85000000  1.0 0.0599740737
Cl  Cl36  1  0.36500000  0.10900000  0.82900000  1.0 -0.0177534334
Cl  Cl37  1  0.47300000  0.12500000  0.97800000  1.0 0.0599740737
Cl  Cl38  1  0.55100000  0.04300000  0.09300000  1.0 0.0307212311
Cl  Cl39  1  0.63800000  0.85600000  0.16200000  1.0 -0.1318294146
Cl  Cl40  1  0.49000000  0.76000000  0.23800000  1.0 0.0307212311
Cl  Cl41  1  0.88180000  0.81620000  0.35720000  1.0 -0.1419238449
Cl  Cl42  1  0.91660000  0.64340000  0.32220000  1.0 -0.0630646908
Cl  Cl43  1  0.83090000  0.54290000  0.46780000  1.0 0.0307212311
Cl  Cl44  1  0.97620000  0.49060000  0.55490000  1.0 -0.0016210304
