# DDEC6 charges by PACMAN v1.1 (https://github.com/mtap-research/PACMAN-charge/)
data_VUMBOW_FSR_pacman
_symmetry_space_group_name_H-M   'P 1'
_cell_length_a   17.32130000
_cell_length_b   17.32130000
_cell_length_c   20.59100000
_cell_angle_alpha   90.00000000
_cell_angle_beta   90.00000000
_cell_angle_gamma   153.47300000
_symmetry_Int_Tables_number   1
_chemical_formula_structural   Cu2P3H19C18N2O11
_chemical_formula_sum   'Cu8 P12 H76 C72 N8 O44'
_cell_volume   2759.15487403
_cell_formula_units_Z   4
loop_
 _symmetry_equiv_pos_site_id
 _symmetry_equiv_pos_as_xyz
  1  'x, y, z'
loop_
 _atom_site_type_symbol
 _atom_site_label
 _atom_site_symmetry_multiplicity
 _atom_site_fract_x
 _atom_site_fract_y
 _atom_site_fract_z
 _atom_site_occupancy
 _atom_site_charge
Cu  Cu1  1  0.38791000  0.27839000  0.05044000  1.0 0.9432063243
Cu  Cu2  1  0.11209000  0.22161000  0.55044000  1.0 0.9432063243
Cu  Cu3  1  0.72161000  0.61209000  0.94956000  1.0 0.9432063243
Cu  Cu4  1  0.77839000  0.88791000  0.44956000  1.0 0.9432063243
Cu  Cu5  1  0.61209000  0.72161000  0.94956000  1.0 0.9432063243
Cu  Cu6  1  0.88791000  0.77839000  0.44956000  1.0 0.9432063243
Cu  Cu7  1  0.27839000  0.38791000  0.05044000  1.0 0.9432063243
Cu  Cu8  1  0.22161000  0.11209000  0.55044000  1.0 0.9432063243
P  P1  1  0.35633000  0.19543000  0.20077000  1.0 1.2663264565
P  P2  1  0.14367000  0.30457000  0.70077000  1.0 1.2663264565
P  P3  1  0.80457000  0.64367000  0.79923000  1.0 1.2663264565
P  P4  1  0.69543000  0.85633000  0.29923000  1.0 1.2663264565
P  P5  1  0.64367000  0.80457000  0.79923000  1.0 1.2663264565
P  P6  1  0.85633000  0.69543000  0.29923000  1.0 1.2663264565
P  P7  1  0.19543000  0.35633000  0.20077000  1.0 1.2663264565
P  P8  1  0.30457000  0.14367000  0.70077000  1.0 1.2663264565
P  P9  1  0.12468000  0.12468000  0.42989000  1.0 1.2338859281
P  P10  1  0.37532000  0.37532000  0.92989000  1.0 1.2338859281
P  P11  1  0.87532000  0.87532000  0.57011000  1.0 1.2338859281
P  P12  1  0.62468000  0.62468000  0.07011000  1.0 1.2338859281
H  H1  1  0.28290000  0.07550000  0.94380000  1.0 0.1314784553
H  H2  1  0.21710000  0.42450000  0.44380000  1.0 0.1314784553
H  H3  1  0.92450000  0.71710000  0.05620000  1.0 0.1314784553
H  H4  1  0.57550000  0.78290000  0.55620000  1.0 0.1314784553
H  H5  1  0.71710000  0.92450000  0.05620000  1.0 0.1314784553
H  H6  1  0.78290000  0.57550000  0.55620000  1.0 0.1314784553
H  H7  1  0.07550000  0.28290000  0.94380000  1.0 0.1314784553
H  H8  1  0.42450000  0.21710000  0.44380000  1.0 0.1314784553
H  H9  1  0.30260000  0.96160000  0.91890000  1.0 0.1406898043
H  H10  1  0.19740000  0.53840000  0.41890000  1.0 0.1406898043
H  H11  1  0.03840000  0.69740000  0.08110000  1.0 0.1406898043
H  H12  1  0.46160000  0.80260000  0.58110000  1.0 0.1406898043
H  H13  1  0.69740000  0.03840000  0.08110000  1.0 0.1406898043
H  H14  1  0.80260000  0.46160000  0.58110000  1.0 0.1406898043
H  H15  1  0.96160000  0.30260000  0.91890000  1.0 0.1406898043
H  H16  1  0.53840000  0.19740000  0.41890000  1.0 0.1406898043
H  H17  1  0.57810000  0.17630000  0.08200000  1.0 0.1314784553
H  H18  1  0.92190000  0.32370000  0.58200000  1.0 0.1314784553
H  H19  1  0.82370000  0.42190000  0.91800000  1.0 0.1314784553
H  H20  1  0.67630000  0.07810000  0.41800000  1.0 0.1314784553
H  H21  1  0.42190000  0.82370000  0.91800000  1.0 0.1314784553
H  H22  1  0.07810000  0.67630000  0.41800000  1.0 0.1314784553
H  H23  1  0.17630000  0.57810000  0.08200000  1.0 0.1314784553
H  H24  1  0.32370000  0.92190000  0.58200000  1.0 0.1314784553
H  H25  1  0.55370000  0.28610000  0.10400000  1.0 0.1217721096
H  H26  1  0.94630000  0.21390000  0.60400000  1.0 0.1217721096
H  H27  1  0.71390000  0.44630000  0.89600000  1.0 0.1217721096
H  H28  1  0.78610000  0.05370000  0.39600000  1.0 0.1217721096
H  H29  1  0.44630000  0.71390000  0.89600000  1.0 0.1217721096
H  H30  1  0.05370000  0.78610000  0.39600000  1.0 0.1217721096
H  H31  1  0.28610000  0.55370000  0.10400000  1.0 0.1217721096
H  H32  1  0.21390000  0.94630000  0.60400000  1.0 0.1217721096
H  H33  1  0.29420000  0.29420000  0.17000000  1.0 0.1217721096
H  H34  1  0.20580000  0.20580000  0.67000000  1.0 0.1217721096
H  H35  1  0.70580000  0.70580000  0.83000000  1.0 0.1217721096
H  H36  1  0.79420000  0.79420000  0.33000000  1.0 0.1217721096
H  H37  1  0.25890000  0.13870000  0.33610000  1.0 0.1314784553
H  H38  1  0.24110000  0.36130000  0.83610000  1.0 0.1314784553
H  H39  1  0.86130000  0.74110000  0.66390000  1.0 0.1314784553
H  H40  1  0.63870000  0.75890000  0.16390000  1.0 0.1314784553
H  H41  1  0.74110000  0.86130000  0.66390000  1.0 0.1314784553
H  H42  1  0.75890000  0.63870000  0.16390000  1.0 0.1314784553
H  H43  1  0.13870000  0.25890000  0.33610000  1.0 0.1314784553
H  H44  1  0.36130000  0.24110000  0.83610000  1.0 0.1314784553
H  H45  1  0.43800000  0.96000000  0.93740000  1.0 0.1217721096
H  H46  1  0.06200000  0.54000000  0.43740000  1.0 0.1217721096
H  H47  1  0.04000000  0.56200000  0.06260000  1.0 0.1217721096
H  H48  1  0.46000000  0.93800000  0.56260000  1.0 0.1217721096
H  H49  1  0.56200000  0.04000000  0.06260000  1.0 0.1217721096
H  H50  1  0.93800000  0.46000000  0.56260000  1.0 0.1217721096
H  H51  1  0.96000000  0.43800000  0.93740000  1.0 0.1217721096
H  H52  1  0.54000000  0.06200000  0.43740000  1.0 0.1217721096
H  H53  1  0.12280000  0.91920000  0.20400000  1.0 0.4001183874
H  H54  1  0.37720000  0.58080000  0.70400000  1.0 0.4001183874
H  H55  1  0.08080000  0.87720000  0.79600000  1.0 0.4001183874
H  H56  1  0.41920000  0.62280000  0.29600000  1.0 0.4001183874
H  H57  1  0.87720000  0.08080000  0.79600000  1.0 0.4001183874
H  H58  1  0.62280000  0.41920000  0.29600000  1.0 0.4001183874
H  H59  1  0.91920000  0.12280000  0.20400000  1.0 0.4001183874
H  H60  1  0.58080000  0.37720000  0.70400000  1.0 0.4001183874
H  H61  1  0.09640000  0.99160000  0.11260000  1.0 0.3679325609
H  H62  1  0.40360000  0.50840000  0.61260000  1.0 0.3679325609
H  H63  1  0.00840000  0.90360000  0.88740000  1.0 0.3679325609
H  H64  1  0.49160000  0.59640000  0.38740000  1.0 0.3679325609
H  H65  1  0.90360000  0.00840000  0.88740000  1.0 0.3679325609
H  H66  1  0.59640000  0.49160000  0.38740000  1.0 0.3679325609
H  H67  1  0.99160000  0.09640000  0.11260000  1.0 0.3679325609
H  H68  1  0.50840000  0.40360000  0.61260000  1.0 0.3679325609
H  H69  1  0.05950000  0.03450000  0.07500000  1.0 0.3331292375
H  H70  1  0.44050000  0.46550000  0.57500000  1.0 0.3331292375
H  H71  1  0.96550000  0.94050000  0.92500000  1.0 0.3331292375
H  H72  1  0.53450000  0.55950000  0.42500000  1.0 0.3331292375
H  H73  1  0.94050000  0.96550000  0.92500000  1.0 0.3331292375
H  H74  1  0.55950000  0.53450000  0.42500000  1.0 0.3331292375
H  H75  1  0.03450000  0.05950000  0.07500000  1.0 0.3331292375
H  H76  1  0.46550000  0.44050000  0.57500000  1.0 0.3331292375
C  C1  1  0.34381000  0.09659000  0.97224000  1.0 0.1027905309
C  C2  1  0.15619000  0.40341000  0.47224000  1.0 0.1027905309
C  C3  1  0.90341000  0.65619000  0.02776000  1.0 0.1027905309
C  C4  1  0.59659000  0.84381000  0.52776000  1.0 0.1027905309
C  C5  1  0.65619000  0.90341000  0.02776000  1.0 0.1027905309
C  C6  1  0.84381000  0.59659000  0.52776000  1.0 0.1027905309
C  C7  1  0.09659000  0.34381000  0.97224000  1.0 0.1027905309
C  C8  1  0.40341000  0.15619000  0.47224000  1.0 0.1027905309
C  C9  1  0.35487000  0.02853000  0.95700000  1.0 -0.2038998091
C  C10  1  0.14513000  0.47147000  0.45700000  1.0 -0.2038998091
C  C11  1  0.97147000  0.64513000  0.04300000  1.0 -0.2038998091
C  C12  1  0.52853000  0.85487000  0.54300000  1.0 -0.2038998091
C  C13  1  0.64513000  0.97147000  0.04300000  1.0 -0.2038998091
C  C14  1  0.85487000  0.52853000  0.54300000  1.0 -0.2038998091
C  C15  1  0.02853000  0.35487000  0.95700000  1.0 -0.2038998091
C  C16  1  0.47147000  0.14513000  0.45700000  1.0 -0.2038998091
C  C17  1  0.44218000  0.05662000  0.99800000  1.0 0.1542983345
C  C18  1  0.05782000  0.44338000  0.49800000  1.0 0.1542983345
C  C19  1  0.94338000  0.55782000  0.00200000  1.0 0.1542983345
C  C20  1  0.55662000  0.94218000  0.50200000  1.0 0.1542983345
C  C21  1  0.55782000  0.94338000  0.00200000  1.0 0.1542983345
C  C22  1  0.94218000  0.55662000  0.50200000  1.0 0.1542983345
C  C23  1  0.05662000  0.44218000  0.99800000  1.0 0.1542983345
C  C24  1  0.44338000  0.05782000  0.49800000  1.0 0.1542983345
C  C25  1  0.51719000  0.15521000  0.05350000  1.0 -0.2038998091
C  C26  1  0.98281000  0.34479000  0.55350000  1.0 -0.2038998091
C  C27  1  0.84479000  0.48281000  0.94650000  1.0 -0.2038998091
C  C28  1  0.65521000  0.01719000  0.44650000  1.0 -0.2038998091
C  C29  1  0.48281000  0.84479000  0.94650000  1.0 -0.2038998091
C  C30  1  0.01719000  0.65521000  0.44650000  1.0 -0.2038998091
C  C31  1  0.15521000  0.51719000  0.05350000  1.0 -0.2038998091
C  C32  1  0.34479000  0.98281000  0.55350000  1.0 -0.2038998091
C  C33  1  0.50141000  0.21919000  0.06590000  1.0 0.0919186911
C  C34  1  0.99859000  0.28081000  0.56590000  1.0 0.0919186911
C  C35  1  0.78081000  0.49859000  0.93410000  1.0 0.0919186911
C  C36  1  0.71919000  0.00141000  0.43410000  1.0 0.0919186911
C  C37  1  0.49859000  0.78081000  0.93410000  1.0 0.0919186911
C  C38  1  0.00141000  0.71919000  0.43410000  1.0 0.0919186911
C  C39  1  0.21919000  0.50141000  0.06590000  1.0 0.0919186911
C  C40  1  0.28081000  0.99859000  0.56590000  1.0 0.0919186911
C  C41  1  0.45936000  0.98944000  0.98200000  1.0 -0.1540898652
C  C42  1  0.04064000  0.51056000  0.48200000  1.0 -0.1540898652
C  C43  1  0.01056000  0.54064000  0.01800000  1.0 -0.1540898652
C  C44  1  0.48944000  0.95936000  0.51800000  1.0 -0.1540898652
C  C45  1  0.54064000  0.01056000  0.01800000  1.0 -0.1540898652
C  C46  1  0.95936000  0.48944000  0.51800000  1.0 -0.1540898652
C  C47  1  0.98944000  0.45936000  0.98200000  1.0 -0.1540898652
C  C48  1  0.51056000  0.04064000  0.48200000  1.0 -0.1540898652
C  C49  1  0.28679000  0.21501000  0.24748000  1.0 -0.1803008177
C  C50  1  0.21321000  0.28499000  0.74748000  1.0 -0.1803008177
C  C51  1  0.78499000  0.71321000  0.75252000  1.0 -0.1803008177
C  C52  1  0.71501000  0.78679000  0.25252000  1.0 -0.1803008177
C  C53  1  0.71321000  0.78499000  0.75252000  1.0 -0.1803008177
C  C54  1  0.78679000  0.71501000  0.25252000  1.0 -0.1803008177
C  C55  1  0.21501000  0.28679000  0.24748000  1.0 -0.1803008177
C  C56  1  0.28499000  0.21321000  0.74748000  1.0 -0.1803008177
C  C57  1  0.26940000  0.26940000  0.21510000  1.0 -0.0632758224
C  C58  1  0.23060000  0.23060000  0.71510000  1.0 -0.0632758224
C  C59  1  0.73060000  0.73060000  0.78490000  1.0 -0.0632758224
C  C60  1  0.76940000  0.76940000  0.28490000  1.0 -0.0632758224
C  C61  1  0.24822000  0.17658000  0.31373000  1.0 -0.047548701
C  C62  1  0.25178000  0.32342000  0.81373000  1.0 -0.047548701
C  C63  1  0.82342000  0.75178000  0.68627000  1.0 -0.047548701
C  C64  1  0.67658000  0.74822000  0.18627000  1.0 -0.047548701
C  C65  1  0.75178000  0.82342000  0.68627000  1.0 -0.047548701
C  C66  1  0.74822000  0.67658000  0.18627000  1.0 -0.047548701
C  C67  1  0.17658000  0.24822000  0.31373000  1.0 -0.047548701
C  C68  1  0.32342000  0.25178000  0.81373000  1.0 -0.047548701
C  C69  1  0.19300000  0.19300000  0.34670000  1.0 -0.1391276577
C  C70  1  0.30700000  0.30700000  0.84670000  1.0 -0.1391276577
C  C71  1  0.80700000  0.80700000  0.65330000  1.0 -0.1391276577
C  C72  1  0.69300000  0.69300000  0.15330000  1.0 -0.1391276577
N  N1  1  0.41518000  0.19042000  0.02601000  1.0 -0.2414668509
N  N2  1  0.08482000  0.30958000  0.52601000  1.0 -0.2414668509
N  N3  1  0.80958000  0.58482000  0.97399000  1.0 -0.2414668509
N  N4  1  0.69042000  0.91518000  0.47399000  1.0 -0.2414668509
N  N5  1  0.58482000  0.80958000  0.97399000  1.0 -0.2414668509
N  N6  1  0.91518000  0.69042000  0.47399000  1.0 -0.2414668509
N  N7  1  0.19042000  0.41518000  0.02601000  1.0 -0.2414668509
N  N8  1  0.30958000  0.08482000  0.52601000  1.0 -0.2414668509
O  O1  1  0.44022000  0.30118000  0.13967000  1.0 -0.7716237315
O  O2  1  0.05978000  0.19882000  0.63967000  1.0 -0.7716237315
O  O3  1  0.69882000  0.55978000  0.86033000  1.0 -0.7716237315
O  O4  1  0.80118000  0.94022000  0.36033000  1.0 -0.7716237315
O  O5  1  0.55978000  0.69882000  0.86033000  1.0 -0.7716237315
O  O6  1  0.94022000  0.80118000  0.36033000  1.0 -0.7716237315
O  O7  1  0.30118000  0.44022000  0.13967000  1.0 -0.7716237315
O  O8  1  0.19882000  0.05978000  0.63967000  1.0 -0.7716237315
O  O9  1  0.18778000  0.00102000  0.17795000  1.0 -0.6434559384
O  O10  1  0.31222000  0.49898000  0.67795000  1.0 -0.6434559384
O  O11  1  0.99898000  0.81222000  0.82205000  1.0 -0.6434559384
O  O12  1  0.50102000  0.68778000  0.32205000  1.0 -0.6434559384
O  O13  1  0.81222000  0.99898000  0.82205000  1.0 -0.6434559384
O  O14  1  0.68778000  0.50102000  0.32205000  1.0 -0.6434559384
O  O15  1  0.00102000  0.18778000  0.17795000  1.0 -0.6434559384
O  O16  1  0.49898000  0.31222000  0.67795000  1.0 -0.6434559384
O  O17  1  0.46892000  0.24568000  0.24241000  1.0 -0.7305401274
O  O18  1  0.03108000  0.25432000  0.74241000  1.0 -0.7305401274
O  O19  1  0.75432000  0.53108000  0.75759000  1.0 -0.7305401274
O  O20  1  0.74568000  0.96892000  0.25759000  1.0 -0.7305401274
O  O21  1  0.53108000  0.75432000  0.75759000  1.0 -0.7305401274
O  O22  1  0.96892000  0.74568000  0.25759000  1.0 -0.7305401274
O  O23  1  0.24568000  0.46892000  0.24241000  1.0 -0.7305401274
O  O24  1  0.25432000  0.03108000  0.74241000  1.0 -0.7305401274
O  O25  1  0.92860000  0.92860000  0.43059000  1.0 -0.7396591761
O  O26  1  0.57140000  0.57140000  0.93059000  1.0 -0.7396591761
O  O27  1  0.07140000  0.07140000  0.56941000  1.0 -0.7396591761
O  O28  1  0.42860000  0.42860000  0.06941000  1.0 -0.7396591761
O  O29  1  0.14872000  0.22548000  0.46008000  1.0 -0.7586985462
O  O30  1  0.35128000  0.27452000  0.96008000  1.0 -0.7586985462
O  O31  1  0.77452000  0.85128000  0.53992000  1.0 -0.7586985462
O  O32  1  0.72548000  0.64872000  0.03992000  1.0 -0.7586985462
O  O33  1  0.85128000  0.77452000  0.53992000  1.0 -0.7586985462
O  O34  1  0.64872000  0.72548000  0.03992000  1.0 -0.7586985462
O  O35  1  0.22548000  0.14872000  0.46008000  1.0 -0.7586985462
O  O36  1  0.27452000  0.35128000  0.96008000  1.0 -0.7586985462
O  O37  1  0.10076000  0.01904000  0.06995000  1.0 -0.7096634069
O  O38  1  0.39924000  0.48096000  0.56995000  1.0 -0.7096634069
O  O39  1  0.98096000  0.89924000  0.93005000  1.0 -0.7096634069
O  O40  1  0.51904000  0.60076000  0.43005000  1.0 -0.7096634069
O  O41  1  0.89924000  0.98096000  0.93005000  1.0 -0.7096634069
O  O42  1  0.60076000  0.51904000  0.43005000  1.0 -0.7096634069
O  O43  1  0.01904000  0.10076000  0.06995000  1.0 -0.7096634069
O  O44  1  0.48096000  0.39924000  0.56995000  1.0 -0.7096634069
