# DDEC6 charges by PACMAN v1.1 (https://github.com/mtap-research/PACMAN-charge/)
data_VUMPOL_FSR_pacman
_symmetry_space_group_name_H-M   'P 1'
_cell_length_a   7.19830000
_cell_length_b   24.14190000
_cell_length_c   11.84440000
_cell_angle_alpha   90.00000000
_cell_angle_beta   92.53000000
_cell_angle_gamma   90.00000000
_symmetry_Int_Tables_number   1
_chemical_formula_structural   La3H8C24S4O31
_chemical_formula_sum   'La6 H16 C48 S8 O62'
_cell_volume   2056.32103411
_cell_formula_units_Z   2
loop_
 _symmetry_equiv_pos_site_id
 _symmetry_equiv_pos_as_xyz
  1  'x, y, z'
loop_
 _atom_site_type_symbol
 _atom_site_label
 _atom_site_symmetry_multiplicity
 _atom_site_fract_x
 _atom_site_fract_y
 _atom_site_fract_z
 _atom_site_occupancy
 _atom_site_charge
La  La1  1  0.28690000  0.66666667  0.57989000  1.0 1.9773800743
La  La2  1  0.45589000  0.51115000  0.75840000  1.0 2.0047496928
La  La3  1  0.77855000  0.38622000  0.94559000  1.0 1.950163461
La  La4  1  0.71310000  0.16661000  0.42011000  1.0 1.9773800743
La  La5  1  0.54411000  0.01115000  0.24160000  1.0 2.0047496928
La  La6  1  0.22145000  0.88622000  0.05441000  1.0 1.950163461
H  H1  1  0.97790000  0.34113000  0.60377000  1.0 0.1430870516
H  H2  1  0.96119000  0.31589000  0.41931000  1.0 0.1530771605
H  H3  1  0.81074000  0.47706000  0.22190000  1.0 0.1583928687
H  H4  1  0.84909000  0.59741000  0.45308000  1.0 0.1583928687
H  H5  1  0.26227000  0.55257000  0.09935000  1.0 0.1430870516
H  H6  1  0.26930000  0.57844000  0.28936000  1.0 0.1530771605
H  H7  1  0.41614000  0.41878000  0.48320000  1.0 0.1530771605
H  H8  1  0.36240000  0.29619000  0.25467000  1.0 0.1530771605
H  H9  1  0.02210000  0.84113000  0.39623000  1.0 0.1430870516
H  H10  1  0.03881000  0.81589000  0.58069000  1.0 0.1530771605
H  H11  1  0.18926000  0.97706000  0.77810000  1.0 0.1583928687
H  H12  1  0.15091000  0.09741000  0.54692000  1.0 0.1583928687
H  H13  1  0.73773000  0.05257000  0.90065000  1.0 0.1430870516
H  H14  1  0.73070000  0.07844000  0.71064000  1.0 0.1530771605
H  H15  1  0.58386000  0.91878000  0.51680000  1.0 0.1530771605
H  H16  1  0.63760000  0.79619000  0.74533000  1.0 0.1583928687
C  C1  1  0.90380000  0.42050000  0.58440000  1.0 -0.0602656431
C  C2  1  0.94310000  0.36750000  0.54960000  1.0 -0.0602656431
C  C3  1  0.93260000  0.35230000  0.43780000  1.0 -0.0698529346
C  C4  1  0.88190000  0.38830000  0.35210000  1.0 -0.0602656431
C  C5  1  0.86280000  0.44650000  0.38120000  1.0 0.0821569709
C  C6  1  0.82800000  0.48770000  0.29710000  1.0 -0.1005019188
C  C7  1  0.82110000  0.54200000  0.32430000  1.0 -0.0698529346
C  C8  1  0.85040000  0.55980000  0.43630000  1.0 -0.0698529346
C  C9  1  0.88150000  0.52130000  0.52240000  1.0 -0.1005019188
C  C10  1  0.88040000  0.46340000  0.50010000  1.0 0.0693909598
C  C11  1  0.86710000  0.42390000  0.70390000  1.0 0.5888970865
C  C12  1  0.84960000  0.36480000  0.23770000  1.0 0.5770641936
C  C13  1  0.33030000  0.47310000  0.12230000  1.0 -0.0314018692
C  C14  1  0.29200000  0.52620000  0.15460000  1.0 -0.0698529346
C  C15  1  0.29700000  0.54210000  0.26980000  1.0 -0.0698529346
C  C16  1  0.34050000  0.50440000  0.35170000  1.0 -0.0380266385
C  C17  1  0.36270000  0.44760000  0.32120000  1.0 0.0693909598
C  C18  1  0.39780000  0.40740000  0.40850000  1.0 -0.083001055
C  C19  1  0.40440000  0.35140000  0.38200000  1.0 -0.0698529346
C  C20  1  0.36930000  0.33390000  0.27080000  1.0 -0.0698529346
C  C21  1  0.34470000  0.37190000  0.18470000  1.0 -0.1005019188
C  C22  1  0.34930000  0.43060000  0.20670000  1.0 0.0579686759
C  C23  1  0.37160000  0.47100000  0.99750000  1.0 0.5956658793
C  C24  1  0.36450000  0.52920000  0.47160000  1.0 0.6259622944
C  C25  1  0.09620000  0.92050000  0.41560000  1.0 -0.0602656431
C  C26  1  0.05690000  0.86750000  0.45040000  1.0 -0.0602656431
C  C27  1  0.06740000  0.85230000  0.56220000  1.0 -0.0698529346
C  C28  1  0.11810000  0.88830000  0.64790000  1.0 -0.0602656431
C  C29  1  0.13720000  0.94650000  0.61880000  1.0 0.0821569709
C  C30  1  0.17200000  0.98770000  0.70290000  1.0 -0.1005019188
C  C31  1  0.17890000  0.04200000  0.67570000  1.0 -0.0698529346
C  C32  1  0.14960000  0.05980000  0.56370000  1.0 -0.0698529346
C  C33  1  0.11850000  0.02130000  0.47760000  1.0 -0.1005019188
C  C34  1  0.11960000  0.96340000  0.49990000  1.0 0.0693909598
C  C35  1  0.13290000  0.92390000  0.29610000  1.0 0.5888970865
C  C36  1  0.15040000  0.86480000  0.76230000  1.0 0.5770641936
C  C37  1  0.66970000  0.97310000  0.87770000  1.0 -0.0314018692
C  C38  1  0.70800000  0.02620000  0.84540000  1.0 -0.0698529346
C  C39  1  0.70300000  0.04210000  0.73020000  1.0 -0.0698529346
C  C40  1  0.65950000  0.00440000  0.64830000  1.0 -0.0380266385
C  C41  1  0.63730000  0.94760000  0.67880000  1.0 0.0693909598
C  C42  1  0.60220000  0.90740000  0.59150000  1.0 -0.083001055
C  C43  1  0.59560000  0.85140000  0.61800000  1.0 -0.0698529346
C  C44  1  0.63070000  0.83390000  0.72920000  1.0 -0.0698529346
C  C45  1  0.65530000  0.87190000  0.81530000  1.0 -0.1005019188
C  C46  1  0.65070000  0.93060000  0.79330000  1.0 0.0579686759
C  C47  1  0.62840000  0.97100000  0.00250000  1.0 0.5956658793
C  C48  1  0.63550000  0.02920000  0.52840000  1.0 0.6259622944
S  S1  1  0.94180000  0.55156000  0.65540000  1.0 1.2635042441
S  S2  1  0.79480000  0.59387000  0.21870000  1.0 1.1551019324
S  S3  1  0.44600000  0.30136000  0.48800000  1.0 1.1803117169
S  S4  1  0.29330000  0.34203000  0.04850000  1.0 1.2423819674
S  S5  1  0.05820000  0.05156000  0.34460000  1.0 1.2635042441
S  S6  1  0.20520000  0.09387000  0.78130000  1.0 1.1551019324
S  S7  1  0.55400000  0.80136000  0.51200000  1.0 1.1803117169
S  S8  1  0.70670000  0.84203000  0.95150000  1.0 1.2423819674
O  O1  1  0.71060000  0.44210000  0.73680000  1.0 -0.6347074138
O  O2  1  0.39310000  0.68210000  0.37230000  1.0 -0.1497627573
O  O3  1  0.97560000  0.39940000  0.77620000  1.0 -0.4754528182
O  O4  1  0.02150000  0.69930000  0.43570000  1.0 -0.2168710979
O  O5  1  0.80660000  0.39490000  0.15520000  1.0 -0.5490259754
O  O6  1  0.02380000  0.71710000  0.68260000  1.0 -0.2663581001
O  O7  1  0.85600000  0.31290000  0.22720000  1.0 -0.3410697209
O  O8  1  0.64010000  0.66310000  0.58270000  1.0 -0.3131167518
O  O9  1  0.55960000  0.57780000  0.92280000  1.0 -0.0856073203
O  O10  1  0.77090000  0.55540000  0.71860000  1.0 -0.5490259754
O  O11  1  0.33650000  0.41310000  0.73290000  1.0 -0.1750977861
O  O12  1  0.08540000  0.51680000  0.70990000  1.0 -0.5620834755
O  O13  1  0.00500000  0.60710000  0.63030000  1.0 -0.5620834755
O  O14  1  0.83510000  0.28790000  0.01040000  1.0 -0.3184280025
O  O15  1  0.95660000  0.63060000  0.23490000  1.0 -0.5155621993
O  O16  1  0.68040000  0.31210000  0.79280000  1.0 -0.2043095382
O  O17  1  0.62590000  0.62380000  0.23910000  1.0 -0.4883944469
O  O18  1  0.90380000  0.48240000  0.96800000  1.0 -0.1388900506
O  O19  1  0.79010000  0.56580000  0.11240000  1.0 -0.4568863737
O  O20  1  0.40430000  0.71660000  0.77010000  1.0 -0.1578716415
O  O21  1  0.42900000  0.50090000  0.55210000  1.0 -0.5490259754
O  O22  1  0.31230000  0.57890000  0.48100000  1.0 -0.5897330867
O  O23  1  0.53060000  0.45570000  0.96990000  1.0 -0.6202381479
O  O24  1  0.25730000  0.49200000  0.92620000  1.0 -0.4492978282
O  O25  1  0.49540000  0.33120000  0.59070000  1.0 -0.4320884871
O  O26  1  0.27540000  0.26910000  0.49420000  1.0 -0.4492978282
O  O27  1  0.60120000  0.26800000  0.45060000  1.0 -0.6202381479
O  O28  1  0.46290000  0.34520000  0.98720000  1.0 -0.5794733989
O  O29  1  0.14280000  0.37480000  0.99580000  1.0 -0.5951370823
O  O30  1  0.24090000  0.28510000  0.06680000  1.0 -0.4492978282
O  O31  1  0.38390000  0.60260000  0.71970000  1.0 -1.0419254529
O  O32  1  0.28940000  0.94210000  0.26320000  1.0 -0.6347074138
O  O33  1  0.60690000  0.18210000  0.62770000  1.0 -0.1497627573
O  O34  1  0.02440000  0.89940000  0.22380000  1.0 -0.4754528182
O  O35  1  0.97850000  0.19930000  0.56430000  1.0 -0.2168710979
O  O36  1  0.19340000  0.89490000  0.84480000  1.0 -0.5490259754
O  O37  1  0.97620000  0.21710000  0.31740000  1.0 -0.2623617875
O  O38  1  0.14400000  0.81290000  0.77280000  1.0 -0.3410697209
O  O39  1  0.35990000  0.16310000  0.41730000  1.0 -0.3184280025
O  O40  1  0.44040000  0.07780000  0.07720000  1.0 -0.0856073203
O  O41  1  0.22910000  0.05540000  0.28140000  1.0 -0.5490259754
O  O42  1  0.66350000  0.91310000  0.26710000  1.0 -0.1750977861
O  O43  1  0.91460000  0.01680000  0.29010000  1.0 -0.5620834755
O  O44  1  0.99500000  0.10710000  0.36970000  1.0 -0.5620834755
O  O45  1  0.16490000  0.78790000  0.98960000  1.0 -0.3184280025
O  O46  1  0.04340000  0.13060000  0.76510000  1.0 -0.5155621993
O  O47  1  0.31960000  0.81210000  0.20720000  1.0 -0.2043095382
O  O48  1  0.37410000  0.12380000  0.76090000  1.0 -0.4883944469
O  O49  1  0.09620000  0.98240000  0.03200000  1.0 -0.1388900506
O  O50  1  0.20990000  0.06580000  0.88760000  1.0 -0.4568863737
O  O51  1  0.59570000  0.21660000  0.22990000  1.0 -0.1578716415
O  O52  1  0.57100000  0.00090000  0.44790000  1.0 -0.5490259754
O  O53  1  0.68770000  0.07890000  0.51900000  1.0 -0.5897330867
O  O54  1  0.46940000  0.95570000  0.03010000  1.0 -0.6202381479
O  O55  1  0.74270000  0.99200000  0.07380000  1.0 -0.4492978282
O  O56  1  0.50460000  0.83120000  0.40930000  1.0 -0.4320884871
O  O57  1  0.72460000  0.76910000  0.50580000  1.0 -0.4492978282
O  O58  1  0.39880000  0.76800000  0.54940000  1.0 -0.6202381479
O  O59  1  0.53710000  0.84520000  0.01280000  1.0 -0.5794733989
O  O60  1  0.85720000  0.87480000  0.00420000  1.0 -0.5897330867
O  O61  1  0.75910000  0.78510000  0.93320000  1.0 -0.4492978282
O  O62  1  0.61610000  0.10260000  0.28030000  1.0 -1.0419254529
