# DDEC6 charges by PACMAN v1.1 (https://github.com/mtap-research/PACMAN-charge/)
data_VUMPUR_FSR_pacman
_symmetry_space_group_name_H-M   'P 1'
_cell_length_a   7.11260000
_cell_length_b   24.03910000
_cell_length_c   11.76870000
_cell_angle_alpha   90.00000000
_cell_angle_beta   92.58200000
_cell_angle_gamma   90.00000000
_symmetry_Int_Tables_number   1
_chemical_formula_structural   Nd3H8C24(S2O15)2
_chemical_formula_sum   'Nd6 H16 C48 S8 O60'
_cell_volume   2010.17538074
_cell_formula_units_Z   2
loop_
 _symmetry_equiv_pos_site_id
 _symmetry_equiv_pos_as_xyz
  1  'x, y, z'
loop_
 _atom_site_type_symbol
 _atom_site_label
 _atom_site_symmetry_multiplicity
 _atom_site_fract_x
 _atom_site_fract_y
 _atom_site_fract_z
 _atom_site_occupancy
 _atom_site_charge
Nd  Nd1  1  0.68930000  0.66371000  0.43699000  1.0 2.2993980648
Nd  Nd2  1  0.52567000  0.51213000  0.25932000  1.0 2.2112239601
Nd  Nd3  1  0.19792000  0.38760000  0.07288000  1.0 2.1559268238
Nd  Nd4  1  0.31070000  0.16371000  0.56301000  1.0 2.2993980648
Nd  Nd5  1  0.47433000  0.01213000  0.74068000  1.0 2.2112239601
Nd  Nd6  1  0.80208000  0.88760000  0.92712000  1.0 2.1559268238
H  H1  1  0.02200000  0.34137000  0.41436000  1.0 0.1601717235
H  H2  1  0.04631000  0.31434000  0.60385000  1.0 0.1487284702
H  H3  1  0.16064000  0.48002000  0.80248000  1.0 0.1601717235
H  H4  1  0.13123000  0.59952000  0.56734000  1.0 0.1601717235
H  H5  1  0.69779000  0.55443000  0.91896000  1.0 0.1487284702
H  H6  1  0.70988000  0.57882000  0.72664000  1.0 0.1601717235
H  H7  1  0.57799000  0.41728000  0.53362000  1.0 0.1487284702
H  H8  1  0.60662000  0.29590000  0.76706000  1.0 0.1601717235
H  H9  1  0.97800000  0.84137000  0.58564000  1.0 0.1601717235
H  H10  1  0.95369000  0.81434000  0.39615000  1.0 0.1487284702
H  H11  1  0.83936000  0.98002000  0.19752000  1.0 0.1601717235
H  H12  1  0.86877000  0.09952000  0.43266000  1.0 0.1601717235
H  H13  1  0.30221000  0.05443000  0.08104000  1.0 0.1487284702
H  H14  1  0.29012000  0.07882000  0.27336000  1.0 0.1601717235
H  H15  1  0.42201000  0.91728000  0.46638000  1.0 0.1487284702
H  H16  1  0.39338000  0.79590000  0.23294000  1.0 0.1601717235
C  C1  1  0.08200000  0.42300000  0.43600000  1.0 0.0055745935
C  C2  1  0.05200000  0.36780000  0.47000000  1.0 -0.0718976853
C  C3  1  0.06700000  0.35120000  0.58400000  1.0 -0.0605807368
C  C4  1  0.11400000  0.39080000  0.66680000  1.0 -0.0785240566
C  C5  1  0.12400000  0.44690000  0.64000000  1.0 0.0899695867
C  C6  1  0.14900000  0.49030000  0.72600000  1.0 -0.0901902763
C  C7  1  0.15400000  0.54350000  0.70000000  1.0 -0.0785240566
C  C8  1  0.12800000  0.56190000  0.58600000  1.0 -0.0605807368
C  C9  1  0.09700000  0.52230000  0.50300000  1.0 -0.0785240566
C  C10  1  0.10500000  0.46600000  0.52200000  1.0 0.0421413706
C  C11  1  0.12200000  0.42760000  0.31000000  1.0 0.603690833
C  C12  1  0.13600000  0.36400000  0.78000000  1.0 0.5831852557
C  C13  1  0.64700000  0.47450000  0.89800000  1.0 -0.0461153144
C  C14  1  0.67700000  0.52700000  0.86400000  1.0 -0.0605807368
C  C15  1  0.67900000  0.54260000  0.74600000  1.0 -0.0718976853
C  C16  1  0.63600000  0.50520000  0.66410000  1.0 -0.0461153144
C  C17  1  0.62100000  0.44830000  0.69500000  1.0 0.0693710858
C  C18  1  0.59300000  0.40640000  0.60900000  1.0 -0.0785240566
C  C19  1  0.58700000  0.35030000  0.63500000  1.0 -0.0785240566
C  C20  1  0.60800000  0.33360000  0.74900000  1.0 -0.0605807368
C  C21  1  0.63100000  0.37170000  0.83370000  1.0 -0.097089473
C  C22  1  0.63100000  0.43030000  0.81200000  1.0 0.0770259352
C  C23  1  0.60700000  0.47150000  0.02100000  1.0 0.616610557
C  C24  1  0.61100000  0.52960000  0.54420000  1.0 0.6448251011
C  C25  1  0.91800000  0.92300000  0.56400000  1.0 0.0039060667
C  C26  1  0.94800000  0.86780000  0.53000000  1.0 -0.0718976853
C  C27  1  0.93300000  0.85120000  0.41600000  1.0 -0.0605807368
C  C28  1  0.88600000  0.89080000  0.33320000  1.0 -0.0785240566
C  C29  1  0.87600000  0.94690000  0.36000000  1.0 0.0899695867
C  C30  1  0.85100000  0.99030000  0.27400000  1.0 -0.0901902763
C  C31  1  0.84600000  0.04350000  0.30000000  1.0 -0.0785240566
C  C32  1  0.87200000  0.06190000  0.41400000  1.0 -0.0605807368
C  C33  1  0.90300000  0.02230000  0.49700000  1.0 -0.0785240566
C  C34  1  0.89500000  0.96600000  0.47800000  1.0 0.0421413706
C  C35  1  0.87800000  0.92760000  0.69000000  1.0 0.603690833
C  C36  1  0.86400000  0.86400000  0.22000000  1.0 0.5831852557
C  C37  1  0.35300000  0.97450000  0.10200000  1.0 -0.0461153144
C  C38  1  0.32300000  0.02700000  0.13600000  1.0 -0.0605807368
C  C39  1  0.32100000  0.04260000  0.25400000  1.0 -0.0718976853
C  C40  1  0.36400000  0.00520000  0.33590000  1.0 -0.0461153144
C  C41  1  0.37900000  0.94830000  0.30500000  1.0 0.0693710858
C  C42  1  0.40700000  0.90640000  0.39100000  1.0 -0.0785240566
C  C43  1  0.41300000  0.85030000  0.36500000  1.0 -0.0785240566
C  C44  1  0.39200000  0.83360000  0.25100000  1.0 -0.0605807368
C  C45  1  0.36900000  0.87170000  0.16630000  1.0 -0.097089473
C  C46  1  0.36900000  0.93030000  0.18800000  1.0 0.0770259352
C  C47  1  0.39300000  0.97150000  0.97900000  1.0 0.616610557
C  C48  1  0.38900000  0.02960000  0.45580000  1.0 0.6448251011
S  S1  1  0.04210000  0.55410000  0.36520000  1.0 1.259584278
S  S2  1  0.18090000  0.59510000  0.80660000  1.0 1.1441385748
S  S3  1  0.55580000  0.30050000  0.52790000  1.0 1.1859457494
S  S4  1  0.68230000  0.34220000  0.97220000  1.0 1.259584278
S  S5  1  0.95790000  0.05410000  0.63480000  1.0 1.259584278
S  S6  1  0.81910000  0.09510000  0.19340000  1.0 1.1441385748
S  S7  1  0.44420000  0.80050000  0.47210000  1.0 1.1859457494
S  S8  1  0.31770000  0.84220000  0.02780000  1.0 1.259584278
O  O1  1  0.27600000  0.44410000  0.28150000  1.0 -0.6430424748
O  O2  1  0.55100000  0.68400000  0.62700000  1.0 -0.2887225745
O  O3  1  0.00600000  0.40060000  0.24210000  1.0 -0.5026512144
O  O4  1  0.94700000  0.70440000  0.56000000  1.0 -0.4176487027
O  O5  1  0.16900000  0.39620000  0.87010000  1.0 -0.6466821133
O  O6  1  0.85400000  0.71140000  0.29400000  1.0 -0.4837170241
O  O7  1  0.14500000  0.31350000  0.79420000  1.0 -0.2887225745
O  O8  1  0.34900000  0.66890000  0.40500000  1.0 -0.3924447595
O  O9  1  0.43000000  0.57730000  0.10110000  1.0 -0.1403555049
O  O10  1  0.22000000  0.55740000  0.30520000  1.0 -0.5521704553
O  O11  1  0.64500000  0.41610000  0.28320000  1.0 -0.2469768522
O  O12  1  0.90200000  0.51950000  0.30930000  1.0 -0.5521704553
O  O13  1  0.98200000  0.60930000  0.38810000  1.0 -0.5283221303
O  O14  1  0.13400000  0.29010000  0.01090000  1.0 -0.3122805951
O  O15  1  0.01900000  0.63000000  0.79400000  1.0 -0.4837170241
O  O16  1  0.29500000  0.31720000  0.22600000  1.0 -0.261328697
O  O17  1  0.34700000  0.62830000  0.78500000  1.0 -0.4696958063
O  O18  1  0.07500000  0.48100000  0.05030000  1.0 -0.2398047669
O  O19  1  0.20000000  0.56470000  0.91230000  1.0 -0.4487951471
O  O20  1  0.55100000  0.50090000  0.46400000  1.0 -0.5665682552
O  O21  1  0.65700000  0.57970000  0.53580000  1.0 -0.598944485
O  O22  1  0.44400000  0.45570000  0.05060000  1.0 -0.6580296753
O  O23  1  0.71900000  0.49320000  0.09180000  1.0 -0.4696958063
O  O24  1  0.50300000  0.33010000  0.42470000  1.0 -0.4176487027
O  O25  1  0.73500000  0.27130000  0.52500000  1.0 -0.4102103262
O  O26  1  0.40400000  0.26400000  0.56390000  1.0 -0.6234572826
O  O27  1  0.50500000  0.34450000  0.03120000  1.0 -0.6086965003
O  O28  1  0.83300000  0.37690000  0.02670000  1.0 -0.6086965003
O  O29  1  0.73200000  0.28400000  0.95680000  1.0 -0.4487951471
O  O30  1  0.60100000  0.60140000  0.29590000  1.0 -1.1236050127
O  O31  1  0.72400000  0.94410000  0.71850000  1.0 -0.6430424748
O  O32  1  0.44900000  0.18400000  0.37300000  1.0 -0.2887225745
O  O33  1  0.99400000  0.90060000  0.75790000  1.0 -0.5026512144
O  O34  1  0.05300000  0.20440000  0.44000000  1.0 -0.4176487027
O  O35  1  0.83100000  0.89620000  0.12990000  1.0 -0.6466821133
O  O36  1  0.14600000  0.21140000  0.70600000  1.0 -0.4837170241
O  O37  1  0.85500000  0.81350000  0.20580000  1.0 -0.2887225745
O  O38  1  0.65100000  0.16890000  0.59500000  1.0 -0.3924447595
O  O39  1  0.57000000  0.07730000  0.89890000  1.0 -0.1403555049
O  O40  1  0.78000000  0.05740000  0.69480000  1.0 -0.5521704553
O  O41  1  0.35500000  0.91610000  0.71680000  1.0 -0.2469768522
O  O42  1  0.09800000  0.01950000  0.69070000  1.0 -0.5521704553
O  O43  1  0.01800000  0.10930000  0.61190000  1.0 -0.5283221303
O  O44  1  0.86600000  0.79010000  0.98910000  1.0 -0.3206382392
O  O45  1  0.98100000  0.13000000  0.20600000  1.0 -0.4857121704
O  O46  1  0.70500000  0.81720000  0.77400000  1.0 -0.2658484576
O  O47  1  0.65300000  0.12830000  0.21500000  1.0 -0.4696958063
O  O48  1  0.92500000  0.98100000  0.94970000  1.0 -0.2398047669
O  O49  1  0.80000000  0.06470000  0.08770000  1.0 -0.4487951471
O  O50  1  0.44900000  0.00090000  0.53600000  1.0 -0.5665682552
O  O51  1  0.34300000  0.07970000  0.46420000  1.0 -0.598944485
O  O52  1  0.55600000  0.95570000  0.94940000  1.0 -0.6580296753
O  O53  1  0.28100000  0.99320000  0.90820000  1.0 -0.4696958063
O  O54  1  0.49700000  0.83010000  0.57530000  1.0 -0.4176487027
O  O55  1  0.26500000  0.77130000  0.47500000  1.0 -0.4102103262
O  O56  1  0.59600000  0.76400000  0.43610000  1.0 -0.6234572826
O  O57  1  0.49500000  0.84450000  0.96880000  1.0 -0.598944485
O  O58  1  0.16700000  0.87690000  0.97330000  1.0 -0.6086965003
O  O59  1  0.26800000  0.78400000  0.04320000  1.0 -0.4487951471
O  O60  1  0.39900000  0.10140000  0.70410000  1.0 -1.1236050127
