# DDEC6 charges by PACMAN v1.1 (https://github.com/mtap-research/PACMAN-charge/)
data_VUMQIG_ASR_pacman
_symmetry_space_group_name_H-M   'P 1'
_cell_length_a   18.05580000
_cell_length_b   19.83490000
_cell_length_c   20.90650000
_cell_angle_alpha   90.00000000
_cell_angle_beta   90.00000000
_cell_angle_gamma   90.00000000
_symmetry_Int_Tables_number   1
_chemical_formula_structural   EuH2C6SO6
_chemical_formula_sum   'Eu16 H32 C96 S16 O96'
_cell_volume   7487.34911450
_cell_formula_units_Z   16
loop_
 _symmetry_equiv_pos_site_id
 _symmetry_equiv_pos_as_xyz
  1  'x, y, z'
loop_
 _atom_site_type_symbol
 _atom_site_label
 _atom_site_symmetry_multiplicity
 _atom_site_fract_x
 _atom_site_fract_y
 _atom_site_fract_z
 _atom_site_occupancy
 _atom_site_charge
Eu  Eu1  1  0.48184000  0.14309000  0.84236000  1.0 2.1941579986
Eu  Eu2  1  0.98184000  0.35691000  0.15764000  1.0 2.2023678629
Eu  Eu3  1  0.48184000  0.14309000  0.65764000  1.0 2.1941579986
Eu  Eu4  1  0.98184000  0.35691000  0.34236000  1.0 2.2023678629
Eu  Eu5  1  0.59730000  0.27471000  0.75000000  1.0 2.2530359435
Eu  Eu6  1  0.37821000  0.28286000  0.75000000  1.0 2.2074417878
Eu  Eu7  1  0.09730000  0.22529000  0.25000000  1.0 2.256942432
Eu  Eu8  1  0.87821000  0.21714000  0.25000000  1.0 2.2074417878
Eu  Eu9  1  0.51816000  0.85691000  0.34236000  1.0 2.2023678629
Eu  Eu10  1  0.01816000  0.64309000  0.65764000  1.0 2.2023678629
Eu  Eu11  1  0.51816000  0.85691000  0.15764000  1.0 2.2023678629
Eu  Eu12  1  0.01816000  0.64309000  0.84236000  1.0 2.2023678629
Eu  Eu13  1  0.40270000  0.72529000  0.25000000  1.0 2.256942432
Eu  Eu14  1  0.62179000  0.71714000  0.25000000  1.0 2.2074417878
Eu  Eu15  1  0.90270000  0.77471000  0.75000000  1.0 2.256942432
Eu  Eu16  1  0.12179000  0.78286000  0.75000000  1.0 2.2074417878
H  H1  1  0.64086000  0.17584000  0.01303000  1.0 0.128738158
H  H2  1  0.71927000  0.19906000  0.09814000  1.0 0.1244391944
H  H3  1  0.81409000  0.40793000  0.05235000  1.0 0.128738158
H  H4  1  0.69166000  0.47956000  0.90698000  1.0 0.15306998
H  H5  1  0.14086000  0.32416000  0.98697000  1.0 0.128738158
H  H6  1  0.21927000  0.30094000  0.90186000  1.0 0.1244391944
H  H7  1  0.31409000  0.09207000  0.94765000  1.0 0.128738158
H  H8  1  0.19166000  0.02044000  0.09302000  1.0 0.15306998
H  H9  1  0.64086000  0.17584000  0.48697000  1.0 0.128738158
H  H10  1  0.71927000  0.19906000  0.40186000  1.0 0.1244391944
H  H11  1  0.81409000  0.40793000  0.44765000  1.0 0.128738158
H  H12  1  0.69166000  0.47956000  0.59302000  1.0 0.15306998
H  H13  1  0.14086000  0.32416000  0.51303000  1.0 0.128738158
H  H14  1  0.21927000  0.30094000  0.59814000  1.0 0.1244391944
H  H15  1  0.31409000  0.09207000  0.55235000  1.0 0.128738158
H  H16  1  0.19166000  0.02044000  0.40698000  1.0 0.15306998
H  H17  1  0.35914000  0.82416000  0.51303000  1.0 0.128738158
H  H18  1  0.28073000  0.80094000  0.59814000  1.0 0.1244391944
H  H19  1  0.18591000  0.59207000  0.55235000  1.0 0.128738158
H  H20  1  0.30834000  0.52044000  0.40698000  1.0 0.15306998
H  H21  1  0.85914000  0.67584000  0.48697000  1.0 0.128738158
H  H22  1  0.78073000  0.69906000  0.40186000  1.0 0.1244391944
H  H23  1  0.68591000  0.90793000  0.44765000  1.0 0.128738158
H  H24  1  0.80834000  0.97956000  0.59302000  1.0 0.15306998
H  H25  1  0.35914000  0.82416000  0.98697000  1.0 0.128738158
H  H26  1  0.28073000  0.80094000  0.90186000  1.0 0.1244391944
H  H27  1  0.18591000  0.59207000  0.94765000  1.0 0.128738158
H  H28  1  0.30834000  0.52044000  0.09302000  1.0 0.15306998
H  H29  1  0.85914000  0.67584000  0.01303000  1.0 0.128738158
H  H30  1  0.78073000  0.69906000  0.09814000  1.0 0.1244391944
H  H31  1  0.68591000  0.90793000  0.05235000  1.0 0.128738158
H  H32  1  0.80834000  0.97956000  0.90698000  1.0 0.15306998
C  C1  1  0.65100000  0.26260000  0.96730000  1.0 -0.0616243299
C  C2  1  0.66510000  0.21720000  0.01430000  1.0 -0.0490790445
C  C3  1  0.71450000  0.22970000  0.06470000  1.0 -0.0973616102
C  C4  1  0.75570000  0.28760000  0.06380000  1.0 -0.0246510286
C  C5  1  0.74090000  0.33940000  0.01800000  1.0 0.0474821975
C  C6  1  0.77780000  0.40100000  0.02150000  1.0 -0.1086766351
C  C7  1  0.75990000  0.45150000  0.97890000  1.0 -0.030037025
C  C8  1  0.70330000  0.44440000  0.93460000  1.0 -0.0973616102
C  C9  1  0.66450000  0.38480000  0.93210000  1.0 -0.0425046426
C  C10  1  0.68480000  0.32830000  0.97060000  1.0 0.0555681577
C  C11  1  0.61310000  0.23480000  0.90940000  1.0 0.6562515754
C  C12  1  0.81600000  0.29060000  0.11450000  1.0 0.6524021882
C  C13  1  0.15100000  0.23740000  0.03270000  1.0 -0.0616243299
C  C14  1  0.16510000  0.28280000  0.98570000  1.0 -0.0490790445
C  C15  1  0.21450000  0.27030000  0.93530000  1.0 -0.0973616102
C  C16  1  0.25570000  0.21240000  0.93620000  1.0 -0.030037025
C  C17  1  0.24090000  0.16060000  0.98200000  1.0 0.0474821975
C  C18  1  0.27780000  0.09900000  0.97850000  1.0 -0.1086766351
C  C19  1  0.25990000  0.04850000  0.02110000  1.0 -0.030037025
C  C20  1  0.20330000  0.05560000  0.06540000  1.0 -0.0973616102
C  C21  1  0.16450000  0.11520000  0.06790000  1.0 -0.0490790445
C  C22  1  0.18480000  0.17170000  0.02940000  1.0 0.0555681577
C  C23  1  0.11310000  0.26520000  0.09060000  1.0 0.6562515754
C  C24  1  0.31600000  0.20940000  0.88550000  1.0 0.6524021882
C  C25  1  0.65100000  0.26260000  0.53270000  1.0 -0.0616243299
C  C26  1  0.66510000  0.21720000  0.48570000  1.0 -0.0490790445
C  C27  1  0.71450000  0.22970000  0.43530000  1.0 -0.0973616102
C  C28  1  0.75570000  0.28760000  0.43620000  1.0 -0.0246510286
C  C29  1  0.74090000  0.33940000  0.48200000  1.0 0.0474821975
C  C30  1  0.77780000  0.40100000  0.47850000  1.0 -0.1086766351
C  C31  1  0.75990000  0.45150000  0.52110000  1.0 -0.030037025
C  C32  1  0.70330000  0.44440000  0.56540000  1.0 -0.0973616102
C  C33  1  0.66450000  0.38480000  0.56790000  1.0 -0.0425046426
C  C34  1  0.68480000  0.32830000  0.52940000  1.0 0.0474821975
C  C35  1  0.61310000  0.23480000  0.59060000  1.0 0.6562515754
C  C36  1  0.81600000  0.29060000  0.38550000  1.0 0.6524021882
C  C37  1  0.15100000  0.23740000  0.46730000  1.0 -0.0616243299
C  C38  1  0.16510000  0.28280000  0.51430000  1.0 -0.0490790445
C  C39  1  0.21450000  0.27030000  0.56470000  1.0 -0.0973616102
C  C40  1  0.25570000  0.21240000  0.56380000  1.0 -0.030037025
C  C41  1  0.24090000  0.16060000  0.51800000  1.0 0.0474821975
C  C42  1  0.27780000  0.09900000  0.52150000  1.0 -0.1086766351
C  C43  1  0.25990000  0.04850000  0.47890000  1.0 -0.030037025
C  C44  1  0.20330000  0.05560000  0.43460000  1.0 -0.0973616102
C  C45  1  0.16450000  0.11520000  0.43210000  1.0 -0.0490790445
C  C46  1  0.18480000  0.17170000  0.47060000  1.0 0.0555681577
C  C47  1  0.11310000  0.26520000  0.40940000  1.0 0.6562515754
C  C48  1  0.31600000  0.20940000  0.61450000  1.0 0.6524021882
C  C49  1  0.34900000  0.73740000  0.46730000  1.0 -0.0616243299
C  C50  1  0.33490000  0.78280000  0.51430000  1.0 -0.0490790445
C  C51  1  0.28550000  0.77030000  0.56470000  1.0 -0.0973616102
C  C52  1  0.24430000  0.71240000  0.56380000  1.0 -0.030037025
C  C53  1  0.25910000  0.66060000  0.51800000  1.0 0.0474821975
C  C54  1  0.22220000  0.59900000  0.52150000  1.0 -0.1086766351
C  C55  1  0.24010000  0.54850000  0.47890000  1.0 -0.030037025
C  C56  1  0.29670000  0.55560000  0.43460000  1.0 -0.0973616102
C  C57  1  0.33550000  0.61520000  0.43210000  1.0 -0.0490790445
C  C58  1  0.31520000  0.67170000  0.47060000  1.0 0.0555681577
C  C59  1  0.38690000  0.76520000  0.40940000  1.0 0.6562515754
C  C60  1  0.18400000  0.70940000  0.61450000  1.0 0.6524021882
C  C61  1  0.84900000  0.76260000  0.53270000  1.0 -0.0616243299
C  C62  1  0.83490000  0.71720000  0.48570000  1.0 -0.0490790445
C  C63  1  0.78550000  0.72970000  0.43530000  1.0 -0.0973616102
C  C64  1  0.74430000  0.78760000  0.43620000  1.0 -0.030037025
C  C65  1  0.75910000  0.83940000  0.48200000  1.0 0.0474821975
C  C66  1  0.72220000  0.90100000  0.47850000  1.0 -0.1086766351
C  C67  1  0.74010000  0.95150000  0.52110000  1.0 -0.030037025
C  C68  1  0.79670000  0.94440000  0.56540000  1.0 -0.0973616102
C  C69  1  0.83550000  0.88480000  0.56790000  1.0 -0.0490790445
C  C70  1  0.81520000  0.82830000  0.52940000  1.0 0.0555681577
C  C71  1  0.88690000  0.73480000  0.59060000  1.0 0.6562515754
C  C72  1  0.68400000  0.79060000  0.38550000  1.0 0.6524021882
C  C73  1  0.34900000  0.73740000  0.03270000  1.0 -0.0616243299
C  C74  1  0.33490000  0.78280000  0.98570000  1.0 -0.0490790445
C  C75  1  0.28550000  0.77030000  0.93530000  1.0 -0.0973616102
C  C76  1  0.24430000  0.71240000  0.93620000  1.0 -0.030037025
C  C77  1  0.25910000  0.66060000  0.98200000  1.0 0.0474821975
C  C78  1  0.22220000  0.59900000  0.97850000  1.0 -0.1086766351
C  C79  1  0.24010000  0.54850000  0.02110000  1.0 -0.030037025
C  C80  1  0.29670000  0.55560000  0.06540000  1.0 -0.0973616102
C  C81  1  0.33550000  0.61520000  0.06790000  1.0 -0.0490790445
C  C82  1  0.31520000  0.67170000  0.02940000  1.0 0.0555681577
C  C83  1  0.38690000  0.76520000  0.09060000  1.0 0.6562515754
C  C84  1  0.18400000  0.70940000  0.88550000  1.0 0.6524021882
C  C85  1  0.84900000  0.76260000  0.96730000  1.0 -0.0616243299
C  C86  1  0.83490000  0.71720000  0.01430000  1.0 -0.0490790445
C  C87  1  0.78550000  0.72970000  0.06470000  1.0 -0.0973616102
C  C88  1  0.74430000  0.78760000  0.06380000  1.0 -0.030037025
C  C89  1  0.75910000  0.83940000  0.01800000  1.0 0.0474821975
C  C90  1  0.72220000  0.90100000  0.02150000  1.0 -0.1086766351
C  C91  1  0.74010000  0.95150000  0.97890000  1.0 -0.030037025
C  C92  1  0.79670000  0.94440000  0.93460000  1.0 -0.0973616102
C  C93  1  0.83550000  0.88480000  0.93210000  1.0 -0.0490790445
C  C94  1  0.81520000  0.82830000  0.97060000  1.0 0.0555681577
C  C95  1  0.88690000  0.73480000  0.90940000  1.0 0.6562515754
C  C96  1  0.68400000  0.79060000  0.11450000  1.0 0.6524021882
S  S1  1  0.57923000  0.39215000  0.88699000  1.0 1.1816451359
S  S2  1  0.80740000  0.53011000  0.98648000  1.0 1.0907600332
S  S3  1  0.07923000  0.10785000  0.11301000  1.0 1.1816451359
S  S4  1  0.30740000  0.96989000  0.01352000  1.0 1.0988365817
S  S5  1  0.57923000  0.39215000  0.61301000  1.0 1.1816451359
S  S6  1  0.80740000  0.53011000  0.51352000  1.0 1.0907600332
S  S7  1  0.07923000  0.10785000  0.38699000  1.0 1.1816451359
S  S8  1  0.30740000  0.96989000  0.48648000  1.0 1.0988365817
S  S9  1  0.42077000  0.60785000  0.38699000  1.0 1.1816451359
S  S10  1  0.19260000  0.46989000  0.48648000  1.0 1.0907600332
S  S11  1  0.92077000  0.89215000  0.61301000  1.0 1.1816451359
S  S12  1  0.69260000  0.03011000  0.51352000  1.0 1.0907600332
S  S13  1  0.42077000  0.60785000  0.11301000  1.0 1.1816451359
S  S14  1  0.19260000  0.46989000  0.01352000  1.0 1.0907600332
S  S15  1  0.92077000  0.89215000  0.88699000  1.0 1.1816451359
S  S16  1  0.69260000  0.03011000  0.98648000  1.0 1.0907600332
O  O1  1  0.48300000  0.26140000  0.81440000  1.0 -1.2169259381
O  O2  1  0.55970000  0.19550000  0.91860000  1.0 -0.5977395963
O  O3  1  0.63950000  0.25070000  0.85590000  1.0 -0.6197268632
O  O4  1  0.80630000  0.25990000  0.16510000  1.0 -0.5977395963
O  O5  1  0.87360000  0.32540000  0.10230000  1.0 -0.6197268632
O  O6  1  0.59310000  0.37630000  0.81910000  1.0 -0.6518758129
O  O7  1  0.52780000  0.34600000  0.91730000  1.0 -0.4694835386
O  O8  1  0.55800000  0.46220000  0.89460000  1.0 -0.4621455661
O  O9  1  0.79180000  0.56790000  0.93100000  1.0 -0.4890647013
O  O10  1  0.77930000  0.56100000  0.04430000  1.0 -0.5493560773
O  O11  1  0.88410000  0.51590000  0.99030000  1.0 -0.5077847929
O  O12  1  0.98300000  0.23860000  0.18560000  1.0 -1.2169259381
O  O13  1  0.05970000  0.30450000  0.08140000  1.0 -0.5977395963
O  O14  1  0.13950000  0.24930000  0.14410000  1.0 -0.6197268632
O  O15  1  0.30630000  0.24010000  0.83490000  1.0 -0.5977395963
O  O16  1  0.37360000  0.17460000  0.89770000  1.0 -0.6197268632
O  O17  1  0.09310000  0.12370000  0.18090000  1.0 -0.6518758129
O  O18  1  0.02780000  0.15400000  0.08270000  1.0 -0.4694835386
O  O19  1  0.05800000  0.03780000  0.10540000  1.0 -0.4621455661
O  O20  1  0.29180000  0.93210000  0.06900000  1.0 -0.4890647013
O  O21  1  0.27930000  0.93900000  0.95570000  1.0 -0.5493560773
O  O22  1  0.38410000  0.98410000  0.00970000  1.0 -0.5030984771
O  O23  1  0.48300000  0.26140000  0.68560000  1.0 -1.2169259381
O  O24  1  0.55970000  0.19550000  0.58140000  1.0 -0.5977395963
O  O25  1  0.63950000  0.25070000  0.64410000  1.0 -0.6197268632
O  O26  1  0.80630000  0.25990000  0.33490000  1.0 -0.5977395963
O  O27  1  0.87360000  0.32540000  0.39770000  1.0 -0.6197268632
O  O28  1  0.59310000  0.37630000  0.68090000  1.0 -0.6518758129
O  O29  1  0.52780000  0.34600000  0.58270000  1.0 -0.4694835386
O  O30  1  0.55800000  0.46220000  0.60540000  1.0 -0.4621455661
O  O31  1  0.79180000  0.56790000  0.56900000  1.0 -0.4890647013
O  O32  1  0.77930000  0.56100000  0.45570000  1.0 -0.5493560773
O  O33  1  0.88410000  0.51590000  0.50970000  1.0 -0.5077847929
O  O34  1  0.98300000  0.23860000  0.31440000  1.0 -1.2169259381
O  O35  1  0.05970000  0.30450000  0.41860000  1.0 -0.5977395963
O  O36  1  0.13950000  0.24930000  0.35590000  1.0 -0.6197268632
O  O37  1  0.30630000  0.24010000  0.66510000  1.0 -0.5977395963
O  O38  1  0.37360000  0.17460000  0.60230000  1.0 -0.6197268632
O  O39  1  0.09310000  0.12370000  0.31910000  1.0 -0.6518758129
O  O40  1  0.02780000  0.15400000  0.41730000  1.0 -0.4694835386
O  O41  1  0.05800000  0.03780000  0.39460000  1.0 -0.4621455661
O  O42  1  0.29180000  0.93210000  0.43100000  1.0 -0.4890647013
O  O43  1  0.27930000  0.93900000  0.54430000  1.0 -0.5493560773
O  O44  1  0.38410000  0.98410000  0.49030000  1.0 -0.5030984771
O  O45  1  0.55510000  0.15820000  0.75000000  1.0 -1.3718510461
O  O46  1  0.40400000  0.16220000  0.75000000  1.0 -1.3127113175
O  O47  1  0.05510000  0.34180000  0.25000000  1.0 -1.3563229632
O  O48  1  0.90400000  0.33780000  0.25000000  1.0 -1.3226152253
O  O49  1  0.51700000  0.73860000  0.31440000  1.0 -1.2097783279
O  O50  1  0.44030000  0.80450000  0.41860000  1.0 -0.5977395963
O  O51  1  0.36050000  0.74930000  0.35590000  1.0 -0.6197268632
O  O52  1  0.19370000  0.74010000  0.66510000  1.0 -0.5977395963
O  O53  1  0.12640000  0.67460000  0.60230000  1.0 -0.6197268632
O  O54  1  0.40690000  0.62370000  0.31910000  1.0 -0.6559222531
O  O55  1  0.47220000  0.65400000  0.41730000  1.0 -0.4773147892
O  O56  1  0.44200000  0.53780000  0.39460000  1.0 -0.4694835386
O  O57  1  0.20820000  0.43210000  0.43100000  1.0 -0.4890647013
O  O58  1  0.22070000  0.43900000  0.54430000  1.0 -0.5493560773
O  O59  1  0.11590000  0.48410000  0.49030000  1.0 -0.5077847929
O  O60  1  0.01700000  0.76140000  0.68560000  1.0 -1.2097783279
O  O61  1  0.94030000  0.69550000  0.58140000  1.0 -0.5977395963
O  O62  1  0.86050000  0.75070000  0.64410000  1.0 -0.6197268632
O  O63  1  0.69370000  0.75990000  0.33490000  1.0 -0.5930298161
O  O64  1  0.62640000  0.82540000  0.39770000  1.0 -0.6197268632
O  O65  1  0.90690000  0.87630000  0.68090000  1.0 -0.6559222531
O  O66  1  0.97220000  0.84600000  0.58270000  1.0 -0.4773147892
O  O67  1  0.94200000  0.96220000  0.60540000  1.0 -0.4621455661
O  O68  1  0.70820000  0.06790000  0.56900000  1.0 -0.4890647013
O  O69  1  0.72070000  0.06100000  0.45570000  1.0 -0.5493560773
O  O70  1  0.61590000  0.01590000  0.50970000  1.0 -0.5077847929
O  O71  1  0.51700000  0.73860000  0.18560000  1.0 -1.2097783279
O  O72  1  0.44030000  0.80450000  0.08140000  1.0 -0.5977395963
O  O73  1  0.36050000  0.74930000  0.14410000  1.0 -0.6197268632
O  O74  1  0.19370000  0.74010000  0.83490000  1.0 -0.5977395963
O  O75  1  0.12640000  0.67460000  0.89770000  1.0 -0.6197268632
O  O76  1  0.40690000  0.62370000  0.18090000  1.0 -0.6559222531
O  O77  1  0.47220000  0.65400000  0.08270000  1.0 -0.4773147892
O  O78  1  0.44200000  0.53780000  0.10540000  1.0 -0.4694835386
O  O79  1  0.20820000  0.43210000  0.06900000  1.0 -0.4890647013
O  O80  1  0.22070000  0.43900000  0.95570000  1.0 -0.5493560773
O  O81  1  0.11590000  0.48410000  0.00970000  1.0 -0.5077847929
O  O82  1  0.01700000  0.76140000  0.81440000  1.0 -1.2097783279
O  O83  1  0.94030000  0.69550000  0.91860000  1.0 -0.5977395963
O  O84  1  0.86050000  0.75070000  0.85590000  1.0 -0.6197268632
O  O85  1  0.69370000  0.75990000  0.16510000  1.0 -0.5930298161
O  O86  1  0.62640000  0.82540000  0.10230000  1.0 -0.6197268632
O  O87  1  0.90690000  0.87630000  0.81910000  1.0 -0.6559222531
O  O88  1  0.97220000  0.84600000  0.91730000  1.0 -0.4773147892
O  O89  1  0.94200000  0.96220000  0.89460000  1.0 -0.4621455661
O  O90  1  0.70820000  0.06790000  0.93100000  1.0 -0.4890647013
O  O91  1  0.72070000  0.06100000  0.04430000  1.0 -0.5493560773
O  O92  1  0.61590000  0.01590000  0.99030000  1.0 -0.5077847929
O  O93  1  0.44490000  0.84180000  0.25000000  1.0 -1.378664453
O  O94  1  0.59600000  0.83780000  0.25000000  1.0 -1.3370315623
O  O95  1  0.94490000  0.65820000  0.75000000  1.0 -1.3856784892
O  O96  1  0.09600000  0.66220000  0.75000000  1.0 -1.3226152253
