# DDEC6 charges by PACMAN v1.1 (https://github.com/mtap-research/PACMAN-charge/)
data_VUNHAO_ASR_pacman
_symmetry_space_group_name_H-M   'P 1'
_cell_length_a   12.09000000
_cell_length_b   21.31000000
_cell_length_c   29.84600000
_cell_angle_alpha   90.00000000
_cell_angle_beta   90.00000000
_cell_angle_gamma   90.00000000
_symmetry_Int_Tables_number   1
_chemical_formula_structural   Fe3(C2N3)8
_chemical_formula_sum   'Fe12 C64 N96'
_cell_volume   7689.46076340
_cell_formula_units_Z   4
loop_
 _symmetry_equiv_pos_site_id
 _symmetry_equiv_pos_as_xyz
  1  'x, y, z'
loop_
 _atom_site_type_symbol
 _atom_site_label
 _atom_site_symmetry_multiplicity
 _atom_site_fract_x
 _atom_site_fract_y
 _atom_site_fract_z
 _atom_site_occupancy
 _atom_site_charge
Fe  Fe1  1  0.15566000  0.24062000  0.47485000  1.0 1.0405281408
Fe  Fe2  1  0.65566000  0.75938000  0.52515000  1.0 1.0405281408
Fe  Fe3  1  0.15566000  0.75938000  0.97485000  1.0 1.0405281408
Fe  Fe4  1  0.65566000  0.24062000  0.02515000  1.0 1.0405281408
Fe  Fe5  1  0.66380000  0.11245000  0.64892000  1.0 0.9813472254
Fe  Fe6  1  0.16380000  0.88755000  0.35108000  1.0 0.9747592731
Fe  Fe7  1  0.66380000  0.88755000  0.14892000  1.0 0.9747592731
Fe  Fe8  1  0.16380000  0.11245000  0.85108000  1.0 0.9813472254
Fe  Fe9  1  0.16011000  0.54653000  0.65784000  1.0 0.9079474433
Fe  Fe10  1  0.66011000  0.45347000  0.34216000  1.0 0.9322586281
Fe  Fe11  1  0.16011000  0.45347000  0.15784000  1.0 0.9322586281
Fe  Fe12  1  0.66011000  0.54653000  0.84216000  1.0 0.9079474433
C  C1  1  0.30980000  0.14660000  0.53720000  1.0 0.4567257835
C  C2  1  0.80980000  0.85340000  0.46280000  1.0 0.4503290031
C  C3  1  0.30980000  0.85340000  0.03720000  1.0 0.4567257835
C  C4  1  0.80980000  0.14660000  0.96280000  1.0 0.4503290031
C  C5  1  0.44530000  0.11390000  0.58440000  1.0 0.4697419116
C  C6  1  0.94530000  0.88610000  0.41560000  1.0 0.4811198784
C  C7  1  0.44530000  0.88610000  0.08440000  1.0 0.4697419116
C  C8  1  0.94530000  0.11390000  0.91560000  1.0 0.4697419116
C  C9  1  0.08260000  0.34160000  0.55220000  1.0 0.4238373002
C  C10  1  0.58260000  0.65840000  0.44780000  1.0 0.4238373002
C  C11  1  0.08260000  0.65840000  0.05220000  1.0 0.4238373002
C  C12  1  0.58260000  0.34160000  0.94780000  1.0 0.4238373002
C  C13  1  0.08930000  0.42490000  0.59860000  1.0 0.4406628171
C  C14  1  0.58930000  0.57510000  0.40140000  1.0 0.4406628171
C  C15  1  0.08930000  0.57510000  0.09860000  1.0 0.4406628171
C  C16  1  0.58930000  0.42490000  0.90140000  1.0 0.4406628171
C  C17  1  0.00780000  0.34540000  0.42640000  1.0 0.4238373002
C  C18  1  0.50780000  0.65460000  0.57360000  1.0 0.4238373002
C  C19  1  0.00780000  0.65460000  0.92640000  1.0 0.4238373002
C  C20  1  0.50780000  0.34540000  0.07360000  1.0 0.4238373002
C  C21  1  0.88290000  0.41030000  0.39990000  1.0 0.4406628171
C  C22  1  0.38290000  0.58970000  0.60010000  1.0 0.4406628171
C  C23  1  0.88290000  0.58970000  0.89990000  1.0 0.4406628171
C  C24  1  0.38290000  0.41030000  0.10010000  1.0 0.4406628171
C  C25  1  0.92770000  0.17340000  0.50340000  1.0 0.4503290031
C  C26  1  0.42770000  0.82660000  0.49660000  1.0 0.4503290031
C  C27  1  0.92770000  0.82660000  0.00340000  1.0 0.4503290031
C  C28  1  0.42770000  0.17340000  0.99660000  1.0 0.4503290031
C  C29  1  0.79030000  0.14730000  0.55540000  1.0 0.4406628171
C  C30  1  0.29030000  0.85270000  0.44460000  1.0 0.4503290031
C  C31  1  0.79030000  0.85270000  0.05540000  1.0 0.4503290031
C  C32  1  0.29030000  0.14730000  0.94460000  1.0 0.4406628171
C  C33  1  0.23060000  0.13010000  0.40610000  1.0 0.4503290031
C  C34  1  0.73060000  0.86990000  0.59390000  1.0 0.4503290031
C  C35  1  0.23060000  0.86990000  0.90610000  1.0 0.4503290031
C  C36  1  0.73060000  0.13010000  0.09390000  1.0 0.4503290031
C  C37  1  0.23400000  0.03020000  0.37690000  1.0 0.4406628171
C  C38  1  0.73400000  0.96980000  0.62310000  1.0 0.4406628171
C  C39  1  0.23400000  0.96980000  0.87690000  1.0 0.4406628171
C  C40  1  0.73400000  0.03020000  0.12310000  1.0 0.4406628171
C  C41  1  0.38950000  0.31460000  0.45080000  1.0 0.4288284479
C  C42  1  0.88950000  0.68540000  0.54920000  1.0 0.4288284479
C  C43  1  0.38950000  0.68540000  0.95080000  1.0 0.4288284479
C  C44  1  0.88950000  0.31460000  0.04920000  1.0 0.4288284479
C  C45  1  0.51830000  0.36920000  0.41290000  1.0 0.4971926732
C  C46  1  0.01830000  0.63080000  0.58710000  1.0 0.4915608092
C  C47  1  0.51830000  0.63080000  0.91290000  1.0 0.4915608092
C  C48  1  0.01830000  0.36920000  0.08710000  1.0 0.4971926732
C  C49  1  0.88980000  0.09280000  0.70630000  1.0 0.4971926732
C  C50  1  0.38980000  0.90720000  0.29370000  1.0 0.4971926732
C  C51  1  0.88980000  0.90720000  0.20630000  1.0 0.4971926732
C  C52  1  0.38980000  0.09280000  0.79370000  1.0 0.4971926732
C  C53  1  0.02060000  0.08280000  0.76120000  1.0 0.5176282747
C  C54  1  0.52060000  0.91720000  0.23880000  1.0 0.513916604
C  C55  1  0.02060000  0.91720000  0.26120000  1.0 0.5354162676
C  C56  1  0.52060000  0.08280000  0.73880000  1.0 0.5176282747
C  C57  1  0.30830000  0.48710000  0.73490000  1.0 0.4811198784
C  C58  1  0.80830000  0.51290000  0.26510000  1.0 0.4811198784
C  C59  1  0.30830000  0.51290000  0.23490000  1.0 0.4811198784
C  C60  1  0.80830000  0.48710000  0.76510000  1.0 0.4971926732
C  C61  1  0.45220000  0.49630000  0.78770000  1.0 0.4697419116
C  C62  1  0.95220000  0.50370000  0.21230000  1.0 0.4697419116
C  C63  1  0.45220000  0.50370000  0.28770000  1.0 0.4697419116
C  C64  1  0.95220000  0.49630000  0.71230000  1.0 0.4697419116
N  N1  1  0.25600000  0.17970000  0.51750000  1.0 -0.4499543475
N  N2  1  0.75600000  0.82030000  0.48250000  1.0 -0.4389426622
N  N3  1  0.25600000  0.82030000  0.01750000  1.0 -0.4499543475
N  N4  1  0.75600000  0.17970000  0.98250000  1.0 -0.4499543475
N  N5  1  0.37020000  0.10490000  0.55650000  1.0 -0.3628458788
N  N6  1  0.87020000  0.89510000  0.44350000  1.0 -0.3688703554
N  N7  1  0.37020000  0.89510000  0.05650000  1.0 -0.3628458788
N  N8  1  0.87020000  0.10490000  0.94350000  1.0 -0.3628458788
N  N9  1  0.51280000  0.11400000  0.60870000  1.0 -0.4707601346
N  N10  1  0.01280000  0.88600000  0.39130000  1.0 -0.4707601346
N  N11  1  0.51280000  0.88600000  0.10870000  1.0 -0.4707601346
N  N12  1  0.01280000  0.11400000  0.89130000  1.0 -0.4707601346
N  N13  1  0.12070000  0.30250000  0.53040000  1.0 -0.458974451
N  N14  1  0.62070000  0.69750000  0.46960000  1.0 -0.4499543475
N  N15  1  0.12070000  0.69750000  0.03040000  1.0 -0.4499543475
N  N16  1  0.62070000  0.30250000  0.96960000  1.0 -0.458974451
N  N17  1  0.02880000  0.38020000  0.57580000  1.0 -0.2909515278
N  N18  1  0.52880000  0.61980000  0.42420000  1.0 -0.2909515278
N  N19  1  0.02880000  0.61980000  0.07580000  1.0 -0.2909515278
N  N20  1  0.52880000  0.38020000  0.92420000  1.0 -0.2909515278
N  N21  1  0.12110000  0.46540000  0.61790000  1.0 -0.4169499255
N  N22  1  0.62110000  0.53460000  0.38210000  1.0 -0.4031249808
N  N23  1  0.12110000  0.53460000  0.11790000  1.0 -0.4031249808
N  N24  1  0.62110000  0.46540000  0.88210000  1.0 -0.4085538091
N  N25  1  0.06340000  0.30070000  0.43210000  1.0 -0.4768340813
N  N26  1  0.56340000  0.69930000  0.56790000  1.0 -0.4768340813
N  N27  1  0.06340000  0.69930000  0.93210000  1.0 -0.4768340813
N  N28  1  0.56340000  0.30070000  0.06790000  1.0 -0.4768340813
N  N29  1  0.96260000  0.40160000  0.42780000  1.0 -0.3289430814
N  N30  1  0.46260000  0.59840000  0.57220000  1.0 -0.3231886552
N  N31  1  0.96260000  0.59840000  0.92780000  1.0 -0.3289430814
N  N32  1  0.46260000  0.40160000  0.07220000  1.0 -0.3289430814
N  N33  1  0.80960000  0.42940000  0.38110000  1.0 -0.4389426622
N  N34  1  0.30960000  0.57060000  0.61890000  1.0 -0.4499543475
N  N35  1  0.80960000  0.57060000  0.88110000  1.0 -0.4499543475
N  N36  1  0.30960000  0.42940000  0.11890000  1.0 -0.4499543475
N  N37  1  0.01030000  0.19170000  0.49060000  1.0 -0.4389426622
N  N38  1  0.51030000  0.80830000  0.50940000  1.0 -0.4335596042
N  N39  1  0.01030000  0.80830000  0.99060000  1.0 -0.4389426622
N  N40  1  0.51030000  0.19170000  0.00940000  1.0 -0.4389426622
N  N41  1  0.82330000  0.15160000  0.51260000  1.0 -0.3231886552
N  N42  1  0.32330000  0.84840000  0.48740000  1.0 -0.3289430814
N  N43  1  0.82330000  0.84840000  0.01260000  1.0 -0.3231886552
N  N44  1  0.32330000  0.15160000  0.98740000  1.0 -0.3231886552
N  N45  1  0.75080000  0.14310000  0.58970000  1.0 -0.4389426622
N  N46  1  0.25080000  0.85690000  0.41030000  1.0 -0.4499543475
N  N47  1  0.75080000  0.85690000  0.08970000  1.0 -0.4499543475
N  N48  1  0.25080000  0.14310000  0.91030000  1.0 -0.4389426622
N  N49  1  0.19270000  0.17560000  0.42140000  1.0 -0.458974451
N  N50  1  0.69270000  0.82440000  0.57860000  1.0 -0.458974451
N  N51  1  0.19270000  0.82440000  0.92140000  1.0 -0.458974451
N  N52  1  0.69270000  0.17560000  0.07860000  1.0 -0.458974451
N  N53  1  0.28270000  0.08160000  0.38780000  1.0 -0.3289430814
N  N54  1  0.78270000  0.91840000  0.61220000  1.0 -0.3289430814
N  N55  1  0.28270000  0.91840000  0.88780000  1.0 -0.3289430814
N  N56  1  0.78270000  0.08160000  0.11220000  1.0 -0.3289430814
N  N57  1  0.19160000  0.98360000  0.36660000  1.0 -0.4904546019
N  N58  1  0.69160000  0.01640000  0.63340000  1.0 -0.4904546019
N  N59  1  0.19160000  0.01640000  0.86660000  1.0 -0.4904546019
N  N60  1  0.69160000  0.98360000  0.13340000  1.0 -0.4904546019
N  N61  1  0.30460000  0.29540000  0.45770000  1.0 -0.4389426622
N  N62  1  0.80460000  0.70460000  0.54230000  1.0 -0.4389426622
N  N63  1  0.30460000  0.70460000  0.95770000  1.0 -0.4389426622
N  N64  1  0.80460000  0.29540000  0.04230000  1.0 -0.4389426622
N  N65  1  0.48470000  0.34140000  0.44970000  1.0 -0.3628458788
N  N66  1  0.98470000  0.65860000  0.55030000  1.0 -0.3628458788
N  N67  1  0.48470000  0.65860000  0.94970000  1.0 -0.3628458788
N  N68  1  0.98470000  0.34140000  0.05030000  1.0 -0.3628458788
N  N69  1  0.56700000  0.39720000  0.38350000  1.0 -0.6031147616
N  N70  1  0.06700000  0.60280000  0.61650000  1.0 -0.5935792701
N  N71  1  0.56700000  0.60280000  0.88350000  1.0 -0.5935792701
N  N72  1  0.06700000  0.39720000  0.11650000  1.0 -0.6031147616
N  N73  1  0.81180000  0.11160000  0.68990000  1.0 -0.4904546019
N  N74  1  0.31180000  0.88840000  0.31010000  1.0 -0.5001393335
N  N75  1  0.81180000  0.88840000  0.18990000  1.0 -0.5001393335
N  N76  1  0.31180000  0.11160000  0.81010000  1.0 -0.4904546019
N  N77  1  0.97140000  0.06500000  0.72500000  1.0 -0.4085538091
N  N78  1  0.47140000  0.93500000  0.27500000  1.0 -0.4085538091
N  N79  1  0.97140000  0.93500000  0.22500000  1.0 -0.4169499255
N  N80  1  0.47140000  0.06500000  0.77500000  1.0 -0.4085538091
N  N81  1  0.07100000  0.09160000  0.79360000  1.0 -0.5477207081
N  N82  1  0.57100000  0.90840000  0.20640000  1.0 -0.5477207081
N  N83  1  0.07100000  0.90840000  0.29360000  1.0 -0.5609459059
N  N84  1  0.57100000  0.09160000  0.70640000  1.0 -0.5477207081
N  N85  1  0.26150000  0.49470000  0.70220000  1.0 -0.4707601346
N  N86  1  0.76150000  0.50530000  0.29780000  1.0 -0.458974451
N  N87  1  0.26150000  0.50530000  0.20220000  1.0 -0.458974451
N  N88  1  0.76150000  0.49470000  0.79780000  1.0 -0.4707601346
N  N89  1  0.35910000  0.46600000  0.77260000  1.0 -0.3688703554
N  N90  1  0.85910000  0.53400000  0.22740000  1.0 -0.3628458788
N  N91  1  0.35910000  0.53400000  0.27260000  1.0 -0.3628458788
N  N92  1  0.85910000  0.46600000  0.72740000  1.0 -0.3688703554
N  N93  1  0.52080000  0.52450000  0.80010000  1.0 -0.4169499255
N  N94  1  0.02080000  0.47550000  0.19990000  1.0 -0.4169499255
N  N95  1  0.52080000  0.47550000  0.30010000  1.0 -0.4169499255
N  N96  1  0.02080000  0.52450000  0.69990000  1.0 -0.4169499255
