# DDEC6 charges by PACMAN v1.1 (https://github.com/mtap-research/PACMAN-charge/)
data_VUNLIC_ASR_pacman
_symmetry_space_group_name_H-M   'P 1'
_cell_length_a   15.62740000
_cell_length_b   14.97550000
_cell_length_c   18.61870000
_cell_angle_alpha   90.00000000
_cell_angle_beta   110.96500000
_cell_angle_gamma   90.00000000
_symmetry_Int_Tables_number   1
_chemical_formula_structural   MgH8C14(NO2)2
_chemical_formula_sum   'Mg6 H48 C84 N12 O24'
_cell_volume   4068.84266120
_cell_formula_units_Z   6
loop_
 _symmetry_equiv_pos_site_id
 _symmetry_equiv_pos_as_xyz
  1  'x, y, z'
loop_
 _atom_site_type_symbol
 _atom_site_label
 _atom_site_symmetry_multiplicity
 _atom_site_fract_x
 _atom_site_fract_y
 _atom_site_fract_z
 _atom_site_occupancy
 _atom_site_charge
Mg  Mg1  1  0.06124000  0.51208000  0.83482000  1.0 1.335102929
Mg  Mg2  1  0.93876000  0.01208000  0.66518000  1.0 1.335102929
Mg  Mg3  1  0.93876000  0.48792000  0.16518000  1.0 1.335102929
Mg  Mg4  1  0.06124000  0.98792000  0.33482000  1.0 1.335102929
Mg  Mg5  1  0.00000000  0.50000000  0.00000000  1.0 1.4023340477
Mg  Mg6  1  0.00000000  0.00000000  0.50000000  1.0 1.4023340477
H  H1  1  0.17890000  0.22337000  0.91891000  1.0 0.1188924414
H  H2  1  0.16143000  0.07803000  0.95640000  1.0 0.1288190222
H  H3  1  0.92226000  0.14904000  0.97935000  1.0 0.1188924414
H  H4  1  0.94361000  0.29585000  0.94782000  1.0 0.1353216006
H  H5  1  0.87531000  0.71635000  0.72937000  1.0 0.1188924414
H  H6  1  0.73895000  0.78780000  0.65678000  1.0 0.1288190222
H  H7  1  0.62639000  0.71353000  0.81236000  1.0 0.1188924414
H  H8  1  0.76400000  0.64636000  0.88651000  1.0 0.1288190222
H  H9  1  0.23688000  0.88580000  0.63724000  1.0 0.1288190222
H  H10  1  0.37596000  0.82709000  0.71976000  1.0 0.1188924414
H  H11  1  0.46935000  0.81867000  0.54323000  1.0 0.1188924414
H  H12  1  0.32686000  0.86708000  0.45976000  1.0 0.1288190222
H  H13  1  0.82110000  0.72337000  0.58109000  1.0 0.1188924414
H  H14  1  0.83857000  0.57803000  0.54360000  1.0 0.1288190222
H  H15  1  0.07774000  0.64904000  0.52065000  1.0 0.1188924414
H  H16  1  0.05639000  0.79585000  0.55218000  1.0 0.1353216006
H  H17  1  0.12469000  0.21635000  0.77063000  1.0 0.1188924414
H  H18  1  0.26105000  0.28780000  0.84322000  1.0 0.1288190222
H  H19  1  0.37361000  0.21353000  0.68764000  1.0 0.1188924414
H  H20  1  0.23600000  0.14636000  0.61349000  1.0 0.1288190222
H  H21  1  0.76312000  0.38580000  0.86276000  1.0 0.1288190222
H  H22  1  0.62404000  0.32709000  0.78024000  1.0 0.1188924414
H  H23  1  0.53065000  0.31867000  0.95677000  1.0 0.1188924414
H  H24  1  0.67314000  0.36708000  0.04024000  1.0 0.1288190222
H  H25  1  0.82110000  0.77663000  0.08109000  1.0 0.1188924414
H  H26  1  0.83857000  0.92197000  0.04360000  1.0 0.1288190222
H  H27  1  0.07774000  0.85096000  0.02065000  1.0 0.1188924414
H  H28  1  0.05639000  0.70415000  0.05218000  1.0 0.1353216006
H  H29  1  0.12469000  0.28365000  0.27063000  1.0 0.1188924414
H  H30  1  0.26105000  0.21220000  0.34322000  1.0 0.1288190222
H  H31  1  0.37361000  0.28647000  0.18764000  1.0 0.1188924414
H  H32  1  0.23600000  0.35364000  0.11349000  1.0 0.1288190222
H  H33  1  0.76312000  0.11420000  0.36276000  1.0 0.1288190222
H  H34  1  0.62404000  0.17291000  0.28024000  1.0 0.1188924414
H  H35  1  0.53065000  0.18133000  0.45677000  1.0 0.1188924414
H  H36  1  0.67314000  0.13292000  0.54024000  1.0 0.1288190222
H  H37  1  0.17890000  0.27663000  0.41891000  1.0 0.1188924414
H  H38  1  0.16143000  0.42197000  0.45640000  1.0 0.1288190222
H  H39  1  0.92226000  0.35096000  0.47935000  1.0 0.1188924414
H  H40  1  0.94361000  0.20415000  0.44782000  1.0 0.1353216006
H  H41  1  0.87531000  0.78365000  0.22937000  1.0 0.1188924414
H  H42  1  0.73895000  0.71220000  0.15678000  1.0 0.1288190222
H  H43  1  0.62639000  0.78647000  0.31236000  1.0 0.1188924414
H  H44  1  0.76400000  0.85364000  0.38651000  1.0 0.1288190222
H  H45  1  0.23688000  0.61420000  0.13724000  1.0 0.1288190222
H  H46  1  0.37596000  0.67291000  0.21976000  1.0 0.1188924414
H  H47  1  0.46935000  0.68133000  0.04323000  1.0 0.1188924414
H  H48  1  0.32686000  0.63292000  0.95976000  1.0 0.1288190222
C  C1  1  0.07120000  0.36513000  0.90092000  1.0 0.5805996342
C  C2  1  0.06299000  0.27350000  0.92944000  1.0 -0.0115394236
C  C3  1  0.12722000  0.20844000  0.93200000  1.0 -0.0984197797
C  C4  1  0.11649000  0.12201000  0.95349000  1.0 -0.1592571342
C  C5  1  0.04003000  0.09979000  0.97075000  1.0 0.1581995422
C  C6  1  0.97492000  0.16454000  0.96789000  1.0 -0.1506326122
C  C7  1  0.98707000  0.25125000  0.94836000  1.0 -0.0839356554
C  C8  1  0.91848000  0.62233000  0.85958000  1.0 0.618935874
C  C9  1  0.83250000  0.67301000  0.81416000  1.0 -0.0204608783
C  C10  1  0.82474000  0.71565000  0.74631000  1.0 -0.0917002891
C  C11  1  0.74351000  0.75744000  0.70281000  1.0 -0.1506326122
C  C12  1  0.66937000  0.75490000  0.72640000  1.0 0.1581995422
C  C13  1  0.67695000  0.71390000  0.79540000  1.0 -0.1592571342
C  C14  1  0.75839000  0.67377000  0.83902000  1.0 -0.0917002891
C  C15  1  0.17772000  0.91790000  0.48719000  1.0 0.618935874
C  C16  1  0.26864000  0.88232000  0.54081000  1.0 -0.0287557926
C  C17  1  0.28362000  0.87086000  0.61786000  1.0 -0.0917002891
C  C18  1  0.36679000  0.83754000  0.66719000  1.0 -0.1592571342
C  C19  1  0.43592000  0.81969000  0.63976000  1.0 0.1519355162
C  C20  1  0.42168000  0.83122000  0.56217000  1.0 -0.1592571342
C  C21  1  0.33768000  0.86103000  0.51309000  1.0 -0.0839356554
C  C22  1  0.92880000  0.86513000  0.59908000  1.0 0.5805996342
C  C23  1  0.93701000  0.77350000  0.57056000  1.0 -0.0115394236
C  C24  1  0.87278000  0.70844000  0.56800000  1.0 -0.0984197797
C  C25  1  0.88351000  0.62201000  0.54651000  1.0 -0.1592571342
C  C26  1  0.95997000  0.59979000  0.52925000  1.0 0.1581995422
C  C27  1  0.02508000  0.66454000  0.53211000  1.0 -0.1506326122
C  C28  1  0.01293000  0.75125000  0.55164000  1.0 -0.0839356554
C  C29  1  0.08152000  0.12233000  0.64042000  1.0 0.618935874
C  C30  1  0.16750000  0.17301000  0.68584000  1.0 -0.0204608783
C  C31  1  0.17526000  0.21565000  0.75369000  1.0 -0.0917002891
C  C32  1  0.25649000  0.25744000  0.79719000  1.0 -0.1506326122
C  C33  1  0.33063000  0.25490000  0.77360000  1.0 0.1581995422
C  C34  1  0.32305000  0.21390000  0.70460000  1.0 -0.1592571342
C  C35  1  0.24161000  0.17377000  0.66098000  1.0 -0.0917002891
C  C36  1  0.82228000  0.41790000  0.01281000  1.0 0.618935874
C  C37  1  0.73136000  0.38232000  0.95919000  1.0 -0.0287557926
C  C38  1  0.71638000  0.37086000  0.88214000  1.0 -0.0917002891
C  C39  1  0.63321000  0.33754000  0.83281000  1.0 -0.1592571342
C  C40  1  0.56408000  0.31969000  0.86024000  1.0 0.1519355162
C  C41  1  0.57832000  0.33122000  0.93783000  1.0 -0.1592571342
C  C42  1  0.66232000  0.36103000  0.98691000  1.0 -0.0839356554
C  C43  1  0.92880000  0.63487000  0.09908000  1.0 0.5805996342
C  C44  1  0.93701000  0.72650000  0.07056000  1.0 -0.0115394236
C  C45  1  0.87278000  0.79156000  0.06800000  1.0 -0.0984197797
C  C46  1  0.88351000  0.87799000  0.04651000  1.0 -0.1592571342
C  C47  1  0.95997000  0.90021000  0.02925000  1.0 0.1581995422
C  C48  1  0.02508000  0.83546000  0.03211000  1.0 -0.1506326122
C  C49  1  0.01293000  0.74875000  0.05164000  1.0 -0.0839356554
C  C50  1  0.08152000  0.37767000  0.14042000  1.0 0.618935874
C  C51  1  0.16750000  0.32699000  0.18584000  1.0 -0.0204608783
C  C52  1  0.17526000  0.28435000  0.25369000  1.0 -0.0917002891
C  C53  1  0.25649000  0.24256000  0.29719000  1.0 -0.1506326122
C  C54  1  0.33063000  0.24510000  0.27360000  1.0 0.1581995422
C  C55  1  0.32305000  0.28610000  0.20460000  1.0 -0.1592571342
C  C56  1  0.24161000  0.32623000  0.16098000  1.0 -0.0917002891
C  C57  1  0.82228000  0.08210000  0.51281000  1.0 0.618935874
C  C58  1  0.73136000  0.11768000  0.45919000  1.0 -0.0287557926
C  C59  1  0.71638000  0.12914000  0.38214000  1.0 -0.0917002891
C  C60  1  0.63321000  0.16246000  0.33281000  1.0 -0.1592571342
C  C61  1  0.56408000  0.18031000  0.36024000  1.0 0.1519355162
C  C62  1  0.57832000  0.16878000  0.43783000  1.0 -0.1592571342
C  C63  1  0.66232000  0.13897000  0.48691000  1.0 -0.0839356554
C  C64  1  0.07120000  0.13487000  0.40092000  1.0 0.5805996342
C  C65  1  0.06299000  0.22650000  0.42944000  1.0 -0.0115394236
C  C66  1  0.12722000  0.29156000  0.43200000  1.0 -0.0984197797
C  C67  1  0.11649000  0.37799000  0.45349000  1.0 -0.1592571342
C  C68  1  0.04003000  0.40021000  0.47075000  1.0 0.1581995422
C  C69  1  0.97492000  0.33546000  0.46789000  1.0 -0.1506326122
C  C70  1  0.98707000  0.24875000  0.44836000  1.0 -0.0839356554
C  C71  1  0.91848000  0.87767000  0.35958000  1.0 0.618935874
C  C72  1  0.83250000  0.82699000  0.31416000  1.0 -0.0204608783
C  C73  1  0.82474000  0.78435000  0.24631000  1.0 -0.0917002891
C  C74  1  0.74351000  0.74256000  0.20281000  1.0 -0.1506326122
C  C75  1  0.66937000  0.74510000  0.22640000  1.0 0.1581995422
C  C76  1  0.67695000  0.78610000  0.29540000  1.0 -0.1592571342
C  C77  1  0.75839000  0.82623000  0.33902000  1.0 -0.0917002891
C  C78  1  0.17772000  0.58210000  0.98719000  1.0 0.618935874
C  C79  1  0.26864000  0.61768000  0.04081000  1.0 -0.0287557926
C  C80  1  0.28362000  0.62914000  0.11786000  1.0 -0.0917002891
C  C81  1  0.36679000  0.66246000  0.16719000  1.0 -0.1592571342
C  C82  1  0.43592000  0.68031000  0.13976000  1.0 0.1581995422
C  C83  1  0.42168000  0.66878000  0.06217000  1.0 -0.1592571342
C  C84  1  0.33768000  0.63897000  0.01309000  1.0 -0.0839356554
N  N1  1  0.03408000  0.00839000  0.99057000  1.0 -0.1292360143
N  N2  1  0.58700000  0.79384000  0.67422000  1.0 -0.1292360143
N  N3  1  0.51926000  0.78478000  0.69404000  1.0 -0.1376809494
N  N4  1  0.96592000  0.50839000  0.50943000  1.0 -0.1292360143
N  N5  1  0.41300000  0.29384000  0.82578000  1.0 -0.1292360143
N  N6  1  0.48074000  0.28478000  0.80596000  1.0 -0.1376809494
N  N7  1  0.96592000  0.99161000  0.00943000  1.0 -0.1292360143
N  N8  1  0.41300000  0.20616000  0.32578000  1.0 -0.1292360143
N  N9  1  0.48074000  0.21522000  0.30596000  1.0 -0.1376809494
N  N10  1  0.03408000  0.49161000  0.49057000  1.0 -0.1292360143
N  N11  1  0.58700000  0.70616000  0.17422000  1.0 -0.1292360143
N  N12  1  0.51926000  0.71522000  0.19404000  1.0 -0.1376809494
O  O1  1  0.12064000  0.37781000  0.86191000  1.0 -0.586046742
O  O2  1  0.02340000  0.42865000  0.91276000  1.0 -0.7013557421
O  O3  1  0.98124000  0.61910000  0.83227000  1.0 -0.6683800833
O  O4  1  0.91873000  0.58616000  0.92022000  1.0 -0.6364613639
O  O5  1  0.11682000  0.92761000  0.51504000  1.0 -0.6314190643
O  O6  1  0.17195000  0.93542000  0.41928000  1.0 -0.6571555154
O  O7  1  0.87936000  0.87781000  0.63809000  1.0 -0.586046742
O  O8  1  0.97660000  0.92865000  0.58724000  1.0 -0.7013557421
O  O9  1  0.01876000  0.11910000  0.66773000  1.0 -0.6683800833
O  O10  1  0.08127000  0.08616000  0.57978000  1.0 -0.6364613639
O  O11  1  0.88318000  0.42761000  0.98496000  1.0 -0.6314190643
O  O12  1  0.82805000  0.43542000  0.08072000  1.0 -0.6571555154
O  O13  1  0.87936000  0.62219000  0.13809000  1.0 -0.586046742
O  O14  1  0.97660000  0.57135000  0.08724000  1.0 -0.7013557421
O  O15  1  0.01876000  0.38090000  0.16773000  1.0 -0.6683800833
O  O16  1  0.08127000  0.41384000  0.07978000  1.0 -0.6364613639
O  O17  1  0.88318000  0.07239000  0.48496000  1.0 -0.6314190643
O  O18  1  0.82805000  0.06458000  0.58072000  1.0 -0.6571555154
O  O19  1  0.12064000  0.12219000  0.36191000  1.0 -0.586046742
O  O20  1  0.02340000  0.07135000  0.41276000  1.0 -0.7013557421
O  O21  1  0.98124000  0.88090000  0.33227000  1.0 -0.6683800833
O  O22  1  0.91873000  0.91384000  0.42022000  1.0 -0.6364613639
O  O23  1  0.11682000  0.57239000  0.01504000  1.0 -0.6314190643
O  O24  1  0.17195000  0.56458000  0.91928000  1.0 -0.6571555154
