# DDEC6 charges by PACMAN v1.1 (https://github.com/mtap-research/PACMAN-charge/)
data_VURNED02_FSR_pacman
_symmetry_space_group_name_H-M   'P 1'
_cell_length_a   10.87550000
_cell_length_b   10.87550000
_cell_length_c   9.60930000
_cell_angle_alpha   90.00000000
_cell_angle_beta   90.00000000
_cell_angle_gamma   103.26100000
_symmetry_Int_Tables_number   1
_chemical_formula_structural   ZnH16C14NO4
_chemical_formula_sum   'Zn2 H32 C28 N2 O8'
_cell_volume   1106.24842107
_cell_formula_units_Z   2
loop_
 _symmetry_equiv_pos_site_id
 _symmetry_equiv_pos_as_xyz
  1  'x, y, z'
loop_
 _atom_site_type_symbol
 _atom_site_label
 _atom_site_symmetry_multiplicity
 _atom_site_fract_x
 _atom_site_fract_y
 _atom_site_fract_z
 _atom_site_occupancy
 _atom_site_charge
Zn  Zn1  1  0.00000000  0.00000000  0.34791000  1.0 0.769662516
Zn  Zn2  1  0.00000000  0.00000000  0.65209000  1.0 0.769662516
H  H1  1  0.00760000  0.39560000  0.71340000  1.0 0.1237221489
H  H2  1  0.99240000  0.60440000  0.71340000  1.0 0.1237221489
H  H3  1  0.60440000  0.99240000  0.28660000  1.0 0.1237221489
H  H4  1  0.39560000  0.00760000  0.28660000  1.0 0.1237221489
H  H5  1  0.99240000  0.60440000  0.28660000  1.0 0.1237221489
H  H6  1  0.00760000  0.39560000  0.28660000  1.0 0.1237221489
H  H7  1  0.39560000  0.00760000  0.71340000  1.0 0.1237221489
H  H8  1  0.60440000  0.99240000  0.71340000  1.0 0.1237221489
H  H9  1  0.04930000  0.83190000  0.11450000  1.0 0.0893316757
H  H10  1  0.95070000  0.16810000  0.11450000  1.0 0.0893316757
H  H11  1  0.16810000  0.95070000  0.88550000  1.0 0.0893316757
H  H12  1  0.83190000  0.04930000  0.88550000  1.0 0.0893316757
H  H13  1  0.95070000  0.16810000  0.88550000  1.0 0.0893316757
H  H14  1  0.04930000  0.83190000  0.88550000  1.0 0.0893316757
H  H15  1  0.83190000  0.04930000  0.11450000  1.0 0.0893316757
H  H16  1  0.16810000  0.95070000  0.11450000  1.0 0.0893316757
H  H17  1  0.86590000  0.83650000  0.11470000  1.0 0.0893316757
H  H18  1  0.13410000  0.16350000  0.11470000  1.0 0.0893316757
H  H19  1  0.16350000  0.13410000  0.88530000  1.0 0.0893316757
H  H20  1  0.83650000  0.86590000  0.88530000  1.0 0.0893316757
H  H21  1  0.13410000  0.16350000  0.88530000  1.0 0.0893316757
H  H22  1  0.86590000  0.83650000  0.88530000  1.0 0.0893316757
H  H23  1  0.83650000  0.86590000  0.11470000  1.0 0.0893316757
H  H24  1  0.16350000  0.13410000  0.11470000  1.0 0.0893316757
H  H25  1  0.00700000  0.81560000  0.11470000  1.0 0.0893316757
H  H26  1  0.99300000  0.18440000  0.11470000  1.0 0.0893316757
H  H27  1  0.18440000  0.99300000  0.88530000  1.0 0.0893316757
H  H28  1  0.81560000  0.00700000  0.88530000  1.0 0.0893316757
H  H29  1  0.99300000  0.18440000  0.88530000  1.0 0.0893316757
H  H30  1  0.00700000  0.81560000  0.88530000  1.0 0.0893316757
H  H31  1  0.81560000  0.00700000  0.11470000  1.0 0.0893316757
H  H32  1  0.18440000  0.99300000  0.11470000  1.0 0.0893316757
C  C1  1  0.01658000  0.23802000  0.50000000  1.0 0.5564860569
C  C2  1  0.98342000  0.76198000  0.50000000  1.0 0.5564860569
C  C3  1  0.76198000  0.98342000  0.50000000  1.0 0.5564860569
C  C4  1  0.23802000  0.01658000  0.50000000  1.0 0.5564860569
C  C5  1  0.00826000  0.37414000  0.50000000  1.0 -0.0049425328
C  C6  1  0.99174000  0.62586000  0.50000000  1.0 -0.0049425328
C  C7  1  0.62586000  0.99174000  0.50000000  1.0 -0.0049425328
C  C8  1  0.37414000  0.00826000  0.50000000  1.0 -0.0049425328
C  C9  1  0.00425000  0.43835000  0.62770000  1.0 -0.1216358228
C  C10  1  0.99575000  0.56165000  0.62770000  1.0 -0.1216358228
C  C11  1  0.56165000  0.99575000  0.37230000  1.0 -0.1216358228
C  C12  1  0.43835000  0.00425000  0.37230000  1.0 -0.1216358228
C  C13  1  0.99575000  0.56165000  0.37230000  1.0 -0.1216358228
C  C14  1  0.00425000  0.43835000  0.37230000  1.0 -0.1216358228
C  C15  1  0.43835000  0.00425000  0.62770000  1.0 -0.1216358228
C  C16  1  0.56165000  0.99575000  0.62770000  1.0 -0.1216358228
C  C17  1  0.08070000  0.91930000  0.08010000  1.0 -0.1216358228
C  C18  1  0.91930000  0.08070000  0.08010000  1.0 -0.1216358228
C  C19  1  0.08070000  0.91930000  0.91990000  1.0 -0.1216358228
C  C20  1  0.91930000  0.08070000  0.91990000  1.0 -0.1216358228
C  C21  1  0.95270000  0.87070000  0.08020000  1.0 -0.1216358228
C  C22  1  0.04730000  0.12930000  0.08020000  1.0 -0.1216358228
C  C23  1  0.12930000  0.04730000  0.91980000  1.0 -0.1216358228
C  C24  1  0.87070000  0.95270000  0.91980000  1.0 -0.1216358228
C  C25  1  0.04730000  0.12930000  0.91980000  1.0 -0.1216358228
C  C26  1  0.95270000  0.87070000  0.91980000  1.0 -0.1216358228
C  C27  1  0.87070000  0.95270000  0.08020000  1.0 -0.1216358228
C  C28  1  0.12930000  0.04730000  0.08020000  1.0 -0.1216358228
N  N1  1  0.00000000  0.00000000  0.13380000  1.0 -0.0845332762
N  N2  1  0.00000000  0.00000000  0.86620000  1.0 -0.0845332762
O  O1  1  0.01882000  0.18642000  0.38470000  1.0 -0.534681691
O  O2  1  0.98118000  0.81358000  0.38470000  1.0 -0.534681691
O  O3  1  0.81358000  0.98118000  0.61530000  1.0 -0.534681691
O  O4  1  0.18642000  0.01882000  0.61530000  1.0 -0.534681691
O  O5  1  0.98118000  0.81358000  0.61530000  1.0 -0.534681691
O  O6  1  0.01882000  0.18642000  0.61530000  1.0 -0.534681691
O  O7  1  0.18642000  0.01882000  0.38470000  1.0 -0.534681691
O  O8  1  0.81358000  0.98118000  0.38470000  1.0 -0.534681691
