# DDEC6 charges by PACMAN v1.1 (https://github.com/mtap-research/PACMAN-charge/)
data_VURNED04_FSR_pacman
_symmetry_space_group_name_H-M   'P 1'
_cell_length_a   10.93570000
_cell_length_b   10.93570000
_cell_length_c   9.71400000
_cell_angle_alpha   90.00000000
_cell_angle_beta   90.00000000
_cell_angle_gamma   98.02000000
_symmetry_Int_Tables_number   1
_chemical_formula_structural   ZnH16C14NO4
_chemical_formula_sum   'Zn2 H32 C28 N2 O8'
_cell_volume   1150.33071838
_cell_formula_units_Z   2
loop_
 _symmetry_equiv_pos_site_id
 _symmetry_equiv_pos_as_xyz
  1  'x, y, z'
loop_
 _atom_site_type_symbol
 _atom_site_label
 _atom_site_symmetry_multiplicity
 _atom_site_fract_x
 _atom_site_fract_y
 _atom_site_fract_z
 _atom_site_occupancy
 _atom_site_charge
Zn  Zn1  1  0.00000000  0.00000000  0.34765000  1.0 0.7640450893
Zn  Zn2  1  0.00000000  0.00000000  0.65235000  1.0 0.7640450893
H  H1  1  0.00190000  0.39490000  0.29540000  1.0 0.124273598
H  H2  1  0.99810000  0.60510000  0.29540000  1.0 0.124273598
H  H3  1  0.60510000  0.99810000  0.70460000  1.0 0.124273598
H  H4  1  0.39490000  0.00190000  0.70460000  1.0 0.124273598
H  H5  1  0.99810000  0.60510000  0.70460000  1.0 0.124273598
H  H6  1  0.00190000  0.39490000  0.70460000  1.0 0.124273598
H  H7  1  0.39490000  0.00190000  0.29540000  1.0 0.124273598
H  H8  1  0.60510000  0.99810000  0.29540000  1.0 0.124273598
H  H9  1  0.94480000  0.16460000  0.11200000  1.0 0.0935613362
H  H10  1  0.05520000  0.83540000  0.11200000  1.0 0.0935613362
H  H11  1  0.83540000  0.05520000  0.88800000  1.0 0.0935613362
H  H12  1  0.16460000  0.94480000  0.88800000  1.0 0.0935613362
H  H13  1  0.05520000  0.83540000  0.88800000  1.0 0.0935613362
H  H14  1  0.94480000  0.16460000  0.88800000  1.0 0.0935613362
H  H15  1  0.16460000  0.94480000  0.11200000  1.0 0.0935613362
H  H16  1  0.83540000  0.05520000  0.11200000  1.0 0.0935613362
H  H17  1  0.12220000  0.15300000  0.11140000  1.0 0.083298981
H  H18  1  0.87780000  0.84700000  0.11140000  1.0 0.083298981
H  H19  1  0.84700000  0.87780000  0.88860000  1.0 0.083298981
H  H20  1  0.15300000  0.12220000  0.88860000  1.0 0.083298981
H  H21  1  0.87780000  0.84700000  0.88860000  1.0 0.083298981
H  H22  1  0.12220000  0.15300000  0.88860000  1.0 0.083298981
H  H23  1  0.15300000  0.12220000  0.11140000  1.0 0.083298981
H  H24  1  0.84700000  0.87780000  0.11140000  1.0 0.083298981
H  H25  1  0.98490000  0.17930000  0.11140000  1.0 0.0935613362
H  H26  1  0.01510000  0.82070000  0.11140000  1.0 0.0935613362
H  H27  1  0.82070000  0.01510000  0.88860000  1.0 0.0935613362
H  H28  1  0.17930000  0.98490000  0.88860000  1.0 0.0935613362
H  H29  1  0.01510000  0.82070000  0.88860000  1.0 0.0935613362
H  H30  1  0.98490000  0.17930000  0.88860000  1.0 0.0935613362
H  H31  1  0.17930000  0.98490000  0.11140000  1.0 0.0935613362
H  H32  1  0.82070000  0.01510000  0.11140000  1.0 0.0935613362
C  C1  1  0.01000000  0.23600000  0.50000000  1.0 0.5591105072
C  C2  1  0.99000000  0.76400000  0.50000000  1.0 0.5591105072
C  C3  1  0.76400000  0.99000000  0.50000000  1.0 0.5591105072
C  C4  1  0.23600000  0.01000000  0.50000000  1.0 0.5591105072
C  C5  1  0.00430000  0.37210000  0.50000000  1.0 -0.0114592763
C  C6  1  0.99570000  0.62790000  0.50000000  1.0 -0.0114592763
C  C7  1  0.62790000  0.99570000  0.50000000  1.0 -0.0114592763
C  C8  1  0.37210000  0.00430000  0.50000000  1.0 -0.0114592763
C  C9  1  0.00160000  0.43660000  0.37870000  1.0 -0.1215325142
C  C10  1  0.99840000  0.56340000  0.37870000  1.0 -0.1215325142
C  C11  1  0.56340000  0.99840000  0.62130000  1.0 -0.1215325142
C  C12  1  0.43660000  0.00160000  0.62130000  1.0 -0.1215325142
C  C13  1  0.99840000  0.56340000  0.62130000  1.0 -0.1215325142
C  C14  1  0.00160000  0.43660000  0.62130000  1.0 -0.1215325142
C  C15  1  0.43660000  0.00160000  0.37870000  1.0 -0.1215325142
C  C16  1  0.56340000  0.99840000  0.37870000  1.0 -0.1215325142
C  C17  1  0.91860000  0.08140000  0.07900000  1.0 -0.1215325142
C  C18  1  0.08140000  0.91860000  0.07900000  1.0 -0.1215325142
C  C19  1  0.91860000  0.08140000  0.92100000  1.0 -0.1215325142
C  C20  1  0.08140000  0.91860000  0.92100000  1.0 -0.1215325142
C  C21  1  0.03970000  0.12330000  0.07840000  1.0 -0.1215325142
C  C22  1  0.96030000  0.87670000  0.07840000  1.0 -0.1215325142
C  C23  1  0.87670000  0.96030000  0.92160000  1.0 -0.1215325142
C  C24  1  0.12330000  0.03970000  0.92160000  1.0 -0.1215325142
C  C25  1  0.96030000  0.87670000  0.92160000  1.0 -0.1215325142
C  C26  1  0.03970000  0.12330000  0.92160000  1.0 -0.1215325142
C  C27  1  0.12330000  0.03970000  0.07840000  1.0 -0.1215325142
C  C28  1  0.87670000  0.96030000  0.07840000  1.0 -0.1215325142
N  N1  1  0.00000000  0.00000000  0.13380000  1.0 -0.0862092676
N  N2  1  0.00000000  0.00000000  0.86620000  1.0 -0.0862092676
O  O1  1  0.00999000  0.18341000  0.38610000  1.0 -0.5341485369
O  O2  1  0.99001000  0.81659000  0.38610000  1.0 -0.5341485369
O  O3  1  0.81659000  0.99001000  0.61390000  1.0 -0.5341485369
O  O4  1  0.18341000  0.00999000  0.61390000  1.0 -0.5341485369
O  O5  1  0.99001000  0.81659000  0.61390000  1.0 -0.5341485369
O  O6  1  0.00999000  0.18341000  0.61390000  1.0 -0.5341485369
O  O7  1  0.18341000  0.00999000  0.38610000  1.0 -0.5341485369
O  O8  1  0.81659000  0.99001000  0.38610000  1.0 -0.5341485369
