# DDEC6 charges by PACMAN v1.1 (https://github.com/mtap-research/PACMAN-charge/)
data_VURNED03_ASR_pacman
_symmetry_space_group_name_H-M   'P 1'
_cell_length_a   10.87380000
_cell_length_b   10.87380000
_cell_length_c   9.61920000
_cell_angle_alpha   90.00000000
_cell_angle_beta   90.00000000
_cell_angle_gamma   102.73200000
_symmetry_Int_Tables_number   1
_chemical_formula_structural   ZnH16C14NO4
_chemical_formula_sum   'Zn2 H32 C28 N2 O8'
_cell_volume   1109.40356018
_cell_formula_units_Z   2
loop_
 _symmetry_equiv_pos_site_id
 _symmetry_equiv_pos_as_xyz
  1  'x, y, z'
loop_
 _atom_site_type_symbol
 _atom_site_label
 _atom_site_symmetry_multiplicity
 _atom_site_fract_x
 _atom_site_fract_y
 _atom_site_fract_z
 _atom_site_occupancy
 _atom_site_charge
Zn  Zn1  1  0.00000000  0.00000000  0.34787000  1.0 0.7790739533
Zn  Zn2  1  0.00000000  0.00000000  0.65213000  1.0 0.7790739533
H  H1  1  0.00400000  0.39320000  0.71300000  1.0 0.1224798054
H  H2  1  0.99600000  0.60680000  0.71300000  1.0 0.1224798054
H  H3  1  0.60680000  0.99600000  0.28700000  1.0 0.1224798054
H  H4  1  0.39320000  0.00400000  0.28700000  1.0 0.1224798054
H  H5  1  0.99600000  0.60680000  0.28700000  1.0 0.1224798054
H  H6  1  0.00400000  0.39320000  0.28700000  1.0 0.1224798054
H  H7  1  0.39320000  0.00400000  0.71300000  1.0 0.1224798054
H  H8  1  0.60680000  0.99600000  0.71300000  1.0 0.1224798054
H  H9  1  0.04970000  0.83230000  0.11420000  1.0 0.0911987284
H  H10  1  0.95030000  0.16770000  0.11420000  1.0 0.0911987284
H  H11  1  0.16770000  0.95030000  0.88580000  1.0 0.0911987284
H  H12  1  0.83230000  0.04970000  0.88580000  1.0 0.0911987284
H  H13  1  0.95030000  0.16770000  0.88580000  1.0 0.0911987284
H  H14  1  0.04970000  0.83230000  0.88580000  1.0 0.0911987284
H  H15  1  0.83230000  0.04970000  0.11420000  1.0 0.0911987284
H  H16  1  0.16770000  0.95030000  0.11420000  1.0 0.0911987284
H  H17  1  0.86700000  0.83800000  0.11430000  1.0 0.0911987284
H  H18  1  0.13300000  0.16200000  0.11430000  1.0 0.0911987284
H  H19  1  0.16200000  0.13300000  0.88570000  1.0 0.0911987284
H  H20  1  0.83800000  0.86700000  0.88570000  1.0 0.0911987284
H  H21  1  0.13300000  0.16200000  0.88570000  1.0 0.0911987284
H  H22  1  0.86700000  0.83800000  0.88570000  1.0 0.0911987284
H  H23  1  0.83800000  0.86700000  0.11430000  1.0 0.0911987284
H  H24  1  0.16200000  0.13300000  0.11430000  1.0 0.0911987284
H  H25  1  0.00810000  0.81630000  0.11430000  1.0 0.0911987284
H  H26  1  0.99190000  0.18370000  0.11430000  1.0 0.0911987284
H  H27  1  0.18370000  0.99190000  0.88570000  1.0 0.0911987284
H  H28  1  0.81630000  0.00810000  0.88570000  1.0 0.0911987284
H  H29  1  0.99190000  0.18370000  0.88570000  1.0 0.0911987284
H  H30  1  0.00810000  0.81630000  0.88570000  1.0 0.0911987284
H  H31  1  0.81630000  0.00810000  0.11430000  1.0 0.0911987284
H  H32  1  0.18370000  0.99190000  0.11430000  1.0 0.0911987284
C  C1  1  0.01548000  0.23772000  0.50000000  1.0 0.5586331483
C  C2  1  0.98452000  0.76228000  0.50000000  1.0 0.5586331483
C  C3  1  0.76228000  0.98452000  0.50000000  1.0 0.5586331483
C  C4  1  0.23772000  0.01548000  0.50000000  1.0 0.5586331483
C  C5  1  0.00763000  0.37357000  0.50000000  1.0 -0.010958267
C  C6  1  0.99237000  0.62643000  0.50000000  1.0 -0.010958267
C  C7  1  0.62643000  0.99237000  0.50000000  1.0 -0.010958267
C  C8  1  0.37357000  0.00763000  0.50000000  1.0 -0.010958267
C  C9  1  0.00307000  0.43693000  0.62750000  1.0 -0.1227190058
C  C10  1  0.99693000  0.56307000  0.62750000  1.0 -0.1227190058
C  C11  1  0.56307000  0.99693000  0.37250000  1.0 -0.1227190058
C  C12  1  0.43693000  0.00307000  0.37250000  1.0 -0.1227190058
C  C13  1  0.99693000  0.56307000  0.37250000  1.0 -0.1227190058
C  C14  1  0.00307000  0.43693000  0.37250000  1.0 -0.1227190058
C  C15  1  0.43693000  0.00307000  0.62750000  1.0 -0.1227190058
C  C16  1  0.56307000  0.99693000  0.62750000  1.0 -0.1227190058
C  C17  1  0.08050000  0.91950000  0.07990000  1.0 -0.1227190058
C  C18  1  0.91950000  0.08050000  0.07990000  1.0 -0.1227190058
C  C19  1  0.08050000  0.91950000  0.92010000  1.0 -0.1227190058
C  C20  1  0.91950000  0.08050000  0.92010000  1.0 -0.1227190058
C  C21  1  0.95360000  0.87180000  0.07990000  1.0 -0.1227190058
C  C22  1  0.04640000  0.12820000  0.07990000  1.0 -0.1227190058
C  C23  1  0.12820000  0.04640000  0.92010000  1.0 -0.1227190058
C  C24  1  0.87180000  0.95360000  0.92010000  1.0 -0.1227190058
C  C25  1  0.04640000  0.12820000  0.92010000  1.0 -0.1227190058
C  C26  1  0.95360000  0.87180000  0.92010000  1.0 -0.1227190058
C  C27  1  0.87180000  0.95360000  0.07990000  1.0 -0.1227190058
C  C28  1  0.12820000  0.04640000  0.07990000  1.0 -0.1227190058
N  N1  1  0.00000000  0.00000000  0.13380000  1.0 -0.0834706801
N  N2  1  0.00000000  0.00000000  0.86620000  1.0 -0.0834706801
O  O1  1  0.01748000  0.18614000  0.38470000  1.0 -0.5370167348
O  O2  1  0.98252000  0.81386000  0.38470000  1.0 -0.5370167348
O  O3  1  0.81386000  0.98252000  0.61530000  1.0 -0.5370167348
O  O4  1  0.18614000  0.01748000  0.61530000  1.0 -0.5370167348
O  O5  1  0.98252000  0.81386000  0.61530000  1.0 -0.5370167348
O  O6  1  0.01748000  0.18614000  0.61530000  1.0 -0.5370167348
O  O7  1  0.18614000  0.01748000  0.38470000  1.0 -0.5370167348
O  O8  1  0.81386000  0.98252000  0.38470000  1.0 -0.5370167348
