# DDEC6 charges by PACMAN v1.1 (https://github.com/mtap-research/PACMAN-charge/)
data_VURNED01_ASR_pacman
_symmetry_space_group_name_H-M   'P 1'
_cell_length_a   10.87050000
_cell_length_b   10.87050000
_cell_length_c   9.59480000
_cell_angle_alpha   90.00000000
_cell_angle_beta   90.00000000
_cell_angle_gamma   103.69500000
_symmetry_Int_Tables_number   1
_chemical_formula_structural   ZnH16C14NO4
_chemical_formula_sum   'Zn2 H32 C28 N2 O8'
_cell_volume   1101.56205372
_cell_formula_units_Z   2
loop_
 _symmetry_equiv_pos_site_id
 _symmetry_equiv_pos_as_xyz
  1  'x, y, z'
loop_
 _atom_site_type_symbol
 _atom_site_label
 _atom_site_symmetry_multiplicity
 _atom_site_fract_x
 _atom_site_fract_y
 _atom_site_fract_z
 _atom_site_occupancy
 _atom_site_charge
Zn  Zn1  1  0.00000000  0.00000000  0.34806000  1.0 0.7735211959
Zn  Zn2  1  0.00000000  0.00000000  0.65194000  1.0 0.7735211959
H  H1  1  0.00830000  0.39590000  0.71260000  1.0 0.1248409336
H  H2  1  0.99170000  0.60410000  0.71260000  1.0 0.1250084375
H  H3  1  0.60410000  0.99170000  0.28740000  1.0 0.1250084375
H  H4  1  0.39590000  0.00830000  0.28740000  1.0 0.1250084375
H  H5  1  0.99170000  0.60410000  0.28740000  1.0 0.1250084375
H  H6  1  0.00830000  0.39590000  0.28740000  1.0 0.1250084375
H  H7  1  0.39590000  0.00830000  0.71260000  1.0 0.1250084375
H  H8  1  0.60410000  0.99170000  0.71260000  1.0 0.1250084375
H  H9  1  0.04880000  0.83180000  0.11550000  1.0 0.0927017273
H  H10  1  0.95120000  0.16820000  0.11550000  1.0 0.0927017273
H  H11  1  0.16820000  0.95120000  0.88450000  1.0 0.0927017273
H  H12  1  0.83180000  0.04880000  0.88450000  1.0 0.0927017273
H  H13  1  0.95120000  0.16820000  0.88450000  1.0 0.0927017273
H  H14  1  0.04880000  0.83180000  0.88450000  1.0 0.0927017273
H  H15  1  0.83180000  0.04880000  0.11550000  1.0 0.0927017273
H  H16  1  0.16820000  0.95120000  0.11550000  1.0 0.0927017273
H  H17  1  0.86600000  0.83420000  0.11520000  1.0 0.0809582684
H  H18  1  0.13400000  0.16580000  0.11520000  1.0 0.0809582684
H  H19  1  0.16580000  0.13400000  0.88480000  1.0 0.0809582684
H  H20  1  0.83420000  0.86600000  0.88480000  1.0 0.0809582684
H  H21  1  0.13400000  0.16580000  0.88480000  1.0 0.0809582684
H  H22  1  0.86600000  0.83420000  0.88480000  1.0 0.0809582684
H  H23  1  0.83420000  0.86600000  0.11520000  1.0 0.0809582684
H  H24  1  0.16580000  0.13400000  0.11520000  1.0 0.0809582684
H  H25  1  0.00770000  0.81510000  0.11520000  1.0 0.0927017273
H  H26  1  0.99230000  0.18490000  0.11520000  1.0 0.0927017273
H  H27  1  0.18490000  0.99230000  0.88480000  1.0 0.0927017273
H  H28  1  0.81510000  0.00770000  0.88480000  1.0 0.0927017273
H  H29  1  0.99230000  0.18490000  0.88480000  1.0 0.0927017273
H  H30  1  0.00770000  0.81510000  0.88480000  1.0 0.0927017273
H  H31  1  0.81510000  0.00770000  0.11520000  1.0 0.0927017273
H  H32  1  0.18490000  0.99230000  0.11520000  1.0 0.0927017273
C  C1  1  0.01690000  0.23850000  0.50000000  1.0 0.5554038396
C  C2  1  0.98310000  0.76150000  0.50000000  1.0 0.5554038396
C  C3  1  0.76150000  0.98310000  0.50000000  1.0 0.5554038396
C  C4  1  0.23850000  0.01690000  0.50000000  1.0 0.5554038396
C  C5  1  0.00870000  0.37430000  0.50000000  1.0 -0.0081655679
C  C6  1  0.99130000  0.62570000  0.50000000  1.0 -0.0081655679
C  C7  1  0.62570000  0.99130000  0.50000000  1.0 -0.0081655679
C  C8  1  0.37430000  0.00870000  0.50000000  1.0 -0.0081655679
C  C9  1  0.00460000  0.43840000  0.62680000  1.0 -0.1222278635
C  C10  1  0.99540000  0.56160000  0.62680000  1.0 -0.1222278635
C  C11  1  0.56160000  0.99540000  0.37320000  1.0 -0.1222278635
C  C12  1  0.43840000  0.00460000  0.37320000  1.0 -0.1222278635
C  C13  1  0.99540000  0.56160000  0.37320000  1.0 -0.1222278635
C  C14  1  0.00460000  0.43840000  0.37320000  1.0 -0.1222278635
C  C15  1  0.43840000  0.00460000  0.62680000  1.0 -0.1222278635
C  C16  1  0.56160000  0.99540000  0.62680000  1.0 -0.1222278635
C  C17  1  0.08060000  0.91940000  0.08090000  1.0 -0.1222278635
C  C18  1  0.91940000  0.08060000  0.08090000  1.0 -0.1222278635
C  C19  1  0.08060000  0.91940000  0.91910000  1.0 -0.1222278635
C  C20  1  0.91940000  0.08060000  0.91910000  1.0 -0.1222278635
C  C21  1  0.95290000  0.86950000  0.08060000  1.0 -0.1222278635
C  C22  1  0.04710000  0.13050000  0.08060000  1.0 -0.1222278635
C  C23  1  0.13050000  0.04710000  0.91940000  1.0 -0.1222278635
C  C24  1  0.86950000  0.95290000  0.91940000  1.0 -0.1222278635
C  C25  1  0.04710000  0.13050000  0.91940000  1.0 -0.1222278635
C  C26  1  0.95290000  0.86950000  0.91940000  1.0 -0.1222278635
C  C27  1  0.86950000  0.95290000  0.08060000  1.0 -0.1222278635
C  C28  1  0.13050000  0.04710000  0.08060000  1.0 -0.1222278635
N  N1  1  0.00000000  0.00000000  0.13430000  1.0 -0.0839938152
N  N2  1  0.00000000  0.00000000  0.86570000  1.0 -0.0839938152
O  O1  1  0.01919000  0.18661000  0.38480000  1.0 -0.5317805449
O  O2  1  0.98081000  0.81339000  0.38480000  1.0 -0.5317805449
O  O3  1  0.81339000  0.98081000  0.61520000  1.0 -0.5317805449
O  O4  1  0.18661000  0.01919000  0.61520000  1.0 -0.5317805449
O  O5  1  0.98081000  0.81339000  0.61520000  1.0 -0.5317805449
O  O6  1  0.01919000  0.18661000  0.61520000  1.0 -0.5317805449
O  O7  1  0.18661000  0.01919000  0.38480000  1.0 -0.5317805449
O  O8  1  0.81339000  0.98081000  0.38480000  1.0 -0.5317805449
