# DDEC6 charges by PACMAN v1.1 (https://github.com/mtap-research/PACMAN-charge/)
data_VURNED_FSR_pacman
_symmetry_space_group_name_H-M   'P 1'
_cell_length_a   10.88200000
_cell_length_b   10.88200000
_cell_length_c   9.64060000
_cell_angle_alpha   90.00000000
_cell_angle_beta   90.00000000
_cell_angle_gamma   100.16200000
_symmetry_Int_Tables_number   1
_chemical_formula_structural   ZnH16C14NO4
_chemical_formula_sum   'Zn2 H32 C28 N2 O8'
_cell_volume   1123.71106340
_cell_formula_units_Z   2
loop_
 _symmetry_equiv_pos_site_id
 _symmetry_equiv_pos_as_xyz
  1  'x, y, z'
loop_
 _atom_site_type_symbol
 _atom_site_label
 _atom_site_symmetry_multiplicity
 _atom_site_fract_x
 _atom_site_fract_y
 _atom_site_fract_z
 _atom_site_occupancy
 _atom_site_charge
Zn  Zn1  1  0.00000000  0.00000000  0.34767000  1.0 0.7523016919
Zn  Zn2  1  0.00000000  0.00000000  0.65233000  1.0 0.7523016919
H  H1  1  0.94730000  0.16630000  0.11290000  1.0 0.0860054613
H  H2  1  0.05270000  0.83370000  0.11290000  1.0 0.0860054613
H  H3  1  0.83370000  0.05270000  0.88710000  1.0 0.0860054613
H  H4  1  0.16630000  0.94730000  0.88710000  1.0 0.0860054613
H  H5  1  0.05270000  0.83370000  0.88710000  1.0 0.0860054613
H  H6  1  0.94730000  0.16630000  0.88710000  1.0 0.0860054613
H  H7  1  0.16630000  0.94730000  0.11290000  1.0 0.0860054613
H  H8  1  0.83370000  0.05270000  0.11290000  1.0 0.0860054613
H  H9  1  0.99000000  0.18000000  0.11410000  1.0 0.0860054613
H  H10  1  0.01000000  0.82000000  0.11410000  1.0 0.0860054613
H  H11  1  0.82000000  0.01000000  0.88590000  1.0 0.0860054613
H  H12  1  0.18000000  0.99000000  0.88590000  1.0 0.0860054613
H  H13  1  0.01000000  0.82000000  0.88590000  1.0 0.0860054613
H  H14  1  0.99000000  0.18000000  0.88590000  1.0 0.0860054613
H  H15  1  0.18000000  0.99000000  0.11410000  1.0 0.0860054613
H  H16  1  0.82000000  0.01000000  0.11410000  1.0 0.0860054613
H  H17  1  0.12870000  0.15350000  0.11410000  1.0 0.1007871244
H  H18  1  0.87130000  0.84650000  0.11410000  1.0 0.1007871244
H  H19  1  0.84650000  0.87130000  0.88590000  1.0 0.1007871244
H  H20  1  0.15350000  0.12870000  0.88590000  1.0 0.1007871244
H  H21  1  0.87130000  0.84650000  0.88590000  1.0 0.1007871244
H  H22  1  0.12870000  0.15350000  0.88590000  1.0 0.1007871244
H  H23  1  0.15350000  0.12870000  0.11410000  1.0 0.1007871244
H  H24  1  0.84650000  0.87130000  0.11410000  1.0 0.1007871244
H  H25  1  0.00450000  0.39390000  0.29200000  1.0 0.1228644017
H  H26  1  0.99550000  0.60610000  0.29200000  1.0 0.1228644017
H  H27  1  0.60610000  0.99550000  0.70800000  1.0 0.1228644017
H  H28  1  0.39390000  0.00450000  0.70800000  1.0 0.1228644017
H  H29  1  0.99550000  0.60610000  0.70800000  1.0 0.1228644017
H  H30  1  0.00450000  0.39390000  0.70800000  1.0 0.1228644017
H  H31  1  0.39390000  0.00450000  0.29200000  1.0 0.1228644017
H  H32  1  0.60610000  0.99550000  0.29200000  1.0 0.1228644017
C  C1  1  0.01258000  0.23662000  0.50000000  1.0 0.5576652278
C  C2  1  0.98742000  0.76338000  0.50000000  1.0 0.5576652278
C  C3  1  0.76338000  0.98742000  0.50000000  1.0 0.5576652278
C  C4  1  0.23662000  0.01258000  0.50000000  1.0 0.5576652278
C  C5  1  0.91900000  0.08100000  0.07920000  1.0 -0.1254549484
C  C6  1  0.08100000  0.91900000  0.07920000  1.0 -0.1254549484
C  C7  1  0.91900000  0.08100000  0.92080000  1.0 -0.1254549484
C  C8  1  0.08100000  0.91900000  0.92080000  1.0 -0.1254549484
C  C9  1  0.04390000  0.12310000  0.08030000  1.0 -0.1202425344
C  C10  1  0.95610000  0.87690000  0.08030000  1.0 -0.1202425344
C  C11  1  0.87690000  0.95610000  0.91970000  1.0 -0.1202425344
C  C12  1  0.12310000  0.04390000  0.91970000  1.0 -0.1202425344
C  C13  1  0.95610000  0.87690000  0.91970000  1.0 -0.1202425344
C  C14  1  0.04390000  0.12310000  0.91970000  1.0 -0.1202425344
C  C15  1  0.12310000  0.04390000  0.08030000  1.0 -0.1202425344
C  C16  1  0.87690000  0.95610000  0.08030000  1.0 -0.1202425344
C  C17  1  0.00631000  0.37297000  0.50000000  1.0 -0.0092328788
C  C18  1  0.99369000  0.62703000  0.50000000  1.0 -0.0092328788
C  C19  1  0.62703000  0.99369000  0.50000000  1.0 -0.0092328788
C  C20  1  0.37297000  0.00631000  0.50000000  1.0 -0.0092328788
C  C21  1  0.00287000  0.43653000  0.37660000  1.0 -0.1202425344
C  C22  1  0.99713000  0.56347000  0.37660000  1.0 -0.1202425344
C  C23  1  0.56347000  0.99713000  0.62340000  1.0 -0.1202425344
C  C24  1  0.43653000  0.00287000  0.62340000  1.0 -0.1202425344
C  C25  1  0.99713000  0.56347000  0.62340000  1.0 -0.1202425344
C  C26  1  0.00287000  0.43653000  0.62340000  1.0 -0.1202425344
C  C27  1  0.43653000  0.00287000  0.37660000  1.0 -0.1202425344
C  C28  1  0.56347000  0.99713000  0.37660000  1.0 -0.1202425344
N  N1  1  0.00000000  0.00000000  0.13360000  1.0 -0.081103922
N  N2  1  0.00000000  0.00000000  0.86640000  1.0 -0.081103922
O  O1  1  0.01424000  0.18540000  0.38468000  1.0 -0.5344655227
O  O2  1  0.98576000  0.81460000  0.38468000  1.0 -0.5344655227
O  O3  1  0.81460000  0.98576000  0.61532000  1.0 -0.5344655227
O  O4  1  0.18540000  0.01424000  0.61532000  1.0 -0.5344655227
O  O5  1  0.98576000  0.81460000  0.61532000  1.0 -0.5344655227
O  O6  1  0.01424000  0.18540000  0.61532000  1.0 -0.5344655227
O  O7  1  0.18540000  0.01424000  0.38468000  1.0 -0.5344655227
O  O8  1  0.81460000  0.98576000  0.38468000  1.0 -0.5344655227
