# DDEC6 charges by PACMAN v1.1 (https://github.com/mtap-research/PACMAN-charge/)
data_VUSKIE_ASR_pacman
_symmetry_space_group_name_H-M   'P 1'
_cell_length_a   18.10100000
_cell_length_b   18.10100000
_cell_length_c   18.10100000
_cell_angle_alpha   60.00360000
_cell_angle_beta   119.99600000
_cell_angle_gamma   120.00000000
_symmetry_Int_Tables_number   1
_chemical_formula_structural   Zn4H12C36Br12O13
_chemical_formula_sum   'Zn8 H24 C72 Br24 O26'
_cell_volume   4193.89593057
_cell_formula_units_Z   2
loop_
 _symmetry_equiv_pos_site_id
 _symmetry_equiv_pos_as_xyz
  1  'x, y, z'
loop_
 _atom_site_type_symbol
 _atom_site_label
 _atom_site_symmetry_multiplicity
 _atom_site_fract_x
 _atom_site_fract_y
 _atom_site_fract_z
 _atom_site_occupancy
 _atom_site_charge
Zn  Zn1  1  0.29377000  0.70623000  0.88126000  1.0 0.865052225
Zn  Zn2  1  0.70623000  0.29377000  0.11874000  1.0 0.8639290351
Zn  Zn3  1  0.29371000  0.88095000  0.70635000  1.0 0.8816471018
Zn  Zn4  1  0.88095000  0.29371000  0.29365000  1.0 0.8816471018
Zn  Zn5  1  0.70629000  0.11905000  0.29365000  1.0 0.8816471018
Zn  Zn6  1  0.11905000  0.70629000  0.70635000  1.0 0.8816471018
Zn  Zn7  1  0.29347000  0.70653000  0.70617000  1.0 0.8816471018
Zn  Zn8  1  0.70653000  0.29347000  0.29383000  1.0 0.8816471018
H  H1  1  0.45520000  0.54480000  0.06920000  1.0 0.1016120252
H  H2  1  0.54480000  0.45520000  0.93080000  1.0 0.1016120252
H  H3  1  0.45700000  0.54300000  0.84250000  1.0 0.1016120252
H  H4  1  0.54300000  0.45700000  0.15750000  1.0 0.1016120252
H  H5  1  0.45020000  0.84300000  0.07010000  1.0 0.1016120252
H  H6  1  0.84300000  0.45020000  0.92990000  1.0 0.1016120252
H  H7  1  0.54980000  0.15700000  0.92990000  1.0 0.1016120252
H  H8  1  0.15700000  0.54980000  0.07010000  1.0 0.1016120252
H  H9  1  0.45240000  0.07080000  0.83920000  1.0 0.1016120252
H  H10  1  0.07080000  0.45240000  0.16080000  1.0 0.1016120252
H  H11  1  0.54760000  0.92920000  0.16080000  1.0 0.1016120252
H  H12  1  0.92920000  0.54760000  0.83920000  1.0 0.1016120252
H  H13  1  0.45560000  0.06960000  0.54660000  1.0 0.1016120252
H  H14  1  0.06960000  0.45560000  0.45340000  1.0 0.1016120252
H  H15  1  0.54440000  0.93040000  0.45340000  1.0 0.1016120252
H  H16  1  0.93040000  0.54440000  0.54660000  1.0 0.1016120252
H  H17  1  0.45670000  0.83830000  0.54590000  1.0 0.1016120252
H  H18  1  0.83830000  0.45670000  0.45410000  1.0 0.1016120252
H  H19  1  0.54330000  0.16170000  0.45410000  1.0 0.1016120252
H  H20  1  0.16170000  0.54330000  0.54590000  1.0 0.1016120252
H  H21  1  0.15930000  0.07130000  0.54990000  1.0 0.1016120252
H  H22  1  0.07130000  0.15930000  0.45010000  1.0 0.1016120252
H  H23  1  0.84070000  0.92870000  0.45010000  1.0 0.1016120252
H  H24  1  0.92870000  0.84070000  0.54990000  1.0 0.1016120252
C  C1  1  0.38390000  0.61610000  0.88800000  1.0 0.5007590073
C  C2  1  0.61610000  0.38390000  0.11200000  1.0 0.5007590073
C  C3  1  0.45070000  0.54930000  0.94900000  1.0 -0.050007348
C  C4  1  0.54930000  0.45070000  0.05100000  1.0 -0.0581195392
C  C5  1  0.47490000  0.52510000  0.04400000  1.0 -0.050007348
C  C6  1  0.52510000  0.47490000  0.95600000  1.0 -0.050007348
C  C7  1  0.47610000  0.52390000  0.90700000  1.0 -0.0581195392
C  C8  1  0.52390000  0.47610000  0.09300000  1.0 -0.0581195392
C  C9  1  0.38430000  0.88110000  0.88710000  1.0 0.491820069
C  C10  1  0.88110000  0.38430000  0.11290000  1.0 0.491820069
C  C11  1  0.61570000  0.11890000  0.11290000  1.0 0.491820069
C  C12  1  0.11890000  0.61570000  0.88710000  1.0 0.491820069
C  C13  1  0.44810000  0.95170000  0.94610000  1.0 -0.019537371
C  C14  1  0.95170000  0.44810000  0.05390000  1.0 -0.019537371
C  C15  1  0.55190000  0.04830000  0.05390000  1.0 -0.019537371
C  C16  1  0.04830000  0.55190000  0.94610000  1.0 -0.019537371
C  C17  1  0.47320000  0.90700000  0.04490000  1.0 -0.0362709127
C  C18  1  0.90700000  0.47320000  0.95510000  1.0 -0.0362709127
C  C19  1  0.52680000  0.09300000  0.95510000  1.0 -0.0362709127
C  C20  1  0.09300000  0.52680000  0.04490000  1.0 -0.0362709127
C  C21  1  0.47330000  0.04450000  0.90320000  1.0 -0.050007348
C  C22  1  0.04450000  0.47330000  0.09680000  1.0 -0.050007348
C  C23  1  0.52670000  0.95550000  0.09680000  1.0 -0.050007348
C  C24  1  0.95550000  0.52670000  0.90320000  1.0 -0.050007348
C  C25  1  0.38250000  0.88310000  0.61620000  1.0 0.5072337804
C  C26  1  0.88310000  0.38250000  0.38380000  1.0 0.5072337804
C  C27  1  0.61750000  0.11690000  0.38380000  1.0 0.5072337804
C  C28  1  0.11690000  0.61750000  0.61620000  1.0 0.5072337804
C  C29  1  0.44930000  0.94830000  0.55170000  1.0 -0.0016243412
C  C30  1  0.94830000  0.44930000  0.44830000  1.0 -0.0016243412
C  C31  1  0.55070000  0.05170000  0.44830000  1.0 -0.0113578318
C  C32  1  0.05170000  0.55070000  0.55170000  1.0 -0.0113578318
C  C33  1  0.47460000  0.04500000  0.52620000  1.0 -0.0113578318
C  C34  1  0.04500000  0.47460000  0.47380000  1.0 -0.0113578318
C  C35  1  0.52540000  0.95500000  0.47380000  1.0 -0.0113578318
C  C36  1  0.95500000  0.52540000  0.52620000  1.0 -0.0113578318
C  C37  1  0.47500000  0.90240000  0.52610000  1.0 -0.0113578318
C  C38  1  0.90240000  0.47500000  0.47390000  1.0 -0.0113578318
C  C39  1  0.52500000  0.09760000  0.47390000  1.0 -0.0113578318
C  C40  1  0.09760000  0.52500000  0.52610000  1.0 -0.0113578318
C  C41  1  0.11520000  0.88480000  0.61600000  1.0 0.5072337804
C  C42  1  0.88480000  0.11520000  0.38400000  1.0 0.5072337804
C  C43  1  0.04950000  0.95050000  0.54900000  1.0 -0.019537371
C  C44  1  0.95050000  0.04950000  0.45100000  1.0 -0.019537371
C  C45  1  0.09530000  0.04610000  0.52630000  1.0 -0.050007348
C  C46  1  0.04610000  0.09530000  0.47370000  1.0 -0.050007348
C  C47  1  0.90470000  0.95390000  0.47370000  1.0 -0.050007348
C  C48  1  0.95390000  0.90470000  0.52630000  1.0 -0.050007348
C  C49  1  0.44660000  0.55340000  0.09160000  1.0 0.0084172871
C  C50  1  0.55340000  0.44660000  0.90840000  1.0 0.0084172871
C  C51  1  0.44560000  0.55440000  0.80270000  1.0 0.0180656146
C  C52  1  0.55440000  0.44560000  0.19730000  1.0 0.0180656146
C  C53  1  0.44500000  0.80520000  0.09350000  1.0 0.0084172871
C  C54  1  0.80520000  0.44500000  0.90650000  1.0 0.0084172871
C  C55  1  0.55500000  0.19480000  0.90650000  1.0 0.0084172871
C  C56  1  0.19480000  0.55500000  0.09350000  1.0 0.0084172871
C  C57  1  0.43980000  0.09140000  0.79550000  1.0 -0.0016243412
C  C58  1  0.09140000  0.43980000  0.20450000  1.0 -0.0016243412
C  C59  1  0.56020000  0.90860000  0.20450000  1.0 -0.0016243412
C  C60  1  0.90860000  0.56020000  0.79550000  1.0 -0.0016243412
C  C61  1  0.44380000  0.09320000  0.55580000  1.0 -0.0113578318
C  C62  1  0.09320000  0.44380000  0.44420000  1.0 -0.0113578318
C  C63  1  0.55620000  0.90680000  0.44420000  1.0 -0.0113578318
C  C64  1  0.90680000  0.55620000  0.55580000  1.0 -0.0113578318
C  C65  1  0.44640000  0.79560000  0.55680000  1.0 -0.0113578318
C  C66  1  0.79560000  0.44640000  0.44320000  1.0 -0.019537371
C  C67  1  0.55360000  0.20440000  0.44320000  1.0 -0.0113578318
C  C68  1  0.20440000  0.55360000  0.55680000  1.0 -0.019537371
C  C69  1  0.19700000  0.09160000  0.55770000  1.0 0.0180656146
C  C70  1  0.09160000  0.19700000  0.44230000  1.0 0.0180656146
C  C71  1  0.80300000  0.90840000  0.44230000  1.0 0.0180656146
C  C72  1  0.90840000  0.80300000  0.55770000  1.0 0.0180656146
Br  Br1  1  0.43910000  0.56090000  0.10450000  1.0 -0.0320577202
Br  Br2  1  0.56090000  0.43910000  0.89550000  1.0 -0.0320577202
Br  Br3  1  0.43860000  0.56140000  0.77500000  1.0 -0.019537371
Br  Br4  1  0.56140000  0.43860000  0.22500000  1.0 -0.019537371
Br  Br5  1  0.43730000  0.77790000  0.10670000  1.0 -0.019537371
Br  Br6  1  0.77790000  0.43730000  0.89330000  1.0 -0.019537371
Br  Br7  1  0.56270000  0.22210000  0.89330000  1.0 -0.019537371
Br  Br8  1  0.22210000  0.56270000  0.10670000  1.0 -0.019537371
Br  Br9  1  0.43140000  0.10420000  0.76680000  1.0 -0.0320577202
Br  Br10  1  0.10420000  0.43140000  0.23320000  1.0 -0.0320577202
Br  Br11  1  0.56860000  0.89580000  0.23320000  1.0 -0.0320577202
Br  Br12  1  0.89580000  0.56860000  0.76680000  1.0 -0.0320577202
Br  Br13  1  0.43590000  0.10630000  0.56360000  1.0 -0.0362709127
Br  Br14  1  0.10630000  0.43590000  0.43640000  1.0 -0.0362709127
Br  Br15  1  0.56410000  0.89370000  0.43640000  1.0 -0.0362709127
Br  Br16  1  0.89370000  0.56410000  0.56360000  1.0 -0.0362709127
Br  Br17  1  0.43890000  0.76690000  0.56480000  1.0 -0.0320577202
Br  Br18  1  0.76690000  0.43890000  0.43520000  1.0 -0.0320577202
Br  Br19  1  0.56110000  0.23310000  0.43520000  1.0 -0.0320577202
Br  Br20  1  0.23310000  0.56110000  0.56480000  1.0 -0.0320577202
Br  Br21  1  0.22470000  0.10450000  0.56580000  1.0 -0.019537371
Br  Br22  1  0.10450000  0.22470000  0.43420000  1.0 -0.0113578318
Br  Br23  1  0.77530000  0.89550000  0.43420000  1.0 -0.019537371
Br  Br24  1  0.89550000  0.77530000  0.56580000  1.0 -0.0113578318
O  O1  1  0.24890000  0.75110000  0.74860000  1.0 -0.9606292826
O  O2  1  0.75110000  0.24890000  0.25140000  1.0 -0.9606292826
O  O3  1  0.36440000  0.63560000  0.93020000  1.0 -0.4623734337
O  O4  1  0.63560000  0.36440000  0.06980000  1.0 -0.4623734337
O  O5  1  0.36440000  0.63560000  0.80030000  1.0 -0.5186965447
O  O6  1  0.63560000  0.36440000  0.19970000  1.0 -0.5186965447
O  O7  1  0.36350000  0.79910000  0.92820000  1.0 -0.4689722788
O  O8  1  0.79910000  0.36350000  0.07180000  1.0 -0.4689722788
O  O9  1  0.63650000  0.20090000  0.07180000  1.0 -0.4689722788
O  O10  1  0.20090000  0.63650000  0.92820000  1.0 -0.4689722788
O  O11  1  0.36490000  0.92930000  0.80010000  1.0 -0.5006232124
O  O12  1  0.92930000  0.36490000  0.19990000  1.0 -0.5101270658
O  O13  1  0.63510000  0.07070000  0.19990000  1.0 -0.5006232124
O  O14  1  0.07070000  0.63510000  0.80010000  1.0 -0.5006232124
O  O15  1  0.36500000  0.79880000  0.63620000  1.0 -0.5006232124
O  O16  1  0.79880000  0.36500000  0.36380000  1.0 -0.4922738206
O  O17  1  0.63500000  0.20120000  0.36380000  1.0 -0.4922738206
O  O18  1  0.20120000  0.63500000  0.63620000  1.0 -0.5006232124
O  O19  1  0.36470000  0.92970000  0.63560000  1.0 -0.4922738206
O  O20  1  0.92970000  0.36470000  0.36440000  1.0 -0.4922738206
O  O21  1  0.63530000  0.07030000  0.36440000  1.0 -0.4922738206
O  O22  1  0.07030000  0.63530000  0.63560000  1.0 -0.4922738206
O  O23  1  0.20080000  0.92980000  0.63420000  1.0 -0.5101270658
O  O24  1  0.92980000  0.20080000  0.36580000  1.0 -0.5101270658
O  O25  1  0.79920000  0.07020000  0.36580000  1.0 -0.5101270658
O  O26  1  0.07020000  0.79920000  0.63420000  1.0 -0.5101270658
