# DDEC6 charges by PACMAN v1.1 (https://github.com/mtap-research/PACMAN-charge/)
data_VUSWEO_ASR_pacman
_symmetry_space_group_name_H-M   'P 1'
_cell_length_a   13.93630000
_cell_length_b   13.93630000
_cell_length_c   17.58110000
_cell_angle_alpha   87.45530000
_cell_angle_beta   92.54470000
_cell_angle_gamma   121.70300000
_symmetry_Int_Tables_number   1
_chemical_formula_structural   BaH23C18O17
_chemical_formula_sum   'Ba4 H92 C72 O68'
_cell_volume   2901.33721093
_cell_formula_units_Z   4
loop_
 _symmetry_equiv_pos_site_id
 _symmetry_equiv_pos_as_xyz
  1  'x, y, z'
loop_
 _atom_site_type_symbol
 _atom_site_label
 _atom_site_symmetry_multiplicity
 _atom_site_fract_x
 _atom_site_fract_y
 _atom_site_fract_z
 _atom_site_occupancy
 _atom_site_charge
Ba  Ba1  1  0.42412000  0.14018000  0.03743000  1.0 1.34458996
Ba  Ba2  1  0.77699000  0.45367000  0.97427000  1.0 1.3314453476
Ba  Ba3  1  0.14018000  0.42412000  0.96257000  1.0 1.3454072589
Ba  Ba4  1  0.45367000  0.77699000  0.02573000  1.0 1.3314453476
H  H1  1  0.44987000  0.96705000  0.15849000  1.0 0.36734714
H  H2  1  0.62223000  0.36187000  0.28844000  1.0 0.1177739329
H  H3  1  0.46785000  0.19765000  0.22867000  1.0 0.0999781379
H  H4  1  0.63228000  0.13664000  0.20468000  1.0 0.1102613843
H  H5  1  0.43858000  0.01384000  0.29906000  1.0 0.1102613843
H  H6  1  0.66348000  0.14744000  0.36086000  1.0 0.0999781379
H  H7  1  0.57786000  0.11956000  0.47750000  1.0 0.1311619786
H  H8  1  0.53557000  0.99957000  0.44190000  1.0 0.1177739329
H  H9  1  0.00987000  0.51281000  0.10003000  1.0 0.36734714
H  H10  1  0.13561000  0.62617000  0.26453000  1.0 0.1102613843
H  H11  1  0.98123000  0.62121000  0.19747000  1.0 0.1102613843
H  H12  1  0.88847000  0.38389000  0.18683000  1.0 0.1102613843
H  H13  1  0.79576000  0.48064000  0.27838000  1.0 0.0999781379
H  H14  1  0.91566000  0.37608000  0.33903000  1.0 0.0999781379
H  H15  1  0.90280000  0.43446000  0.45690000  1.0 0.1177739329
H  H16  1  0.77820000  0.36610000  0.42005000  1.0 0.1177739329
H  H17  1  0.32754000  0.43238000  0.08408000  1.0 0.3417788559
H  H18  1  0.40191000  0.39781000  0.26356000  1.0 0.0999781379
H  H19  1  0.37670000  0.53020000  0.18758000  1.0 0.1102613843
H  H20  1  0.13951000  0.35611000  0.18234000  1.0 0.1102613843
H  H21  1  0.24331000  0.57057000  0.25584000  1.0 0.0999781379
H  H22  1  0.15141000  0.35503000  0.33341000  1.0 0.0999781379
H  H23  1  0.24174000  0.46798000  0.44425000  1.0 0.1407992059
H  H24  1  0.13372000  0.47008000  0.41200000  1.0 0.1177739329
H  H25  1  0.16679000  0.88161000  0.27602000  1.0 0.1102613843
H  H26  1  0.31819000  0.04013000  0.21267000  1.0 0.0903761819
H  H27  1  0.16463000  0.11439000  0.17571000  1.0 0.1102613843
H  H28  1  0.35283000  0.23077000  0.28009000  1.0 0.1102613843
H  H29  1  0.12696000  0.09484000  0.33241000  1.0 0.0999781379
H  H30  1  0.22032000  0.11610000  0.45388000  1.0 0.1177739329
H  H31  1  0.24221000  0.23347000  0.41841000  1.0 0.1177739329
H  H32  1  0.64418000  0.60502000  0.14671000  1.0 0.3603187615
H  H33  1  0.65628000  0.60832000  0.28381000  1.0 0.0999781379
H  H34  1  0.79712000  0.62396000  0.20325000  1.0 0.1102613843
H  H35  1  0.87156000  0.85878000  0.19116000  1.0 0.1102613843
H  H36  1  0.99170000  0.76360000  0.26606000  1.0 0.1102613843
H  H37  1  0.88753000  0.86603000  0.33860000  1.0 0.0903761819
H  H38  1  0.92488000  0.78912000  0.45326000  1.0 0.1177739329
H  H39  1  0.03433000  0.89417000  0.41614000  1.0 0.1102613843
H  H40  1  0.39330000  0.84716000  0.30444000  1.0 0.1102613843
H  H41  1  0.39756000  0.71486000  0.22960000  1.0 0.1102613843
H  H42  1  0.63086000  0.87748000  0.20839000  1.0 0.1102613843
H  H43  1  0.53990000  0.66296000  0.28809000  1.0 0.1102613843
H  H44  1  0.65665000  0.88101000  0.35680000  1.0 0.0999781379
H  H45  1  0.60519000  0.78509000  0.47448000  1.0 0.1311619786
H  H46  1  0.67000000  0.73926000  0.42921000  1.0 0.1102613843
H  H47  1  0.96705000  0.44987000  0.84151000  1.0 0.36734714
H  H48  1  0.36187000  0.62223000  0.71156000  1.0 0.1177739329
H  H49  1  0.19765000  0.46785000  0.77133000  1.0 0.0999781379
H  H50  1  0.13664000  0.63228000  0.79532000  1.0 0.1102613843
H  H51  1  0.01384000  0.43858000  0.70094000  1.0 0.1102613843
H  H52  1  0.14744000  0.66348000  0.63914000  1.0 0.0999781379
H  H53  1  0.11956000  0.57786000  0.52250000  1.0 0.1311619786
H  H54  1  0.99957000  0.53557000  0.55810000  1.0 0.1177739329
H  H55  1  0.51281000  0.00987000  0.89997000  1.0 0.36734714
H  H56  1  0.62617000  0.13561000  0.73547000  1.0 0.1102613843
H  H57  1  0.62121000  0.98123000  0.80253000  1.0 0.1102613843
H  H58  1  0.38389000  0.88847000  0.81317000  1.0 0.1102613843
H  H59  1  0.48064000  0.79576000  0.72162000  1.0 0.0999781379
H  H60  1  0.37608000  0.91566000  0.66097000  1.0 0.0999781379
H  H61  1  0.43446000  0.90280000  0.54310000  1.0 0.1177739329
H  H62  1  0.36610000  0.77820000  0.57995000  1.0 0.1177739329
H  H63  1  0.43238000  0.32754000  0.91592000  1.0 0.3417788559
H  H64  1  0.39781000  0.40191000  0.73644000  1.0 0.0999781379
H  H65  1  0.53020000  0.37670000  0.81242000  1.0 0.1102613843
H  H66  1  0.35611000  0.13951000  0.81766000  1.0 0.1102613843
H  H67  1  0.57057000  0.24331000  0.74416000  1.0 0.0999781379
H  H68  1  0.35503000  0.15141000  0.66659000  1.0 0.0999781379
H  H69  1  0.46798000  0.24174000  0.55575000  1.0 0.1407992059
H  H70  1  0.47008000  0.13372000  0.58800000  1.0 0.1177739329
H  H71  1  0.88161000  0.16679000  0.72398000  1.0 0.1102613843
H  H72  1  0.04013000  0.31819000  0.78733000  1.0 0.0903761819
H  H73  1  0.11439000  0.16463000  0.82429000  1.0 0.1102613843
H  H74  1  0.23077000  0.35283000  0.71991000  1.0 0.1102613843
H  H75  1  0.09484000  0.12696000  0.66759000  1.0 0.0999781379
H  H76  1  0.11610000  0.22032000  0.54612000  1.0 0.1177739329
H  H77  1  0.23347000  0.24221000  0.58159000  1.0 0.1177739329
H  H78  1  0.60502000  0.64418000  0.85329000  1.0 0.3603187615
H  H79  1  0.60832000  0.65628000  0.71619000  1.0 0.0999781379
H  H80  1  0.62396000  0.79712000  0.79675000  1.0 0.1102613843
H  H81  1  0.85878000  0.87156000  0.80884000  1.0 0.1102613843
H  H82  1  0.76360000  0.99170000  0.73394000  1.0 0.1102613843
H  H83  1  0.86603000  0.88753000  0.66140000  1.0 0.0903761819
H  H84  1  0.78912000  0.92488000  0.54674000  1.0 0.1177739329
H  H85  1  0.89417000  0.03433000  0.58386000  1.0 0.1102613843
H  H86  1  0.84716000  0.39330000  0.69556000  1.0 0.1102613843
H  H87  1  0.71486000  0.39756000  0.77040000  1.0 0.1102613843
H  H88  1  0.87748000  0.63086000  0.79161000  1.0 0.1102613843
H  H89  1  0.66296000  0.53990000  0.71191000  1.0 0.1102613843
H  H90  1  0.88101000  0.65665000  0.64320000  1.0 0.0999781379
H  H91  1  0.78509000  0.60519000  0.52552000  1.0 0.1311619786
H  H92  1  0.73926000  0.67000000  0.57079000  1.0 0.1102613843
C  C1  1  0.62170000  0.28990000  0.28690000  1.0 0.2486864143
C  C2  1  0.54760000  0.22060000  0.21970000  1.0 0.0274859556
C  C3  1  0.55340000  0.11420000  0.21610000  1.0 0.1177739329
C  C4  1  0.52180000  0.05200000  0.29280000  1.0 0.0194599658
C  C5  1  0.58290000  0.12630000  0.36030000  1.0 0.0999781379
C  C6  1  0.53210000  0.06870000  0.43560000  1.0 -0.058797787
C  C7  1  0.06020000  0.55440000  0.26410000  1.0 0.2315537968
C  C8  1  0.99200000  0.55600000  0.19420000  1.0 0.0551737213
C  C9  1  0.87840000  0.44820000  0.19630000  1.0 0.0835496089
C  C10  1  0.82300000  0.42780000  0.27300000  1.0 0.050915012
C  C11  1  0.90150000  0.43930000  0.33980000  1.0 0.0999781379
C  C12  1  0.85310000  0.43630000  0.41560000  1.0 -0.058797787
C  C13  1  0.32730000  0.39210000  0.26140000  1.0 0.2404354476
C  C14  1  0.31680000  0.44820000  0.18690000  1.0 0.050915012
C  C15  1  0.20070000  0.43750000  0.18500000  1.0 0.0903761819
C  C16  1  0.18980000  0.48700000  0.25720000  1.0 0.050915012
C  C17  1  0.21200000  0.43660000  0.32940000  1.0 0.0903761819
C  C18  1  0.21230000  0.49370000  0.40090000  1.0 -0.058797787
C  C19  1  0.16790000  0.95390000  0.27020000  1.0 0.2404354476
C  C20  1  0.23930000  0.02210000  0.20260000  1.0 0.0417345866
C  C21  1  0.24110000  0.13190000  0.19380000  1.0 0.0835496089
C  C22  1  0.26980000  0.19280000  0.26950000  1.0 0.050915012
C  C23  1  0.20790000  0.11730000  0.33640000  1.0 0.0903761819
C  C24  1  0.25790000  0.17270000  0.41230000  1.0 -0.058797787
C  C25  1  0.72880000  0.68240000  0.27800000  1.0 0.2206390389
C  C26  1  0.78020000  0.68540000  0.20240000  1.0 0.050915012
C  C27  1  0.88910000  0.79770000  0.19530000  1.0 0.0835496089
C  C28  1  0.96450000  0.81730000  0.26490000  1.0 0.050915012
C  C29  1  0.90650000  0.80610000  0.33810000  1.0 0.0999781379
C  C30  1  0.97470000  0.81410000  0.40900000  1.0 -0.058797787
C  C31  1  0.46700000  0.85300000  0.29730000  1.0 0.2315537968
C  C32  1  0.45980000  0.79560000  0.22420000  1.0 0.070209928
C  C33  1  0.56790000  0.79730000  0.21510000  1.0 0.0903761819
C  C34  1  0.59470000  0.74630000  0.28500000  1.0 0.0417345866
C  C35  1  0.59160000  0.80120000  0.35710000  1.0 0.0903761819
C  C36  1  0.60060000  0.74220000  0.42960000  1.0 -0.0656319669
C  C37  1  0.28990000  0.62170000  0.71310000  1.0 0.2486864143
C  C38  1  0.22060000  0.54760000  0.78030000  1.0 0.0274859556
C  C39  1  0.11420000  0.55340000  0.78390000  1.0 0.1177739329
C  C40  1  0.05200000  0.52180000  0.70720000  1.0 0.0194599658
C  C41  1  0.12630000  0.58290000  0.63970000  1.0 0.0999781379
C  C42  1  0.06870000  0.53210000  0.56440000  1.0 -0.058797787
C  C43  1  0.55440000  0.06020000  0.73590000  1.0 0.2315537968
C  C44  1  0.55600000  0.99200000  0.80580000  1.0 0.050915012
C  C45  1  0.44820000  0.87840000  0.80370000  1.0 0.0835496089
C  C46  1  0.42780000  0.82300000  0.72700000  1.0 0.050915012
C  C47  1  0.43930000  0.90150000  0.66020000  1.0 0.0999781379
C  C48  1  0.43630000  0.85310000  0.58440000  1.0 -0.058797787
C  C49  1  0.39210000  0.32730000  0.73860000  1.0 0.2404354476
C  C50  1  0.44820000  0.31680000  0.81310000  1.0 0.050915012
C  C51  1  0.43750000  0.20070000  0.81500000  1.0 0.0903761819
C  C52  1  0.48700000  0.18980000  0.74280000  1.0 0.050915012
C  C53  1  0.43660000  0.21200000  0.67060000  1.0 0.0903761819
C  C54  1  0.49370000  0.21230000  0.59910000  1.0 -0.058797787
C  C55  1  0.95390000  0.16790000  0.72980000  1.0 0.2404354476
C  C56  1  0.02210000  0.23930000  0.79740000  1.0 0.0417345866
C  C57  1  0.13190000  0.24110000  0.80620000  1.0 0.0835496089
C  C58  1  0.19280000  0.26980000  0.73050000  1.0 0.050915012
C  C59  1  0.11730000  0.20790000  0.66360000  1.0 0.0903761819
C  C60  1  0.17270000  0.25790000  0.58770000  1.0 -0.058797787
C  C61  1  0.68240000  0.72880000  0.72200000  1.0 0.2206390389
C  C62  1  0.68540000  0.78020000  0.79760000  1.0 0.050915012
C  C63  1  0.79770000  0.88910000  0.80470000  1.0 0.0835496089
C  C64  1  0.81730000  0.96450000  0.73510000  1.0 0.0551737213
C  C65  1  0.80610000  0.90650000  0.66190000  1.0 0.0999781379
C  C66  1  0.81410000  0.97470000  0.59100000  1.0 -0.058797787
C  C67  1  0.85300000  0.46700000  0.70270000  1.0 0.2315537968
C  C68  1  0.79560000  0.45980000  0.77580000  1.0 0.070209928
C  C69  1  0.79730000  0.56790000  0.78490000  1.0 0.0903761819
C  C70  1  0.74630000  0.59470000  0.71500000  1.0 0.0417345866
C  C71  1  0.80120000  0.59160000  0.64290000  1.0 0.0903761819
C  C72  1  0.74220000  0.60060000  0.57040000  1.0 -0.0656319669
O  O1  1  0.54330000  0.37050000  0.99170000  1.0 -0.6431091911
O  O2  1  0.66110000  0.22910000  0.03730000  1.0 0.1495646649
O  O3  1  0.95000000  0.40900000  0.02360000  1.0 -0.7680991775
O  O4  1  0.57960000  0.22780000  0.35550000  1.0 -0.2222451007
O  O5  1  0.58230000  0.28370000  0.15040000  1.0 -0.4702009297
O  O6  1  0.47980000  0.04600000  0.15660000  1.0 -0.5442432648
O  O7  1  0.55260000  0.96800000  0.29220000  1.0 -0.2798260933
O  O8  1  0.41790000  0.03890000  0.44150000  1.0 -0.3175835496
O  O9  1  0.00590000  0.54330000  0.33290000  1.0 -0.2222451007
O  O10  1  0.04950000  0.56870000  0.12770000  1.0 -0.3989473468
O  O11  1  0.80320000  0.45100000  0.13720000  1.0 -0.5341934747
O  O12  1  0.73020000  0.31400000  0.27500000  1.0 -0.2520415521
O  O13  1  0.84130000  0.53150000  0.42560000  1.0 -0.3038589643
O  O14  1  0.31870000  0.44450000  0.32570000  1.0 -0.2380226775
O  O15  1  0.33350000  0.40090000  0.12440000  1.0 -0.3867509401
O  O16  1  0.19360000  0.49760000  0.11850000  1.0 -0.5230025685
O  O17  1  0.07570000  0.46230000  0.25780000  1.0 -0.2611560709
O  O18  1  0.27790000  0.61250000  0.39510000  1.0 -0.3292925841
O  O19  1  0.21450000  0.01670000  0.33720000  1.0 -0.2311266995
O  O20  1  0.19900000  0.96460000  0.13280000  1.0 -0.3989473468
O  O21  1  0.32050000  0.20270000  0.13860000  1.0 -0.5230025685
O  O22  1  0.24020000  0.27720000  0.26120000  1.0 -0.268041063
O  O23  1  0.37690000  0.21930000  0.41890000  1.0 -0.309417008
O  O24  1  0.80170000  0.69510000  0.34000000  1.0 -0.2380226775
O  O25  1  0.70370000  0.66830000  0.14110000  1.0 -0.3989473468
O  O26  1  0.94580000  0.80160000  0.12810000  1.0 -0.3715632743
O  O27  1  0.05740000  0.93020000  0.25460000  1.0 -0.2520415521
O  O28  1  0.02610000  0.74950000  0.40830000  1.0 -0.309417008
O  O29  1  0.48990000  0.80190000  0.36150000  1.0 -0.1999401486
O  O30  1  0.43370000  0.84210000  0.15950000  1.0 -0.5772694832
O  O31  1  0.55780000  0.73820000  0.14850000  1.0 -0.5675356871
O  O32  1  0.70600000  0.76920000  0.27700000  1.0 -0.2611560709
O  O33  1  0.50360000  0.62980000  0.43480000  1.0 -0.2311266995
O  O34  1  0.66950000  0.21930000  0.01200000  1.0 0.2119555884
O  O35  1  0.37050000  0.54330000  0.00830000  1.0 -0.6454822308
O  O36  1  0.22910000  0.66110000  0.96270000  1.0 0.1495646649
O  O37  1  0.40900000  0.95000000  0.97640000  1.0 -0.7680991775
O  O38  1  0.22780000  0.57960000  0.64450000  1.0 -0.2222451007
O  O39  1  0.28370000  0.58230000  0.84960000  1.0 -0.4702009297
O  O40  1  0.04600000  0.47980000  0.84340000  1.0 -0.5442432648
O  O41  1  0.96800000  0.55260000  0.70780000  1.0 -0.2798260933
O  O42  1  0.03890000  0.41790000  0.55850000  1.0 -0.3175835496
O  O43  1  0.54330000  0.00590000  0.66710000  1.0 -0.2222451007
O  O44  1  0.56870000  0.04950000  0.87230000  1.0 -0.3989473468
O  O45  1  0.45100000  0.80320000  0.86280000  1.0 -0.5341934747
O  O46  1  0.31400000  0.73020000  0.72500000  1.0 -0.2520415521
O  O47  1  0.53150000  0.84130000  0.57440000  1.0 -0.3038589643
O  O48  1  0.44450000  0.31870000  0.67430000  1.0 -0.2380226775
O  O49  1  0.40090000  0.33350000  0.87560000  1.0 -0.3867509401
O  O50  1  0.49760000  0.19360000  0.88150000  1.0 -0.5230025685
O  O51  1  0.46230000  0.07570000  0.74220000  1.0 -0.2611560709
O  O52  1  0.61250000  0.27790000  0.60490000  1.0 -0.3292925841
O  O53  1  0.01670000  0.21450000  0.66280000  1.0 -0.2311266995
O  O54  1  0.96460000  0.19900000  0.86720000  1.0 -0.3989473468
O  O55  1  0.20270000  0.32050000  0.86140000  1.0 -0.5230025685
O  O56  1  0.27720000  0.24020000  0.73880000  1.0 -0.268041063
O  O57  1  0.21930000  0.37690000  0.58110000  1.0 -0.309417008
O  O58  1  0.69510000  0.80170000  0.66000000  1.0 -0.2380226775
O  O59  1  0.66830000  0.70370000  0.85890000  1.0 -0.3989473468
O  O60  1  0.80160000  0.94580000  0.87190000  1.0 -0.3715632743
O  O61  1  0.93020000  0.05740000  0.74540000  1.0 -0.2520415521
O  O62  1  0.74950000  0.02610000  0.59170000  1.0 -0.3038589643
O  O63  1  0.80190000  0.48990000  0.63850000  1.0 -0.1999401486
O  O64  1  0.84210000  0.43370000  0.84050000  1.0 -0.5772694832
O  O65  1  0.73820000  0.55780000  0.85150000  1.0 -0.5675356871
O  O66  1  0.76920000  0.70600000  0.72300000  1.0 -0.2611560709
O  O67  1  0.62980000  0.50360000  0.56520000  1.0 -0.2311266995
O  O68  1  0.21930000  0.66950000  0.98800000  1.0 0.2119555884
