# DDEC6 charges by PACMAN v1.1 (https://github.com/mtap-research/PACMAN-charge/)
data_VUTSEL_ion_pacman
_symmetry_space_group_name_H-M   'P 1'
_cell_length_a   18.28390000
_cell_length_b   18.28390000
_cell_length_c   18.32190000
_cell_angle_alpha   71.81110000
_cell_angle_beta   108.18900000
_cell_angle_gamma   125.45700000
_symmetry_Int_Tables_number   1
_chemical_formula_structural   Li5Zr4C8O33
_chemical_formula_sum   'Li20 Zr16 C32 O132'
_cell_volume   4671.36564533
_cell_formula_units_Z   4
loop_
 _symmetry_equiv_pos_site_id
 _symmetry_equiv_pos_as_xyz
  1  'x, y, z'
loop_
 _atom_site_type_symbol
 _atom_site_label
 _atom_site_symmetry_multiplicity
 _atom_site_fract_x
 _atom_site_fract_y
 _atom_site_fract_z
 _atom_site_occupancy
 _atom_site_charge
Li  Li1  1  0.32910000  0.24090000  0.06500000  1.0 0.8148479075
Li  Li2  1  0.68200000  0.11000000  0.56500000  1.0 0.8701248378
Li  Li3  1  0.42710000  0.89690000  0.05390000  1.0 0.8290386906
Li  Li4  1  0.24090000  0.32910000  0.93500000  1.0 0.8148479075
Li  Li5  1  0.11000000  0.68200000  0.43500000  1.0 0.8701248378
Li  Li6  1  0.89690000  0.42710000  0.94610000  1.0 0.8290386906
Li  Li7  1  0.67090000  0.75910000  0.93500000  1.0 0.8148479075
Li  Li8  1  0.31800000  0.89000000  0.43500000  1.0 0.8701248378
Li  Li9  1  0.57290000  0.10310000  0.94610000  1.0 0.8290386906
Li  Li10  1  0.75910000  0.67090000  0.06500000  1.0 0.8158490271
Li  Li11  1  0.89000000  0.31800000  0.56500000  1.0 0.8759432644
Li  Li12  1  0.10310000  0.57290000  0.05390000  1.0 0.8290386906
Li  Li13  1  0.30900000  0.69100000  0.22860000  1.0 0.9052221984
Li  Li14  1  0.69100000  0.30900000  0.77140000  1.0 0.9029952497
Li  Li15  1  0.91100000  0.91100000  0.50000000  1.0 1.0772136659
Li  Li16  1  0.08900000  0.08900000  0.50000000  1.0 1.0885420055
Li  Li17  1  0.01700000  0.98300000  0.32200000  1.0 0.8290386906
Li  Li18  1  0.98300000  0.01700000  0.67800000  1.0 0.8290386906
Li  Li19  1  0.28500000  0.71500000  0.68700000  1.0 0.836343965
Li  Li20  1  0.71500000  0.28500000  0.31300000  1.0 0.836343965
Zr  Zr1  1  0.29273000  0.90455000  0.21561000  1.0 2.0088528842
Zr  Zr2  1  0.48304000  0.92802000  0.30845000  1.0 2.0482250661
Zr  Zr3  1  0.58696000  0.83442000  0.29006000  1.0 2.0041198939
Zr  Zr4  1  0.51004000  0.68812000  0.18232000  1.0 2.0168157309
Zr  Zr5  1  0.90455000  0.29273000  0.78439000  1.0 2.0088528842
Zr  Zr6  1  0.92802000  0.48304000  0.69155000  1.0 2.0482250661
Zr  Zr7  1  0.83442000  0.58696000  0.70994000  1.0 1.992414853
Zr  Zr8  1  0.68812000  0.51004000  0.81768000  1.0 2.0168157309
Zr  Zr9  1  0.70727000  0.09545000  0.78439000  1.0 2.0168157309
Zr  Zr10  1  0.51696000  0.07198000  0.69155000  1.0 2.0482250661
Zr  Zr11  1  0.41304000  0.16558000  0.70994000  1.0 2.0088528842
Zr  Zr12  1  0.48996000  0.31188000  0.81768000  1.0 2.0168157309
Zr  Zr13  1  0.09545000  0.70727000  0.21561000  1.0 2.0088528842
Zr  Zr14  1  0.07198000  0.51696000  0.30845000  1.0 2.0482250661
Zr  Zr15  1  0.16558000  0.41304000  0.29006000  1.0 2.0088528842
Zr  Zr16  1  0.31188000  0.48996000  0.18232000  1.0 2.0168157309
C  C1  1  0.27610000  0.04110000  0.07980000  1.0 0.4920798094
C  C2  1  0.29420000  0.07680000  0.15210000  1.0 0.5349837155
C  C3  1  0.58980000  0.06140000  0.42020000  1.0 0.4047358916
C  C4  1  0.55980000  0.97660000  0.47020000  1.0 0.4121960685
C  C5  1  0.72570000  0.85150000  0.43310000  1.0 0.4920798094
C  C6  1  0.78090000  0.90810000  0.37010000  1.0 0.4920798094
C  C7  1  0.63150000  0.71890000  0.08510000  1.0 0.5363892288
C  C8  1  0.55920000  0.73420000  0.02550000  1.0 0.4920798094
C  C9  1  0.04110000  0.27610000  0.92020000  1.0 0.4920798094
C  C10  1  0.07680000  0.29420000  0.84790000  1.0 0.5349837155
C  C11  1  0.06140000  0.58980000  0.57980000  1.0 0.4047358916
C  C12  1  0.97660000  0.55980000  0.52980000  1.0 0.4121960685
C  C13  1  0.85150000  0.72570000  0.56690000  1.0 0.4920798094
C  C14  1  0.90810000  0.78090000  0.62990000  1.0 0.4920798094
C  C15  1  0.71890000  0.63150000  0.91490000  1.0 0.5363892288
C  C16  1  0.73420000  0.55920000  0.97450000  1.0 0.4920798094
C  C17  1  0.72390000  0.95890000  0.92020000  1.0 0.4920798094
C  C18  1  0.70580000  0.92320000  0.84790000  1.0 0.5349837155
C  C19  1  0.41020000  0.93860000  0.57980000  1.0 0.4047358916
C  C20  1  0.44020000  0.02340000  0.52980000  1.0 0.4121960685
C  C21  1  0.27430000  0.14850000  0.56690000  1.0 0.4920798094
C  C22  1  0.21910000  0.09190000  0.62990000  1.0 0.4920798094
C  C23  1  0.36850000  0.28110000  0.91490000  1.0 0.5363892288
C  C24  1  0.44080000  0.26580000  0.97450000  1.0 0.4920798094
C  C25  1  0.95890000  0.72390000  0.07980000  1.0 0.4957343847
C  C26  1  0.92320000  0.70580000  0.15210000  1.0 0.5363892288
C  C27  1  0.93860000  0.41020000  0.42020000  1.0 0.4047358916
C  C28  1  0.02340000  0.44020000  0.47020000  1.0 0.4121960685
C  C29  1  0.14850000  0.27430000  0.43310000  1.0 0.4920798094
C  C30  1  0.09190000  0.21910000  0.37010000  1.0 0.4920798094
C  C31  1  0.28110000  0.36850000  0.08510000  1.0 0.5363892288
C  C32  1  0.26580000  0.44080000  0.02550000  1.0 0.4920798094
O  O1  1  0.40310000  0.90970000  0.18840000  1.0 -0.5174340695
O  O2  1  0.44210000  0.00230000  0.20550000  1.0 -0.5006965041
O  O3  1  0.34220000  0.83740000  0.32240000  1.0 -0.3940711334
O  O4  1  0.36690000  0.92330000  0.33490000  1.0 -0.5590146571
O  O5  1  0.46520000  0.79940000  0.32150000  1.0 -0.9470036715
O  O6  1  0.58380000  0.95780000  0.24560000  1.0 -0.488719967
O  O7  1  0.62040000  0.95140000  0.33280000  1.0 -0.4691828181
O  O8  1  0.60070000  0.84230000  0.17490000  1.0 -0.488719967
O  O9  1  0.50280000  0.80440000  0.17440000  1.0 -0.5006965041
O  O10  1  0.59880000  0.71640000  0.29280000  1.0 -0.4600354746
O  O11  1  0.50780000  0.68760000  0.30230000  1.0 -0.4202032526
O  O12  1  0.27940000  0.96900000  0.09340000  1.0 -0.576693216
O  O13  1  0.26130000  0.07930000  0.01410000  1.0 -0.4022931918
O  O14  1  0.30440000  0.02960000  0.21730000  1.0 -0.5681310832
O  O15  1  0.29390000  0.14710000  0.14570000  1.0 -0.5293865516
O  O16  1  0.56300000  0.06120000  0.34200000  1.0 -0.6064416706
O  O17  1  0.64080000  0.13440000  0.44330000  1.0 -0.437661468
O  O18  1  0.50700000  0.90280000  0.43660000  1.0 -0.5498354375
O  O19  1  0.57960000  0.97560000  0.54170000  1.0 -0.42502276
O  O20  1  0.63950000  0.80890000  0.41340000  1.0 -0.5498354375
O  O21  1  0.76940000  0.85420000  0.50230000  1.0 -0.4814321091
O  O22  1  0.73400000  0.90800000  0.30120000  1.0 -0.5498354375
O  O23  1  0.86670000  0.94210000  0.38430000  1.0 -0.5174340695
O  O24  1  0.62930000  0.70490000  0.15740000  1.0 -0.5590146571
O  O25  1  0.69250000  0.72210000  0.06180000  1.0 -0.6064416706
O  O26  1  0.50470000  0.72970000  0.05630000  1.0 -0.5293865516
O  O27  1  0.55470000  0.74530000  0.95350000  1.0 -0.5089210808
O  O28  1  0.77670000  0.07830000  0.57930000  1.0 0.0971720502
O  O29  1  0.48050000  0.37150000  0.14650000  1.0 0.3382419408
O  O30  1  0.90970000  0.40310000  0.81160000  1.0 -0.5174340695
O  O31  1  0.00230000  0.44210000  0.79450000  1.0 -0.5006965041
O  O32  1  0.83740000  0.34220000  0.67760000  1.0 -0.3940711334
O  O33  1  0.92330000  0.36690000  0.66510000  1.0 -0.5590146571
O  O34  1  0.79940000  0.46520000  0.67850000  1.0 -0.9470036715
O  O35  1  0.95780000  0.58380000  0.75440000  1.0 -0.488719967
O  O36  1  0.95140000  0.62040000  0.66720000  1.0 -0.4691828181
O  O37  1  0.84230000  0.60070000  0.82510000  1.0 -0.488719967
O  O38  1  0.80440000  0.50280000  0.82560000  1.0 -0.5006965041
O  O39  1  0.71640000  0.59880000  0.70720000  1.0 -0.4600354746
O  O40  1  0.68760000  0.50780000  0.69770000  1.0 -0.4202032526
O  O41  1  0.96900000  0.27940000  0.90660000  1.0 -0.576693216
O  O42  1  0.07930000  0.26130000  0.98590000  1.0 -0.4022931918
O  O43  1  0.02960000  0.30440000  0.78270000  1.0 -0.5681310832
O  O44  1  0.14710000  0.29390000  0.85430000  1.0 -0.5293865516
O  O45  1  0.06120000  0.56300000  0.65800000  1.0 -0.6064416706
O  O46  1  0.13440000  0.64080000  0.55670000  1.0 -0.437661468
O  O47  1  0.90280000  0.50700000  0.56340000  1.0 -0.5449612528
O  O48  1  0.97560000  0.57960000  0.45830000  1.0 -0.42502276
O  O49  1  0.80890000  0.63950000  0.58660000  1.0 -0.5449612528
O  O50  1  0.85420000  0.76940000  0.49770000  1.0 -0.4814321091
O  O51  1  0.90800000  0.73400000  0.69880000  1.0 -0.5498354375
O  O52  1  0.94210000  0.86670000  0.61570000  1.0 -0.5174340695
O  O53  1  0.70490000  0.62930000  0.84260000  1.0 -0.5590146571
O  O54  1  0.72210000  0.69250000  0.93820000  1.0 -0.6064416706
O  O55  1  0.72970000  0.50470000  0.94370000  1.0 -0.5293865516
O  O56  1  0.74530000  0.55470000  0.04650000  1.0 -0.5089210808
O  O57  1  0.07830000  0.77670000  0.42070000  1.0 0.0971720502
O  O58  1  0.37150000  0.48050000  0.85350000  1.0 0.3382419408
O  O59  1  0.59690000  0.09030000  0.81160000  1.0 -0.5174340695
O  O60  1  0.55790000  0.99770000  0.79450000  1.0 -0.5006965041
O  O61  1  0.65780000  0.16260000  0.67760000  1.0 -0.3940711334
O  O62  1  0.63310000  0.07670000  0.66510000  1.0 -0.5590146571
O  O63  1  0.53480000  0.20060000  0.67850000  1.0 -0.9470036715
O  O64  1  0.41620000  0.04220000  0.75440000  1.0 -0.488719967
O  O65  1  0.37960000  0.04860000  0.66720000  1.0 -0.4691828181
O  O66  1  0.39930000  0.15770000  0.82510000  1.0 -0.488719967
O  O67  1  0.49720000  0.19560000  0.82560000  1.0 -0.5006965041
O  O68  1  0.40120000  0.28360000  0.70720000  1.0 -0.4600354746
O  O69  1  0.49220000  0.31240000  0.69770000  1.0 -0.4202032526
O  O70  1  0.72060000  0.03100000  0.90660000  1.0 -0.576693216
O  O71  1  0.73870000  0.92070000  0.98590000  1.0 -0.4022931918
O  O72  1  0.69560000  0.97040000  0.78270000  1.0 -0.5681310832
O  O73  1  0.70610000  0.85290000  0.85430000  1.0 -0.5293865516
O  O74  1  0.43700000  0.93880000  0.65800000  1.0 -0.6064416706
O  O75  1  0.35920000  0.86560000  0.55670000  1.0 -0.437661468
O  O76  1  0.49300000  0.09720000  0.56340000  1.0 -0.5449612528
O  O77  1  0.42040000  0.02440000  0.45830000  1.0 -0.4202032526
O  O78  1  0.36050000  0.19110000  0.58660000  1.0 -0.5449612528
O  O79  1  0.23060000  0.14580000  0.49770000  1.0 -0.4814321091
O  O80  1  0.26600000  0.09200000  0.69880000  1.0 -0.5498354375
O  O81  1  0.13330000  0.05790000  0.61570000  1.0 -0.5174340695
O  O82  1  0.37070000  0.29510000  0.84260000  1.0 -0.5590146571
O  O83  1  0.30750000  0.27790000  0.93820000  1.0 -0.6064416706
O  O84  1  0.49530000  0.27030000  0.94370000  1.0 -0.5293865516
O  O85  1  0.44530000  0.25470000  0.04650000  1.0 -0.5089210808
O  O86  1  0.22330000  0.92170000  0.42070000  1.0 0.1153913237
O  O87  1  0.51950000  0.62850000  0.85350000  1.0 0.3382419408
O  O88  1  0.09030000  0.59690000  0.18840000  1.0 -0.5174340695
O  O89  1  0.99770000  0.55790000  0.20550000  1.0 -0.5006965041
O  O90  1  0.16260000  0.65780000  0.32240000  1.0 -0.3940711334
O  O91  1  0.07670000  0.63310000  0.33490000  1.0 -0.5590146571
O  O92  1  0.20060000  0.53480000  0.32150000  1.0 -0.9470036715
O  O93  1  0.04220000  0.41620000  0.24560000  1.0 -0.488719967
O  O94  1  0.04860000  0.37960000  0.33280000  1.0 -0.4691828181
O  O95  1  0.15770000  0.39930000  0.17490000  1.0 -0.488719967
O  O96  1  0.19560000  0.49720000  0.17440000  1.0 -0.5006965041
O  O97  1  0.28360000  0.40120000  0.29280000  1.0 -0.4600354746
O  O98  1  0.31240000  0.49220000  0.30230000  1.0 -0.4202032526
O  O99  1  0.03100000  0.72060000  0.09340000  1.0 -0.576693216
O  O100  1  0.92070000  0.73870000  0.01410000  1.0 -0.4022931918
O  O101  1  0.97040000  0.69560000  0.21730000  1.0 -0.5681310832
O  O102  1  0.85290000  0.70610000  0.14570000  1.0 -0.5293865516
O  O103  1  0.93880000  0.43700000  0.34200000  1.0 -0.6064416706
O  O104  1  0.86560000  0.35920000  0.44330000  1.0 -0.437661468
O  O105  1  0.09720000  0.49300000  0.43660000  1.0 -0.5498354375
O  O106  1  0.02440000  0.42040000  0.54170000  1.0 -0.4202032526
O  O107  1  0.19110000  0.36050000  0.41340000  1.0 -0.5498354375
O  O108  1  0.14580000  0.23060000  0.50230000  1.0 -0.4814321091
O  O109  1  0.09200000  0.26600000  0.30120000  1.0 -0.5498354375
O  O110  1  0.05790000  0.13330000  0.38430000  1.0 -0.5174340695
O  O111  1  0.29510000  0.37070000  0.15740000  1.0 -0.5590146571
O  O112  1  0.27790000  0.30750000  0.06180000  1.0 -0.6064416706
O  O113  1  0.27030000  0.49530000  0.05630000  1.0 -0.5293865516
O  O114  1  0.25470000  0.44530000  0.95350000  1.0 -0.5089210808
O  O115  1  0.92170000  0.22330000  0.57930000  1.0 0.1153913237
O  O116  1  0.62850000  0.51950000  0.14650000  1.0 0.3382419408
O  O117  1  0.22060000  0.77940000  0.17310000  1.0 -0.9875834971
O  O118  1  0.17550000  0.82450000  0.27220000  1.0 -0.4691828181
O  O119  1  0.14710000  0.85290000  0.18940000  1.0 -0.488719967
O  O120  1  0.36700000  0.63300000  0.15860000  1.0 -1.0017666608
O  O121  1  0.44350000  0.55650000  0.14670000  1.0 -0.4814321091
O  O122  1  0.45530000  0.54470000  0.23340000  1.0 -0.437661468
O  O123  1  0.77940000  0.22060000  0.82690000  1.0 -0.9875834971
O  O124  1  0.82450000  0.17550000  0.72780000  1.0 -0.4691828181
O  O125  1  0.85290000  0.14710000  0.81060000  1.0 -0.488719967
O  O126  1  0.63300000  0.36700000  0.84140000  1.0 -1.0017666608
O  O127  1  0.55650000  0.44350000  0.85330000  1.0 -0.4814321091
O  O128  1  0.54470000  0.45530000  0.76660000  1.0 -0.437661468
O  O129  1  0.75950000  0.24050000  0.55850000  1.0 -0.6780190557
O  O130  1  0.04170000  0.95830000  0.48000000  1.0 -0.6306299656
O  O131  1  0.24050000  0.75950000  0.44150000  1.0 -0.6780190557
O  O132  1  0.95830000  0.04170000  0.52000000  1.0 -0.6306299656
