# DDEC6 charges by PACMAN v1.1 (https://github.com/mtap-research/PACMAN-charge/)
data_VUVYOD_ASR_pacman
_symmetry_space_group_name_H-M   'P 1'
_cell_length_a   13.64770000
_cell_length_b   13.64770000
_cell_length_c   18.01870000
_cell_angle_alpha   57.22580000
_cell_angle_beta   122.77400000
_cell_angle_gamma   133.12500000
_symmetry_Int_Tables_number   1
_chemical_formula_structural   Bi(C5O2)3
_chemical_formula_sum   'Bi4 C60 O24'
_cell_volume   1977.75326674
_cell_formula_units_Z   4
loop_
 _symmetry_equiv_pos_site_id
 _symmetry_equiv_pos_as_xyz
  1  'x, y, z'
loop_
 _atom_site_type_symbol
 _atom_site_label
 _atom_site_symmetry_multiplicity
 _atom_site_fract_x
 _atom_site_fract_y
 _atom_site_fract_z
 _atom_site_occupancy
 _atom_site_charge
Bi  Bi1  1  0.01418000  0.31788000  0.10139000  1.0 1.4212669677
Bi  Bi2  1  0.68212000  0.98582000  0.60139000  1.0 1.4212669677
Bi  Bi3  1  0.31788000  0.01418000  0.39861000  1.0 1.4212669677
Bi  Bi4  1  0.98582000  0.68212000  0.89861000  1.0 1.4212669677
C  C1  1  0.05330000  0.22270000  0.02090000  1.0 0.571685972
C  C2  1  0.07660000  0.19620000  0.96600000  1.0 -0.0876988598
C  C3  1  0.96890000  0.14410000  0.89080000  1.0 0.0643362201
C  C4  1  0.99150000  0.11850000  0.83780000  1.0 -0.0835912486
C  C5  1  0.12180000  0.14500000  0.85990000  1.0 0.0224919109
C  C6  1  0.22940000  0.19720000  0.93500000  1.0 0.0116942421
C  C7  1  0.20690000  0.22290000  0.98810000  1.0 0.0041689268
C  C8  1  0.88010000  0.06450000  0.76010000  1.0 0.571685972
C  C9  1  0.36440000  0.22480000  0.95790000  1.0 0.0698950312
C  C10  1  0.37210000  0.12410000  0.96280000  1.0 0.0224919109
C  C11  1  0.50230000  0.15070000  0.98480000  1.0 0.0485119245
C  C12  1  0.62490000  0.27790000  0.00200000  1.0 -0.0666704436
C  C13  1  0.61730000  0.37850000  0.99720000  1.0 0.0224919109
C  C14  1  0.48710000  0.35190000  0.97510000  1.0 -0.0116657472
C  C15  1  0.75970000  0.30530000  0.02490000  1.0 0.5930539316
C  C16  1  0.77730000  0.94670000  0.52090000  1.0 0.571685972
C  C17  1  0.80380000  0.92340000  0.46600000  1.0 -0.0876988598
C  C18  1  0.85590000  0.03110000  0.39080000  1.0 0.0643362201
C  C19  1  0.88150000  0.00850000  0.33780000  1.0 -0.0835912486
C  C20  1  0.85500000  0.87820000  0.35990000  1.0 0.0224919109
C  C21  1  0.80280000  0.77060000  0.43500000  1.0 0.0116942421
C  C22  1  0.77710000  0.79310000  0.48810000  1.0 0.0041689268
C  C23  1  0.93550000  0.11990000  0.26010000  1.0 0.571685972
C  C24  1  0.77520000  0.63560000  0.45790000  1.0 0.0698950312
C  C25  1  0.87590000  0.62790000  0.46280000  1.0 0.0224919109
C  C26  1  0.84930000  0.49770000  0.48480000  1.0 0.0485119245
C  C27  1  0.72210000  0.37510000  0.50200000  1.0 -0.0666704436
C  C28  1  0.62150000  0.38270000  0.49720000  1.0 0.0224919109
C  C29  1  0.64810000  0.51290000  0.47510000  1.0 -0.0116657472
C  C30  1  0.69470000  0.24030000  0.52490000  1.0 0.5930539316
C  C31  1  0.22270000  0.05330000  0.47910000  1.0 0.571685972
C  C32  1  0.19620000  0.07660000  0.53400000  1.0 -0.0876988598
C  C33  1  0.14410000  0.96890000  0.60920000  1.0 0.0643362201
C  C34  1  0.11850000  0.99150000  0.66220000  1.0 -0.0835912486
C  C35  1  0.14500000  0.12180000  0.64010000  1.0 0.0224919109
C  C36  1  0.19720000  0.22940000  0.56500000  1.0 0.0116942421
C  C37  1  0.22290000  0.20690000  0.51190000  1.0 0.0041689268
C  C38  1  0.06450000  0.88010000  0.73990000  1.0 0.571685972
C  C39  1  0.22480000  0.36440000  0.54210000  1.0 0.0698950312
C  C40  1  0.12410000  0.37210000  0.53720000  1.0 0.0224919109
C  C41  1  0.15070000  0.50230000  0.51520000  1.0 0.0485119245
C  C42  1  0.27790000  0.62490000  0.49800000  1.0 -0.0666704436
C  C43  1  0.37850000  0.61730000  0.50280000  1.0 0.0224919109
C  C44  1  0.35190000  0.48710000  0.52490000  1.0 -0.0116657472
C  C45  1  0.30530000  0.75970000  0.47510000  1.0 0.5930539316
C  C46  1  0.94670000  0.77730000  0.97910000  1.0 0.571685972
C  C47  1  0.92340000  0.80380000  0.03400000  1.0 -0.0876988598
C  C48  1  0.03110000  0.85590000  0.10920000  1.0 0.0643362201
C  C49  1  0.00850000  0.88150000  0.16220000  1.0 -0.0835912486
C  C50  1  0.87820000  0.85500000  0.14010000  1.0 0.0224919109
C  C51  1  0.77060000  0.80280000  0.06500000  1.0 0.0116942421
C  C52  1  0.79310000  0.77710000  0.01190000  1.0 0.0041689268
C  C53  1  0.11990000  0.93550000  0.23990000  1.0 0.571685972
C  C54  1  0.63560000  0.77520000  0.04210000  1.0 0.0698950312
C  C55  1  0.62790000  0.87590000  0.03720000  1.0 0.0224919109
C  C56  1  0.49770000  0.84930000  0.01520000  1.0 0.0485119245
C  C57  1  0.37510000  0.72210000  0.99800000  1.0 -0.0666704436
C  C58  1  0.38270000  0.62150000  0.00280000  1.0 0.0224919109
C  C59  1  0.51290000  0.64810000  0.02490000  1.0 -0.0116657472
C  C60  1  0.24030000  0.69470000  0.97510000  1.0 0.5930539316
O  O1  1  0.15180000  0.26220000  0.09610000  1.0 -0.5366118603
O  O2  1  0.93390000  0.20790000  0.99600000  1.0 -0.498327499
O  O3  1  0.75370000  0.02850000  0.74370000  1.0 -0.5236843281
O  O4  1  0.90480000  0.05120000  0.70540000  1.0 -0.4915978067
O  O5  1  0.76810000  0.20470000  0.03990000  1.0 -0.498327499
O  O6  1  0.87450000  0.43110000  0.03080000  1.0 -0.625599628
O  O7  1  0.73780000  0.84820000  0.59610000  1.0 -0.5366118603
O  O8  1  0.79210000  0.06610000  0.49600000  1.0 -0.498327499
O  O9  1  0.97150000  0.24630000  0.24370000  1.0 -0.5236843281
O  O10  1  0.94880000  0.09520000  0.20540000  1.0 -0.4915978067
O  O11  1  0.79530000  0.23190000  0.53990000  1.0 -0.498327499
O  O12  1  0.56890000  0.12550000  0.53080000  1.0 -0.625599628
O  O13  1  0.26220000  0.15180000  0.40390000  1.0 -0.5366118603
O  O14  1  0.20790000  0.93390000  0.50400000  1.0 -0.498327499
O  O15  1  0.02850000  0.75370000  0.75630000  1.0 -0.5236843281
O  O16  1  0.05120000  0.90480000  0.79460000  1.0 -0.4915978067
O  O17  1  0.20470000  0.76810000  0.46010000  1.0 -0.498327499
O  O18  1  0.43110000  0.87450000  0.46920000  1.0 -0.625599628
O  O19  1  0.84820000  0.73780000  0.90390000  1.0 -0.5366118603
O  O20  1  0.06610000  0.79210000  0.00400000  1.0 -0.498327499
O  O21  1  0.24630000  0.97150000  0.25630000  1.0 -0.5236843281
O  O22  1  0.09520000  0.94880000  0.29460000  1.0 -0.4915978067
O  O23  1  0.23190000  0.79530000  0.96010000  1.0 -0.498327499
O  O24  1  0.12550000  0.56890000  0.96920000  1.0 -0.625599628
