# DDEC6 charges by PACMAN v1.1 (https://github.com/mtap-research/PACMAN-charge/)
data_VUVYIX_FSR_pacman
_symmetry_space_group_name_H-M   'P 1'
_cell_length_a   13.73850000
_cell_length_b   13.73850000
_cell_length_c   18.02130000
_cell_angle_alpha   57.85530000
_cell_angle_beta   122.14500000
_cell_angle_gamma   137.14900000
_symmetry_Int_Tables_number   1
_chemical_formula_structural   Bi(C5O2)3
_chemical_formula_sum   'Bi4 C60 O24'
_cell_volume   1898.20984486
_cell_formula_units_Z   4
loop_
 _symmetry_equiv_pos_site_id
 _symmetry_equiv_pos_as_xyz
  1  'x, y, z'
loop_
 _atom_site_type_symbol
 _atom_site_label
 _atom_site_symmetry_multiplicity
 _atom_site_fract_x
 _atom_site_fract_y
 _atom_site_fract_z
 _atom_site_occupancy
 _atom_site_charge
Bi  Bi1  1  0.32737000  0.03043000  0.38923000  1.0 1.426964654
Bi  Bi2  1  0.96957000  0.67263000  0.88923000  1.0 1.426964654
Bi  Bi3  1  0.03043000  0.32737000  0.11077000  1.0 1.426964654
Bi  Bi4  1  0.67263000  0.96957000  0.61077000  1.0 1.426964654
C  C1  1  0.23240000  0.07160000  0.46330000  1.0 0.5684333577
C  C2  1  0.20480000  0.09320000  0.51880000  1.0 -0.0918629679
C  C3  1  0.14910000  0.98090000  0.59490000  1.0 0.0658024981
C  C4  1  0.12220000  0.00180000  0.64850000  1.0 -0.0918629679
C  C5  1  0.15110000  0.13490000  0.62590000  1.0 0.0199519688
C  C6  1  0.20590000  0.24650000  0.54960000  1.0 0.0109047562
C  C7  1  0.23260000  0.22540000  0.49610000  1.0 0.0109047562
C  C8  1  0.06550000  0.88650000  0.72730000  1.0 0.5852954521
C  C9  1  0.23620000  0.38800000  0.52560000  1.0 0.0658024981
C  C10  1  0.13510000  0.38490000  0.53040000  1.0 0.0317179005
C  C11  1  0.16340000  0.51760000  0.50780000  1.0 0.0388433731
C  C12  1  0.29290000  0.65350000  0.48020000  1.0 -0.072874516
C  C13  1  0.39400000  0.65660000  0.47540000  1.0 0.0109047562
C  C14  1  0.36560000  0.52380000  0.49800000  1.0 0.0109047562
C  C15  1  0.32220000  0.79060000  0.45690000  1.0 0.575649096
C  C16  1  0.92840000  0.76760000  0.96330000  1.0 0.5684333577
C  C17  1  0.90680000  0.79520000  0.01880000  1.0 -0.0918629679
C  C18  1  0.01910000  0.85090000  0.09490000  1.0 0.0658024981
C  C19  1  0.99820000  0.87780000  0.14850000  1.0 -0.0918629679
C  C20  1  0.86510000  0.84890000  0.12590000  1.0 0.0199519688
C  C21  1  0.75350000  0.79410000  0.04960000  1.0 0.0109047562
C  C22  1  0.77460000  0.76740000  0.99610000  1.0 0.0109047562
C  C23  1  0.11350000  0.93450000  0.22730000  1.0 0.5852954521
C  C24  1  0.61200000  0.76380000  0.02560000  1.0 0.0658024981
C  C25  1  0.61510000  0.86490000  0.03040000  1.0 0.0317179005
C  C26  1  0.48240000  0.83660000  0.00780000  1.0 0.0388433731
C  C27  1  0.34650000  0.70710000  0.98020000  1.0 -0.072874516
C  C28  1  0.34340000  0.60600000  0.97540000  1.0 0.0109047562
C  C29  1  0.47620000  0.63440000  0.99800000  1.0 0.0109047562
C  C30  1  0.20940000  0.67780000  0.95690000  1.0 0.575649096
C  C31  1  0.07160000  0.23240000  0.03670000  1.0 0.5684333577
C  C32  1  0.09320000  0.20480000  0.98120000  1.0 -0.0918629679
C  C33  1  0.98090000  0.14910000  0.90510000  1.0 0.0658024981
C  C34  1  0.00180000  0.12220000  0.85150000  1.0 -0.0918629679
C  C35  1  0.13490000  0.15110000  0.87410000  1.0 0.0199519688
C  C36  1  0.24650000  0.20590000  0.95040000  1.0 0.0109047562
C  C37  1  0.22540000  0.23260000  0.00390000  1.0 0.0109047562
C  C38  1  0.88650000  0.06550000  0.77270000  1.0 0.5852954521
C  C39  1  0.38800000  0.23620000  0.97440000  1.0 0.0658024981
C  C40  1  0.38490000  0.13510000  0.96960000  1.0 0.0317179005
C  C41  1  0.51760000  0.16340000  0.99220000  1.0 0.0388433731
C  C42  1  0.65350000  0.29290000  0.01980000  1.0 -0.072874516
C  C43  1  0.65660000  0.39400000  0.02460000  1.0 0.0109047562
C  C44  1  0.52380000  0.36560000  0.00200000  1.0 0.0109047562
C  C45  1  0.79060000  0.32220000  0.04310000  1.0 0.575649096
C  C46  1  0.76760000  0.92840000  0.53670000  1.0 0.5684333577
C  C47  1  0.79520000  0.90680000  0.48120000  1.0 -0.0918629679
C  C48  1  0.85090000  0.01910000  0.40510000  1.0 0.0658024981
C  C49  1  0.87780000  0.99820000  0.35150000  1.0 -0.0918629679
C  C50  1  0.84890000  0.86510000  0.37410000  1.0 0.0199519688
C  C51  1  0.79410000  0.75350000  0.45040000  1.0 0.0109047562
C  C52  1  0.76740000  0.77460000  0.50390000  1.0 0.0109047562
C  C53  1  0.93450000  0.11350000  0.27270000  1.0 0.5852954521
C  C54  1  0.76380000  0.61200000  0.47440000  1.0 0.0658024981
C  C55  1  0.86490000  0.61510000  0.46960000  1.0 0.0317179005
C  C56  1  0.83660000  0.48240000  0.49220000  1.0 0.0388433731
C  C57  1  0.70710000  0.34650000  0.51980000  1.0 -0.072874516
C  C58  1  0.60600000  0.34340000  0.52460000  1.0 0.0109047562
C  C59  1  0.63440000  0.47620000  0.50200000  1.0 0.0109047562
C  C60  1  0.67780000  0.20940000  0.54310000  1.0 0.575649096
O  O1  1  0.28400000  0.17600000  0.39180000  1.0 -0.5435110794
O  O2  1  0.20670000  0.94730000  0.48490000  1.0 -0.4988668577
O  O3  1  0.00880000  0.75120000  0.73790000  1.0 -0.5469059662
O  O4  1  0.07000000  0.91600000  0.78840000  1.0 -0.4988668577
O  O5  1  0.21300000  0.78900000  0.43560000  1.0 -0.4744018183
O  O6  1  0.45820000  0.91700000  0.45700000  1.0 -0.6029267923
O  O7  1  0.82400000  0.71600000  0.89180000  1.0 -0.5435110794
O  O8  1  0.05270000  0.79330000  0.98490000  1.0 -0.4988668577
O  O9  1  0.24880000  0.99120000  0.23790000  1.0 -0.5469059662
O  O10  1  0.08400000  0.93000000  0.28840000  1.0 -0.4988668577
O  O11  1  0.21100000  0.78700000  0.93560000  1.0 -0.4744018183
O  O12  1  0.08300000  0.54180000  0.95700000  1.0 -0.6029267923
O  O13  1  0.17600000  0.28400000  0.10820000  1.0 -0.5435110794
O  O14  1  0.94730000  0.20670000  0.01510000  1.0 -0.4988668577
O  O15  1  0.75120000  0.00880000  0.76210000  1.0 -0.5469059662
O  O16  1  0.91600000  0.07000000  0.71160000  1.0 -0.4988668577
O  O17  1  0.78900000  0.21300000  0.06440000  1.0 -0.4744018183
O  O18  1  0.91700000  0.45820000  0.04300000  1.0 -0.6029267923
O  O19  1  0.71600000  0.82400000  0.60820000  1.0 -0.5435110794
O  O20  1  0.79330000  0.05270000  0.51510000  1.0 -0.4988668577
O  O21  1  0.99120000  0.24880000  0.26210000  1.0 -0.5469059662
O  O22  1  0.93000000  0.08400000  0.21160000  1.0 -0.4988668577
O  O23  1  0.78700000  0.21100000  0.56440000  1.0 -0.4744018183
O  O24  1  0.54180000  0.08300000  0.54300000  1.0 -0.6029267923
