# DDEC6 charges by PACMAN v1.1 (https://github.com/mtap-research/PACMAN-charge/)
data_VUWROW_FSR_pacman
_symmetry_space_group_name_H-M   'P 1'
_cell_length_a   11.95770000
_cell_length_b   12.22160000
_cell_length_c   13.50340000
_cell_angle_alpha   102.53500000
_cell_angle_beta   98.85700000
_cell_angle_gamma   107.29300000
_symmetry_Int_Tables_number   1
_chemical_formula_structural   NdH29C31(NO5)2
_chemical_formula_sum   'Nd2 H58 C62 N4 O20'
_cell_volume   1788.05045345
_cell_formula_units_Z   2
loop_
 _symmetry_equiv_pos_site_id
 _symmetry_equiv_pos_as_xyz
  1  'x, y, z'
loop_
 _atom_site_type_symbol
 _atom_site_label
 _atom_site_symmetry_multiplicity
 _atom_site_fract_x
 _atom_site_fract_y
 _atom_site_fract_z
 _atom_site_occupancy
 _atom_site_charge
Nd  Nd1  1  0.67572000  0.52189000  0.04646000  1.0 1.8562844864
Nd  Nd2  1  0.32428000  0.47811000  0.95354000  1.0 1.8562844864
H  H1  1  0.42020000  0.76310000  0.94190000  1.0 0.1389878761
H  H2  1  0.57980000  0.23690000  0.05810000  1.0 0.1389878761
H  H3  1  0.74200000  0.95820000  0.14110000  1.0 0.1140704027
H  H4  1  0.25800000  0.04180000  0.85890000  1.0 0.1140704027
H  H5  1  0.70920000  0.13260000  0.13050000  1.0 0.1188933477
H  H6  1  0.29080000  0.86740000  0.86950000  1.0 0.1188933477
H  H7  1  0.97950000  0.64600000  0.38490000  1.0 0.1188933477
H  H8  1  0.02050000  0.35400000  0.61510000  1.0 0.1188933477
H  H9  1  0.77260000  0.29850000  0.29630000  1.0 0.1140704027
H  H10  1  0.22740000  0.70150000  0.70370000  1.0 0.1140704027
H  H11  1  0.86260000  0.27280000  0.44990000  1.0 0.1188933477
H  H12  1  0.13740000  0.72720000  0.55010000  1.0 0.1188933477
H  H13  1  0.73180000  0.56860000  0.71940000  1.0 0.07235414
H  H14  1  0.26820000  0.43140000  0.28060000  1.0 0.07235414
H  H15  1  0.75110000  0.58660000  0.56080000  1.0 0.0886605338
H  H16  1  0.24890000  0.41340000  0.43920000  1.0 0.0886605338
H  H17  1  0.65060000  0.56740000  0.37230000  1.0 0.0886605338
H  H18  1  0.34940000  0.43260000  0.62770000  1.0 0.0886605338
H  H19  1  0.29020000  0.50410000  0.29530000  1.0 0.0802171326
H  H20  1  0.70980000  0.49590000  0.70470000  1.0 0.0802171326
H  H21  1  0.27330000  0.48400000  0.46000000  1.0 0.0999451133
H  H22  1  0.72670000  0.51600000  0.54000000  1.0 0.0999451133
H  H23  1  0.37010000  0.49460000  0.64100000  1.0 0.0999451133
H  H24  1  0.62990000  0.50540000  0.35900000  1.0 0.0999451133
H  H25  1  0.87050000  0.38090000  0.91090000  1.0 0.1188933477
H  H26  1  0.12950000  0.61910000  0.08910000  1.0 0.1188933477
H  H27  1  0.89120000  0.33520000  0.72930000  1.0 0.1292565426
H  H28  1  0.10880000  0.66480000  0.27070000  1.0 0.1292565426
H  H29  1  0.76630000  0.28180000  0.64330000  1.0 0.1188933477
H  H30  1  0.23370000  0.71820000  0.35670000  1.0 0.1188933477
H  H31  1  0.82040000  0.19430000  0.69120000  1.0 0.1292565426
H  H32  1  0.17960000  0.80570000  0.30880000  1.0 0.1292565426
H  H33  1  0.58280000  0.21350000  0.82040000  1.0 0.1292565426
H  H34  1  0.41720000  0.78650000  0.17960000  1.0 0.1292565426
H  H35  1  0.62440000  0.11570000  0.75120000  1.0 0.1292565426
H  H36  1  0.37560000  0.88430000  0.24880000  1.0 0.1292565426
H  H37  1  0.57470000  0.20300000  0.69910000  1.0 0.1140704027
H  H38  1  0.42530000  0.79700000  0.30090000  1.0 0.1140704027
H  H39  1  0.87150000  0.76970000  0.02860000  1.0 0.1188933477
H  H40  1  0.12850000  0.23030000  0.97140000  1.0 0.1188933477
H  H41  1  0.01520000  0.61260000  0.88770000  1.0 0.1389878761
H  H42  1  0.98480000  0.38740000  0.11230000  1.0 0.1389878761
H  H43  1  0.11170000  0.72580000  0.87110000  1.0 0.1389878761
H  H44  1  0.88830000  0.27420000  0.12890000  1.0 0.1389878761
H  H45  1  0.97250000  0.68610000  0.81390000  1.0 0.1292565426
H  H46  1  0.02750000  0.31390000  0.18610000  1.0 0.1292565426
H  H47  1  0.14600000  0.82910000  0.08290000  1.0 0.1188933477
H  H48  1  0.85400000  0.17090000  0.91710000  1.0 0.1188933477
H  H49  1  0.08510000  0.92460000  0.06150000  1.0 0.0886605338
H  H50  1  0.91490000  0.07540000  0.93850000  1.0 0.0886605338
H  H51  1  0.16680000  0.88480000  0.98760000  1.0 0.0999451133
H  H52  1  0.83320000  0.11520000  0.01240000  1.0 0.0999451133
H  H53  1  0.97040000  0.87020000  0.87580000  1.0 0.0999451133
H  H54  1  0.02960000  0.12980000  0.12420000  1.0 0.0999451133
H  H55  1  0.11180000  0.90480000  0.92190000  1.0 0.0886605338
H  H56  1  0.88820000  0.09520000  0.07810000  1.0 0.0886605338
H  H57  1  0.02920000  0.94230000  0.99590000  1.0 0.0802171326
H  H58  1  0.97080000  0.05770000  0.00410000  1.0 0.0802171326
C  C1  1  0.60300000  0.73220000  0.05040000  1.0 0.5114432744
C  C2  1  0.39700000  0.26780000  0.94960000  1.0 0.5114432744
C  C3  1  0.45560000  0.94540000  0.97260000  1.0 0.0802171326
C  C4  1  0.54440000  0.05460000  0.02740000  1.0 0.0802171326
C  C5  1  0.47780000  0.83850000  0.98120000  1.0 -0.1770944388
C  C6  1  0.52220000  0.16150000  0.01880000  1.0 -0.1690633395
C  C7  1  0.57990000  0.84360000  0.04450000  1.0 0.002889307
C  C8  1  0.42010000  0.15640000  0.95550000  1.0 0.002889307
C  C9  1  0.66900000  0.95490000  0.09910000  1.0 -0.123989118
C  C10  1  0.33100000  0.04510000  0.90090000  1.0 -0.123989118
C  C11  1  0.65010000  0.05790000  0.09170000  1.0 -0.1612173347
C  C12  1  0.34990000  0.94210000  0.90830000  1.0 -0.1612173347
C  C13  1  0.80980000  0.49140000  0.22680000  1.0 0.5114432744
C  C14  1  0.19020000  0.50860000  0.77320000  1.0 0.5114432744
C  C15  1  0.01760000  0.55730000  0.49250000  1.0 0.07235414
C  C16  1  0.98240000  0.44270000  0.50750000  1.0 0.07235414
C  C17  1  0.95710000  0.57000000  0.39790000  1.0 -0.1770944388
C  C18  1  0.04290000  0.43000000  0.60210000  1.0 -0.1770944388
C  C19  1  0.87040000  0.47850000  0.32740000  1.0 -0.0117809677
C  C20  1  0.12960000  0.52150000  0.67260000  1.0 -0.0117809677
C  C21  1  0.83440000  0.36390000  0.34640000  1.0 -0.1690633395
C  C22  1  0.16560000  0.63610000  0.65360000  1.0 -0.1690633395
C  C23  1  0.88880000  0.34820000  0.43620000  1.0 -0.1612173347
C  C24  1  0.11120000  0.65180000  0.56380000  1.0 -0.1612173347
C  C25  1  0.53640000  0.51600000  0.80220000  1.0 0.2805325634
C  C26  1  0.46360000  0.48400000  0.19780000  1.0 0.2805325634
C  C27  1  0.48420000  0.54000000  0.21190000  1.0 0.2805325634
C  C28  1  0.51580000  0.46000000  0.78810000  1.0 0.2805325634
C  C29  1  0.54700000  0.52600000  0.69500000  1.0 0.0292976557
C  C30  1  0.45300000  0.47400000  0.30500000  1.0 0.0292976557
C  C31  1  0.66100000  0.55400000  0.66680000  1.0 -0.0790029147
C  C32  1  0.33900000  0.44600000  0.33320000  1.0 -0.0790029147
C  C33  1  0.67200000  0.56500000  0.57500000  1.0 -0.0705393159
C  C34  1  0.32800000  0.43500000  0.42500000  1.0 -0.0705393159
C  C35  1  0.56980000  0.54600000  0.49410000  1.0 0.039804268
C  C36  1  0.43020000  0.45400000  0.50590000  1.0 0.039804268
C  C37  1  0.57400000  0.55100000  0.39110000  1.0 -0.0928831526
C  C38  1  0.42600000  0.44900000  0.60890000  1.0 -0.0928831526
C  C39  1  0.47550000  0.53700000  0.31960000  1.0 0.0128286204
C  C40  1  0.52450000  0.46300000  0.68040000  1.0 0.0128286204
C  C41  1  0.36050000  0.51450000  0.34650000  1.0 -0.0705393159
C  C42  1  0.63950000  0.48550000  0.65350000  1.0 -0.0705393159
C  C43  1  0.35100000  0.50300000  0.44380000  1.0 -0.0705393159
C  C44  1  0.64900000  0.49700000  0.55620000  1.0 -0.0705393159
C  C45  1  0.45250000  0.52000000  0.52040000  1.0 0.039804268
C  C46  1  0.54750000  0.48000000  0.47960000  1.0 0.039804268
C  C47  1  0.44660000  0.51300000  0.62270000  1.0 -0.0928831526
C  C48  1  0.55340000  0.48700000  0.37730000  1.0 -0.0928831526
C  C49  1  0.78550000  0.34590000  0.88620000  1.0 0.1587133802
C  C50  1  0.21450000  0.65410000  0.11380000  1.0 0.1587133802
C  C51  1  0.81130000  0.27300000  0.70640000  1.0 -0.3532395491
C  C52  1  0.18870000  0.72700000  0.29360000  1.0 -0.3532395491
C  C53  1  0.62130000  0.19660000  0.76260000  1.0 -0.3552755543
C  C54  1  0.37870000  0.80340000  0.23740000  1.0 -0.3552755543
C  C55  1  0.90880000  0.71590000  0.99930000  1.0 0.0480476825
C  C56  1  0.09120000  0.28410000  0.00070000  1.0 0.0480476825
C  C57  1  0.02900000  0.69220000  0.87760000  1.0 -0.4192563721
C  C58  1  0.97100000  0.30780000  0.12240000  1.0 -0.4192563721
C  C59  1  0.10900000  0.85800000  0.02900000  1.0 -0.1690633395
C  C60  1  0.89100000  0.14200000  0.97100000  1.0 -0.1612173347
C  C61  1  0.03200000  0.88100000  0.93700000  1.0 -0.2274165579
C  C62  1  0.96800000  0.11900000  0.06300000  1.0 -0.2274165579
N  N1  1  0.74620000  0.28430000  0.78880000  1.0 -0.0790029147
N  N2  1  0.25380000  0.71570000  0.21120000  1.0 -0.0705393159
N  N3  1  0.00960000  0.76780000  0.96500000  1.0 0.07235414
N  N4  1  0.99040000  0.23220000  0.03500000  1.0 0.07235414
O  O1  1  0.70740000  0.73840000  0.09160000  1.0 -0.58779834
O  O2  1  0.29260000  0.26160000  0.90840000  1.0 -0.58779834
O  O3  1  0.51970000  0.63320000  0.01140000  1.0 -0.7152049073
O  O4  1  0.48030000  0.36680000  0.98860000  1.0 -0.7142422327
O  O5  1  0.83960000  0.59230000  0.20900000  1.0 -0.5991032996
O  O6  1  0.16040000  0.40770000  0.79100000  1.0 -0.5991032996
O  O7  1  0.72960000  0.40270000  0.16410000  1.0 -0.5991032996
O  O8  1  0.27040000  0.59730000  0.83590000  1.0 -0.5991032996
O  O9  1  0.63190000  0.54600000  0.87100000  1.0 -0.1612173347
O  O10  1  0.36810000  0.45400000  0.12900000  1.0 -0.1690633395
O  O11  1  0.43140000  0.48150000  0.81680000  1.0 -0.2013818451
O  O12  1  0.56860000  0.51850000  0.18320000  1.0 -0.2013818451
O  O13  1  0.38450000  0.51480000  0.14440000  1.0 -0.1874954381
O  O14  1  0.61550000  0.48520000  0.85560000  1.0 -0.1874954381
O  O15  1  0.58450000  0.56510000  0.19240000  1.0 -0.1874954381
O  O16  1  0.41550000  0.43490000  0.80760000  1.0 -0.1770944388
O  O17  1  0.73000000  0.36270000  0.94550000  1.0 -0.4595215001
O  O18  1  0.27000000  0.63730000  0.05450000  1.0 -0.4595215001
O  O19  1  0.86330000  0.61990000  0.99840000  1.0 -0.4759780892
O  O20  1  0.13670000  0.38010000  0.00160000  1.0 -0.4759780892
