# DDEC6 charges by PACMAN v1.1 (https://github.com/mtap-research/PACMAN-charge/)
data_VUZDEC_ASR_pacman
_symmetry_space_group_name_H-M   'P 1'
_cell_length_a   20.30170000
_cell_length_b   20.30170000
_cell_length_c   19.30000000
_cell_angle_alpha   81.82260000
_cell_angle_beta   98.17740000
_cell_angle_gamma   116.58000000
_symmetry_Int_Tables_number   1
_chemical_formula_structural   Zr3H22C42(NO6)2
_chemical_formula_sum   'Zr12 H88 C168 N8 O48'
_cell_volume   7013.80349055
_cell_formula_units_Z   4
loop_
 _symmetry_equiv_pos_site_id
 _symmetry_equiv_pos_as_xyz
  1  'x, y, z'
loop_
 _atom_site_type_symbol
 _atom_site_label
 _atom_site_symmetry_multiplicity
 _atom_site_fract_x
 _atom_site_fract_y
 _atom_site_fract_z
 _atom_site_occupancy
 _atom_site_charge
Zr  Zr1  1  0.96950000  0.82522000  0.75769000  1.0 2.3422993888
Zr  Zr2  1  0.97578000  0.98640000  0.65829000  1.0 2.4934641986
Zr  Zr3  1  0.81039000  0.82091000  0.65713000  1.0 2.4934641986
Zr  Zr4  1  0.82522000  0.96950000  0.74231000  1.0 2.3422993888
Zr  Zr5  1  0.98640000  0.97578000  0.84171000  1.0 2.4960777431
Zr  Zr6  1  0.82091000  0.81039000  0.84287000  1.0 2.4960777431
Zr  Zr7  1  0.03050000  0.17478000  0.24231000  1.0 2.3422993888
Zr  Zr8  1  0.02422000  0.01360000  0.34171000  1.0 2.4960777431
Zr  Zr9  1  0.18961000  0.17909000  0.34287000  1.0 2.4960777431
Zr  Zr10  1  0.17478000  0.03050000  0.25769000  1.0 2.3453241258
Zr  Zr11  1  0.01360000  0.02422000  0.15829000  1.0 2.4960777431
Zr  Zr12  1  0.17909000  0.18961000  0.15713000  1.0 2.4960777431
H  H1  1  0.15260000  0.99720000  0.53260000  1.0 0.120332475
H  H2  1  0.15960000  0.82920000  0.66510000  1.0 0.120332475
H  H3  1  0.95098000  0.61762000  0.67890000  1.0 0.120332475
H  H4  1  0.80700000  0.65360000  0.52800000  1.0 0.1110696087
H  H5  1  0.24320000  0.99140000  0.46830000  1.0 0.1110696087
H  H6  1  0.25300000  0.82940000  0.61360000  1.0 0.120332475
H  H7  1  0.95800000  0.53640000  0.61300000  1.0 0.120332475
H  H8  1  0.80980000  0.56780000  0.46370000  1.0 0.120332475
H  H9  1  0.26380000  0.92420000  0.39220000  1.0 0.120332475
H  H10  1  0.37660000  0.89640000  0.57350000  1.0 0.1110696087
H  H11  1  0.89960000  0.41820000  0.57150000  1.0 0.1110696087
H  H12  1  0.88090000  0.54010000  0.39700000  1.0 0.1276041089
H  H13  1  0.44100000  0.88940000  0.38660000  1.0 0.120332475
H  H14  1  0.88220000  0.34040000  0.38570000  1.0 0.120332475
H  H15  1  0.49000000  0.93760000  0.60810000  1.0 0.1110696087
H  H16  1  0.50830000  0.83430000  0.45340000  1.0 0.120332475
H  H17  1  0.96350000  0.29170000  0.45560000  1.0 0.1110696087
H  H18  1  0.84660000  0.29900000  0.60460000  1.0 0.1110696087
H  H19  1  0.60510000  0.94430000  0.66430000  1.0 0.1110696087
H  H20  1  0.61070000  0.82790000  0.51340000  1.0 0.120332475
H  H21  1  0.96820000  0.18600000  0.51700000  1.0 0.120332475
H  H22  1  0.85730000  0.19450000  0.66666667  1.0 0.120332475
H  H23  1  0.99720000  0.15260000  0.96740000  1.0 0.120332475
H  H24  1  0.82920000  0.15960000  0.83490000  1.0 0.120332475
H  H25  1  0.61762000  0.95098000  0.82110000  1.0 0.120332475
H  H26  1  0.65360000  0.80700000  0.97200000  1.0 0.1110696087
H  H27  1  0.99140000  0.24320000  0.03170000  1.0 0.1110696087
H  H28  1  0.82940000  0.25300000  0.88640000  1.0 0.120332475
H  H29  1  0.53640000  0.95800000  0.88700000  1.0 0.120332475
H  H30  1  0.56780000  0.80980000  0.03630000  1.0 0.120332475
H  H31  1  0.92420000  0.26380000  0.10780000  1.0 0.120332475
H  H32  1  0.89640000  0.37660000  0.92650000  1.0 0.1110696087
H  H33  1  0.41820000  0.89960000  0.92850000  1.0 0.1110696087
H  H34  1  0.54010000  0.88090000  0.10300000  1.0 0.1276041089
H  H35  1  0.88940000  0.44100000  0.11340000  1.0 0.120332475
H  H36  1  0.34040000  0.88220000  0.11430000  1.0 0.120332475
H  H37  1  0.93760000  0.49000000  0.89190000  1.0 0.1110696087
H  H38  1  0.83430000  0.50830000  0.04660000  1.0 0.120332475
H  H39  1  0.29170000  0.96350000  0.04440000  1.0 0.1110696087
H  H40  1  0.29900000  0.84660000  0.89540000  1.0 0.1110696087
H  H41  1  0.94430000  0.60510000  0.83570000  1.0 0.1110696087
H  H42  1  0.82790000  0.61070000  0.98660000  1.0 0.120332475
H  H43  1  0.18600000  0.96820000  0.98300000  1.0 0.120332475
H  H44  1  0.19450000  0.85730000  0.83333000  1.0 0.120332475
H  H45  1  0.84740000  0.00280000  0.46740000  1.0 0.120332475
H  H46  1  0.84040000  0.17080000  0.33490000  1.0 0.120332475
H  H47  1  0.04902000  0.38238000  0.32110000  1.0 0.120332475
H  H48  1  0.19300000  0.34640000  0.47200000  1.0 0.1110696087
H  H49  1  0.75680000  0.00860000  0.53170000  1.0 0.1110696087
H  H50  1  0.74700000  0.17060000  0.38640000  1.0 0.120332475
H  H51  1  0.04200000  0.46360000  0.38700000  1.0 0.120332475
H  H52  1  0.19020000  0.43220000  0.53630000  1.0 0.120332475
H  H53  1  0.73620000  0.07580000  0.60780000  1.0 0.120332475
H  H54  1  0.62340000  0.10360000  0.42650000  1.0 0.1110696087
H  H55  1  0.10040000  0.58180000  0.42850000  1.0 0.1110696087
H  H56  1  0.11910000  0.45990000  0.60300000  1.0 0.1276041089
H  H57  1  0.55900000  0.11060000  0.61340000  1.0 0.120332475
H  H58  1  0.11780000  0.65960000  0.61430000  1.0 0.120332475
H  H59  1  0.51000000  0.06240000  0.39190000  1.0 0.1110696087
H  H60  1  0.49170000  0.16570000  0.54660000  1.0 0.120332475
H  H61  1  0.03650000  0.70830000  0.54440000  1.0 0.1110696087
H  H62  1  0.15340000  0.70100000  0.39540000  1.0 0.1110696087
H  H63  1  0.39490000  0.05570000  0.33570000  1.0 0.1110696087
H  H64  1  0.38930000  0.17210000  0.48660000  1.0 0.120332475
H  H65  1  0.03180000  0.81400000  0.48300000  1.0 0.120332475
H  H66  1  0.14270000  0.80550000  0.33333333  1.0 0.120332475
H  H67  1  0.00280000  0.84740000  0.03260000  1.0 0.120332475
H  H68  1  0.17080000  0.84040000  0.16510000  1.0 0.120332475
H  H69  1  0.38238000  0.04902000  0.17890000  1.0 0.120332475
H  H70  1  0.34640000  0.19300000  0.02800000  1.0 0.1110696087
H  H71  1  0.00860000  0.75680000  0.96830000  1.0 0.1110696087
H  H72  1  0.17060000  0.74700000  0.11360000  1.0 0.120332475
H  H73  1  0.46360000  0.04200000  0.11300000  1.0 0.120332475
H  H74  1  0.43220000  0.19020000  0.96370000  1.0 0.120332475
H  H75  1  0.07580000  0.73620000  0.89220000  1.0 0.120332475
H  H76  1  0.10360000  0.62340000  0.07350000  1.0 0.1110696087
H  H77  1  0.58180000  0.10040000  0.07150000  1.0 0.1110696087
H  H78  1  0.45990000  0.11910000  0.89700000  1.0 0.1276041089
H  H79  1  0.11060000  0.55900000  0.88660000  1.0 0.120332475
H  H80  1  0.65960000  0.11780000  0.88570000  1.0 0.120332475
H  H81  1  0.06240000  0.51000000  0.10810000  1.0 0.1110696087
H  H82  1  0.16570000  0.49170000  0.95340000  1.0 0.120332475
H  H83  1  0.70830000  0.03650000  0.95560000  1.0 0.1110696087
H  H84  1  0.70100000  0.15340000  0.10460000  1.0 0.1110696087
H  H85  1  0.05570000  0.39490000  0.16430000  1.0 0.1110696087
H  H86  1  0.17210000  0.38930000  0.01340000  1.0 0.120332475
H  H87  1  0.81400000  0.03180000  0.01700000  1.0 0.120332475
H  H88  1  0.80550000  0.14270000  0.16667000  1.0 0.120332475
C  C1  1  0.08410000  0.90770000  0.64690000  1.0 0.6320534855
C  C2  1  0.88920000  0.71160000  0.64640000  1.0 0.6208606847
C  C3  1  0.14650000  0.91310000  0.60550000  1.0 -0.0280784851
C  C4  1  0.88030000  0.64990000  0.60590000  1.0 -0.0280784851
C  C5  1  0.17100000  0.96140000  0.54740000  1.0 -0.0971516612
C  C6  1  0.17760000  0.86360000  0.62560000  1.0 -0.0971516612
C  C7  1  0.92430000  0.60910000  0.63390000  1.0 -0.0899392001
C  C8  1  0.83860000  0.63060000  0.54520000  1.0 -0.0971516612
C  C9  1  0.22530000  0.95790000  0.50850000  1.0 -0.151099816
C  C10  1  0.23000000  0.86040000  0.59440000  1.0 -0.1400332537
C  C11  1  0.92680000  0.55980000  0.59550000  1.0 -0.1400332537
C  C12  1  0.83950000  0.57950000  0.50700000  1.0 -0.151099816
C  C13  1  0.25010000  0.90590000  0.53060000  1.0 0.064334559
C  C14  1  0.88710000  0.54290000  0.53410000  1.0 0.0711082368
C  C15  1  0.30590000  0.90150000  0.48790000  1.0 0.0797656328
C  C16  1  0.88510000  0.48570000  0.48940000  1.0 0.0711082368
C  C17  1  0.29930000  0.90870000  0.41620000  1.0 -0.1722114843
C  C18  1  0.36800000  0.89480000  0.52400000  1.0 -0.1911844716
C  C19  1  0.89370000  0.42410000  0.52160000  1.0 -0.2097367228
C  C20  1  0.88250000  0.49630000  0.42020000  1.0 -0.1826288879
C  C21  1  0.34090000  0.89450000  0.37900000  1.0 0.0797656328
C  C22  1  0.41700000  0.88580000  0.48660000  1.0 0.0797656328
C  C23  1  0.89390000  0.37110000  0.48440000  1.0 0.0797656328
C  C24  1  0.88240000  0.44540000  0.38230000  1.0 0.0797656328
C  C25  1  0.32900000  0.89820000  0.30120000  1.0 0.2560867339
C  C26  1  0.40540000  0.88980000  0.41350000  1.0 -0.1989234381
C  C27  1  0.48870000  0.88690000  0.52460000  1.0 0.0797656328
C  C28  1  0.90270000  0.30610000  0.52510000  1.0 0.0797656328
C  C29  1  0.88560000  0.37740000  0.41310000  1.0 -0.1911844716
C  C30  1  0.87190000  0.45210000  0.30520000  1.0 0.2365820825
C  C31  1  0.51640000  0.91800000  0.58750000  1.0 -0.1722114843
C  C32  1  0.52660000  0.85520000  0.49720000  1.0 -0.151099816
C  C33  1  0.94010000  0.27150000  0.49790000  1.0 -0.151099816
C  C34  1  0.87180000  0.27680000  0.58560000  1.0 -0.151099816
C  C35  1  0.58460000  0.92080000  0.62200000  1.0 -0.0899392001
C  C36  1  0.58870000  0.85370000  0.53170000  1.0 -0.0899392001
C  C37  1  0.94170000  0.20770000  0.53440000  1.0 -0.0838839144
C  C38  1  0.87620000  0.21180000  0.62180000  1.0 -0.0899392001
C  C39  1  0.62110000  0.88790000  0.59190000  1.0 -0.0586908583
C  C40  1  0.90590000  0.17470000  0.59540000  1.0 -0.0586908583
C  C41  1  0.69260000  0.89180000  0.62780000  1.0 0.6208606847
C  C42  1  0.90510000  0.10550000  0.63100000  1.0 0.6320534855
C  C43  1  0.90770000  0.08410000  0.85310000  1.0 0.6320534855
C  C44  1  0.71160000  0.88920000  0.85360000  1.0 0.6208606847
C  C45  1  0.91310000  0.14650000  0.89450000  1.0 -0.0280784851
C  C46  1  0.64990000  0.88030000  0.89410000  1.0 -0.0280784851
C  C47  1  0.96140000  0.17100000  0.95260000  1.0 -0.0971516612
C  C48  1  0.86360000  0.17760000  0.87440000  1.0 -0.0971516612
C  C49  1  0.60910000  0.92430000  0.86610000  1.0 -0.0899392001
C  C50  1  0.63060000  0.83860000  0.95480000  1.0 -0.0971516612
C  C51  1  0.95790000  0.22530000  0.99150000  1.0 -0.151099816
C  C52  1  0.86040000  0.23000000  0.90560000  1.0 -0.1400332537
C  C53  1  0.55980000  0.92680000  0.90450000  1.0 -0.1400332537
C  C54  1  0.57950000  0.83950000  0.99300000  1.0 -0.151099816
C  C55  1  0.90590000  0.25010000  0.96940000  1.0 0.064334559
C  C56  1  0.54290000  0.88710000  0.96590000  1.0 0.0797656328
C  C57  1  0.90150000  0.30590000  0.01210000  1.0 0.0797656328
C  C58  1  0.48570000  0.88510000  0.01060000  1.0 0.0711082368
C  C59  1  0.90870000  0.29930000  0.08380000  1.0 -0.1722114843
C  C60  1  0.89480000  0.36800000  0.97600000  1.0 -0.1911844716
C  C61  1  0.42410000  0.89370000  0.97840000  1.0 -0.2097367228
C  C62  1  0.49630000  0.88250000  0.07980000  1.0 -0.1826288879
C  C63  1  0.89450000  0.34090000  0.12100000  1.0 0.0797656328
C  C64  1  0.88580000  0.41700000  0.01340000  1.0 0.0797656328
C  C65  1  0.37110000  0.89390000  0.01560000  1.0 0.0797656328
C  C66  1  0.44540000  0.88240000  0.11770000  1.0 0.0797656328
C  C67  1  0.89820000  0.32900000  0.19880000  1.0 0.2560867339
C  C68  1  0.88980000  0.40540000  0.08650000  1.0 -0.1989234381
C  C69  1  0.88690000  0.48870000  0.97540000  1.0 0.0797656328
C  C70  1  0.30610000  0.90270000  0.97490000  1.0 0.0797656328
C  C71  1  0.37740000  0.88560000  0.08690000  1.0 -0.1911844716
C  C72  1  0.45210000  0.87190000  0.19480000  1.0 0.2365820825
C  C73  1  0.91800000  0.51640000  0.91250000  1.0 -0.1722114843
C  C74  1  0.85520000  0.52660000  0.00280000  1.0 -0.151099816
C  C75  1  0.27150000  0.94010000  0.00210000  1.0 -0.151099816
C  C76  1  0.27680000  0.87180000  0.91440000  1.0 -0.151099816
C  C77  1  0.92080000  0.58460000  0.87800000  1.0 -0.0899392001
C  C78  1  0.85370000  0.58870000  0.96830000  1.0 -0.0899392001
C  C79  1  0.20770000  0.94170000  0.96560000  1.0 -0.0838839144
C  C80  1  0.21180000  0.87620000  0.87820000  1.0 -0.0899392001
C  C81  1  0.88790000  0.62110000  0.90810000  1.0 -0.0586908583
C  C82  1  0.17470000  0.90590000  0.90460000  1.0 -0.0586908583
C  C83  1  0.89180000  0.69260000  0.87220000  1.0 0.6208606847
C  C84  1  0.10550000  0.90510000  0.86900000  1.0 0.6208606847
C  C85  1  0.91590000  0.09230000  0.35310000  1.0 0.6320534855
C  C86  1  0.11080000  0.28840000  0.35360000  1.0 0.6208606847
C  C87  1  0.85350000  0.08690000  0.39450000  1.0 -0.0280784851
C  C88  1  0.11970000  0.35010000  0.39410000  1.0 -0.0280784851
C  C89  1  0.82900000  0.03860000  0.45260000  1.0 -0.0971516612
C  C90  1  0.82240000  0.13640000  0.37440000  1.0 -0.0971516612
C  C91  1  0.07570000  0.39090000  0.36610000  1.0 -0.0899392001
C  C92  1  0.16140000  0.36940000  0.45480000  1.0 -0.0971516612
C  C93  1  0.77470000  0.04210000  0.49150000  1.0 -0.151099816
C  C94  1  0.77000000  0.13960000  0.40560000  1.0 -0.1400332537
C  C95  1  0.07320000  0.44020000  0.40450000  1.0 -0.1400332537
C  C96  1  0.16050000  0.42050000  0.49300000  1.0 -0.151099816
C  C97  1  0.74990000  0.09410000  0.46940000  1.0 0.064334559
C  C98  1  0.11290000  0.45710000  0.46590000  1.0 0.0797656328
C  C99  1  0.69410000  0.09850000  0.51210000  1.0 0.0797656328
C  C100  1  0.11490000  0.51430000  0.51060000  1.0 0.0711082368
C  C101  1  0.70070000  0.09130000  0.58380000  1.0 -0.1722114843
C  C102  1  0.63200000  0.10520000  0.47600000  1.0 -0.1911844716
C  C103  1  0.10630000  0.57590000  0.47840000  1.0 -0.2097367228
C  C104  1  0.11750000  0.50370000  0.57980000  1.0 -0.1826288879
C  C105  1  0.65910000  0.10550000  0.62100000  1.0 0.0797656328
C  C106  1  0.58300000  0.11420000  0.51340000  1.0 0.0797656328
C  C107  1  0.10610000  0.62890000  0.51560000  1.0 0.0797656328
C  C108  1  0.11760000  0.55460000  0.61770000  1.0 0.0797656328
C  C109  1  0.67100000  0.10180000  0.69880000  1.0 0.2560867339
C  C110  1  0.59460000  0.11020000  0.58650000  1.0 -0.1989234381
C  C111  1  0.51130000  0.11310000  0.47540000  1.0 0.0797656328
C  C112  1  0.09730000  0.69390000  0.47490000  1.0 0.0797656328
C  C113  1  0.11440000  0.62260000  0.58690000  1.0 -0.1911844716
C  C114  1  0.12810000  0.54790000  0.69480000  1.0 0.2365820825
C  C115  1  0.48360000  0.08200000  0.41250000  1.0 -0.1722114843
C  C116  1  0.47340000  0.14480000  0.50280000  1.0 -0.151099816
C  C117  1  0.05990000  0.72850000  0.50210000  1.0 -0.151099816
C  C118  1  0.12820000  0.72320000  0.41440000  1.0 -0.151099816
C  C119  1  0.41540000  0.07920000  0.37800000  1.0 -0.0899392001
C  C120  1  0.41130000  0.14630000  0.46830000  1.0 -0.0899392001
C  C121  1  0.05830000  0.79230000  0.46560000  1.0 -0.0838839144
C  C122  1  0.12380000  0.78820000  0.37820000  1.0 -0.0899392001
C  C123  1  0.37890000  0.11210000  0.40810000  1.0 -0.0586908583
C  C124  1  0.09410000  0.82530000  0.40460000  1.0 -0.0586908583
C  C125  1  0.30740000  0.10820000  0.37220000  1.0 0.6208606847
C  C126  1  0.09490000  0.89450000  0.36900000  1.0 0.6208606847
C  C127  1  0.09230000  0.91590000  0.14690000  1.0 0.6320534855
C  C128  1  0.28840000  0.11080000  0.14640000  1.0 0.6208606847
C  C129  1  0.08690000  0.85350000  0.10550000  1.0 -0.0280784851
C  C130  1  0.35010000  0.11970000  0.10590000  1.0 -0.0280784851
C  C131  1  0.03860000  0.82900000  0.04740000  1.0 -0.0971516612
C  C132  1  0.13640000  0.82240000  0.12560000  1.0 -0.0971516612
C  C133  1  0.39090000  0.07570000  0.13390000  1.0 -0.0899392001
C  C134  1  0.36940000  0.16140000  0.04520000  1.0 -0.0971516612
C  C135  1  0.04210000  0.77470000  0.00850000  1.0 -0.151099816
C  C136  1  0.13960000  0.77000000  0.09440000  1.0 -0.1400332537
C  C137  1  0.44020000  0.07320000  0.09550000  1.0 -0.1400332537
C  C138  1  0.42050000  0.16050000  0.00700000  1.0 -0.151099816
C  C139  1  0.09410000  0.74990000  0.03060000  1.0 0.064334559
C  C140  1  0.45710000  0.11290000  0.03410000  1.0 0.0797656328
C  C141  1  0.09850000  0.69410000  0.98790000  1.0 0.0797656328
C  C142  1  0.51430000  0.11490000  0.98940000  1.0 0.0711082368
C  C143  1  0.09130000  0.70070000  0.91620000  1.0 -0.1722114843
C  C144  1  0.10520000  0.63200000  0.02400000  1.0 -0.1911844716
C  C145  1  0.57590000  0.10630000  0.02160000  1.0 -0.2097367228
C  C146  1  0.50370000  0.11750000  0.92020000  1.0 -0.1826288879
C  C147  1  0.10550000  0.65910000  0.87900000  1.0 0.0797656328
C  C148  1  0.11420000  0.58300000  0.98660000  1.0 0.0797656328
C  C149  1  0.62890000  0.10610000  0.98440000  1.0 0.0797656328
C  C150  1  0.55460000  0.11760000  0.88230000  1.0 0.0797656328
C  C151  1  0.10180000  0.67100000  0.80120000  1.0 0.2560867339
C  C152  1  0.11020000  0.59460000  0.91350000  1.0 -0.1989234381
C  C153  1  0.11310000  0.51130000  0.02460000  1.0 0.0797656328
C  C154  1  0.69390000  0.09730000  0.02510000  1.0 0.0797656328
C  C155  1  0.62260000  0.11440000  0.91310000  1.0 -0.1911844716
C  C156  1  0.54790000  0.12810000  0.80520000  1.0 0.2365820825
C  C157  1  0.08200000  0.48360000  0.08750000  1.0 -0.1722114843
C  C158  1  0.14480000  0.47340000  0.99720000  1.0 -0.151099816
C  C159  1  0.72850000  0.05990000  0.99790000  1.0 -0.151099816
C  C160  1  0.72320000  0.12820000  0.08560000  1.0 -0.151099816
C  C161  1  0.07920000  0.41540000  0.12200000  1.0 -0.0899392001
C  C162  1  0.14630000  0.41130000  0.03170000  1.0 -0.0899392001
C  C163  1  0.79230000  0.05830000  0.03440000  1.0 -0.0838839144
C  C164  1  0.78820000  0.12380000  0.12180000  1.0 -0.0899392001
C  C165  1  0.11210000  0.37890000  0.09190000  1.0 -0.0586908583
C  C166  1  0.82530000  0.09410000  0.09540000  1.0 -0.0586908583
C  C167  1  0.10820000  0.30740000  0.12780000  1.0 0.6208606847
C  C168  1  0.89450000  0.09490000  0.13100000  1.0 0.6208606847
N  N1  1  0.31530000  0.89990000  0.23930000  1.0 -0.397842157
N  N2  1  0.86430000  0.46250000  0.24010000  1.0 -0.4172234963
N  N3  1  0.89990000  0.31530000  0.26070000  1.0 -0.397842157
N  N4  1  0.46250000  0.86430000  0.25990000  1.0 -0.4146385819
N  N5  1  0.68470000  0.10010000  0.76070000  1.0 -0.397842157
N  N6  1  0.13570000  0.53750000  0.75990000  1.0 -0.4172234963
N  N7  1  0.10010000  0.68470000  0.73930000  1.0 -0.397842157
N  N8  1  0.53750000  0.13570000  0.74010000  1.0 -0.4172234963
O  O1  1  0.05890000  0.85550000  0.69380000  1.0 -0.5831549049
O  O2  1  0.93640000  0.73420000  0.69250000  1.0 -0.5185979636
O  O3  1  0.92560000  0.86880000  0.65670000  1.0 -1.1934023232
O  O4  1  0.84980000  0.77780000  0.75600000  1.0 -1.2309367985
O  O5  1  0.01840000  0.94580000  0.75430000  1.0 -1.2309367985
O  O6  1  0.85270000  0.06970000  0.66860000  1.0 -0.5677192689
O  O7  1  0.72550000  0.94290000  0.66700000  1.0 -0.5677192689
O  O8  1  0.93920000  0.85820000  0.84880000  1.0 -1.1670208306
O  O9  1  0.06840000  0.96440000  0.62760000  1.0 -0.6544893712
O  O10  1  0.83180000  0.72980000  0.62800000  1.0 -0.6727323265
O  O11  1  0.95130000  0.08530000  0.61440000  1.0 -0.6073638132
O  O12  1  0.71470000  0.84730000  0.61390000  1.0 -0.6073638132
O  O13  1  0.85550000  0.05890000  0.80620000  1.0 -0.5831549049
O  O14  1  0.73420000  0.93640000  0.80750000  1.0 -0.5185979636
O  O15  1  0.86880000  0.92560000  0.84330000  1.0 -1.1976025433
O  O16  1  0.77780000  0.84980000  0.74400000  1.0 -1.2228588195
O  O17  1  0.94580000  0.01840000  0.74570000  1.0 -1.2309367985
O  O18  1  0.06970000  0.85270000  0.83140000  1.0 -0.5677192689
O  O19  1  0.94290000  0.72550000  0.83300000  1.0 -0.5677192689
O  O20  1  0.85820000  0.93920000  0.65120000  1.0 -1.1639968883
O  O21  1  0.96440000  0.06840000  0.87240000  1.0 -0.6561034452
O  O22  1  0.72980000  0.83180000  0.87200000  1.0 -0.6753677061
O  O23  1  0.08530000  0.95130000  0.88560000  1.0 -0.6073638132
O  O24  1  0.84730000  0.71470000  0.88610000  1.0 -0.6018128724
O  O25  1  0.94110000  0.14450000  0.30620000  1.0 -0.5831549049
O  O26  1  0.06360000  0.26580000  0.30750000  1.0 -0.5185979636
O  O27  1  0.07440000  0.13120000  0.34330000  1.0 -1.1976025433
O  O28  1  0.15020000  0.22220000  0.24400000  1.0 -1.2228588195
O  O29  1  0.98160000  0.05420000  0.24570000  1.0 -1.2371403307
O  O30  1  0.14730000  0.93030000  0.33140000  1.0 -0.5677192689
O  O31  1  0.27450000  0.05710000  0.33300000  1.0 -0.5677192689
O  O32  1  0.06080000  0.14180000  0.15120000  1.0 -1.1639968883
O  O33  1  0.93160000  0.03560000  0.37240000  1.0 -0.6561034452
O  O34  1  0.16820000  0.27020000  0.37200000  1.0 -0.6753677061
O  O35  1  0.04870000  0.91470000  0.38560000  1.0 -0.6073638132
O  O36  1  0.28530000  0.15270000  0.38610000  1.0 -0.6018128724
O  O37  1  0.14450000  0.94110000  0.19380000  1.0 -0.5831549049
O  O38  1  0.26580000  0.06360000  0.19250000  1.0 -0.5185979636
O  O39  1  0.13120000  0.07440000  0.15670000  1.0 -1.1934023232
O  O40  1  0.22220000  0.15020000  0.25600000  1.0 -1.2309367985
O  O41  1  0.05420000  0.98160000  0.25430000  1.0 -1.2309367985
O  O42  1  0.93030000  0.14730000  0.16860000  1.0 -0.5677192689
O  O43  1  0.05710000  0.27450000  0.16700000  1.0 -0.5677192689
O  O44  1  0.14180000  0.06080000  0.34880000  1.0 -1.1639968883
O  O45  1  0.03560000  0.93160000  0.12760000  1.0 -0.6561034452
O  O46  1  0.27020000  0.16820000  0.12800000  1.0 -0.6753677061
O  O47  1  0.91470000  0.04870000  0.11440000  1.0 -0.6073638132
O  O48  1  0.15270000  0.28530000  0.11390000  1.0 -0.6073638132
