# DDEC6 charges by PACMAN v1.1 (https://github.com/mtap-research/PACMAN-charge/)
data_VUZDOM_ASR_pacman
_symmetry_space_group_name_H-M   'P 1'
_cell_length_a   13.15520000
_cell_length_b   20.26900000
_cell_length_c   20.35000000
_cell_angle_alpha   109.96100000
_cell_angle_beta   107.54400000
_cell_angle_gamma   94.76300000
_symmetry_Int_Tables_number   1
_chemical_formula_structural   Zr3H17C23NO8
_chemical_formula_sum   'Zr12 H68 C92 N4 O32'
_cell_volume   4757.15537411
_cell_formula_units_Z   4
loop_
 _symmetry_equiv_pos_site_id
 _symmetry_equiv_pos_as_xyz
  1  'x, y, z'
loop_
 _atom_site_type_symbol
 _atom_site_label
 _atom_site_symmetry_multiplicity
 _atom_site_fract_x
 _atom_site_fract_y
 _atom_site_fract_z
 _atom_site_occupancy
 _atom_site_charge
Zr  Zr1  1  0.44390000  0.11885000  0.70778000  1.0 2.3578063021
Zr  Zr2  1  0.44440000  0.27212000  0.86000000  1.0 2.3578063021
Zr  Zr3  1  0.56480000  0.29060000  0.73337000  1.0 2.2899328242
Zr  Zr4  1  0.60440000  0.14847000  0.89112000  1.0 2.3889779221
Zr  Zr5  1  0.72760000  0.31870000  0.91690000  1.0 2.3889779221
Zr  Zr6  1  0.72670000  0.16550000  0.76670000  1.0 2.3889779221
Zr  Zr7  1  0.55610000  0.88115000  0.29222000  1.0 2.3578063021
Zr  Zr8  1  0.55560000  0.72788000  0.14000000  1.0 2.354819871
Zr  Zr9  1  0.43520000  0.70940000  0.26663000  1.0 2.280365325
Zr  Zr10  1  0.39560000  0.85153000  0.10888000  1.0 2.3835712443
Zr  Zr11  1  0.27240000  0.68130000  0.08310000  1.0 2.3889779221
Zr  Zr12  1  0.27330000  0.83450000  0.23330000  1.0 2.3835712443
H  H1  1  0.41610000  0.26070000  0.49880000  1.0 0.0919863643
H  H2  1  0.03590000  0.09190000  0.26140000  1.0 0.1005055255
H  H3  1  0.33470000  0.23200000  0.36540000  1.0 0.0919863643
H  H4  1  0.94800000  0.97260000  0.15840000  1.0 0.1094577174
H  H5  1  0.81960000  0.96890000  0.12740000  1.0 0.1094577174
H  H6  1  0.88290000  0.94290000  0.07030000  1.0 0.1094577174
H  H7  1  0.24910000  0.06720000  0.47090000  1.0 0.0804652865
H  H8  1  0.17210000  0.03640000  0.33800000  1.0 0.0919863643
H  H9  1  0.04340000  0.09470000  0.06250000  1.0 0.0919863643
H  H10  1  0.77390000  0.04320000  0.03760000  1.0 0.119995986
H  H11  1  0.86060000  0.11700000  0.07050000  1.0 0.1094577174
H  H12  1  0.88180000  0.04510000  0.01670000  1.0 0.1094577174
H  H13  1  0.87880000  0.07710000  0.15910000  1.0 0.061051357
H  H14  1  0.16620000  0.20970000  0.07740000  1.0 0.1005055255
H  H15  1  0.25970000  0.23590000  0.00130000  1.0 0.0919863643
H  H16  1  0.35710000  0.06390000  0.10740000  1.0 0.1005055255
H  H17  1  0.45420000  0.09360000  0.03500000  1.0 0.0919863643
H  H18  1  0.25760000  0.43940000  0.84450000  1.0 0.0804652865
H  H19  1  0.43360000  0.94900000  0.89020000  1.0 0.0919863643
H  H20  1  0.02810000  0.56600000  0.74560000  1.0 0.1005055255
H  H21  1  0.33550000  0.83700000  0.87770000  1.0 0.1005055255
H  H22  1  0.15580000  0.79640000  0.65910000  1.0 0.1005055255
H  H23  1  0.40590000  0.46680000  0.70170000  1.0 0.1005055255
H  H24  1  0.25150000  0.91040000  0.67300000  1.0 0.0919863643
H  H25  1  0.87690000  0.59760000  0.70870000  1.0 0.061051357
H  H26  1  0.92200000  0.73250000  0.80850000  1.0 0.1094577174
H  H27  1  0.79600000  0.70310000  0.75710000  1.0 0.1094577174
H  H28  1  0.85720000  0.66000000  0.80440000  1.0 0.1094577174
H  H29  1  0.87510000  0.66780000  0.62260000  1.0 0.1094577174
H  H30  1  0.79100000  0.59940000  0.61080000  1.0 0.1094577174
H  H31  1  0.77610000  0.67860000  0.65280000  1.0 0.1005055255
H  H32  1  0.03140000  0.76440000  0.73490000  1.0 0.1005055255
H  H33  1  0.17300000  0.53930000  0.84030000  1.0 0.0919863643
H  H34  1  0.30950000  0.56090000  0.68980000  1.0 0.1005055255
H  H35  1  0.58390000  0.73930000  0.50120000  1.0 0.0919863643
H  H36  1  0.96410000  0.90810000  0.73860000  1.0 0.1005055255
H  H37  1  0.66530000  0.76800000  0.63460000  1.0 0.0919863643
H  H38  1  0.05200000  0.02740000  0.84160000  1.0 0.1094577174
H  H39  1  0.18040000  0.03110000  0.87260000  1.0 0.1094577174
H  H40  1  0.11710000  0.05710000  0.92970000  1.0 0.1094577174
H  H41  1  0.75090000  0.93280000  0.52910000  1.0 0.0729255672
H  H42  1  0.82790000  0.96360000  0.66200000  1.0 0.0919863643
H  H43  1  0.95660000  0.90530000  0.93750000  1.0 0.0919863643
H  H44  1  0.22610000  0.95680000  0.96240000  1.0 0.119995986
H  H45  1  0.13940000  0.88300000  0.92950000  1.0 0.1094577174
H  H46  1  0.11820000  0.95490000  0.98330000  1.0 0.1094577174
H  H47  1  0.12120000  0.92290000  0.84090000  1.0 0.061051357
H  H48  1  0.83380000  0.79030000  0.92260000  1.0 0.1005055255
H  H49  1  0.74030000  0.76410000  0.99870000  1.0 0.0919863643
H  H50  1  0.64290000  0.93610000  0.89260000  1.0 0.1005055255
H  H51  1  0.54580000  0.90640000  0.96500000  1.0 0.0919863643
H  H52  1  0.74240000  0.56060000  0.15550000  1.0 0.0804652865
H  H53  1  0.56640000  0.05100000  0.10980000  1.0 0.0919863643
H  H54  1  0.97190000  0.43400000  0.25440000  1.0 0.1005055255
H  H55  1  0.66450000  0.16300000  0.12230000  1.0 0.1005055255
H  H56  1  0.84420000  0.20360000  0.34090000  1.0 0.1005055255
H  H57  1  0.59410000  0.53320000  0.29830000  1.0 0.1005055255
H  H58  1  0.74850000  0.08960000  0.32700000  1.0 0.0919863643
H  H59  1  0.12310000  0.40240000  0.29130000  1.0 0.061051357
H  H60  1  0.07800000  0.26750000  0.19150000  1.0 0.1094577174
H  H61  1  0.20400000  0.29690000  0.24290000  1.0 0.1094577174
H  H62  1  0.14280000  0.34000000  0.19560000  1.0 0.1094577174
H  H63  1  0.12490000  0.33220000  0.37740000  1.0 0.1094577174
H  H64  1  0.20900000  0.40060000  0.38920000  1.0 0.1094577174
H  H65  1  0.22390000  0.32140000  0.34720000  1.0 0.1005055255
H  H66  1  0.96860000  0.23560000  0.26510000  1.0 0.1005055255
H  H67  1  0.82700000  0.46070000  0.15970000  1.0 0.0919863643
H  H68  1  0.69050000  0.43910000  0.31020000  1.0 0.1005055255
C  C1  1  0.25500000  0.13550000  0.10040000  1.0 0.061051357
C  C2  1  0.36690000  0.21640000  0.46630000  1.0 -0.1074072239
C  C3  1  0.19350000  0.11500000  0.26260000  1.0 -0.0167509011
C  C4  1  0.33880000  0.16520000  0.49350000  1.0 -0.1235660444
C  C5  1  0.07690000  0.09550000  0.23100000  1.0 -0.256806009
C  C6  1  0.31800000  0.19930000  0.38660000  1.0 -0.1782147268
C  C7  1  0.88800000  0.97800000  0.11900000  1.0 -0.4216061612
C  C8  1  0.26700000  0.09940000  0.44930000  1.0 -0.1013614242
C  C9  1  0.21900000  0.08150000  0.37020000  1.0 -0.1711566315
C  C10  1  0.24490000  0.13270000  0.34140000  1.0 0.061051357
C  C11  1  0.39000000  0.18220000  0.57300000  1.0 0.5878999005
C  C12  1  0.19670000  0.12040000  0.14500000  1.0 -0.0284565543
C  C13  1  0.08070000  0.09820000  0.11180000  1.0 -0.2348130872
C  C14  1  0.25220000  0.12840000  0.21890000  1.0 0.119995986
C  C15  1  0.02290000  0.08160000  0.15480000  1.0 0.0524863019
C  C16  1  0.85200000  0.06500000  0.05610000  1.0 -0.4479395379
C  C17  1  0.90880000  0.04950000  0.12090000  1.0 0.0366424653
C  C18  1  0.22400000  0.18660000  0.06890000  1.0 -0.1711566315
C  C19  1  0.28000000  0.20270000  0.02390000  1.0 -0.1235660444
C  C20  1  0.33900000  0.09930000  0.08740000  1.0 -0.1711566315
C  C21  1  0.36600000  0.16850000  0.01420000  1.0 -0.0902035371
C  C22  1  0.39700000  0.11650000  0.04380000  1.0 -0.1013614242
C  C23  1  0.42520000  0.18510000  0.96910000  1.0 0.6207473944
C  C24  1  0.23500000  0.55900000  0.76550000  1.0 0.0524863019
C  C25  1  0.33400000  0.44400000  0.77080000  1.0 -0.1235660444
C  C26  1  0.26800000  0.46430000  0.81430000  1.0 -0.1074072239
C  C27  1  0.41380000  0.00310000  0.78760000  1.0 0.5981411706
C  C28  1  0.18200000  0.61790000  0.76250000  1.0 -0.0116774908
C  C29  1  0.34960000  0.93630000  0.78110000  1.0 -0.0902035371
C  C30  1  0.23800000  0.80770000  0.76740000  1.0 0.061051357
C  C31  1  0.18500000  0.73910000  0.76090000  1.0 -0.0167509011
C  C32  1  0.37800000  0.91830000  0.84460000  1.0 -0.1074072239
C  C33  1  0.06700000  0.60850000  0.74740000  1.0 -0.2420530398
C  C34  1  0.32000000  0.85170000  0.83670000  1.0 -0.15988382
C  C35  1  0.21100000  0.82690000  0.70510000  1.0 -0.1782147268
C  C36  1  0.35600000  0.48000000  0.72710000  1.0 -0.1235660444
C  C37  1  0.26900000  0.89470000  0.71330000  1.0 -0.1264228751
C  C38  1  0.01220000  0.66280000  0.73520000  1.0 0.061051357
C  C39  1  0.89570000  0.64840000  0.71400000  1.0 0.0267481054
C  C40  1  0.86500000  0.68900000  0.77600000  1.0 -0.4288567533
C  C41  1  0.82900000  0.64900000  0.64500000  1.0 -0.4069651594
C  C42  1  0.06900000  0.72810000  0.74230000  1.0 -0.2420530398
C  C43  1  0.24010000  0.68480000  0.77200000  1.0 0.119995986
C  C44  1  0.21800000  0.52370000  0.81150000  1.0 -0.15988382
C  C45  1  0.38960000  0.38570000  0.77590000  1.0 0.5846862565
C  C46  1  0.30100000  0.53770000  0.72190000  1.0 -0.1471841564
C  C47  1  0.74500000  0.86450000  0.89960000  1.0 0.061051357
C  C48  1  0.63310000  0.78360000  0.53370000  1.0 -0.1074072239
C  C49  1  0.80650000  0.88500000  0.73740000  1.0 -0.0167509011
C  C50  1  0.66120000  0.83480000  0.50650000  1.0 -0.1264228751
C  C51  1  0.92310000  0.90450000  0.76900000  1.0 -0.256806009
C  C52  1  0.68200000  0.80070000  0.61340000  1.0 -0.1782147268
C  C53  1  0.11200000  0.02200000  0.88100000  1.0 -0.4216061612
C  C54  1  0.73300000  0.90060000  0.55070000  1.0 -0.1013614242
C  C55  1  0.78100000  0.91850000  0.62980000  1.0 -0.1711566315
C  C56  1  0.75510000  0.86730000  0.65860000  1.0 0.061051357
C  C57  1  0.61000000  0.81780000  0.42700000  1.0 0.5878999005
C  C58  1  0.80330000  0.87960000  0.85500000  1.0 -0.0284565543
C  C59  1  0.91930000  0.90180000  0.88820000  1.0 -0.2348130872
C  C60  1  0.74780000  0.87160000  0.78110000  1.0 0.119995986
C  C61  1  0.97710000  0.91840000  0.84520000  1.0 0.0524863019
C  C62  1  0.14800000  0.93500000  0.94390000  1.0 -0.4479395379
C  C63  1  0.09120000  0.95050000  0.87910000  1.0 0.0366424653
C  C64  1  0.77600000  0.81340000  0.93110000  1.0 -0.1711566315
C  C65  1  0.72000000  0.79730000  0.97610000  1.0 -0.1235660444
C  C66  1  0.66100000  0.90070000  0.91260000  1.0 -0.1711566315
C  C67  1  0.63400000  0.83150000  0.98580000  1.0 -0.0902035371
C  C68  1  0.60300000  0.88350000  0.95620000  1.0 -0.1013614242
C  C69  1  0.57480000  0.81490000  0.03090000  1.0 0.6207473944
C  C70  1  0.76500000  0.44100000  0.23450000  1.0 0.0524863019
C  C71  1  0.66600000  0.55600000  0.22920000  1.0 -0.1264228751
C  C72  1  0.73200000  0.53570000  0.18570000  1.0 -0.1074072239
C  C73  1  0.58620000  0.99690000  0.21240000  1.0 0.5981411706
C  C74  1  0.81800000  0.38210000  0.23750000  1.0 -0.0116774908
C  C75  1  0.65040000  0.06370000  0.21890000  1.0 -0.0902035371
C  C76  1  0.76200000  0.19230000  0.23260000  1.0 0.061051357
C  C77  1  0.81500000  0.26090000  0.23910000  1.0 -0.0167509011
C  C78  1  0.62200000  0.08170000  0.15540000  1.0 -0.1074072239
C  C79  1  0.93300000  0.39150000  0.25260000  1.0 -0.2420530398
C  C80  1  0.68000000  0.14830000  0.16330000  1.0 -0.15988382
C  C81  1  0.78900000  0.17310000  0.29490000  1.0 -0.1711566315
C  C82  1  0.64400000  0.52000000  0.27290000  1.0 -0.1235660444
C  C83  1  0.73100000  0.10530000  0.28670000  1.0 -0.1264228751
C  C84  1  0.98780000  0.33720000  0.26480000  1.0 0.061051357
C  C85  1  0.10430000  0.35160000  0.28600000  1.0 0.0267481054
C  C86  1  0.13500000  0.31100000  0.22400000  1.0 -0.4288567533
C  C87  1  0.17100000  0.35100000  0.35500000  1.0 -0.4069651594
C  C88  1  0.93100000  0.27190000  0.25770000  1.0 -0.2420530398
C  C89  1  0.75990000  0.31520000  0.22800000  1.0 0.119995986
C  C90  1  0.78200000  0.47630000  0.18850000  1.0 -0.15988382
C  C91  1  0.61040000  0.61430000  0.22410000  1.0 0.5878999005
C  C92  1  0.69900000  0.46230000  0.27810000  1.0 -0.1471841564
N  N1  1  0.36890000  0.14890000  0.25080000  1.0 -0.340438796
N  N2  1  0.35630000  0.69710000  0.79340000  1.0 -0.340438796
N  N3  1  0.63110000  0.85110000  0.74920000  1.0 -0.340438796
N  N4  1  0.64370000  0.30290000  0.20660000  1.0 -0.334099405
O  O1  1  0.59660000  0.09260000  0.77040000  1.0 -1.1891997983
O  O2  1  0.41150000  0.22950000  0.73610000  1.0 -1.1197313299
O  O3  1  0.46650000  0.16690000  0.81960000  1.0 -1.1891997983
O  O4  1  0.59670000  0.26310000  0.94300000  1.0 -1.180717193
O  O5  1  0.73270000  0.28950000  0.79920000  1.0 -1.4225708475
O  O6  1  0.57620000  0.18750000  0.71880000  1.0 -1.238364918
O  O7  1  0.44740000  0.24280000  0.61980000  1.0 -0.5766555895
O  O8  1  0.70600000  0.21070000  0.86890000  1.0 -1.2906427612
O  O9  1  0.57830000  0.31230000  0.84120000  1.0 -1.238364918
O  O10  1  0.38690000  0.13770000  0.60360000  1.0 -0.5624316265
O  O11  1  0.40210000  0.23030000  0.93850000  1.0 -0.6155816545
O  O12  1  0.50390000  0.15450000  0.95870000  1.0 -0.6135670175
O  O13  1  0.49380000  0.04360000  0.84390000  1.0 -0.5412838687
O  O14  1  0.39730000  0.02770000  0.73700000  1.0 -0.551422589
O  O15  1  0.38800000  0.35550000  0.82020000  1.0 -0.551422589
O  O16  1  0.45020000  0.36050000  0.74030000  1.0 -0.551422589
O  O17  1  0.40340000  0.90740000  0.22960000  1.0 -1.1891997983
O  O18  1  0.58850000  0.77050000  0.26390000  1.0 -1.1137397518
O  O19  1  0.53350000  0.83310000  0.18040000  1.0 -1.1891997983
O  O20  1  0.40330000  0.73690000  0.05700000  1.0 -1.180717193
O  O21  1  0.26730000  0.71050000  0.20080000  1.0 -1.4563303222
O  O22  1  0.42380000  0.81250000  0.28120000  1.0 -1.238364918
O  O23  1  0.55260000  0.75720000  0.38020000  1.0 -0.5766555895
O  O24  1  0.29400000  0.78930000  0.13110000  1.0 -1.2846470107
O  O25  1  0.42170000  0.68770000  0.15880000  1.0 -1.2285399665
O  O26  1  0.61310000  0.86230000  0.39640000  1.0 -0.5624316265
O  O27  1  0.59790000  0.76970000  0.06150000  1.0 -0.6155816545
O  O28  1  0.49610000  0.84550000  0.04130000  1.0 -0.6135670175
O  O29  1  0.50620000  0.95640000  0.15610000  1.0 -0.5412838687
O  O30  1  0.60270000  0.97230000  0.26300000  1.0 -0.551422589
O  O31  1  0.61200000  0.64450000  0.17980000  1.0 -0.551422589
O  O32  1  0.54980000  0.63950000  0.25970000  1.0 -0.551422589
