# DDEC6 charges by PACMAN v1.1 (https://github.com/mtap-research/PACMAN-charge/)
data_WABVUR_ion_pacman
_symmetry_space_group_name_H-M   'P 1'
_cell_length_a   12.40390000
_cell_length_b   12.40390000
_cell_length_c   12.40390000
_cell_angle_alpha   109.47100000
_cell_angle_beta   109.47100000
_cell_angle_gamma   109.47100000
_symmetry_Int_Tables_number   1
_chemical_formula_structural   Li3Cu6H48C20(N4O7)6
_chemical_formula_sum   'Li3 Cu6 H48 C20 N24 O42'
_cell_volume   1469.11714049
_cell_formula_units_Z   1
loop_
 _symmetry_equiv_pos_site_id
 _symmetry_equiv_pos_as_xyz
  1  'x, y, z'
loop_
 _atom_site_type_symbol
 _atom_site_label
 _atom_site_symmetry_multiplicity
 _atom_site_fract_x
 _atom_site_fract_y
 _atom_site_fract_z
 _atom_site_occupancy
 _atom_site_charge
Li  Li1  1  0.00000000  0.50000000  0.50000000  1.0 0.9011994401
Li  Li2  1  0.50000000  0.00000000  0.50000000  1.0 0.9011994401
Li  Li3  1  0.50000000  0.50000000  0.00000000  1.0 0.9011994401
Cu  Cu1  1  0.25000000  0.75000000  0.50000000  1.0 0.9111393292
Cu  Cu2  1  0.50000000  0.25000000  0.75000000  1.0 0.9111393292
Cu  Cu3  1  0.75000000  0.50000000  0.25000000  1.0 0.9111393292
Cu  Cu4  1  0.75000000  0.25000000  0.50000000  1.0 0.9111393292
Cu  Cu5  1  0.25000000  0.50000000  0.75000000  1.0 0.9111393292
Cu  Cu6  1  0.50000000  0.75000000  0.25000000  1.0 0.9111393292
H  H1  1  0.27200000  0.38600000  0.46000000  1.0 0.335056891
H  H2  1  0.46000000  0.27200000  0.38600000  1.0 0.335056891
H  H3  1  0.38600000  0.46000000  0.27200000  1.0 0.335056891
H  H4  1  0.38600000  0.27200000  0.46000000  1.0 0.335056891
H  H5  1  0.27200000  0.46000000  0.38600000  1.0 0.335056891
H  H6  1  0.46000000  0.38600000  0.27200000  1.0 0.335056891
H  H7  1  0.07400000  0.46000000  0.18800000  1.0 0.335056891
H  H8  1  0.11400000  0.38600000  0.92600000  1.0 0.335056891
H  H9  1  0.81200000  0.27200000  0.88600000  1.0 0.335056891
H  H10  1  0.88600000  0.27200000  0.81200000  1.0 0.335056891
H  H11  1  0.92600000  0.38600000  0.11400000  1.0 0.335056891
H  H12  1  0.18800000  0.46000000  0.07400000  1.0 0.335056891
H  H13  1  0.18800000  0.07400000  0.46000000  1.0 0.335056891
H  H14  1  0.92600000  0.11400000  0.38600000  1.0 0.335056891
H  H15  1  0.88600000  0.81200000  0.27200000  1.0 0.335056891
H  H16  1  0.81200000  0.88600000  0.27200000  1.0 0.335056891
H  H17  1  0.07400000  0.18800000  0.46000000  1.0 0.335056891
H  H18  1  0.11400000  0.92600000  0.38600000  1.0 0.335056891
H  H19  1  0.61400000  0.72800000  0.54000000  1.0 0.335056891
H  H20  1  0.72800000  0.54000000  0.61400000  1.0 0.335056891
H  H21  1  0.54000000  0.61400000  0.72800000  1.0 0.335056891
H  H22  1  0.72800000  0.61400000  0.54000000  1.0 0.335056891
H  H23  1  0.54000000  0.72800000  0.61400000  1.0 0.335056891
H  H24  1  0.61400000  0.54000000  0.72800000  1.0 0.335056891
H  H25  1  0.38600000  0.92600000  0.11400000  1.0 0.335056891
H  H26  1  0.46000000  0.18800000  0.07400000  1.0 0.335056891
H  H27  1  0.27200000  0.88600000  0.81200000  1.0 0.335056891
H  H28  1  0.27200000  0.81200000  0.88600000  1.0 0.335056891
H  H29  1  0.46000000  0.07400000  0.18800000  1.0 0.335056891
H  H30  1  0.38600000  0.11400000  0.92600000  1.0 0.335056891
H  H31  1  0.18800000  0.11400000  0.72800000  1.0 0.335056891
H  H32  1  0.92600000  0.81200000  0.54000000  1.0 0.335056891
H  H33  1  0.88600000  0.07400000  0.61400000  1.0 0.335056891
H  H34  1  0.81200000  0.92600000  0.54000000  1.0 0.335056891
H  H35  1  0.07400000  0.88600000  0.61400000  1.0 0.335056891
H  H36  1  0.11400000  0.18800000  0.72800000  1.0 0.335056891
H  H37  1  0.11400000  0.72800000  0.18800000  1.0 0.335056891
H  H38  1  0.07400000  0.61400000  0.88600000  1.0 0.335056891
H  H39  1  0.81200000  0.54000000  0.92600000  1.0 0.335056891
H  H40  1  0.92600000  0.54000000  0.81200000  1.0 0.335056891
H  H41  1  0.88600000  0.61400000  0.07400000  1.0 0.335056891
H  H42  1  0.18800000  0.72800000  0.11400000  1.0 0.335056891
H  H43  1  0.72800000  0.18800000  0.11400000  1.0 0.335056891
H  H44  1  0.54000000  0.92600000  0.81200000  1.0 0.335056891
H  H45  1  0.61400000  0.88600000  0.07400000  1.0 0.335056891
H  H46  1  0.61400000  0.07400000  0.88600000  1.0 0.335056891
H  H47  1  0.54000000  0.81200000  0.92600000  1.0 0.335056891
H  H48  1  0.72800000  0.11400000  0.18800000  1.0 0.335056891
C  C1  1  0.00000000  0.66240000  0.33760000  1.0 0.7883467673
C  C2  1  0.33760000  0.00000000  0.66240000  1.0 0.7883467673
C  C3  1  0.66240000  0.33760000  0.00000000  1.0 0.7883467673
C  C4  1  0.33760000  0.67520000  0.33760000  1.0 0.7883467673
C  C5  1  0.66240000  0.00000000  0.33760000  1.0 0.7883467673
C  C6  1  0.66240000  0.32480000  0.66240000  1.0 0.7883467673
C  C7  1  0.32480000  0.66240000  0.66240000  1.0 0.7883467673
C  C8  1  0.00000000  0.33760000  0.66240000  1.0 0.7883467673
C  C9  1  0.67520000  0.33760000  0.33760000  1.0 0.7883467673
C  C10  1  0.33760000  0.66240000  0.00000000  1.0 0.7883467673
C  C11  1  0.66240000  0.66240000  0.32480000  1.0 0.7883467673
C  C12  1  0.33760000  0.33760000  0.67520000  1.0 0.7883467673
C  C13  1  0.36840000  0.36840000  0.36840000  1.0 0.6718219196
C  C14  1  0.00000000  0.36840000  0.00000000  1.0 0.6718219196
C  C15  1  0.00000000  0.00000000  0.36840000  1.0 0.6718219196
C  C16  1  0.63160000  0.63160000  0.63160000  1.0 0.6718219196
C  C17  1  0.36840000  0.00000000  0.00000000  1.0 0.6718219196
C  C18  1  0.00000000  0.00000000  0.63160000  1.0 0.6718219196
C  C19  1  0.00000000  0.63160000  0.00000000  1.0 0.6718219196
C  C20  1  0.63160000  0.00000000  0.00000000  1.0 0.6718219196
N  N1  1  0.29080000  0.40490000  0.40490000  1.0 -0.6116196812
N  N2  1  0.40490000  0.29080000  0.40490000  1.0 -0.6116196812
N  N3  1  0.40490000  0.40490000  0.29080000  1.0 -0.6116196812
N  N4  1  0.00000000  0.40490000  0.11410000  1.0 -0.6116196812
N  N5  1  0.11410000  0.40490000  0.00000000  1.0 -0.6116196812
N  N6  1  0.88590000  0.29080000  0.88590000  1.0 -0.6116196812
N  N7  1  0.11410000  0.00000000  0.40490000  1.0 -0.6116196812
N  N8  1  0.00000000  0.11410000  0.40490000  1.0 -0.6116196812
N  N9  1  0.88590000  0.88590000  0.29080000  1.0 -0.6116196812
N  N10  1  0.59510000  0.70920000  0.59510000  1.0 -0.6116196812
N  N11  1  0.70920000  0.59510000  0.59510000  1.0 -0.6116196812
N  N12  1  0.59510000  0.59510000  0.70920000  1.0 -0.6116196812
N  N13  1  0.40490000  0.00000000  0.11410000  1.0 -0.6116196812
N  N14  1  0.40490000  0.11410000  0.00000000  1.0 -0.6116196812
N  N15  1  0.29080000  0.88590000  0.88590000  1.0 -0.6116196812
N  N16  1  0.11410000  0.11410000  0.70920000  1.0 -0.6116196812
N  N17  1  0.00000000  0.88590000  0.59510000  1.0 -0.6116196812
N  N18  1  0.88590000  0.00000000  0.59510000  1.0 -0.6116196812
N  N19  1  0.11410000  0.70920000  0.11410000  1.0 -0.6116196812
N  N20  1  0.00000000  0.59510000  0.88590000  1.0 -0.6116196812
N  N21  1  0.88590000  0.59510000  0.00000000  1.0 -0.6116196812
N  N22  1  0.70920000  0.11410000  0.11410000  1.0 -0.6116196812
N  N23  1  0.59510000  0.00000000  0.88590000  1.0 -0.6116196812
N  N24  1  0.59510000  0.88590000  0.00000000  1.0 -0.6116196812
O  O1  1  0.10970000  0.75010000  0.35960000  1.0 -0.6008047264
O  O2  1  0.35960000  0.10970000  0.75010000  1.0 -0.6008047264
O  O3  1  0.75010000  0.35960000  0.10970000  1.0 -0.6008047264
O  O4  1  0.24990000  0.60950000  0.35960000  1.0 -0.6008047264
O  O5  1  0.75010000  0.10970000  0.35960000  1.0 -0.6008047264
O  O6  1  0.75010000  0.39050000  0.64040000  1.0 -0.6008047264
O  O7  1  0.39050000  0.64040000  0.75010000  1.0 -0.6008047264
O  O8  1  0.10970000  0.35960000  0.75010000  1.0 -0.6008047264
O  O9  1  0.60950000  0.35960000  0.24990000  1.0 -0.6008047264
O  O10  1  0.35960000  0.75010000  0.10970000  1.0 -0.6008047264
O  O11  1  0.64040000  0.75010000  0.39050000  1.0 -0.6008047264
O  O12  1  0.35960000  0.24990000  0.60950000  1.0 -0.6008047264
O  O13  1  0.39050000  0.75010000  0.64040000  1.0 -0.6008047264
O  O14  1  0.60950000  0.24990000  0.35960000  1.0 -0.6008047264
O  O15  1  0.89030000  0.24990000  0.64040000  1.0 -0.6008047264
O  O16  1  0.64040000  0.39050000  0.75010000  1.0 -0.6008047264
O  O17  1  0.35960000  0.60950000  0.24990000  1.0 -0.6008047264
O  O18  1  0.64040000  0.89030000  0.24990000  1.0 -0.6008047264
O  O19  1  0.75010000  0.64040000  0.39050000  1.0 -0.6008047264
O  O20  1  0.24990000  0.35960000  0.60950000  1.0 -0.6008047264
O  O21  1  0.24990000  0.64040000  0.89030000  1.0 -0.6008047264
O  O22  1  0.24990000  0.89030000  0.64040000  1.0 -0.6008047264
O  O23  1  0.89030000  0.64040000  0.24990000  1.0 -0.6008047264
O  O24  1  0.64040000  0.24990000  0.89030000  1.0 -0.6008047264
O  O25  1  0.00000000  0.60070000  0.39930000  1.0 -0.6490912637
O  O26  1  0.39930000  0.00000000  0.60070000  1.0 -0.6490912637
O  O27  1  0.60070000  0.39930000  0.00000000  1.0 -0.6490912637
O  O28  1  0.39930000  0.79860000  0.39930000  1.0 -0.6490912637
O  O29  1  0.60070000  0.00000000  0.39930000  1.0 -0.6490912637
O  O30  1  0.60070000  0.20140000  0.60070000  1.0 -0.6490912637
O  O31  1  0.20140000  0.60070000  0.60070000  1.0 -0.6490912637
O  O32  1  0.00000000  0.39930000  0.60070000  1.0 -0.6490912637
O  O33  1  0.79860000  0.39930000  0.39930000  1.0 -0.6490912637
O  O34  1  0.39930000  0.60070000  0.00000000  1.0 -0.6490912637
O  O35  1  0.60070000  0.60070000  0.20140000  1.0 -0.6490912637
O  O36  1  0.39930000  0.39930000  0.79860000  1.0 -0.6490912637
O  O37  1  0.00000000  0.35940000  0.35940000  1.0 -0.3677331234
O  O38  1  0.35940000  0.00000000  0.35940000  1.0 -0.3648440938
O  O39  1  0.35940000  0.35940000  0.00000000  1.0 -0.3677331234
O  O40  1  0.64060000  0.00000000  0.64060000  1.0 -0.3648440938
O  O41  1  0.00000000  0.64060000  0.64060000  1.0 -0.3677331234
O  O42  1  0.64060000  0.64060000  0.00000000  1.0 -0.3677331234
