# DDEC6 charges by PACMAN v1.1 (https://github.com/mtap-research/PACMAN-charge/)
data_WABVOL_ion_pacman
_symmetry_space_group_name_H-M   'P 1'
_cell_length_a   12.45590000
_cell_length_b   12.45590000
_cell_length_c   12.45590000
_cell_angle_alpha   109.47100000
_cell_angle_beta   109.47100000
_cell_angle_gamma   109.47100000
_symmetry_Int_Tables_number   1
_chemical_formula_structural   K3Cu3H24C10(N4O7)3
_chemical_formula_sum   'K6 Cu6 H48 C20 N24 O42'
_cell_volume   1487.67133726
_cell_formula_units_Z   2
loop_
 _symmetry_equiv_pos_site_id
 _symmetry_equiv_pos_as_xyz
  1  'x, y, z'
loop_
 _atom_site_type_symbol
 _atom_site_label
 _atom_site_symmetry_multiplicity
 _atom_site_fract_x
 _atom_site_fract_y
 _atom_site_fract_z
 _atom_site_occupancy
 _atom_site_charge
K  K1  1  0.00000000  0.38500000  0.38500000  1.0 0.6900844574
K  K2  1  0.38500000  0.00000000  0.38500000  1.0 0.6900844574
K  K3  1  0.61500000  0.00000000  0.61500000  1.0 0.6900844574
K  K4  1  0.38500000  0.38500000  0.00000000  1.0 0.6900844574
K  K5  1  0.61500000  0.61500000  0.00000000  1.0 0.6900844574
K  K6  1  0.00000000  0.61500000  0.61500000  1.0 0.6900844574
Cu  Cu1  1  0.25000000  0.75000000  0.50000000  1.0 0.9305880665
Cu  Cu2  1  0.75000000  0.25000000  0.50000000  1.0 0.9305880665
Cu  Cu3  1  0.75000000  0.50000000  0.25000000  1.0 0.9305880665
Cu  Cu4  1  0.50000000  0.25000000  0.75000000  1.0 0.9305880665
Cu  Cu5  1  0.50000000  0.75000000  0.25000000  1.0 0.9305880665
Cu  Cu6  1  0.25000000  0.50000000  0.75000000  1.0 0.9305880665
H  H1  1  0.25750000  0.38350000  0.45000000  1.0 0.2986200371
H  H2  1  0.38350000  0.45000000  0.25750000  1.0 0.2986200371
H  H3  1  0.45000000  0.25750000  0.38350000  1.0 0.2986200371
H  H4  1  0.38350000  0.25750000  0.45000000  1.0 0.2986200371
H  H5  1  0.45000000  0.38350000  0.25750000  1.0 0.2986200371
H  H6  1  0.25750000  0.45000000  0.38350000  1.0 0.2986200371
H  H7  1  0.12600000  0.74250000  0.19250000  1.0 0.2986200371
H  H8  1  0.06650000  0.61650000  0.87400000  1.0 0.2986200371
H  H9  1  0.80750000  0.55000000  0.93350000  1.0 0.2986200371
H  H10  1  0.87400000  0.61650000  0.06650000  1.0 0.2986200371
H  H11  1  0.93350000  0.55000000  0.80750000  1.0 0.2986200371
H  H12  1  0.19250000  0.74250000  0.12600000  1.0 0.2986200371
H  H13  1  0.12600000  0.38350000  0.93350000  1.0 0.2986200371
H  H14  1  0.06650000  0.45000000  0.19250000  1.0 0.2986200371
H  H15  1  0.80750000  0.25750000  0.87400000  1.0 0.2986200371
H  H16  1  0.87400000  0.25750000  0.80750000  1.0 0.2986200371
H  H17  1  0.93350000  0.38350000  0.12600000  1.0 0.2986200371
H  H18  1  0.19250000  0.45000000  0.06650000  1.0 0.2986200371
H  H19  1  0.19250000  0.12600000  0.74250000  1.0 0.2986200371
H  H20  1  0.93350000  0.80750000  0.55000000  1.0 0.2986200371
H  H21  1  0.87400000  0.06650000  0.61650000  1.0 0.2986200371
H  H22  1  0.80750000  0.93350000  0.55000000  1.0 0.2986200371
H  H23  1  0.06650000  0.87400000  0.61650000  1.0 0.2986200371
H  H24  1  0.12600000  0.19250000  0.74250000  1.0 0.2986200371
H  H25  1  0.61650000  0.74250000  0.55000000  1.0 0.2986200371
H  H26  1  0.55000000  0.61650000  0.74250000  1.0 0.2986200371
H  H27  1  0.74250000  0.55000000  0.61650000  1.0 0.2986200371
H  H28  1  0.74250000  0.61650000  0.55000000  1.0 0.2986200371
H  H29  1  0.61650000  0.55000000  0.74250000  1.0 0.2986200371
H  H30  1  0.55000000  0.74250000  0.61650000  1.0 0.2986200371
H  H31  1  0.38350000  0.93350000  0.12600000  1.0 0.2986200371
H  H32  1  0.45000000  0.19250000  0.06650000  1.0 0.2986200371
H  H33  1  0.25750000  0.87400000  0.80750000  1.0 0.2986200371
H  H34  1  0.25750000  0.80750000  0.87400000  1.0 0.2986200371
H  H35  1  0.38350000  0.12600000  0.93350000  1.0 0.2986200371
H  H36  1  0.45000000  0.06650000  0.19250000  1.0 0.2986200371
H  H37  1  0.19250000  0.06650000  0.45000000  1.0 0.2986200371
H  H38  1  0.93350000  0.12600000  0.38350000  1.0 0.2986200371
H  H39  1  0.87400000  0.80750000  0.25750000  1.0 0.2986200371
H  H40  1  0.80750000  0.87400000  0.25750000  1.0 0.2986200371
H  H41  1  0.06650000  0.19250000  0.45000000  1.0 0.2986200371
H  H42  1  0.12600000  0.93350000  0.38350000  1.0 0.2986200371
H  H43  1  0.74250000  0.19250000  0.12600000  1.0 0.2986200371
H  H44  1  0.61650000  0.87400000  0.06650000  1.0 0.2986200371
H  H45  1  0.55000000  0.93350000  0.80750000  1.0 0.2986200371
H  H46  1  0.61650000  0.06650000  0.87400000  1.0 0.2986200371
H  H47  1  0.55000000  0.80750000  0.93350000  1.0 0.2986200371
H  H48  1  0.74250000  0.12600000  0.19250000  1.0 0.2986200371
C  C1  1  0.33440000  0.00000000  0.66560000  1.0 0.7922299355
C  C2  1  0.00000000  0.33440000  0.66560000  1.0 0.7922299355
C  C3  1  0.33120000  0.66560000  0.66560000  1.0 0.7922299355
C  C4  1  0.66880000  0.33440000  0.33440000  1.0 0.7922299355
C  C5  1  0.00000000  0.66560000  0.33440000  1.0 0.7922299355
C  C6  1  0.66560000  0.33120000  0.66560000  1.0 0.7922299355
C  C7  1  0.66560000  0.00000000  0.33440000  1.0 0.7922299355
C  C8  1  0.33440000  0.66880000  0.33440000  1.0 0.7922299355
C  C9  1  0.66560000  0.33440000  0.00000000  1.0 0.7922299355
C  C10  1  0.33440000  0.33440000  0.66880000  1.0 0.7922299355
C  C11  1  0.66560000  0.66560000  0.33120000  1.0 0.7922299355
C  C12  1  0.33440000  0.66560000  0.00000000  1.0 0.7922299355
C  C13  1  0.37180000  0.37180000  0.37180000  1.0 0.7098853588
C  C14  1  0.00000000  0.62820000  0.00000000  1.0 0.7098853588
C  C15  1  0.00000000  0.37180000  0.00000000  1.0 0.7098853588
C  C16  1  0.00000000  0.00000000  0.62820000  1.0 0.7098853588
C  C17  1  0.62820000  0.62820000  0.62820000  1.0 0.7098853588
C  C18  1  0.37180000  0.00000000  0.00000000  1.0 0.7098853588
C  C19  1  0.00000000  0.00000000  0.37180000  1.0 0.7098853588
C  C20  1  0.62820000  0.00000000  0.00000000  1.0 0.7098853588
N  N1  1  0.29560000  0.40950000  0.40950000  1.0 -0.6264254227
N  N2  1  0.40950000  0.40950000  0.29560000  1.0 -0.6264254227
N  N3  1  0.40950000  0.29560000  0.40950000  1.0 -0.6264254227
N  N4  1  0.11390000  0.70440000  0.11390000  1.0 -0.6264254227
N  N5  1  0.00000000  0.59050000  0.88610000  1.0 -0.6264254227
N  N6  1  0.88610000  0.59050000  0.00000000  1.0 -0.6264254227
N  N7  1  0.11390000  0.40950000  0.00000000  1.0 -0.6264254227
N  N8  1  0.00000000  0.40950000  0.11390000  1.0 -0.6264254227
N  N9  1  0.88610000  0.29560000  0.88610000  1.0 -0.6264254227
N  N10  1  0.11390000  0.11390000  0.70440000  1.0 -0.6264254227
N  N11  1  0.00000000  0.88610000  0.59050000  1.0 -0.6264254227
N  N12  1  0.88610000  0.00000000  0.59050000  1.0 -0.6264254227
N  N13  1  0.59050000  0.70440000  0.59050000  1.0 -0.6264254227
N  N14  1  0.59050000  0.59050000  0.70440000  1.0 -0.6264254227
N  N15  1  0.70440000  0.59050000  0.59050000  1.0 -0.6264254227
N  N16  1  0.40950000  0.00000000  0.11390000  1.0 -0.6264254227
N  N17  1  0.40950000  0.11390000  0.00000000  1.0 -0.6264254227
N  N18  1  0.29560000  0.88610000  0.88610000  1.0 -0.6264254227
N  N19  1  0.11390000  0.00000000  0.40950000  1.0 -0.6264254227
N  N20  1  0.00000000  0.11390000  0.40950000  1.0 -0.6264254227
N  N21  1  0.88610000  0.88610000  0.29560000  1.0 -0.6264254227
N  N22  1  0.70440000  0.11390000  0.11390000  1.0 -0.6264254227
N  N23  1  0.59050000  0.88610000  0.00000000  1.0 -0.6264254227
N  N24  1  0.59050000  0.00000000  0.88610000  1.0 -0.6264254227
O  O1  1  0.24910000  0.89020000  0.64110000  1.0 -0.5859447867
O  O2  1  0.89020000  0.24910000  0.64110000  1.0 -0.5859447867
O  O3  1  0.39200000  0.75090000  0.64110000  1.0 -0.5859447867
O  O4  1  0.60800000  0.24910000  0.35890000  1.0 -0.5859447867
O  O5  1  0.89020000  0.64110000  0.24910000  1.0 -0.5859447867
O  O6  1  0.64110000  0.39200000  0.75090000  1.0 -0.5859447867
O  O7  1  0.64110000  0.89020000  0.24910000  1.0 -0.5859447867
O  O8  1  0.35890000  0.60800000  0.24910000  1.0 -0.5859447867
O  O9  1  0.64110000  0.24910000  0.89020000  1.0 -0.5859447867
O  O10  1  0.24910000  0.35890000  0.60800000  1.0 -0.5859447867
O  O11  1  0.75090000  0.64110000  0.39200000  1.0 -0.5859447867
O  O12  1  0.24910000  0.64110000  0.89020000  1.0 -0.5859447867
O  O13  1  0.75090000  0.39200000  0.64110000  1.0 -0.5859447867
O  O14  1  0.24910000  0.60800000  0.35890000  1.0 -0.5859447867
O  O15  1  0.75090000  0.10980000  0.35890000  1.0 -0.5859447867
O  O16  1  0.10980000  0.75090000  0.35890000  1.0 -0.5859447867
O  O17  1  0.39200000  0.64110000  0.75090000  1.0 -0.5859447867
O  O18  1  0.10980000  0.35890000  0.75090000  1.0 -0.5859447867
O  O19  1  0.60800000  0.35890000  0.24910000  1.0 -0.5859447867
O  O20  1  0.35890000  0.10980000  0.75090000  1.0 -0.5859447867
O  O21  1  0.64110000  0.75090000  0.39200000  1.0 -0.5859447867
O  O22  1  0.35890000  0.75090000  0.10980000  1.0 -0.5859447867
O  O23  1  0.35890000  0.24910000  0.60800000  1.0 -0.5859447867
O  O24  1  0.75090000  0.35890000  0.10980000  1.0 -0.5859447867
O  O25  1  0.39760000  0.00000000  0.60240000  1.0 -0.7069776157
O  O26  1  0.00000000  0.39760000  0.60240000  1.0 -0.7069776157
O  O27  1  0.20480000  0.60240000  0.60240000  1.0 -0.7069776157
O  O28  1  0.79520000  0.39760000  0.39760000  1.0 -0.7069776157
O  O29  1  0.00000000  0.60240000  0.39760000  1.0 -0.7069776157
O  O30  1  0.60240000  0.20480000  0.60240000  1.0 -0.7069776157
O  O31  1  0.60240000  0.00000000  0.39760000  1.0 -0.7069776157
O  O32  1  0.39760000  0.79520000  0.39760000  1.0 -0.7069776157
O  O33  1  0.60240000  0.39760000  0.00000000  1.0 -0.7069776157
O  O34  1  0.39760000  0.39760000  0.79520000  1.0 -0.7069776157
O  O35  1  0.60240000  0.60240000  0.20480000  1.0 -0.7069776157
O  O36  1  0.39760000  0.60240000  0.00000000  1.0 -0.7069776157
O  O37  1  0.00000000  0.34770000  0.34770000  1.0 -0.2771704346
O  O38  1  0.34770000  0.00000000  0.34770000  1.0 -0.2771704346
O  O39  1  0.65230000  0.00000000  0.65230000  1.0 -0.2771704346
O  O40  1  0.34770000  0.34770000  0.00000000  1.0 -0.2771704346
O  O41  1  0.65230000  0.65230000  0.00000000  1.0 -0.2771704346
O  O42  1  0.00000000  0.65230000  0.65230000  1.0 -0.2771704346
