# DDEC6 charges by PACMAN v1.1 (https://github.com/mtap-research/PACMAN-charge/)
data_WABWEC_ASR_pacman
_symmetry_space_group_name_H-M   'P 1'
_cell_length_a   14.52750000
_cell_length_b   14.52750000
_cell_length_c   14.52750000
_cell_angle_alpha   90.00000000
_cell_angle_beta   90.00000000
_cell_angle_gamma   90.00000000
_symmetry_Int_Tables_number   1
_chemical_formula_structural   KCu(CO3)2
_chemical_formula_sum   'K12 Cu12 C24 O72'
_cell_volume   3066.00354267
_cell_formula_units_Z   12
loop_
 _symmetry_equiv_pos_site_id
 _symmetry_equiv_pos_as_xyz
  1  'x, y, z'
loop_
 _atom_site_type_symbol
 _atom_site_label
 _atom_site_symmetry_multiplicity
 _atom_site_fract_x
 _atom_site_fract_y
 _atom_site_fract_z
 _atom_site_occupancy
 _atom_site_charge
K  K1  1  0.86923000  0.50000000  0.50000000  1.0 0.9431886847
K  K2  1  0.13077000  0.50000000  0.50000000  1.0 0.9431886847
K  K3  1  0.50000000  0.86923000  0.50000000  1.0 0.9431886847
K  K4  1  0.50000000  0.13077000  0.50000000  1.0 0.9431886847
K  K5  1  0.50000000  0.50000000  0.86923000  1.0 0.9431886847
K  K6  1  0.50000000  0.50000000  0.13077000  1.0 0.9431886847
K  K7  1  0.36923000  0.00000000  0.00000000  1.0 0.9431886847
K  K8  1  0.63077000  0.00000000  0.00000000  1.0 0.9431886847
K  K9  1  0.00000000  0.36923000  0.00000000  1.0 0.9431886847
K  K10  1  0.00000000  0.63077000  0.00000000  1.0 0.9431886847
K  K11  1  0.00000000  0.00000000  0.36923000  1.0 0.9431886847
K  K12  1  0.00000000  0.00000000  0.63077000  1.0 0.9431886847
Cu  Cu1  1  0.00000000  0.50000000  0.75000000  1.0 0.9627644792
Cu  Cu2  1  0.00000000  0.50000000  0.25000000  1.0 0.9627644792
Cu  Cu3  1  0.75000000  0.00000000  0.50000000  1.0 0.9627644792
Cu  Cu4  1  0.25000000  0.00000000  0.50000000  1.0 0.9627644792
Cu  Cu5  1  0.50000000  0.75000000  0.00000000  1.0 0.9627644792
Cu  Cu6  1  0.50000000  0.25000000  0.00000000  1.0 0.9627644792
Cu  Cu7  1  0.50000000  0.00000000  0.25000000  1.0 0.9627644792
Cu  Cu8  1  0.50000000  0.00000000  0.75000000  1.0 0.9627644792
Cu  Cu9  1  0.00000000  0.75000000  0.50000000  1.0 0.9627644792
Cu  Cu10  1  0.00000000  0.25000000  0.50000000  1.0 0.9627644792
Cu  Cu11  1  0.75000000  0.50000000  0.00000000  1.0 0.9627644792
Cu  Cu12  1  0.25000000  0.50000000  0.00000000  1.0 0.9627644792
C  C1  1  0.84158000  0.50000000  0.84158000  1.0 0.8772020067
C  C2  1  0.15842000  0.50000000  0.15842000  1.0 0.8772020067
C  C3  1  0.15842000  0.50000000  0.84158000  1.0 0.8772020067
C  C4  1  0.84158000  0.50000000  0.15842000  1.0 0.8772020067
C  C5  1  0.84158000  0.84158000  0.50000000  1.0 0.8772020067
C  C6  1  0.15842000  0.15842000  0.50000000  1.0 0.8772020067
C  C7  1  0.84158000  0.15842000  0.50000000  1.0 0.8772020067
C  C8  1  0.15842000  0.84158000  0.50000000  1.0 0.8772020067
C  C9  1  0.50000000  0.84158000  0.84158000  1.0 0.8772020067
C  C10  1  0.50000000  0.15842000  0.15842000  1.0 0.8772020067
C  C11  1  0.50000000  0.84158000  0.15842000  1.0 0.8772020067
C  C12  1  0.50000000  0.15842000  0.84158000  1.0 0.8772020067
C  C13  1  0.34158000  0.00000000  0.34158000  1.0 0.8772020067
C  C14  1  0.65842000  0.00000000  0.65842000  1.0 0.8772020067
C  C15  1  0.65842000  0.00000000  0.34158000  1.0 0.8772020067
C  C16  1  0.34158000  0.00000000  0.65842000  1.0 0.8772020067
C  C17  1  0.34158000  0.34158000  0.00000000  1.0 0.8772020067
C  C18  1  0.65842000  0.65842000  0.00000000  1.0 0.8772020067
C  C19  1  0.34158000  0.65842000  0.00000000  1.0 0.8772020067
C  C20  1  0.65842000  0.34158000  0.00000000  1.0 0.8772020067
C  C21  1  0.00000000  0.34158000  0.34158000  1.0 0.8772020067
C  C22  1  0.00000000  0.65842000  0.65842000  1.0 0.8772020067
C  C23  1  0.00000000  0.34158000  0.65842000  1.0 0.8772020067
C  C24  1  0.00000000  0.65842000  0.34158000  1.0 0.8772020067
O  O1  1  0.86464000  0.50000000  0.75387000  1.0 -0.5691982297
O  O2  1  0.13536000  0.50000000  0.24613000  1.0 -0.5691982297
O  O3  1  0.13536000  0.50000000  0.75387000  1.0 -0.5691982297
O  O4  1  0.86464000  0.50000000  0.24613000  1.0 -0.5691982297
O  O5  1  0.75387000  0.86464000  0.50000000  1.0 -0.5691982297
O  O6  1  0.24613000  0.13536000  0.50000000  1.0 -0.5691982297
O  O7  1  0.75387000  0.13536000  0.50000000  1.0 -0.5691982297
O  O8  1  0.24613000  0.86464000  0.50000000  1.0 -0.5691982297
O  O9  1  0.50000000  0.75387000  0.86464000  1.0 -0.5691982297
O  O10  1  0.50000000  0.24613000  0.13536000  1.0 -0.5691982297
O  O11  1  0.50000000  0.75387000  0.13536000  1.0 -0.5691982297
O  O12  1  0.50000000  0.24613000  0.86464000  1.0 -0.5691982297
O  O13  1  0.50000000  0.86464000  0.24613000  1.0 -0.5691982297
O  O14  1  0.50000000  0.13536000  0.75387000  1.0 -0.5691982297
O  O15  1  0.50000000  0.13536000  0.24613000  1.0 -0.5691982297
O  O16  1  0.50000000  0.86464000  0.75387000  1.0 -0.5691982297
O  O17  1  0.86464000  0.75387000  0.50000000  1.0 -0.5691982297
O  O18  1  0.13536000  0.24613000  0.50000000  1.0 -0.5691982297
O  O19  1  0.13536000  0.75387000  0.50000000  1.0 -0.5691982297
O  O20  1  0.86464000  0.24613000  0.50000000  1.0 -0.5691982297
O  O21  1  0.75387000  0.50000000  0.13536000  1.0 -0.5691982297
O  O22  1  0.24613000  0.50000000  0.86464000  1.0 -0.5691982297
O  O23  1  0.75387000  0.50000000  0.86464000  1.0 -0.5691982297
O  O24  1  0.24613000  0.50000000  0.13536000  1.0 -0.5691982297
O  O25  1  0.36464000  0.00000000  0.25387000  1.0 -0.5691982297
O  O26  1  0.63536000  0.00000000  0.74613000  1.0 -0.5691982297
O  O27  1  0.63536000  0.00000000  0.25387000  1.0 -0.5691982297
O  O28  1  0.36464000  0.00000000  0.74613000  1.0 -0.5691982297
O  O29  1  0.25387000  0.36464000  0.00000000  1.0 -0.5691982297
O  O30  1  0.74613000  0.63536000  0.00000000  1.0 -0.5691982297
O  O31  1  0.25387000  0.63536000  0.00000000  1.0 -0.5691982297
O  O32  1  0.74613000  0.36464000  0.00000000  1.0 -0.5691982297
O  O33  1  0.00000000  0.25387000  0.36464000  1.0 -0.5691982297
O  O34  1  0.00000000  0.74613000  0.63536000  1.0 -0.5691982297
O  O35  1  0.00000000  0.25387000  0.63536000  1.0 -0.5691982297
O  O36  1  0.00000000  0.74613000  0.36464000  1.0 -0.5691982297
O  O37  1  0.00000000  0.36464000  0.74613000  1.0 -0.5691982297
O  O38  1  0.00000000  0.63536000  0.25387000  1.0 -0.5691982297
O  O39  1  0.00000000  0.63536000  0.74613000  1.0 -0.5691982297
O  O40  1  0.00000000  0.36464000  0.25387000  1.0 -0.5691982297
O  O41  1  0.36464000  0.25387000  0.00000000  1.0 -0.5691982297
O  O42  1  0.63536000  0.74613000  0.00000000  1.0 -0.5691982297
O  O43  1  0.63536000  0.25387000  0.00000000  1.0 -0.5691982297
O  O44  1  0.36464000  0.74613000  0.00000000  1.0 -0.5691982297
O  O45  1  0.25387000  0.00000000  0.63536000  1.0 -0.5691982297
O  O46  1  0.74613000  0.00000000  0.36464000  1.0 -0.5691982297
O  O47  1  0.25387000  0.00000000  0.36464000  1.0 -0.5691982297
O  O48  1  0.74613000  0.00000000  0.63536000  1.0 -0.5691982297
O  O49  1  0.00000000  0.40371000  0.40371000  1.0 -0.6917821293
O  O50  1  0.00000000  0.59629000  0.59629000  1.0 -0.6917821293
O  O51  1  0.00000000  0.59629000  0.40371000  1.0 -0.6917821293
O  O52  1  0.00000000  0.40371000  0.59629000  1.0 -0.6917821293
O  O53  1  0.40371000  0.00000000  0.40371000  1.0 -0.6917821293
O  O54  1  0.59629000  0.00000000  0.59629000  1.0 -0.6917821293
O  O55  1  0.40371000  0.00000000  0.59629000  1.0 -0.6917821293
O  O56  1  0.59629000  0.00000000  0.40371000  1.0 -0.6917821293
O  O57  1  0.40371000  0.40371000  0.00000000  1.0 -0.6917821293
O  O58  1  0.59629000  0.59629000  0.00000000  1.0 -0.6917821293
O  O59  1  0.59629000  0.40371000  0.00000000  1.0 -0.6917821293
O  O60  1  0.40371000  0.59629000  0.00000000  1.0 -0.6917821293
O  O61  1  0.50000000  0.90371000  0.90371000  1.0 -0.6917821293
O  O62  1  0.50000000  0.09629000  0.09629000  1.0 -0.6917821293
O  O63  1  0.50000000  0.09629000  0.90371000  1.0 -0.6917821293
O  O64  1  0.50000000  0.90371000  0.09629000  1.0 -0.6917821293
O  O65  1  0.90371000  0.50000000  0.90371000  1.0 -0.6917821293
O  O66  1  0.09629000  0.50000000  0.09629000  1.0 -0.6917821293
O  O67  1  0.90371000  0.50000000  0.09629000  1.0 -0.6917821293
O  O68  1  0.09629000  0.50000000  0.90371000  1.0 -0.6917821293
O  O69  1  0.90371000  0.90371000  0.50000000  1.0 -0.6917821293
O  O70  1  0.09629000  0.09629000  0.50000000  1.0 -0.6917821293
O  O71  1  0.09629000  0.90371000  0.50000000  1.0 -0.6917821293
O  O72  1  0.90371000  0.09629000  0.50000000  1.0 -0.6917821293
