# DDEC6 charges by PACMAN v1.1 (https://github.com/mtap-research/PACMAN-charge/)
data_WABWAY_ion_pacman
_symmetry_space_group_name_H-M   'P 1'
_cell_length_a   12.48060000
_cell_length_b   12.48060000
_cell_length_c   12.48060000
_cell_angle_alpha   109.47100000
_cell_angle_beta   109.47100000
_cell_angle_gamma   109.47100000
_symmetry_Int_Tables_number   1
_chemical_formula_structural   Na3Cu6H48C20(N4O7)6
_chemical_formula_sum   'Na3 Cu6 H48 C20 N24 O42'
_cell_volume   1496.53903763
_cell_formula_units_Z   1
loop_
 _symmetry_equiv_pos_site_id
 _symmetry_equiv_pos_as_xyz
  1  'x, y, z'
loop_
 _atom_site_type_symbol
 _atom_site_label
 _atom_site_symmetry_multiplicity
 _atom_site_fract_x
 _atom_site_fract_y
 _atom_site_fract_z
 _atom_site_occupancy
 _atom_site_charge
Na  Na1  1  0.50000000  0.50000000  0.00000000  1.0 0.9037852011
Na  Na2  1  0.00000000  0.50000000  0.50000000  1.0 0.9037852011
Na  Na3  1  0.50000000  0.00000000  0.50000000  1.0 0.9037852011
Cu  Cu1  1  0.75000000  0.50000000  0.25000000  1.0 0.907171639
Cu  Cu2  1  0.25000000  0.75000000  0.50000000  1.0 0.907171639
Cu  Cu3  1  0.50000000  0.25000000  0.75000000  1.0 0.907171639
Cu  Cu4  1  0.50000000  0.75000000  0.25000000  1.0 0.907171639
Cu  Cu5  1  0.75000000  0.25000000  0.50000000  1.0 0.907171639
Cu  Cu6  1  0.25000000  0.50000000  0.75000000  1.0 0.907171639
H  H1  1  0.54110000  0.61430000  0.72940000  1.0 0.3391092739
H  H2  1  0.61430000  0.72940000  0.54110000  1.0 0.3391092739
H  H3  1  0.72940000  0.54110000  0.61430000  1.0 0.3391092739
H  H4  1  0.61430000  0.54110000  0.72940000  1.0 0.3391092739
H  H5  1  0.72940000  0.61430000  0.54110000  1.0 0.3391092739
H  H6  1  0.54110000  0.72940000  0.61430000  1.0 0.3391092739
H  H7  1  0.61430000  0.88490000  0.07320000  1.0 0.3391092739
H  H8  1  0.72940000  0.18830000  0.11510000  1.0 0.3391092739
H  H9  1  0.54110000  0.92680000  0.81170000  1.0 0.3391092739
H  H10  1  0.54110000  0.81170000  0.92680000  1.0 0.3391092739
H  H11  1  0.61430000  0.07320000  0.88490000  1.0 0.3391092739
H  H12  1  0.72940000  0.11510000  0.18830000  1.0 0.3391092739
H  H13  1  0.81170000  0.54110000  0.92680000  1.0 0.3391092739
H  H14  1  0.07320000  0.61430000  0.88490000  1.0 0.3391092739
H  H15  1  0.11510000  0.72940000  0.18830000  1.0 0.3391092739
H  H16  1  0.88490000  0.61430000  0.07320000  1.0 0.3391092739
H  H17  1  0.18830000  0.72940000  0.11510000  1.0 0.3391092739
H  H18  1  0.92680000  0.54110000  0.81170000  1.0 0.3391092739
H  H19  1  0.18830000  0.11510000  0.72940000  1.0 0.3391092739
H  H20  1  0.92680000  0.81170000  0.54110000  1.0 0.3391092739
H  H21  1  0.88490000  0.07320000  0.61430000  1.0 0.3391092739
H  H22  1  0.11510000  0.18830000  0.72940000  1.0 0.3391092739
H  H23  1  0.81170000  0.92680000  0.54110000  1.0 0.3391092739
H  H24  1  0.07320000  0.88490000  0.61430000  1.0 0.3391092739
H  H25  1  0.45890000  0.18830000  0.07320000  1.0 0.3391092739
H  H26  1  0.38570000  0.92680000  0.11510000  1.0 0.3391092739
H  H27  1  0.27060000  0.88490000  0.81170000  1.0 0.3391092739
H  H28  1  0.38570000  0.11510000  0.92680000  1.0 0.3391092739
H  H29  1  0.27060000  0.81170000  0.88490000  1.0 0.3391092739
H  H30  1  0.45890000  0.07320000  0.18830000  1.0 0.3391092739
H  H31  1  0.11510000  0.38570000  0.92680000  1.0 0.3391092739
H  H32  1  0.81170000  0.27060000  0.88490000  1.0 0.3391092739
H  H33  1  0.07320000  0.45890000  0.18830000  1.0 0.3391092739
H  H34  1  0.18830000  0.45890000  0.07320000  1.0 0.3391092739
H  H35  1  0.92680000  0.38570000  0.11510000  1.0 0.3391092739
H  H36  1  0.88490000  0.27060000  0.81170000  1.0 0.3391092739
H  H37  1  0.88490000  0.81170000  0.27060000  1.0 0.3391092739
H  H38  1  0.18830000  0.07320000  0.45890000  1.0 0.3391092739
H  H39  1  0.92680000  0.11510000  0.38570000  1.0 0.3391092739
H  H40  1  0.81170000  0.88490000  0.27060000  1.0 0.3391092739
H  H41  1  0.07320000  0.18830000  0.45890000  1.0 0.3391092739
H  H42  1  0.11510000  0.92680000  0.38570000  1.0 0.3391092739
H  H43  1  0.38570000  0.45890000  0.27060000  1.0 0.3391092739
H  H44  1  0.27060000  0.38570000  0.45890000  1.0 0.3391092739
H  H45  1  0.45890000  0.27060000  0.38570000  1.0 0.3391092739
H  H46  1  0.45890000  0.38570000  0.27060000  1.0 0.3391092739
H  H47  1  0.38570000  0.27060000  0.45890000  1.0 0.3391092739
H  H48  1  0.27060000  0.45890000  0.38570000  1.0 0.3391092739
C  C1  1  0.66630000  0.66630000  0.33260000  1.0 0.8081347815
C  C2  1  0.33260000  0.66630000  0.66630000  1.0 0.8081347815
C  C3  1  0.66630000  0.33260000  0.66630000  1.0 0.8081347815
C  C4  1  0.33370000  0.66630000  0.00000000  1.0 0.8081347815
C  C5  1  0.66630000  0.33370000  0.00000000  1.0 0.8081347815
C  C6  1  0.33370000  0.00000000  0.66630000  1.0 0.8081347815
C  C7  1  0.66630000  0.00000000  0.33370000  1.0 0.8081347815
C  C8  1  0.00000000  0.33370000  0.66630000  1.0 0.8081347815
C  C9  1  0.00000000  0.66630000  0.33370000  1.0 0.8081347815
C  C10  1  0.33370000  0.33370000  0.66740000  1.0 0.8081347815
C  C11  1  0.66740000  0.33370000  0.33370000  1.0 0.8081347815
C  C12  1  0.33370000  0.66740000  0.33370000  1.0 0.8081347815
C  C13  1  0.63340000  0.63340000  0.63340000  1.0 0.6769831301
C  C14  1  0.63340000  0.00000000  0.00000000  1.0 0.6769831301
C  C15  1  0.00000000  0.63340000  0.00000000  1.0 0.6769831301
C  C16  1  0.00000000  0.00000000  0.63340000  1.0 0.6769831301
C  C17  1  0.36660000  0.00000000  0.00000000  1.0 0.6769831301
C  C18  1  0.00000000  0.36660000  0.00000000  1.0 0.6769831301
C  C19  1  0.00000000  0.00000000  0.36660000  1.0 0.6769831301
C  C20  1  0.36660000  0.36660000  0.36660000  1.0 0.6769831301
N  N1  1  0.59572000  0.59572000  0.70924000  1.0 -0.6061496601
N  N2  1  0.59572000  0.70924000  0.59572000  1.0 -0.6061496601
N  N3  1  0.70924000  0.59572000  0.59572000  1.0 -0.6061496601
N  N4  1  0.59572000  0.88648000  0.00000000  1.0 -0.6061496601
N  N5  1  0.70924000  0.11352000  0.11352000  1.0 -0.6061496601
N  N6  1  0.59572000  0.00000000  0.88648000  1.0 -0.6061496601
N  N7  1  0.88648000  0.59572000  0.00000000  1.0 -0.6061496601
N  N8  1  0.00000000  0.59572000  0.88648000  1.0 -0.6061496601
N  N9  1  0.11352000  0.70924000  0.11352000  1.0 -0.6061496601
N  N10  1  0.11352000  0.11352000  0.70924000  1.0 -0.6061496601
N  N11  1  0.00000000  0.88648000  0.59572000  1.0 -0.6061496601
N  N12  1  0.88648000  0.00000000  0.59572000  1.0 -0.6061496601
N  N13  1  0.40428000  0.11352000  0.00000000  1.0 -0.6061496601
N  N14  1  0.40428000  0.00000000  0.11352000  1.0 -0.6061496601
N  N15  1  0.29076000  0.88648000  0.88648000  1.0 -0.6061496601
N  N16  1  0.11352000  0.40428000  0.00000000  1.0 -0.6061496601
N  N17  1  0.88648000  0.29076000  0.88648000  1.0 -0.6061496601
N  N18  1  0.00000000  0.40428000  0.11352000  1.0 -0.6061496601
N  N19  1  0.88648000  0.88648000  0.29076000  1.0 -0.6061496601
N  N20  1  0.11352000  0.00000000  0.40428000  1.0 -0.6061496601
N  N21  1  0.00000000  0.11352000  0.40428000  1.0 -0.6061496601
N  N22  1  0.40428000  0.40428000  0.29076000  1.0 -0.6061496601
N  N23  1  0.29076000  0.40428000  0.40428000  1.0 -0.6061496601
N  N24  1  0.40428000  0.29076000  0.40428000  1.0 -0.6061496601
O  O1  1  0.33400000  0.33400000  0.00000000  1.0 -0.375896412
O  O2  1  0.00000000  0.33400000  0.33400000  1.0 -0.3718050895
O  O3  1  0.33400000  0.00000000  0.33400000  1.0 -0.3718050895
O  O4  1  0.66600000  0.66600000  0.00000000  1.0 -0.375896412
O  O5  1  0.66600000  0.00000000  0.66600000  1.0 -0.3718050895
O  O6  1  0.00000000  0.66600000  0.66600000  1.0 -0.375896412
O  O7  1  0.75230000  0.64180000  0.39410000  1.0 -0.6061496601
O  O8  1  0.39410000  0.75230000  0.64180000  1.0 -0.6061496601
O  O9  1  0.64180000  0.39410000  0.75230000  1.0 -0.6061496601
O  O10  1  0.64180000  0.75230000  0.39410000  1.0 -0.6061496601
O  O11  1  0.35820000  0.75230000  0.11050000  1.0 -0.6061496601
O  O12  1  0.64180000  0.24770000  0.88950000  1.0 -0.6061496601
O  O13  1  0.24770000  0.88950000  0.64180000  1.0 -0.6061496601
O  O14  1  0.75230000  0.11050000  0.35820000  1.0 -0.6061496601
O  O15  1  0.75230000  0.39410000  0.64180000  1.0 -0.6061496601
O  O16  1  0.11050000  0.35820000  0.75230000  1.0 -0.6061496601
O  O17  1  0.88950000  0.64180000  0.24770000  1.0 -0.6061496601
O  O18  1  0.39410000  0.64180000  0.75230000  1.0 -0.6061496601
O  O19  1  0.24770000  0.35820000  0.60590000  1.0 -0.6061496601
O  O20  1  0.75230000  0.35820000  0.11050000  1.0 -0.6061496601
O  O21  1  0.24770000  0.64180000  0.88950000  1.0 -0.6061496601
O  O22  1  0.60590000  0.24770000  0.35820000  1.0 -0.6061496601
O  O23  1  0.11050000  0.75230000  0.35820000  1.0 -0.6061496601
O  O24  1  0.88950000  0.24770000  0.64180000  1.0 -0.6061496601
O  O25  1  0.35820000  0.60590000  0.24770000  1.0 -0.6061496601
O  O26  1  0.35820000  0.11050000  0.75230000  1.0 -0.6061496601
O  O27  1  0.64180000  0.88950000  0.24770000  1.0 -0.6061496601
O  O28  1  0.35820000  0.24770000  0.60590000  1.0 -0.6061496601
O  O29  1  0.24770000  0.60590000  0.35820000  1.0 -0.6061496601
O  O30  1  0.60590000  0.35820000  0.24770000  1.0 -0.6061496601
O  O31  1  0.60490000  0.60490000  0.20980000  1.0 -0.6839020677
O  O32  1  0.20980000  0.60490000  0.60490000  1.0 -0.6839020677
O  O33  1  0.60490000  0.20980000  0.60490000  1.0 -0.6839020677
O  O34  1  0.39510000  0.60490000  0.00000000  1.0 -0.6839020677
O  O35  1  0.60490000  0.39510000  0.00000000  1.0 -0.6839020677
O  O36  1  0.39510000  0.00000000  0.60490000  1.0 -0.6839020677
O  O37  1  0.60490000  0.00000000  0.39510000  1.0 -0.6839020677
O  O38  1  0.00000000  0.39510000  0.60490000  1.0 -0.6839020677
O  O39  1  0.00000000  0.60490000  0.39510000  1.0 -0.6839020677
O  O40  1  0.39510000  0.39510000  0.79020000  1.0 -0.6839020677
O  O41  1  0.79020000  0.39510000  0.39510000  1.0 -0.6839020677
O  O42  1  0.39510000  0.79020000  0.39510000  1.0 -0.6839020677
