# DDEC6 charges by PACMAN v1.1 (https://github.com/mtap-research/PACMAN-charge/)
data_WAFKAQ_FSR_pacman
_symmetry_space_group_name_H-M   'P 1'
_cell_length_a   14.35470000
_cell_length_b   14.35470000
_cell_length_c   14.35470000
_cell_angle_alpha   116.70800000
_cell_angle_beta   116.70800000
_cell_angle_gamma   95.80330000
_symmetry_Int_Tables_number   1
_chemical_formula_structural   ZnH12C16NO4
_chemical_formula_sum   'Zn4 H48 C64 N4 O16'
_cell_volume   2183.49135067
_cell_formula_units_Z   4
loop_
 _symmetry_equiv_pos_site_id
 _symmetry_equiv_pos_as_xyz
  1  'x, y, z'
loop_
 _atom_site_type_symbol
 _atom_site_label
 _atom_site_symmetry_multiplicity
 _atom_site_fract_x
 _atom_site_fract_y
 _atom_site_fract_z
 _atom_site_occupancy
 _atom_site_charge
Zn  Zn1  1  0.57669000  0.57669000  0.00000000  1.0 0.7639228823
Zn  Zn2  1  0.92331000  0.92331000  0.00000000  1.0 0.7639228823
Zn  Zn3  1  0.42331000  0.42331000  0.00000000  1.0 0.7650445225
Zn  Zn4  1  0.07669000  0.07669000  0.00000000  1.0 0.7639228823
H  H1  1  0.75340000  0.84660000  0.39080000  1.0 0.1196774058
H  H2  1  0.84660000  0.45580000  0.09320000  1.0 0.1196774058
H  H3  1  0.36260000  0.75340000  0.90680000  1.0 0.1196774058
H  H4  1  0.13740000  0.04420000  0.39080000  1.0 0.1196774058
H  H5  1  0.45580000  0.36260000  0.60920000  1.0 0.1196774058
H  H6  1  0.04420000  0.65340000  0.90680000  1.0 0.1196774058
H  H7  1  0.74660000  0.13740000  0.09320000  1.0 0.1196774058
H  H8  1  0.65340000  0.74660000  0.60920000  1.0 0.1196774058
H  H9  1  0.24660000  0.15340000  0.60920000  1.0 0.1196774058
H  H10  1  0.15340000  0.54420000  0.90680000  1.0 0.1196774058
H  H11  1  0.63740000  0.24660000  0.09320000  1.0 0.1196774058
H  H12  1  0.86260000  0.95580000  0.60920000  1.0 0.1196774058
H  H13  1  0.54420000  0.63740000  0.39080000  1.0 0.1196774058
H  H14  1  0.95580000  0.34660000  0.09320000  1.0 0.1196774058
H  H15  1  0.25340000  0.86260000  0.90680000  1.0 0.1196774058
H  H16  1  0.34660000  0.25340000  0.39080000  1.0 0.1196774058
H  H17  1  0.57500000  0.64800000  0.83300000  1.0 0.0804469225
H  H18  1  0.64800000  0.81500000  0.07300000  1.0 0.0804469225
H  H19  1  0.74200000  0.57500000  0.92700000  1.0 0.0804469225
H  H20  1  0.75800000  0.68500000  0.83300000  1.0 0.0804469225
H  H21  1  0.81500000  0.74200000  0.16700000  1.0 0.0804469225
H  H22  1  0.68500000  0.85200000  0.92700000  1.0 0.0804469225
H  H23  1  0.92500000  0.75800000  0.07300000  1.0 0.0804469225
H  H24  1  0.85200000  0.92500000  0.16700000  1.0 0.0804469225
H  H25  1  0.42500000  0.35200000  0.16700000  1.0 0.0804469225
H  H26  1  0.35200000  0.18500000  0.92700000  1.0 0.0804469225
H  H27  1  0.25800000  0.42500000  0.07300000  1.0 0.0804469225
H  H28  1  0.24200000  0.31500000  0.16700000  1.0 0.0804469225
H  H29  1  0.18500000  0.25800000  0.83300000  1.0 0.0804469225
H  H30  1  0.31500000  0.14800000  0.07300000  1.0 0.0804469225
H  H31  1  0.07500000  0.24200000  0.92700000  1.0 0.0804469225
H  H32  1  0.14800000  0.07500000  0.83300000  1.0 0.0804469225
H  H33  1  0.66900000  0.58600000  0.85100000  1.0 0.0804469225
H  H34  1  0.58600000  0.73500000  0.91700000  1.0 0.0804469225
H  H35  1  0.81800000  0.66900000  0.08300000  1.0 0.0804469225
H  H36  1  0.68200000  0.76500000  0.85100000  1.0 0.0804469225
H  H37  1  0.73500000  0.81800000  0.14900000  1.0 0.0804469225
H  H38  1  0.76500000  0.91400000  0.08300000  1.0 0.0804469225
H  H39  1  0.83100000  0.68200000  0.91700000  1.0 0.0804469225
H  H40  1  0.91400000  0.83100000  0.14900000  1.0 0.0804469225
H  H41  1  0.33100000  0.41400000  0.14900000  1.0 0.0804469225
H  H42  1  0.41400000  0.26500000  0.08300000  1.0 0.0804469225
H  H43  1  0.18200000  0.33100000  0.91700000  1.0 0.0804469225
H  H44  1  0.31800000  0.23500000  0.14900000  1.0 0.0804469225
H  H45  1  0.26500000  0.18200000  0.85100000  1.0 0.0804469225
H  H46  1  0.23500000  0.08600000  0.91700000  1.0 0.0804469225
H  H47  1  0.16900000  0.31800000  0.08300000  1.0 0.0804469225
H  H48  1  0.08600000  0.16900000  0.85100000  1.0 0.0804469225
C  C1  1  0.64088000  0.72869000  0.36957000  1.0 0.0165832071
C  C2  1  0.72869000  0.35912000  0.08781000  1.0 0.0165832071
C  C3  1  0.27131000  0.64088000  0.91219000  1.0 0.0165832071
C  C4  1  0.22869000  0.14088000  0.36957000  1.0 0.0165832071
C  C5  1  0.35912000  0.27131000  0.63043000  1.0 0.0165832071
C  C6  1  0.14088000  0.77131000  0.91219000  1.0 0.0165832071
C  C7  1  0.85912000  0.22869000  0.08781000  1.0 0.0165832071
C  C8  1  0.77131000  0.85912000  0.63043000  1.0 0.0165832071
C  C9  1  0.57878000  0.65046000  0.22924000  1.0 0.5573725226
C  C10  1  0.65046000  0.42122000  0.07168000  1.0 0.5573725226
C  C11  1  0.34954000  0.57878000  0.92832000  1.0 0.5573725226
C  C12  1  0.15046000  0.07878000  0.22924000  1.0 0.5573725226
C  C13  1  0.42122000  0.34954000  0.77076000  1.0 0.5573725226
C  C14  1  0.07878000  0.84954000  0.92832000  1.0 0.5573725226
C  C15  1  0.92122000  0.15046000  0.07168000  1.0 0.5573725226
C  C16  1  0.84954000  0.92122000  0.77076000  1.0 0.5573725226
C  C17  1  0.73420000  0.82522000  0.43480000  1.0 -0.1180508677
C  C18  1  0.82522000  0.39042000  0.09102000  1.0 -0.1180508677
C  C19  1  0.29940000  0.73420000  0.90898000  1.0 -0.1180508677
C  C20  1  0.20060000  0.10958000  0.43480000  1.0 -0.1180508677
C  C21  1  0.39042000  0.29940000  0.56520000  1.0 -0.1180508677
C  C22  1  0.10958000  0.67478000  0.90898000  1.0 -0.1180508677
C  C23  1  0.76580000  0.20060000  0.09102000  1.0 -0.1180508677
C  C24  1  0.67478000  0.76580000  0.56520000  1.0 -0.1180508677
C  C25  1  0.26580000  0.17478000  0.56520000  1.0 -0.1180508677
C  C26  1  0.17478000  0.60958000  0.90898000  1.0 -0.1180508677
C  C27  1  0.70060000  0.26580000  0.09102000  1.0 -0.1180508677
C  C28  1  0.79940000  0.89042000  0.56520000  1.0 -0.1180508677
C  C29  1  0.60958000  0.70060000  0.43480000  1.0 -0.1180508677
C  C30  1  0.89042000  0.32522000  0.09102000  1.0 -0.1180508677
C  C31  1  0.23420000  0.79940000  0.90898000  1.0 -0.1180508677
C  C32  1  0.32522000  0.23420000  0.43480000  1.0 -0.1180508677
C  C33  1  0.63310000  0.66160000  0.87750000  1.0 -0.0584878747
C  C34  1  0.66160000  0.78410000  0.02850000  1.0 -0.0584878747
C  C35  1  0.75560000  0.63310000  0.97150000  1.0 -0.0584878747
C  C36  1  0.74440000  0.71590000  0.87750000  1.0 -0.0584878747
C  C37  1  0.78410000  0.75560000  0.12250000  1.0 -0.0584878747
C  C38  1  0.71590000  0.83840000  0.97150000  1.0 -0.0584878747
C  C39  1  0.86690000  0.74440000  0.02850000  1.0 -0.0584878747
C  C40  1  0.83840000  0.86690000  0.12250000  1.0 -0.0584878747
C  C41  1  0.36690000  0.33840000  0.12250000  1.0 -0.0584878747
C  C42  1  0.33840000  0.21590000  0.97150000  1.0 -0.0584878747
C  C43  1  0.24440000  0.36690000  0.02850000  1.0 -0.0584878747
C  C44  1  0.25560000  0.28410000  0.12250000  1.0 -0.0584878747
C  C45  1  0.21590000  0.24440000  0.87750000  1.0 -0.0584878747
C  C46  1  0.28410000  0.16160000  0.02850000  1.0 -0.0584878747
C  C47  1  0.13310000  0.25560000  0.97150000  1.0 -0.0584878747
C  C48  1  0.16160000  0.13310000  0.87750000  1.0 -0.0584878747
C  C49  1  0.62480000  0.73610000  0.93870000  1.0 -0.0290859761
C  C50  1  0.73610000  0.79740000  0.11130000  1.0 -0.0290859761
C  C51  1  0.68610000  0.62480000  0.88870000  1.0 -0.0290859761
C  C52  1  0.81390000  0.70260000  0.93870000  1.0 -0.0290859761
C  C53  1  0.79740000  0.68610000  0.06130000  1.0 -0.0290859761
C  C54  1  0.70260000  0.76390000  0.88870000  1.0 -0.0290859761
C  C55  1  0.87520000  0.81390000  0.11130000  1.0 -0.0290859761
C  C56  1  0.76390000  0.87520000  0.06130000  1.0 -0.0290859761
C  C57  1  0.37520000  0.26390000  0.06130000  1.0 -0.0290859761
C  C58  1  0.26390000  0.20260000  0.88870000  1.0 -0.0290859761
C  C59  1  0.31390000  0.37520000  0.11130000  1.0 -0.0290859761
C  C60  1  0.18610000  0.29740000  0.06130000  1.0 -0.0290859761
C  C61  1  0.20260000  0.31390000  0.93870000  1.0 -0.0290859761
C  C62  1  0.29740000  0.23610000  0.11130000  1.0 -0.0290859761
C  C63  1  0.12480000  0.18610000  0.88870000  1.0 -0.0290859761
C  C64  1  0.23610000  0.12480000  0.93870000  1.0 -0.0290859761
N  N1  1  0.68289000  0.68289000  0.00000000  1.0 -0.1127000404
N  N2  1  0.81711000  0.81711000  0.00000000  1.0 -0.1127000404
N  N3  1  0.31711000  0.31711000  0.00000000  1.0 -0.1127000404
N  N4  1  0.18289000  0.18289000  0.00000000  1.0 -0.1127000404
O  O1  1  0.61326000  0.67803000  0.17605000  1.0 -0.5246545413
O  O2  1  0.67803000  0.50198000  0.06477000  1.0 -0.5246545413
O  O3  1  0.43721000  0.61326000  0.93523000  1.0 -0.5246545413
O  O4  1  0.06279000  0.99802000  0.17605000  1.0 -0.525431442
O  O5  1  0.50198000  0.43721000  0.82395000  1.0 -0.5246545413
O  O6  1  0.99802000  0.82197000  0.93523000  1.0 -0.525431442
O  O7  1  0.88674000  0.06279000  0.06477000  1.0 -0.5246545413
O  O8  1  0.82197000  0.88674000  0.82395000  1.0 -0.525431442
O  O9  1  0.38674000  0.32197000  0.82395000  1.0 -0.5246545413
O  O10  1  0.32197000  0.49802000  0.93523000  1.0 -0.5246545413
O  O11  1  0.56279000  0.38674000  0.06477000  1.0 -0.5246545413
O  O12  1  0.93721000  0.00198000  0.82395000  1.0 -0.5246545413
O  O13  1  0.49802000  0.56279000  0.17605000  1.0 -0.5246545413
O  O14  1  0.00198000  0.17803000  0.06477000  1.0 -0.5246545413
O  O15  1  0.11326000  0.93721000  0.93523000  1.0 -0.5246545413
O  O16  1  0.17803000  0.11326000  0.17605000  1.0 -0.5246545413
