# DDEC6 charges by PACMAN v1.1 (https://github.com/mtap-research/PACMAN-charge/)
data_WAFKIY_FSR_pacman
_symmetry_space_group_name_H-M   'P 1'
_cell_length_a   10.88030000
_cell_length_b   10.88030000
_cell_length_c   9.67150000
_cell_angle_alpha   90.00000000
_cell_angle_beta   90.00000000
_cell_angle_gamma   103.30800000
_symmetry_Int_Tables_number   1
_chemical_formula_structural   ZnH16C14NO4
_chemical_formula_sum   'Zn2 H32 C28 N2 O8'
_cell_volume   1114.17628343
_cell_formula_units_Z   2
loop_
 _symmetry_equiv_pos_site_id
 _symmetry_equiv_pos_as_xyz
  1  'x, y, z'
loop_
 _atom_site_type_symbol
 _atom_site_label
 _atom_site_symmetry_multiplicity
 _atom_site_fract_x
 _atom_site_fract_y
 _atom_site_fract_z
 _atom_site_occupancy
 _atom_site_charge
Zn  Zn1  1  0.00000000  0.00000000  0.15238000  1.0 0.7580128992
Zn  Zn2  1  0.00000000  0.00000000  0.84762000  1.0 0.7580128992
H  H1  1  0.99920000  0.39340000  0.20700000  1.0 0.1250892887
H  H2  1  0.00080000  0.60660000  0.20700000  1.0 0.1250892887
H  H3  1  0.60660000  0.00080000  0.79300000  1.0 0.1250892887
H  H4  1  0.39340000  0.99920000  0.79300000  1.0 0.1250892887
H  H5  1  0.00080000  0.60660000  0.79300000  1.0 0.1250892887
H  H6  1  0.99920000  0.39340000  0.79300000  1.0 0.1250892887
H  H7  1  0.39340000  0.99920000  0.20700000  1.0 0.1250892887
H  H8  1  0.60660000  0.00080000  0.20700000  1.0 0.1250892887
H  H9  1  0.90000000  0.13240000  0.38680000  1.0 0.0959891761
H  H10  1  0.10000000  0.86760000  0.38680000  1.0 0.0959891761
H  H11  1  0.86760000  0.10000000  0.61320000  1.0 0.0959891761
H  H12  1  0.13240000  0.90000000  0.61320000  1.0 0.0959891761
H  H13  1  0.10000000  0.86760000  0.61320000  1.0 0.0959891761
H  H14  1  0.90000000  0.13240000  0.61320000  1.0 0.0959891761
H  H15  1  0.13240000  0.90000000  0.38680000  1.0 0.0959891761
H  H16  1  0.86760000  0.10000000  0.38680000  1.0 0.0959891761
H  H17  1  0.04800000  0.18840000  0.38680000  1.0 0.0867379802
H  H18  1  0.95200000  0.81160000  0.38680000  1.0 0.0867379802
H  H19  1  0.81160000  0.95200000  0.61320000  1.0 0.0867379802
H  H20  1  0.18840000  0.04800000  0.61320000  1.0 0.0867379802
H  H21  1  0.95200000  0.81160000  0.61320000  1.0 0.0867379802
H  H22  1  0.04800000  0.18840000  0.61320000  1.0 0.0867379802
H  H23  1  0.18840000  0.04800000  0.38680000  1.0 0.0867379802
H  H24  1  0.81160000  0.95200000  0.38680000  1.0 0.0867379802
H  H25  1  0.09010000  0.18310000  0.38440000  1.0 0.0867379802
H  H26  1  0.90990000  0.81690000  0.38440000  1.0 0.0867379802
H  H27  1  0.81690000  0.90990000  0.61560000  1.0 0.0867379802
H  H28  1  0.18310000  0.09010000  0.61560000  1.0 0.0867379802
H  H29  1  0.90990000  0.81690000  0.61560000  1.0 0.0867379802
H  H30  1  0.09010000  0.18310000  0.61560000  1.0 0.0867379802
H  H31  1  0.18310000  0.09010000  0.38440000  1.0 0.0867379802
H  H32  1  0.81690000  0.90990000  0.38440000  1.0 0.0867379802
C  C1  1  0.01600000  0.23740000  0.00000000  1.0 0.5574191297
C  C2  1  0.98400000  0.76260000  0.00000000  1.0 0.5574191297
C  C3  1  0.76260000  0.98400000  0.00000000  1.0 0.5574191297
C  C4  1  0.23740000  0.01600000  0.00000000  1.0 0.5574191297
C  C5  1  0.00710000  0.37370000  0.00000000  1.0 -0.0028885731
C  C6  1  0.99290000  0.62630000  0.00000000  1.0 -0.0028885731
C  C7  1  0.62630000  0.99290000  0.00000000  1.0 -0.0028885731
C  C8  1  0.37370000  0.00710000  0.00000000  1.0 -0.0028885731
C  C9  1  0.00130000  0.43670000  0.12260000  1.0 -0.1202962324
C  C10  1  0.99870000  0.56330000  0.12260000  1.0 -0.1202962324
C  C11  1  0.56330000  0.99870000  0.87740000  1.0 -0.1202962324
C  C12  1  0.43670000  0.00130000  0.87740000  1.0 -0.1202962324
C  C13  1  0.99870000  0.56330000  0.87740000  1.0 -0.1202962324
C  C14  1  0.00130000  0.43670000  0.87740000  1.0 -0.1202962324
C  C15  1  0.43670000  0.00130000  0.12260000  1.0 -0.1202962324
C  C16  1  0.56330000  0.99870000  0.12260000  1.0 -0.1202962324
C  C17  1  0.98080000  0.11880000  0.42050000  1.0 -0.1202962324
C  C18  1  0.01920000  0.88120000  0.42050000  1.0 -0.1202962324
C  C19  1  0.88120000  0.01920000  0.57950000  1.0 -0.1202962324
C  C20  1  0.11880000  0.98080000  0.57950000  1.0 -0.1202962324
C  C21  1  0.01920000  0.88120000  0.57950000  1.0 -0.1202962324
C  C22  1  0.98080000  0.11880000  0.57950000  1.0 -0.1202962324
C  C23  1  0.11880000  0.98080000  0.42050000  1.0 -0.1202962324
C  C24  1  0.88120000  0.01920000  0.42050000  1.0 -0.1202962324
C  C25  1  0.10170000  0.10170000  0.41840000  1.0 -0.1257759844
C  C26  1  0.89830000  0.89830000  0.41840000  1.0 -0.1257759844
C  C27  1  0.89830000  0.89830000  0.58160000  1.0 -0.1257759844
C  C28  1  0.10170000  0.10170000  0.58160000  1.0 -0.1257759844
N  N1  1  0.00000000  0.00000000  0.36630000  1.0 -0.0841829245
N  N2  1  0.00000000  0.00000000  0.63370000  1.0 -0.0841829245
O  O1  1  0.01990000  0.18670000  0.11510000  1.0 -0.5367967402
O  O2  1  0.98010000  0.81330000  0.11510000  1.0 -0.5367967402
O  O3  1  0.81330000  0.98010000  0.88490000  1.0 -0.5367967402
O  O4  1  0.18670000  0.01990000  0.88490000  1.0 -0.5367967402
O  O5  1  0.98010000  0.81330000  0.88490000  1.0 -0.5367967402
O  O6  1  0.01990000  0.18670000  0.88490000  1.0 -0.5367967402
O  O7  1  0.18670000  0.01990000  0.11510000  1.0 -0.5367967402
O  O8  1  0.81330000  0.98010000  0.11510000  1.0 -0.5367967402
