# DDEC6 charges by PACMAN v1.1 (https://github.com/mtap-research/PACMAN-charge/)
data_WAGQAY_ASR_pacman
_symmetry_space_group_name_H-M   'P 1'
_cell_length_a   25.49400000
_cell_length_b   25.49400000
_cell_length_c   25.49400000
_cell_angle_alpha   87.97440000
_cell_angle_beta   87.97440000
_cell_angle_gamma   87.97440000
_symmetry_Int_Tables_number   1
_chemical_formula_structural   Ni5H38(C31O7)2
_chemical_formula_sum   'Ni15 H114 C186 O42'
_cell_volume   16539.32539594
_cell_formula_units_Z   3
loop_
 _symmetry_equiv_pos_site_id
 _symmetry_equiv_pos_as_xyz
  1  'x, y, z'
loop_
 _atom_site_type_symbol
 _atom_site_label
 _atom_site_symmetry_multiplicity
 _atom_site_fract_x
 _atom_site_fract_y
 _atom_site_fract_z
 _atom_site_occupancy
 _atom_site_charge
Ni  Ni1  1  0.50000000  0.50000000  0.00000000  1.0 1.0196112098
Ni  Ni2  1  0.50000000  0.00000000  0.50000000  1.0 1.0196112098
Ni  Ni3  1  0.00000000  0.50000000  0.50000000  1.0 1.0196112098
Ni  Ni4  1  0.51042000  0.61196000  0.03095000  1.0 0.9974778089
Ni  Ni5  1  0.61196000  0.03095000  0.51042000  1.0 0.9974778089
Ni  Ni6  1  0.03095000  0.51042000  0.61196000  1.0 0.9974778089
Ni  Ni7  1  0.48958000  0.38804000  0.96905000  1.0 0.9974778089
Ni  Ni8  1  0.38804000  0.96905000  0.48958000  1.0 0.9974778089
Ni  Ni9  1  0.96905000  0.48958000  0.38804000  1.0 0.9974778089
Ni  Ni10  1  0.61196000  0.51042000  0.03092000  1.0 0.9974778089
Ni  Ni11  1  0.51042000  0.03092000  0.61196000  1.0 0.9974778089
Ni  Ni12  1  0.03092000  0.61196000  0.51042000  1.0 0.9948438905
Ni  Ni13  1  0.38804000  0.48958000  0.96908000  1.0 0.9974778089
Ni  Ni14  1  0.48958000  0.96908000  0.38804000  1.0 0.9974778089
Ni  Ni15  1  0.96908000  0.38804000  0.48958000  1.0 0.9974778089
H  H1  1  0.68840000  0.26760000  0.38060000  1.0 0.1001842544
H  H2  1  0.26760000  0.38060000  0.68840000  1.0 0.1001842544
H  H3  1  0.38060000  0.68840000  0.26760000  1.0 0.1001842544
H  H4  1  0.31160000  0.73240000  0.61940000  1.0 0.1001842544
H  H5  1  0.73240000  0.61940000  0.31160000  1.0 0.1001842544
H  H6  1  0.61940000  0.31160000  0.73240000  1.0 0.1001842544
H  H7  1  0.58350000  0.26720000  0.26750000  1.0 0.1103202906
H  H8  1  0.26720000  0.26750000  0.58350000  1.0 0.1103202906
H  H9  1  0.26750000  0.58350000  0.26720000  1.0 0.1103202906
H  H10  1  0.41650000  0.73280000  0.73250000  1.0 0.1103202906
H  H11  1  0.73280000  0.73250000  0.41650000  1.0 0.1103202906
H  H12  1  0.73250000  0.41650000  0.73280000  1.0 0.1103202906
H  H13  1  0.68820000  0.38070000  0.26770000  1.0 0.1001842544
H  H14  1  0.38070000  0.26770000  0.68820000  1.0 0.1001842544
H  H15  1  0.26770000  0.68820000  0.38070000  1.0 0.1001842544
H  H16  1  0.31180000  0.61930000  0.73230000  1.0 0.1001842544
H  H17  1  0.61930000  0.73230000  0.31180000  1.0 0.1001842544
H  H18  1  0.73230000  0.31180000  0.61930000  1.0 0.1001842544
H  H19  1  0.77270000  0.28360000  0.38350000  1.0 0.1001842544
H  H20  1  0.28360000  0.38350000  0.77270000  1.0 0.1001842544
H  H21  1  0.38350000  0.77270000  0.28360000  1.0 0.1001842544
H  H22  1  0.22730000  0.71640000  0.61650000  1.0 0.1001842544
H  H23  1  0.71640000  0.61650000  0.22730000  1.0 0.1001842544
H  H24  1  0.61650000  0.22730000  0.71640000  1.0 0.1001842544
H  H25  1  0.84560000  0.31570000  0.41860000  1.0 0.1103202906
H  H26  1  0.31570000  0.41860000  0.84560000  1.0 0.1103202906
H  H27  1  0.41860000  0.84560000  0.31570000  1.0 0.1103202906
H  H28  1  0.15440000  0.68430000  0.58140000  1.0 0.1103202906
H  H29  1  0.68430000  0.58140000  0.15440000  1.0 0.1103202906
H  H30  1  0.58140000  0.15440000  0.68430000  1.0 0.1103202906
H  H31  1  0.84670000  0.41730000  0.31560000  1.0 0.1103202906
H  H32  1  0.41730000  0.31560000  0.84670000  1.0 0.1103202906
H  H33  1  0.31560000  0.84670000  0.41730000  1.0 0.1103202906
H  H34  1  0.15330000  0.58270000  0.68440000  1.0 0.1103202906
H  H35  1  0.58270000  0.68440000  0.15330000  1.0 0.1103202906
H  H36  1  0.68440000  0.15330000  0.58270000  1.0 0.1103202906
H  H37  1  0.77180000  0.38510000  0.28380000  1.0 0.1001842544
H  H38  1  0.38510000  0.28380000  0.77180000  1.0 0.1001842544
H  H39  1  0.28380000  0.77180000  0.38510000  1.0 0.1001842544
H  H40  1  0.22820000  0.61490000  0.71620000  1.0 0.1001842544
H  H41  1  0.61490000  0.71620000  0.22820000  1.0 0.1001842544
H  H42  1  0.71620000  0.22820000  0.61490000  1.0 0.1001842544
H  H43  1  0.59360000  0.28320000  0.18080000  1.0 0.1103202906
H  H44  1  0.28320000  0.18080000  0.59360000  1.0 0.1103202906
H  H45  1  0.18080000  0.59360000  0.28320000  1.0 0.1103202906
H  H46  1  0.40640000  0.71680000  0.81920000  1.0 0.1103202906
H  H47  1  0.71680000  0.81920000  0.40640000  1.0 0.1103202906
H  H48  1  0.81920000  0.40640000  0.71680000  1.0 0.1103202906
H  H49  1  0.56240000  0.31610000  0.10110000  1.0 0.1103202906
H  H50  1  0.31610000  0.10110000  0.56240000  1.0 0.1103202906
H  H51  1  0.10110000  0.56240000  0.31610000  1.0 0.1103202906
H  H52  1  0.43760000  0.68390000  0.89890000  1.0 0.1103202906
H  H53  1  0.68390000  0.89890000  0.43760000  1.0 0.1103202906
H  H54  1  0.89890000  0.43760000  0.68390000  1.0 0.1103202906
H  H55  1  0.58560000  0.46180000  0.14700000  1.0 0.1103202906
H  H56  1  0.46180000  0.14700000  0.58560000  1.0 0.1103202906
H  H57  1  0.14700000  0.58560000  0.46180000  1.0 0.1103202906
H  H58  1  0.41440000  0.53820000  0.85300000  1.0 0.1103202906
H  H59  1  0.53820000  0.85300000  0.41440000  1.0 0.1103202906
H  H60  1  0.85300000  0.41440000  0.53820000  1.0 0.1103202906
H  H61  1  0.61880000  0.42760000  0.22600000  1.0 0.1103202906
H  H62  1  0.42760000  0.22600000  0.61880000  1.0 0.1103202906
H  H63  1  0.22600000  0.61880000  0.42760000  1.0 0.1103202906
H  H64  1  0.38120000  0.57240000  0.77400000  1.0 0.1103202906
H  H65  1  0.57240000  0.77400000  0.38120000  1.0 0.1103202906
H  H66  1  0.77400000  0.38120000  0.57240000  1.0 0.1103202906
H  H67  1  0.59400000  0.18050000  0.28310000  1.0 0.1103202906
H  H68  1  0.18050000  0.28310000  0.59400000  1.0 0.1103202906
H  H69  1  0.28310000  0.59400000  0.18050000  1.0 0.1103202906
H  H70  1  0.40600000  0.81950000  0.71690000  1.0 0.1103202906
H  H71  1  0.81950000  0.71690000  0.40600000  1.0 0.1103202906
H  H72  1  0.71690000  0.40600000  0.81950000  1.0 0.1103202906
H  H73  1  0.56260000  0.10070000  0.31630000  1.0 0.1103202906
H  H74  1  0.10070000  0.31630000  0.56260000  1.0 0.1103202906
H  H75  1  0.31630000  0.56260000  0.10070000  1.0 0.1103202906
H  H76  1  0.43740000  0.89930000  0.68370000  1.0 0.1103202906
H  H77  1  0.89930000  0.68370000  0.43740000  1.0 0.1103202906
H  H78  1  0.68370000  0.43740000  0.89930000  1.0 0.1103202906
H  H79  1  0.58560000  0.14690000  0.46190000  1.0 0.1103202906
H  H80  1  0.14690000  0.46190000  0.58560000  1.0 0.1103202906
H  H81  1  0.46190000  0.58560000  0.14690000  1.0 0.1103202906
H  H82  1  0.41440000  0.85310000  0.53810000  1.0 0.1103202906
H  H83  1  0.85310000  0.53810000  0.41440000  1.0 0.1103202906
H  H84  1  0.53810000  0.41440000  0.85310000  1.0 0.1103202906
H  H85  1  0.61960000  0.22550000  0.42760000  1.0 0.1103202906
H  H86  1  0.22550000  0.42760000  0.61960000  1.0 0.1103202906
H  H87  1  0.42760000  0.61960000  0.22550000  1.0 0.1103202906
H  H88  1  0.38040000  0.77450000  0.57240000  1.0 0.1103202906
H  H89  1  0.77450000  0.57240000  0.38040000  1.0 0.1103202906
H  H90  1  0.57240000  0.38040000  0.77450000  1.0 0.1103202906
H  H91  1  0.35810000  0.80680000  0.45760000  1.0 0.1001842544
H  H92  1  0.80680000  0.45760000  0.35810000  1.0 0.1001842544
H  H93  1  0.45760000  0.35810000  0.80680000  1.0 0.1001842544
H  H94  1  0.64190000  0.19320000  0.54240000  1.0 0.1001842544
H  H95  1  0.19320000  0.54240000  0.64190000  1.0 0.1001842544
H  H96  1  0.54240000  0.64190000  0.19320000  1.0 0.1001842544
H  H97  1  0.33210000  0.72870000  0.42670000  1.0 0.0940767603
H  H98  1  0.72870000  0.42670000  0.33210000  1.0 0.0940767603
H  H99  1  0.42670000  0.33210000  0.72870000  1.0 0.0940767603
H  H100  1  0.66790000  0.27130000  0.57330000  1.0 0.0940767603
H  H101  1  0.27130000  0.57330000  0.66790000  1.0 0.0940767603
H  H102  1  0.57330000  0.66790000  0.27130000  1.0 0.0940767603
H  H103  1  0.42620000  0.72980000  0.32970000  1.0 0.0940767603
H  H104  1  0.72980000  0.32970000  0.42620000  1.0 0.0940767603
H  H105  1  0.32970000  0.42620000  0.72980000  1.0 0.0940767603
H  H106  1  0.57380000  0.27020000  0.67030000  1.0 0.0940767603
H  H107  1  0.27020000  0.67030000  0.57380000  1.0 0.0940767603
H  H108  1  0.67030000  0.57380000  0.27020000  1.0 0.0940767603
H  H109  1  0.45730000  0.80630000  0.35710000  1.0 0.1001842544
H  H110  1  0.80630000  0.35710000  0.45730000  1.0 0.1001842544
H  H111  1  0.35710000  0.45730000  0.80630000  1.0 0.1001842544
H  H112  1  0.54270000  0.19370000  0.64290000  1.0 0.1001842544
H  H113  1  0.19370000  0.64290000  0.54270000  1.0 0.1001842544
H  H114  1  0.64290000  0.54270000  0.19370000  1.0 0.1001842544
C  C1  1  0.69617000  0.32867000  0.32907000  1.0 0.037323952
C  C2  1  0.32867000  0.32907000  0.69617000  1.0 0.037323952
C  C3  1  0.32907000  0.69617000  0.32867000  1.0 0.037323952
C  C4  1  0.30383000  0.67133000  0.67093000  1.0 0.037323952
C  C5  1  0.67133000  0.67093000  0.30383000  1.0 0.037323952
C  C6  1  0.67093000  0.30383000  0.67133000  1.0 0.037323952
C  C7  1  0.67420000  0.28324000  0.35048000  1.0 -0.2001636274
C  C8  1  0.28324000  0.35048000  0.67420000  1.0 -0.2001636274
C  C9  1  0.35048000  0.67420000  0.28324000  1.0 -0.2001636274
C  C10  1  0.32580000  0.71676000  0.64952000  1.0 -0.2001636274
C  C11  1  0.71676000  0.64952000  0.32580000  1.0 -0.2001636274
C  C12  1  0.64952000  0.32580000  0.71676000  1.0 -0.2001636274
C  C13  1  0.63245000  0.26032000  0.32899000  1.0 0.06961247
C  C14  1  0.26032000  0.32899000  0.63245000  1.0 0.06961247
C  C15  1  0.32899000  0.63245000  0.26032000  1.0 0.06961247
C  C16  1  0.36755000  0.73968000  0.67101000  1.0 0.06961247
C  C17  1  0.73968000  0.67101000  0.36755000  1.0 0.06961247
C  C18  1  0.67101000  0.36755000  0.73968000  1.0 0.06961247
C  C19  1  0.61124000  0.28285000  0.28306000  1.0 -0.2100578842
C  C20  1  0.28285000  0.28306000  0.61124000  1.0 -0.2100578842
C  C21  1  0.28306000  0.61124000  0.28285000  1.0 -0.2100578842
C  C22  1  0.38876000  0.71715000  0.71694000  1.0 -0.2100578842
C  C23  1  0.71715000  0.71694000  0.38876000  1.0 -0.2100578842
C  C24  1  0.71694000  0.38876000  0.71715000  1.0 -0.2100578842
C  C25  1  0.63212000  0.32903000  0.26064000  1.0 0.06961247
C  C26  1  0.32903000  0.26064000  0.63212000  1.0 0.0756906546
C  C27  1  0.26064000  0.63212000  0.32903000  1.0 0.0756906546
C  C28  1  0.36788000  0.67097000  0.73936000  1.0 0.06961247
C  C29  1  0.67097000  0.73936000  0.36788000  1.0 0.06961247
C  C30  1  0.73936000  0.36788000  0.67097000  1.0 0.06961247
C  C31  1  0.67398000  0.35061000  0.28324000  1.0 -0.2100578842
C  C32  1  0.35061000  0.28324000  0.67398000  1.0 -0.2001636274
C  C33  1  0.28324000  0.67398000  0.35061000  1.0 -0.2001636274
C  C34  1  0.32602000  0.64939000  0.71676000  1.0 -0.2100578842
C  C35  1  0.64939000  0.71676000  0.32602000  1.0 -0.2100578842
C  C36  1  0.71676000  0.32602000  0.64939000  1.0 -0.2001636274
C  C37  1  0.74295000  0.35043000  0.35041000  1.0 0.013276075
C  C38  1  0.35043000  0.35041000  0.74295000  1.0 0.013276075
C  C39  1  0.35041000  0.74295000  0.35043000  1.0 0.013276075
C  C40  1  0.25705000  0.64957000  0.64959000  1.0 0.013276075
C  C41  1  0.64957000  0.64959000  0.25705000  1.0 0.013276075
C  C42  1  0.64959000  0.25705000  0.64957000  1.0 0.013276075
C  C43  1  0.77890000  0.31910000  0.37870000  1.0 -0.0706038217
C  C44  1  0.31910000  0.37870000  0.77890000  1.0 -0.0706038217
C  C45  1  0.37870000  0.77890000  0.31910000  1.0 -0.0706038217
C  C46  1  0.22110000  0.68090000  0.62130000  1.0 -0.0706038217
C  C47  1  0.68090000  0.62130000  0.22110000  1.0 -0.0706038217
C  C48  1  0.62130000  0.22110000  0.68090000  1.0 -0.0706038217
C  C49  1  0.82300000  0.33790000  0.39980000  1.0 -0.0603119279
C  C50  1  0.33790000  0.39980000  0.82300000  1.0 -0.0603119279
C  C51  1  0.39980000  0.82300000  0.33790000  1.0 -0.0603119279
C  C52  1  0.17700000  0.66210000  0.60020000  1.0 -0.0603119279
C  C53  1  0.66210000  0.60020000  0.17700000  1.0 -0.0603119279
C  C54  1  0.60020000  0.17700000  0.66210000  1.0 -0.0603119279
C  C55  1  0.82340000  0.39930000  0.33800000  1.0 -0.0603119279
C  C56  1  0.39930000  0.33800000  0.82340000  1.0 -0.0603119279
C  C57  1  0.33800000  0.82340000  0.39930000  1.0 -0.0603119279
C  C58  1  0.17660000  0.60070000  0.66200000  1.0 -0.0603119279
C  C59  1  0.60070000  0.66200000  0.17660000  1.0 -0.0603119279
C  C60  1  0.66200000  0.17660000  0.60070000  1.0 -0.0603119279
C  C61  1  0.77870000  0.37920000  0.31910000  1.0 -0.0706038217
C  C62  1  0.37920000  0.31910000  0.77870000  1.0 -0.0706038217
C  C63  1  0.31910000  0.77870000  0.37920000  1.0 -0.0706038217
C  C64  1  0.22130000  0.62080000  0.68090000  1.0 -0.0706038217
C  C65  1  0.62080000  0.68090000  0.22130000  1.0 -0.0706038217
C  C66  1  0.68090000  0.22130000  0.62080000  1.0 -0.0706038217
C  C67  1  0.83346000  0.39226000  0.39207000  1.0 -0.03000039
C  C68  1  0.39226000  0.39207000  0.83346000  1.0 -0.03000039
C  C69  1  0.39207000  0.83346000  0.39226000  1.0 -0.03000039
C  C70  1  0.16654000  0.60774000  0.60793000  1.0 -0.03000039
C  C71  1  0.60774000  0.60793000  0.16654000  1.0 -0.03000039
C  C72  1  0.60793000  0.16654000  0.60774000  1.0 -0.03000039
C  C73  1  0.61046000  0.35117000  0.21018000  1.0 0.06961247
C  C74  1  0.35117000  0.21018000  0.61046000  1.0 0.06961247
C  C75  1  0.21018000  0.61046000  0.35117000  1.0 0.06961247
C  C76  1  0.38954000  0.64883000  0.78982000  1.0 0.06961247
C  C77  1  0.64883000  0.78982000  0.38954000  1.0 0.06961247
C  C78  1  0.78982000  0.38954000  0.64883000  1.0 0.06961247
C  C79  1  0.59287000  0.31923000  0.17379000  1.0 -0.157925567
C  C80  1  0.31923000  0.17379000  0.59287000  1.0 -0.157925567
C  C81  1  0.17379000  0.59287000  0.31923000  1.0 -0.157925567
C  C82  1  0.40713000  0.68077000  0.82621000  1.0 -0.157925567
C  C83  1  0.68077000  0.82621000  0.40713000  1.0 -0.157925567
C  C84  1  0.82621000  0.40713000  0.68077000  1.0 -0.157925567
C  C85  1  0.57314000  0.33876000  0.12608000  1.0 -0.0882901854
C  C86  1  0.33876000  0.12608000  0.57314000  1.0 -0.0882901854
C  C87  1  0.12608000  0.57314000  0.33876000  1.0 -0.0882901854
C  C88  1  0.42686000  0.66124000  0.87392000  1.0 -0.0882901854
C  C89  1  0.66124000  0.87392000  0.42686000  1.0 -0.0882901854
C  C90  1  0.87392000  0.42686000  0.66124000  1.0 -0.0882901854
C  C91  1  0.57012000  0.39322000  0.11697000  1.0 -0.0404709755
C  C92  1  0.39322000  0.11697000  0.57012000  1.0 -0.0404709755
C  C93  1  0.11697000  0.57012000  0.39322000  1.0 -0.0404709755
C  C94  1  0.42988000  0.60678000  0.88303000  1.0 -0.0404709755
C  C95  1  0.60678000  0.88303000  0.42988000  1.0 -0.0404709755
C  C96  1  0.88303000  0.42988000  0.60678000  1.0 -0.0404709755
C  C97  1  0.58726000  0.42565000  0.15344000  1.0 -0.0986016794
C  C98  1  0.42565000  0.15344000  0.58726000  1.0 -0.0986016794
C  C99  1  0.15344000  0.58726000  0.42565000  1.0 -0.0986016794
C  C100  1  0.41274000  0.57435000  0.84656000  1.0 -0.0986016794
C  C101  1  0.57435000  0.84656000  0.41274000  1.0 -0.0986016794
C  C102  1  0.84656000  0.41274000  0.57435000  1.0 -0.0986016794
C  C103  1  0.60760000  0.40518000  0.20106000  1.0 -0.1661620163
C  C104  1  0.40518000  0.20106000  0.60760000  1.0 -0.1661620163
C  C105  1  0.20106000  0.60760000  0.40518000  1.0 -0.1661620163
C  C106  1  0.39240000  0.59482000  0.79894000  1.0 -0.1661620163
C  C107  1  0.59482000  0.79894000  0.39240000  1.0 -0.1661620163
C  C108  1  0.79894000  0.39240000  0.59482000  1.0 -0.1661620163
C  C109  1  0.61034000  0.21059000  0.35124000  1.0 0.06961247
C  C110  1  0.21059000  0.35124000  0.61034000  1.0 0.06961247
C  C111  1  0.35124000  0.61034000  0.21059000  1.0 0.06961247
C  C112  1  0.38966000  0.78941000  0.64876000  1.0 0.06961247
C  C113  1  0.78941000  0.64876000  0.38966000  1.0 0.06961247
C  C114  1  0.64876000  0.38966000  0.78941000  1.0 0.06961247
C  C115  1  0.59291000  0.17381000  0.31911000  1.0 -0.157925567
C  C116  1  0.17381000  0.31911000  0.59291000  1.0 -0.157925567
C  C117  1  0.31911000  0.59291000  0.17381000  1.0 -0.157925567
C  C118  1  0.40709000  0.82619000  0.68089000  1.0 -0.157925567
C  C119  1  0.82619000  0.68089000  0.40709000  1.0 -0.157925567
C  C120  1  0.68089000  0.40709000  0.82619000  1.0 -0.157925567
C  C121  1  0.57326000  0.12576000  0.33896000  1.0 -0.0882901854
C  C122  1  0.12576000  0.33896000  0.57326000  1.0 -0.0882901854
C  C123  1  0.33896000  0.57326000  0.12576000  1.0 -0.0882901854
C  C124  1  0.42674000  0.87424000  0.66104000  1.0 -0.0882901854
C  C125  1  0.87424000  0.66104000  0.42674000  1.0 -0.0882901854
C  C126  1  0.66104000  0.42674000  0.87424000  1.0 -0.0882901854
C  C127  1  0.57014000  0.11675000  0.39324000  1.0 -0.0404709755
C  C128  1  0.11675000  0.39324000  0.57014000  1.0 -0.0404709755
C  C129  1  0.39324000  0.57014000  0.11675000  1.0 -0.0404709755
C  C130  1  0.42986000  0.88325000  0.60676000  1.0 -0.0404709755
C  C131  1  0.88325000  0.60676000  0.42986000  1.0 -0.0404709755
C  C132  1  0.60676000  0.42986000  0.88325000  1.0 -0.0404709755
C  C133  1  0.58735000  0.15340000  0.42575000  1.0 -0.0986016794
C  C134  1  0.15340000  0.42575000  0.58735000  1.0 -0.0986016794
C  C135  1  0.42575000  0.58735000  0.15340000  1.0 -0.0986016794
C  C136  1  0.41265000  0.84660000  0.57425000  1.0 -0.0986016794
C  C137  1  0.84660000  0.57425000  0.41265000  1.0 -0.0986016794
C  C138  1  0.57425000  0.41265000  0.84660000  1.0 -0.0986016794
C  C139  1  0.60789000  0.20087000  0.40505000  1.0 -0.1661620163
C  C140  1  0.20087000  0.40505000  0.60789000  1.0 -0.1661620163
C  C141  1  0.40505000  0.60789000  0.20087000  1.0 -0.1661620163
C  C142  1  0.39211000  0.79913000  0.59495000  1.0 -0.1661620163
C  C143  1  0.79913000  0.59495000  0.39211000  1.0 -0.1661620163
C  C144  1  0.59495000  0.39211000  0.79913000  1.0 -0.1661620163
C  C145  1  0.54799000  0.41319000  0.06564000  1.0 0.5930298718
C  C146  1  0.41319000  0.06564000  0.54799000  1.0 0.5930298718
C  C147  1  0.06564000  0.54799000  0.41319000  1.0 0.5930298718
C  C148  1  0.45201000  0.58681000  0.93436000  1.0 0.5930298718
C  C149  1  0.58681000  0.93436000  0.45201000  1.0 0.5930298718
C  C150  1  0.93436000  0.45201000  0.58681000  1.0 0.5930298718
C  C151  1  0.54780000  0.06565000  0.41322000  1.0 0.5930298718
C  C152  1  0.06565000  0.41322000  0.54780000  1.0 0.5930298718
C  C153  1  0.41322000  0.54780000  0.06565000  1.0 0.5930298718
C  C154  1  0.45220000  0.93435000  0.58678000  1.0 0.5930298718
C  C155  1  0.93435000  0.58678000  0.45220000  1.0 0.5930298718
C  C156  1  0.58678000  0.45220000  0.93435000  1.0 0.5930298718
C  C157  1  0.88267000  0.41246000  0.41242000  1.0 0.5580111645
C  C158  1  0.41246000  0.41242000  0.88267000  1.0 0.5580111645
C  C159  1  0.41242000  0.88267000  0.41246000  1.0 0.5580111645
C  C160  1  0.11733000  0.58754000  0.58758000  1.0 0.5580111645
C  C161  1  0.58754000  0.58758000  0.11733000  1.0 0.5580111645
C  C162  1  0.58758000  0.11733000  0.58754000  1.0 0.5580111645
C  C163  1  0.36490000  0.79940000  0.42250000  1.0 -0.0706038217
C  C164  1  0.79940000  0.42250000  0.36490000  1.0 -0.0706038217
C  C165  1  0.42250000  0.36490000  0.79940000  1.0 -0.0706038217
C  C166  1  0.63510000  0.20060000  0.57750000  1.0 -0.0792527155
C  C167  1  0.20060000  0.57750000  0.63510000  1.0 -0.0792527155
C  C168  1  0.57750000  0.63510000  0.20060000  1.0 -0.0792527155
C  C169  1  0.34690000  0.75320000  0.40330000  1.0 -0.0792527155
C  C170  1  0.75320000  0.40330000  0.34690000  1.0 -0.0792527155
C  C171  1  0.40330000  0.34690000  0.75320000  1.0 -0.0882901854
C  C172  1  0.65310000  0.24680000  0.59670000  1.0 -0.0792527155
C  C173  1  0.24680000  0.59670000  0.65310000  1.0 -0.0882901854
C  C174  1  0.59670000  0.65310000  0.24680000  1.0 -0.0792527155
C  C175  1  0.40320000  0.75380000  0.34580000  1.0 -0.0792527155
C  C176  1  0.75380000  0.34580000  0.40320000  1.0 -0.0792527155
C  C177  1  0.34580000  0.40320000  0.75380000  1.0 -0.0792527155
C  C178  1  0.59680000  0.24620000  0.65420000  1.0 -0.0792527155
C  C179  1  0.24620000  0.65420000  0.59680000  1.0 -0.0792527155
C  C180  1  0.65420000  0.59680000  0.24620000  1.0 -0.0792527155
C  C181  1  0.42220000  0.79900000  0.36410000  1.0 -0.0792527155
C  C182  1  0.79900000  0.36410000  0.42220000  1.0 -0.0792527155
C  C183  1  0.36410000  0.42220000  0.79900000  1.0 -0.0792527155
C  C184  1  0.57780000  0.20100000  0.63590000  1.0 -0.0792527155
C  C185  1  0.20100000  0.63590000  0.57780000  1.0 -0.0792527155
C  C186  1  0.63590000  0.57780000  0.20100000  1.0 -0.0792527155
O  O1  1  0.55478000  0.55467000  0.99831000  1.0 -0.9627791144
O  O2  1  0.55467000  0.99831000  0.55478000  1.0 -0.9627791144
O  O3  1  0.99831000  0.55478000  0.55467000  1.0 -0.9627791144
O  O4  1  0.44522000  0.44533000  0.00169000  1.0 -0.9627791144
O  O5  1  0.44533000  0.00169000  0.44522000  1.0 -0.9627791144
O  O6  1  0.00169000  0.44522000  0.44533000  1.0 -0.9627791144
O  O7  1  0.53182000  0.38071000  0.03638000  1.0 -0.5196629463
O  O8  1  0.38071000  0.03638000  0.53182000  1.0 -0.5196629463
O  O9  1  0.03638000  0.53182000  0.38071000  1.0 -0.5196629463
O  O10  1  0.46818000  0.61929000  0.96362000  1.0 -0.5196629463
O  O11  1  0.61929000  0.96362000  0.46818000  1.0 -0.5196629463
O  O12  1  0.96362000  0.46818000  0.61929000  1.0 -0.5196629463
O  O13  1  0.54658000  0.46340000  0.05725000  1.0 -0.5814341801
O  O14  1  0.46340000  0.05725000  0.54658000  1.0 -0.5814341801
O  O15  1  0.05725000  0.54658000  0.46340000  1.0 -0.5814341801
O  O16  1  0.45342000  0.53660000  0.94275000  1.0 -0.5814341801
O  O17  1  0.53660000  0.94275000  0.45342000  1.0 -0.5814341801
O  O18  1  0.94275000  0.45342000  0.53660000  1.0 -0.5814341801
O  O19  1  0.53165000  0.03634000  0.38071000  1.0 -0.5196629463
O  O20  1  0.03634000  0.38071000  0.53165000  1.0 -0.5196629463
O  O21  1  0.38071000  0.53165000  0.03634000  1.0 -0.5196629463
O  O22  1  0.46835000  0.96366000  0.61929000  1.0 -0.5196629463
O  O23  1  0.96366000  0.61929000  0.46835000  1.0 -0.5196629463
O  O24  1  0.61929000  0.46835000  0.96366000  1.0 -0.5196629463
O  O25  1  0.54666000  0.05724000  0.46345000  1.0 -0.5814341801
O  O26  1  0.05724000  0.46345000  0.54666000  1.0 -0.5814341801
O  O27  1  0.46345000  0.54666000  0.05724000  1.0 -0.5814341801
O  O28  1  0.45334000  0.94276000  0.53655000  1.0 -0.5814341801
O  O29  1  0.94276000  0.53655000  0.45334000  1.0 -0.5814341801
O  O30  1  0.53655000  0.45334000  0.94276000  1.0 -0.5814341801
O  O31  1  0.90131000  0.45185000  0.38835000  1.0 -0.5470170391
O  O32  1  0.45185000  0.38835000  0.90131000  1.0 -0.5470170391
O  O33  1  0.38835000  0.90131000  0.45185000  1.0 -0.5470170391
O  O34  1  0.09869000  0.54815000  0.61165000  1.0 -0.5470170391
O  O35  1  0.54815000  0.61165000  0.09869000  1.0 -0.5470170391
O  O36  1  0.61165000  0.09869000  0.54815000  1.0 -0.5470170391
O  O37  1  0.90123000  0.38819000  0.45161000  1.0 -0.5439930417
O  O38  1  0.38819000  0.45161000  0.90123000  1.0 -0.5470170391
O  O39  1  0.45161000  0.90123000  0.38819000  1.0 -0.5439930417
O  O40  1  0.09877000  0.61181000  0.54839000  1.0 -0.5439930417
O  O41  1  0.61181000  0.54839000  0.09877000  1.0 -0.5439930417
O  O42  1  0.54839000  0.09877000  0.61181000  1.0 -0.5439930417
