# DDEC6 charges by PACMAN v1.1 (https://github.com/mtap-research/PACMAN-charge/)
data_WAHDIT_ASR_pacman
_symmetry_space_group_name_H-M   'P 1'
_cell_length_a   22.05740000
_cell_length_b   22.05740000
_cell_length_c   22.05740000
_cell_angle_alpha   91.23180000
_cell_angle_beta   91.23180000
_cell_angle_gamma   163.13800000
_symmetry_Int_Tables_number   1
_chemical_formula_structural   Na4H12C6ClO10
_chemical_formula_sum   'Na32 H96 C48 Cl8 O80'
_cell_volume   3079.23633675
_cell_formula_units_Z   8
loop_
 _symmetry_equiv_pos_site_id
 _symmetry_equiv_pos_as_xyz
  1  'x, y, z'
loop_
 _atom_site_type_symbol
 _atom_site_label
 _atom_site_symmetry_multiplicity
 _atom_site_fract_x
 _atom_site_fract_y
 _atom_site_fract_z
 _atom_site_occupancy
 _atom_site_charge
Na  Na1  1  0.37500000  0.65306000  0.77806000  1.0 0.8731992596
Na  Na2  1  0.84694000  0.12500000  0.22194000  1.0 0.8731992596
Na  Na3  1  0.90306000  0.62500000  0.77806000  1.0 0.8731992596
Na  Na4  1  0.87500000  0.09694000  0.72194000  1.0 0.8731992596
Na  Na5  1  0.37500000  0.15306000  0.27806000  1.0 0.8731992596
Na  Na6  1  0.34694000  0.12500000  0.72194000  1.0 0.8731992596
Na  Na7  1  0.40306000  0.62500000  0.27806000  1.0 0.8731992596
Na  Na8  1  0.87500000  0.59694000  0.22194000  1.0 0.8731992596
Na  Na9  1  0.18656000  0.31344000  0.00000000  1.0 0.8777845282
Na  Na10  1  0.43656000  0.93656000  0.37312000  1.0 0.8777845282
Na  Na11  1  0.56344000  0.06344000  0.62688000  1.0 0.8777845282
Na  Na12  1  0.68656000  0.68656000  0.87312000  1.0 0.8777845282
Na  Na13  1  0.81344000  0.81344000  0.12688000  1.0 0.8777845282
Na  Na14  1  0.93656000  0.56344000  0.50000000  1.0 0.8777845282
Na  Na15  1  0.06344000  0.43656000  0.50000000  1.0 0.8777845282
Na  Na16  1  0.31344000  0.18656000  0.00000000  1.0 0.8777845282
Na  Na17  1  0.28479000  0.41550000  0.81167000  1.0 0.8777845282
Na  Na18  1  0.72312000  0.03479000  0.36929000  1.0 0.8777845282
Na  Na19  1  0.66550000  0.35383000  0.63071000  1.0 0.8777845282
Na  Na20  1  0.78479000  0.97312000  0.86929000  1.0 0.8777845282
Na  Na21  1  0.10383000  0.91550000  0.13071000  1.0 0.8777845282
Na  Na22  1  0.22312000  0.85383000  0.68833000  1.0 0.8777845282
Na  Na23  1  0.16550000  0.53479000  0.31167000  1.0 0.8777845282
Na  Na24  1  0.64617000  0.27688000  0.31167000  1.0 0.8777845282
Na  Na25  1  0.02688000  0.89617000  0.81167000  1.0 0.8777845282
Na  Na26  1  0.96521000  0.33450000  0.68833000  1.0 0.8777845282
Na  Na27  1  0.52688000  0.71521000  0.13071000  1.0 0.8777845282
Na  Na28  1  0.58450000  0.39617000  0.86929000  1.0 0.8777845282
Na  Na29  1  0.46521000  0.77688000  0.63071000  1.0 0.8777845282
Na  Na30  1  0.14617000  0.83450000  0.36929000  1.0 0.8777845282
Na  Na31  1  0.08450000  0.21521000  0.18833000  1.0 0.8777845282
Na  Na32  1  0.60383000  0.47312000  0.18833000  1.0 0.8777845282
H  H1  1  0.34450000  0.60580000  0.99270000  1.0 0.1567671445
H  H2  1  0.60180000  0.09450000  0.23870000  1.0 0.1567671445
H  H3  1  0.85580000  0.36310000  0.76130000  1.0 0.1567671445
H  H4  1  0.84450000  0.85180000  0.73870000  1.0 0.1567671445
H  H5  1  0.11310000  0.10580000  0.26130000  1.0 0.1567671445
H  H6  1  0.10180000  0.86310000  0.50730000  1.0 0.1567671445
H  H7  1  0.35580000  0.59450000  0.49270000  1.0 0.1567671445
H  H8  1  0.63690000  0.39820000  0.49270000  1.0 0.1567671445
H  H9  1  0.14820000  0.88690000  0.99270000  1.0 0.1567671445
H  H10  1  0.90550000  0.14420000  0.50730000  1.0 0.1567671445
H  H11  1  0.64820000  0.65550000  0.26130000  1.0 0.1567671445
H  H12  1  0.39420000  0.38690000  0.73870000  1.0 0.1567671445
H  H13  1  0.40550000  0.89820000  0.76130000  1.0 0.1567671445
H  H14  1  0.13690000  0.64420000  0.23870000  1.0 0.1567671445
H  H15  1  0.89420000  0.15550000  0.00730000  1.0 0.1567671445
H  H16  1  0.61310000  0.35180000  0.00730000  1.0 0.1567671445
H  H17  1  0.47670000  0.76450000  0.94620000  1.0 0.1567671445
H  H18  1  0.78050000  0.22670000  0.21220000  1.0 0.1567671445
H  H19  1  0.01450000  0.56830000  0.78780000  1.0 0.1567671445
H  H20  1  0.97670000  0.03050000  0.71220000  1.0 0.1567671445
H  H21  1  0.31830000  0.26450000  0.28780000  1.0 0.1567671445
H  H22  1  0.28050000  0.06830000  0.55380000  1.0 0.1567671445
H  H23  1  0.51450000  0.72670000  0.44620000  1.0 0.1567671445
H  H24  1  0.43170000  0.21950000  0.44620000  1.0 0.1567671445
H  H25  1  0.96950000  0.68170000  0.94620000  1.0 0.1567671445
H  H26  1  0.77330000  0.98550000  0.55380000  1.0 0.1567671445
H  H27  1  0.46950000  0.52330000  0.28780000  1.0 0.1567671445
H  H28  1  0.23550000  0.18170000  0.71220000  1.0 0.1567671445
H  H29  1  0.27330000  0.71950000  0.78780000  1.0 0.1567671445
H  H30  1  0.93170000  0.48550000  0.21220000  1.0 0.1567671445
H  H31  1  0.73550000  0.02330000  0.05380000  1.0 0.1567671445
H  H32  1  0.81830000  0.53050000  0.05380000  1.0 0.1567671445
H  H33  1  0.22850000  0.53900000  0.94210000  1.0 0.1503785185
H  H34  1  0.53640000  0.97850000  0.18950000  1.0 0.1503785185
H  H35  1  0.78900000  0.34690000  0.81050000  1.0 0.1503785185
H  H36  1  0.72850000  0.78640000  0.68950000  1.0 0.1503785185
H  H37  1  0.09690000  0.03900000  0.31050000  1.0 0.1503785185
H  H38  1  0.03640000  0.84690000  0.55790000  1.0 0.1503785185
H  H39  1  0.28900000  0.47850000  0.44210000  1.0 0.1503785185
H  H40  1  0.65310000  0.46360000  0.44210000  1.0 0.1503785185
H  H41  1  0.21360000  0.90310000  0.94210000  1.0 0.1503785185
H  H42  1  0.02150000  0.21100000  0.55790000  1.0 0.1503785185
H  H43  1  0.71360000  0.77150000  0.31050000  1.0 0.1503785185
H  H44  1  0.46100000  0.40310000  0.68950000  1.0 0.1503785185
H  H45  1  0.52150000  0.96360000  0.81050000  1.0 0.1503785185
H  H46  1  0.15310000  0.71100000  0.18950000  1.0 0.1503785185
H  H47  1  0.96100000  0.27150000  0.05790000  1.0 0.1503785185
H  H48  1  0.59690000  0.28640000  0.05790000  1.0 0.1503785185
H  H49  1  0.33890000  0.43600000  0.65090000  1.0 0.0715995531
H  H50  1  0.93800000  0.08890000  0.40290000  1.0 0.0715995531
H  H51  1  0.68600000  0.53510000  0.59710000  1.0 0.0715995531
H  H52  1  0.83890000  0.18800000  0.90290000  1.0 0.0715995531
H  H53  1  0.28510000  0.93600000  0.09710000  1.0 0.0715995531
H  H54  1  0.43800000  0.03510000  0.84910000  1.0 0.0715995531
H  H55  1  0.18600000  0.58890000  0.15090000  1.0 0.0715995531
H  H56  1  0.46490000  0.06200000  0.15090000  1.0 0.0715995531
H  H57  1  0.81200000  0.71490000  0.65090000  1.0 0.0715995531
H  H58  1  0.91110000  0.31400000  0.84910000  1.0 0.0715995531
H  H59  1  0.31200000  0.66110000  0.09710000  1.0 0.0715995531
H  H60  1  0.56400000  0.21490000  0.90290000  1.0 0.0715995531
H  H61  1  0.41110000  0.56200000  0.59710000  1.0 0.0715995531
H  H62  1  0.96490000  0.81400000  0.40290000  1.0 0.0715995531
H  H63  1  0.06400000  0.16110000  0.34910000  1.0 0.0715995531
H  H64  1  0.78510000  0.68800000  0.34910000  1.0 0.0715995531
H  H65  1  0.27060000  0.41950000  0.59910000  1.0 0.0644672296
H  H66  1  0.92150000  0.02060000  0.35110000  1.0 0.0644672296
H  H67  1  0.66950000  0.57040000  0.64890000  1.0 0.0644672296
H  H68  1  0.77060000  0.17150000  0.85110000  1.0 0.0644672296
H  H69  1  0.32040000  0.91950000  0.14890000  1.0 0.0644672296
H  H70  1  0.42150000  0.07040000  0.90090000  1.0 0.0644672296
H  H71  1  0.16950000  0.52060000  0.09910000  1.0 0.0644672296
H  H72  1  0.42960000  0.07850000  0.09910000  1.0 0.0644672296
H  H73  1  0.82850000  0.67960000  0.59910000  1.0 0.0644672296
H  H74  1  0.97940000  0.33050000  0.90090000  1.0 0.0644672296
H  H75  1  0.32850000  0.72940000  0.14890000  1.0 0.0644672296
H  H76  1  0.58050000  0.17960000  0.85110000  1.0 0.0644672296
H  H77  1  0.47940000  0.57850000  0.64890000  1.0 0.0644672296
H  H78  1  0.92960000  0.83050000  0.35110000  1.0 0.0644672296
H  H79  1  0.08050000  0.22940000  0.40090000  1.0 0.0644672296
H  H80  1  0.82040000  0.67150000  0.40090000  1.0 0.0644672296
H  H81  1  0.51550000  0.64150000  0.62200000  1.0 0.0715995531
H  H82  1  0.14350000  0.26550000  0.37400000  1.0 0.0715995531
H  H83  1  0.89150000  0.76950000  0.62600000  1.0 0.0715995531
H  H84  1  0.01550000  0.39350000  0.87400000  1.0 0.0715995531
H  H85  1  0.51950000  0.14150000  0.12600000  1.0 0.0715995531
H  H86  1  0.64350000  0.26950000  0.87800000  1.0 0.0715995531
H  H87  1  0.39150000  0.76550000  0.12200000  1.0 0.0715995531
H  H88  1  0.23050000  0.85650000  0.12200000  1.0 0.0715995531
H  H89  1  0.60650000  0.48050000  0.62200000  1.0 0.0715995531
H  H90  1  0.73450000  0.10850000  0.87800000  1.0 0.0715995531
H  H91  1  0.10650000  0.48450000  0.12600000  1.0 0.0715995531
H  H92  1  0.35850000  0.98050000  0.87400000  1.0 0.0715995531
H  H93  1  0.23450000  0.35650000  0.62600000  1.0 0.0715995531
H  H94  1  0.73050000  0.60850000  0.37400000  1.0 0.0715995531
H  H95  1  0.85850000  0.98450000  0.37800000  1.0 0.0715995531
H  H96  1  0.01950000  0.89350000  0.37800000  1.0 0.0715995531
C  C1  1  0.29631000  0.52077000  0.90648000  1.0 0.6774347254
C  C2  1  0.63983000  0.04631000  0.27554000  1.0 0.6774347254
C  C3  1  0.77077000  0.36429000  0.72446000  1.0 0.6774347254
C  C4  1  0.79631000  0.88983000  0.77554000  1.0 0.6774347254
C  C5  1  0.11429000  0.02077000  0.22446000  1.0 0.6774347254
C  C6  1  0.13983000  0.86429000  0.59352000  1.0 0.6774347254
C  C7  1  0.27077000  0.54631000  0.40648000  1.0 0.6774347254
C  C8  1  0.63571000  0.36017000  0.40648000  1.0 0.6774347254
C  C9  1  0.11017000  0.88571000  0.90648000  1.0 0.6774347254
C  C10  1  0.95369000  0.22923000  0.59352000  1.0 0.6774347254
C  C11  1  0.61017000  0.70369000  0.22446000  1.0 0.6774347254
C  C12  1  0.47923000  0.38571000  0.77554000  1.0 0.6774347254
C  C13  1  0.45369000  0.86017000  0.72446000  1.0 0.6774347254
C  C14  1  0.13571000  0.72923000  0.27554000  1.0 0.6774347254
C  C15  1  0.97923000  0.20369000  0.09352000  1.0 0.6774347254
C  C16  1  0.61429000  0.38983000  0.09352000  1.0 0.6774347254
C  C17  1  0.34032000  0.61581000  0.95073000  1.0 -0.6526777394
C  C18  1  0.63959000  0.09032000  0.22451000  1.0 -0.6526777394
C  C19  1  0.86581000  0.41508000  0.77549000  1.0 -0.6526777394
C  C20  1  0.84032000  0.88959000  0.72451000  1.0 -0.6526777394
C  C21  1  0.16508000  0.11581000  0.27549000  1.0 -0.6526777394
C  C22  1  0.13959000  0.91508000  0.54927000  1.0 -0.6526777394
C  C23  1  0.36581000  0.59032000  0.45073000  1.0 -0.6526777394
C  C24  1  0.58492000  0.36041000  0.45073000  1.0 -0.6526777394
C  C25  1  0.11041000  0.83492000  0.95073000  1.0 -0.6526777394
C  C26  1  0.90968000  0.13419000  0.54927000  1.0 -0.6526777394
C  C27  1  0.61041000  0.65968000  0.27549000  1.0 -0.6526777394
C  C28  1  0.38419000  0.33492000  0.72451000  1.0 -0.6526777394
C  C29  1  0.40968000  0.86041000  0.77549000  1.0 -0.6526777394
C  C30  1  0.08492000  0.63419000  0.22451000  1.0 -0.6526777394
C  C31  1  0.88419000  0.15968000  0.04927000  1.0 -0.6526777394
C  C32  1  0.66508000  0.38959000  0.04927000  1.0 -0.6526777394
C  C33  1  0.37500000  0.55809000  0.68309000  1.0 0.6511274927
C  C34  1  0.94191000  0.12500000  0.31691000  1.0 0.6511274927
C  C35  1  0.80809000  0.62500000  0.68309000  1.0 0.6511274927
C  C36  1  0.87500000  0.19191000  0.81691000  1.0 0.6511274927
C  C37  1  0.37500000  0.05809000  0.18309000  1.0 0.6511274927
C  C38  1  0.44191000  0.12500000  0.81691000  1.0 0.6511274927
C  C39  1  0.30809000  0.62500000  0.18309000  1.0 0.6511274927
C  C40  1  0.87500000  0.69191000  0.31691000  1.0 0.6511274927
C  C41  1  0.37500000  0.50961000  0.63461000  1.0 -0.4336436449
C  C42  1  0.99039000  0.12500000  0.36539000  1.0 -0.4336436449
C  C43  1  0.75961000  0.62500000  0.63461000  1.0 -0.4336436449
C  C44  1  0.87500000  0.24039000  0.86539000  1.0 -0.4336436449
C  C45  1  0.37500000  0.00961000  0.13461000  1.0 -0.4336436449
C  C46  1  0.49039000  0.12500000  0.86539000  1.0 -0.4336436449
C  C47  1  0.25961000  0.62500000  0.13461000  1.0 -0.4336436449
C  C48  1  0.87500000  0.74039000  0.36539000  1.0 -0.4336436449
Cl  Cl1  1  0.69473000  0.80527000  0.00000000  1.0 1.300862109
Cl  Cl2  1  0.94473000  0.44473000  0.38946000  1.0 1.300862109
Cl  Cl3  1  0.05527000  0.55527000  0.61054000  1.0 1.300862109
Cl  Cl4  1  0.19473000  0.19473000  0.88946000  1.0 1.300862109
Cl  Cl5  1  0.30527000  0.30527000  0.11054000  1.0 1.300862109
Cl  Cl6  1  0.44473000  0.05527000  0.50000000  1.0 1.300862109
Cl  Cl7  1  0.55527000  0.94473000  0.50000000  1.0 1.300862109
Cl  Cl8  1  0.80527000  0.69473000  0.00000000  1.0 1.300862109
O  O1  1  0.53914000  0.68840000  0.02974000  1.0 -0.5544210656
O  O2  1  0.75940000  0.28914000  0.35074000  1.0 -0.5544210656
O  O3  1  0.93840000  0.40866000  0.64926000  1.0 -0.5544210656
O  O4  1  0.03914000  0.00940000  0.85074000  1.0 -0.5544210656
O  O5  1  0.15866000  0.18840000  0.14926000  1.0 -0.5544210656
O  O6  1  0.25940000  0.90866000  0.47026000  1.0 -0.5544210656
O  O7  1  0.43840000  0.78914000  0.52974000  1.0 -0.5544210656
O  O8  1  0.59134000  0.24060000  0.52974000  1.0 -0.5544210656
O  O9  1  0.99060000  0.84134000  0.02974000  1.0 -0.5544210656
O  O10  1  0.71086000  0.06160000  0.47026000  1.0 -0.5544210656
O  O11  1  0.49060000  0.46086000  0.14926000  1.0 -0.5544210656
O  O12  1  0.31160000  0.34134000  0.85074000  1.0 -0.5544210656
O  O13  1  0.21086000  0.74060000  0.64926000  1.0 -0.5544210656
O  O14  1  0.09134000  0.56160000  0.35074000  1.0 -0.5544210656
O  O15  1  0.81160000  0.96086000  0.97026000  1.0 -0.5544210656
O  O16  1  0.65866000  0.50940000  0.97026000  1.0 -0.5544210656
O  O17  1  0.83986000  0.91326000  0.04452000  1.0 -0.5065787456
O  O18  1  0.04534000  0.58986000  0.42660000  1.0 -0.5065787456
O  O19  1  0.16326000  0.61874000  0.57340000  1.0 -0.5065787456
O  O20  1  0.33986000  0.29534000  0.92660000  1.0 -0.5065787456
O  O21  1  0.36874000  0.41326000  0.07340000  1.0 -0.5065787456
O  O22  1  0.54534000  0.11874000  0.45548000  1.0 -0.5065787456
O  O23  1  0.66326000  0.08986000  0.54452000  1.0 -0.5065787456
O  O24  1  0.38126000  0.95466000  0.54452000  1.0 -0.5065787456
O  O25  1  0.70466000  0.63126000  0.04452000  1.0 -0.5065787456
O  O26  1  0.41014000  0.83674000  0.45548000  1.0 -0.5065787456
O  O27  1  0.20466000  0.16014000  0.07340000  1.0 -0.5065787456
O  O28  1  0.08674000  0.13126000  0.92660000  1.0 -0.5065787456
O  O29  1  0.91014000  0.45466000  0.57340000  1.0 -0.5065787456
O  O30  1  0.88126000  0.33674000  0.42660000  1.0 -0.5065787456
O  O31  1  0.58674000  0.66014000  0.95548000  1.0 -0.5065787456
O  O32  1  0.86874000  0.79534000  0.95548000  1.0 -0.5065787456
O  O33  1  0.15137000  0.34570000  0.91327000  1.0 -0.696650131
O  O34  1  0.48810000  0.90137000  0.30567000  1.0 -0.696650131
O  O35  1  0.59570000  0.18243000  0.69433000  1.0 -0.696650131
O  O36  1  0.65137000  0.73810000  0.80567000  1.0 -0.696650131
O  O37  1  0.93243000  0.84570000  0.19433000  1.0 -0.696650131
O  O38  1  0.98810000  0.68243000  0.58673000  1.0 -0.696650131
O  O39  1  0.09570000  0.40137000  0.41327000  1.0 -0.696650131
O  O40  1  0.81757000  0.51190000  0.41327000  1.0 -0.696650131
O  O41  1  0.26190000  0.06757000  0.91327000  1.0 -0.696650131
O  O42  1  0.09863000  0.40430000  0.58673000  1.0 -0.696650131
O  O43  1  0.76190000  0.84863000  0.19433000  1.0 -0.696650131
O  O44  1  0.65430000  0.56757000  0.80567000  1.0 -0.696650131
O  O45  1  0.59863000  0.01190000  0.69433000  1.0 -0.696650131
O  O46  1  0.31757000  0.90430000  0.30567000  1.0 -0.696650131
O  O47  1  0.15430000  0.34863000  0.08673000  1.0 -0.696650131
O  O48  1  0.43243000  0.23810000  0.08673000  1.0 -0.696650131
O  O49  1  0.41009000  0.62432000  0.86461000  1.0 -0.7544854566
O  O50  1  0.79548000  0.16009000  0.28577000  1.0 -0.7544854566
O  O51  1  0.87432000  0.50971000  0.71423000  1.0 -0.7544854566
O  O52  1  0.91009000  0.04548000  0.78577000  1.0 -0.7544854566
O  O53  1  0.25971000  0.12432000  0.21423000  1.0 -0.7544854566
O  O54  1  0.29548000  0.00971000  0.63539000  1.0 -0.7544854566
O  O55  1  0.37432000  0.66009000  0.36461000  1.0 -0.7544854566
O  O56  1  0.49029000  0.20452000  0.36461000  1.0 -0.7544854566
O  O57  1  0.95452000  0.74029000  0.86461000  1.0 -0.7544854566
O  O58  1  0.83991000  0.12568000  0.63539000  1.0 -0.7544854566
O  O59  1  0.45452000  0.58991000  0.21423000  1.0 -0.7544854566
O  O60  1  0.37568000  0.24029000  0.78577000  1.0 -0.7544854566
O  O61  1  0.33991000  0.70452000  0.71423000  1.0 -0.7544854566
O  O62  1  0.99029000  0.62568000  0.28577000  1.0 -0.7544854566
O  O63  1  0.87568000  0.08991000  0.13539000  1.0 -0.7544854566
O  O64  1  0.75971000  0.54548000  0.13539000  1.0 -0.7544854566
O  O65  1  0.23919000  0.42596000  0.71815000  1.0 -0.696650131
O  O66  1  0.77104000  0.98919000  0.31323000  1.0 -0.696650131
O  O67  1  0.67596000  0.45781000  0.68677000  1.0 -0.696650131
O  O68  1  0.73919000  0.02104000  0.81323000  1.0 -0.696650131
O  O69  1  0.20781000  0.92596000  0.18677000  1.0 -0.696650131
O  O70  1  0.27104000  0.95781000  0.78185000  1.0 -0.696650131
O  O71  1  0.17596000  0.48919000  0.21815000  1.0 -0.696650131
O  O72  1  0.54219000  0.22896000  0.21815000  1.0 -0.696650131
O  O73  1  0.97896000  0.79219000  0.71815000  1.0 -0.696650131
O  O74  1  0.01081000  0.32404000  0.78185000  1.0 -0.696650131
O  O75  1  0.47896000  0.76081000  0.18677000  1.0 -0.696650131
O  O76  1  0.57404000  0.29219000  0.81323000  1.0 -0.696650131
O  O77  1  0.51081000  0.72896000  0.68677000  1.0 -0.696650131
O  O78  1  0.04219000  0.82404000  0.31323000  1.0 -0.696650131
O  O79  1  0.07404000  0.26081000  0.28185000  1.0 -0.696650131
O  O80  1  0.70781000  0.52104000  0.28185000  1.0 -0.696650131
