# DDEC6 charges by PACMAN v1.1 (https://github.com/mtap-research/PACMAN-charge/)
data_WAHFUJ01_FSR_pacman
_symmetry_space_group_name_H-M   'P 1'
_cell_length_a   10.78200000
_cell_length_b   8.78100000
_cell_length_c   25.80170000
_cell_angle_alpha   90.00000000
_cell_angle_beta   106.29700000
_cell_angle_gamma   90.00000000
_symmetry_Int_Tables_number   1
_chemical_formula_structural   CuH11C18N5O6
_chemical_formula_sum   'Cu4 H44 C72 N20 O24'
_cell_volume   2344.66831715
_cell_formula_units_Z   4
loop_
 _symmetry_equiv_pos_site_id
 _symmetry_equiv_pos_as_xyz
  1  'x, y, z'
loop_
 _atom_site_type_symbol
 _atom_site_label
 _atom_site_symmetry_multiplicity
 _atom_site_fract_x
 _atom_site_fract_y
 _atom_site_fract_z
 _atom_site_occupancy
 _atom_site_charge
Cu  Cu1  1  0.42457000  0.22060000  0.26350000  1.0 0.7920683959
Cu  Cu2  1  0.57543000  0.72060000  0.23650000  1.0 0.7920683959
Cu  Cu3  1  0.57543000  0.77940000  0.73650000  1.0 0.7920683959
Cu  Cu4  1  0.42457000  0.27940000  0.76350000  1.0 0.7920683959
H  H1  1  0.53870000  0.31700000  0.09680000  1.0 0.1403323841
H  H2  1  0.46130000  0.81700000  0.40320000  1.0 0.1403323841
H  H3  1  0.46130000  0.68300000  0.90320000  1.0 0.1403323841
H  H4  1  0.53870000  0.18300000  0.59680000  1.0 0.1403323841
H  H5  1  0.26670000  0.99480000  0.07860000  1.0 0.1403323841
H  H6  1  0.73330000  0.49480000  0.42140000  1.0 0.1403323841
H  H7  1  0.73330000  0.00520000  0.92140000  1.0 0.1403323841
H  H8  1  0.26670000  0.50520000  0.57860000  1.0 0.1403323841
H  H9  1  0.54240000  0.33660000  0.18560000  1.0 0.1192918744
H  H10  1  0.45760000  0.83660000  0.31440000  1.0 0.1192918744
H  H11  1  0.45760000  0.66340000  0.81440000  1.0 0.1192918744
H  H12  1  0.54240000  0.16340000  0.68560000  1.0 0.1192918744
H  H13  1  0.00310000  0.21240000  0.21290000  1.0 0.1192918744
H  H14  1  0.99690000  0.71240000  0.28710000  1.0 0.1192918744
H  H15  1  0.99690000  0.78760000  0.78710000  1.0 0.1192918744
H  H16  1  0.00310000  0.28760000  0.71290000  1.0 0.1192918744
H  H17  1  0.08560000  0.95480000  0.34610000  1.0 0.1323969515
H  H18  1  0.91440000  0.45480000  0.15390000  1.0 0.1323969515
H  H19  1  0.91440000  0.04520000  0.65390000  1.0 0.1323969515
H  H20  1  0.08560000  0.54520000  0.84610000  1.0 0.1323969515
H  H21  1  0.28030000  0.02020000  0.16880000  1.0 0.1192918744
H  H22  1  0.71970000  0.52020000  0.33120000  1.0 0.1192918744
H  H23  1  0.71970000  0.97980000  0.83120000  1.0 0.1192918744
H  H24  1  0.28030000  0.47980000  0.66880000  1.0 0.1192918744
H  H25  1  0.78910000  0.22100000  0.21230000  1.0 0.1323969515
H  H26  1  0.21090000  0.72100000  0.28770000  1.0 0.1323969515
H  H27  1  0.21090000  0.77900000  0.78770000  1.0 0.1323969515
H  H28  1  0.78910000  0.27900000  0.71230000  1.0 0.1323969515
H  H29  1  0.30380000  0.06390000  0.92090000  1.0 0.1403323841
H  H30  1  0.69620000  0.56390000  0.57910000  1.0 0.1403323841
H  H31  1  0.69620000  0.93610000  0.07910000  1.0 0.1403323841
H  H32  1  0.30380000  0.43610000  0.42090000  1.0 0.1403323841
H  H33  1  0.30300000  0.08430000  0.83180000  1.0 0.1102650061
H  H34  1  0.69700000  0.58430000  0.66820000  1.0 0.1102650061
H  H35  1  0.69700000  0.91570000  0.16820000  1.0 0.1102650061
H  H36  1  0.30300000  0.41570000  0.33180000  1.0 0.1102650061
H  H37  1  0.58610000  0.37660000  0.86910000  1.0 0.1102650061
H  H38  1  0.41390000  0.87660000  0.63090000  1.0 0.1102650061
H  H39  1  0.41390000  0.62340000  0.13090000  1.0 0.1102650061
H  H40  1  0.58610000  0.12340000  0.36910000  1.0 0.1102650061
H  H41  1  0.59360000  0.36540000  0.95840000  1.0 0.1403323841
H  H42  1  0.40640000  0.86540000  0.54160000  1.0 0.1403323841
H  H43  1  0.40640000  0.63460000  0.04160000  1.0 0.1403323841
H  H44  1  0.59360000  0.13460000  0.45840000  1.0 0.1403323841
C  C1  1  0.89820000  0.01190000  0.31760000  1.0 0.039145005
C  C2  1  0.10180000  0.51190000  0.18240000  1.0 0.039145005
C  C3  1  0.10180000  0.98810000  0.68240000  1.0 0.039145005
C  C4  1  0.89820000  0.48810000  0.81760000  1.0 0.039145005
C  C5  1  0.06785000  0.08570000  0.28005000  1.0 0.002122653
C  C6  1  0.93215000  0.58570000  0.21995000  1.0 0.002122653
C  C7  1  0.93215000  0.91430000  0.71995000  1.0 0.002122653
C  C8  1  0.06785000  0.41430000  0.78005000  1.0 0.002122653
C  C9  1  0.48451000  0.25670000  0.11061000  1.0 -0.1996563858
C  C10  1  0.51549000  0.75670000  0.38939000  1.0 -0.1996563858
C  C11  1  0.51549000  0.74330000  0.88939000  1.0 -0.1996563858
C  C12  1  0.48451000  0.24330000  0.61061000  1.0 -0.1996563858
C  C13  1  0.32333000  0.06510000  0.09983000  1.0 -0.1996563858
C  C14  1  0.67667000  0.56510000  0.40017000  1.0 -0.1996563858
C  C15  1  0.67667000  0.93490000  0.90017000  1.0 -0.1996563858
C  C16  1  0.32333000  0.43490000  0.59983000  1.0 -0.1996563858
C  C17  1  0.80532000  0.09080000  0.27842000  1.0 -0.0310852927
C  C18  1  0.19468000  0.59080000  0.22158000  1.0 -0.0310852927
C  C19  1  0.19468000  0.90920000  0.72158000  1.0 -0.0310852927
C  C20  1  0.80532000  0.40920000  0.77842000  1.0 -0.0310852927
C  C21  1  0.48617000  0.26740000  0.16367000  1.0 0.1014703699
C  C22  1  0.51383000  0.76740000  0.33633000  1.0 0.1014703699
C  C23  1  0.51383000  0.73260000  0.83633000  1.0 0.1014703699
C  C24  1  0.48617000  0.23260000  0.66367000  1.0 0.1014703699
C  C25  1  0.40056000  0.15450000  0.07786000  1.0 0.1788126865
C  C26  1  0.59944000  0.65450000  0.42214000  1.0 0.1788126865
C  C27  1  0.59944000  0.84550000  0.92214000  1.0 0.1788126865
C  C28  1  0.40056000  0.34550000  0.57786000  1.0 0.1788126865
C  C29  1  0.44846000  0.21460000  0.94926000  1.0 0.1861320885
C  C30  1  0.55154000  0.71460000  0.55074000  1.0 0.1861320885
C  C31  1  0.55154000  0.78540000  0.05074000  1.0 0.1861320885
C  C32  1  0.44846000  0.28540000  0.44926000  1.0 0.1861320885
C  C33  1  0.97714000  0.16260000  0.23994000  1.0 -0.0819929204
C  C34  1  0.02286000  0.66260000  0.26006000  1.0 -0.0819929204
C  C35  1  0.02286000  0.83740000  0.76006000  1.0 -0.0819929204
C  C36  1  0.97714000  0.33740000  0.73994000  1.0 -0.0819929204
C  C37  1  0.02666000  0.00860000  0.31906000  1.0 -0.1570173166
C  C38  1  0.97334000  0.50860000  0.18094000  1.0 -0.1570173166
C  C39  1  0.97334000  0.99140000  0.68094000  1.0 -0.1570173166
C  C40  1  0.02666000  0.49140000  0.81906000  1.0 -0.1570173166
C  C41  1  0.33152000  0.08160000  0.15382000  1.0 0.1102650061
C  C42  1  0.66848000  0.58160000  0.34618000  1.0 0.1102650061
C  C43  1  0.66848000  0.91840000  0.84618000  1.0 0.1102650061
C  C44  1  0.33152000  0.41840000  0.65382000  1.0 0.1102650061
C  C45  1  0.20951000  0.08380000  0.28281000  1.0 0.542650316
C  C46  1  0.79049000  0.58380000  0.21719000  1.0 0.542650316
C  C47  1  0.79049000  0.91620000  0.71719000  1.0 0.542650316
C  C48  1  0.20951000  0.41620000  0.78281000  1.0 0.542650316
C  C49  1  0.84785000  0.16680000  0.23925000  1.0 -0.1143464594
C  C50  1  0.15215000  0.66680000  0.26075000  1.0 -0.1143464594
C  C51  1  0.15215000  0.83320000  0.76075000  1.0 -0.1143464594
C  C52  1  0.84785000  0.33320000  0.73925000  1.0 -0.1143464594
C  C53  1  0.36146000  0.12880000  0.91106000  1.0 -0.1996563858
C  C54  1  0.63854000  0.62880000  0.58894000  1.0 -0.1996563858
C  C55  1  0.63854000  0.87120000  0.08894000  1.0 -0.1996563858
C  C56  1  0.36146000  0.37120000  0.41106000  1.0 -0.1996563858
C  C57  1  0.36187000  0.14150000  0.85777000  1.0 0.0882781857
C  C58  1  0.63813000  0.64150000  0.64223000  1.0 0.0882781857
C  C59  1  0.63813000  0.85850000  0.14223000  1.0 0.0882781857
C  C60  1  0.36187000  0.35850000  0.35777000  1.0 0.0882781857
C  C61  1  0.52808000  0.31360000  0.87958000  1.0 0.1014703699
C  C62  1  0.47192000  0.81360000  0.62042000  1.0 0.1014703699
C  C63  1  0.47192000  0.68640000  0.12042000  1.0 0.1014703699
C  C64  1  0.52808000  0.18640000  0.37958000  1.0 0.1014703699
C  C65  1  0.53342000  0.30750000  0.93322000  1.0 -0.1936480104
C  C66  1  0.46658000  0.80750000  0.56678000  1.0 -0.1936480104
C  C67  1  0.46658000  0.69250000  0.06678000  1.0 -0.1936480104
C  C68  1  0.53342000  0.19250000  0.43322000  1.0 -0.1936480104
C  C69  1  0.66210000  0.09160000  0.27310000  1.0 0.5586360433
C  C70  1  0.33790000  0.59160000  0.22690000  1.0 0.5586360433
C  C71  1  0.33790000  0.90840000  0.72690000  1.0 0.5586360433
C  C72  1  0.66210000  0.40840000  0.77310000  1.0 0.5586360433
N  N1  1  0.41053000  0.18280000  0.18533000  1.0 -0.2172104306
N  N2  1  0.58947000  0.68280000  0.31467000  1.0 -0.2172104306
N  N3  1  0.58947000  0.81720000  0.81467000  1.0 -0.2172104306
N  N4  1  0.41053000  0.31720000  0.68533000  1.0 -0.2172104306
N  N5  1  0.44403000  0.23360000  0.84193000  1.0 -0.2094726375
N  N6  1  0.55597000  0.73360000  0.65807000  1.0 -0.2094726375
N  N7  1  0.55597000  0.76640000  0.15807000  1.0 -0.2094726375
N  N8  1  0.44403000  0.26640000  0.34193000  1.0 -0.2094726375
N  N9  1  0.38780000  0.13640000  0.02100000  1.0 -0.0998441539
N  N10  1  0.61220000  0.63640000  0.47900000  1.0 -0.0998441539
N  N11  1  0.61220000  0.86360000  0.97900000  1.0 -0.0998441539
N  N12  1  0.38780000  0.36360000  0.52100000  1.0 -0.0998441539
N  N13  1  0.86215000  0.92910000  0.36025000  1.0 0.5112003871
N  N14  1  0.13785000  0.42910000  0.13975000  1.0 0.5112003871
N  N15  1  0.13785000  0.07090000  0.63975000  1.0 0.5112003871
N  N16  1  0.86215000  0.57090000  0.86025000  1.0 0.5112003871
N  N17  1  0.45802000  0.22120000  0.00562000  1.0 -0.1165822315
N  N18  1  0.54198000  0.72120000  0.49438000  1.0 -0.1165822315
N  N19  1  0.54198000  0.77880000  0.99438000  1.0 -0.1165822315
N  N20  1  0.45802000  0.27880000  0.50562000  1.0 -0.1165822315
O  O1  1  0.24133000  0.18010000  0.25163000  1.0 -0.5525700113
O  O2  1  0.75867000  0.68010000  0.24837000  1.0 -0.5525700113
O  O3  1  0.75867000  0.81990000  0.74837000  1.0 -0.5525700113
O  O4  1  0.24133000  0.31990000  0.75163000  1.0 -0.5525700113
O  O5  1  0.28236000  0.99730000  0.31436000  1.0 -0.5288532785
O  O6  1  0.71764000  0.49730000  0.18564000  1.0 -0.5288532785
O  O7  1  0.71764000  0.00270000  0.68564000  1.0 -0.5288532785
O  O8  1  0.28236000  0.50270000  0.81436000  1.0 -0.5288532785
O  O9  1  0.76910000  0.97330000  0.37390000  1.0 -0.3093517235
O  O10  1  0.23090000  0.47330000  0.12610000  1.0 -0.3093517235
O  O11  1  0.23090000  0.02670000  0.62610000  1.0 -0.3093517235
O  O12  1  0.76910000  0.52670000  0.87390000  1.0 -0.3093517235
O  O13  1  0.92555000  0.81670000  0.37955000  1.0 -0.3093517235
O  O14  1  0.07445000  0.31670000  0.12045000  1.0 -0.3093517235
O  O15  1  0.07445000  0.18330000  0.62045000  1.0 -0.3093517235
O  O16  1  0.92555000  0.68330000  0.87955000  1.0 -0.3093517235
O  O17  1  0.61594000  0.22000000  0.28032000  1.0 -0.524655368
O  O18  1  0.38406000  0.72000000  0.21968000  1.0 -0.524655368
O  O19  1  0.38406000  0.78000000  0.71968000  1.0 -0.524655368
O  O20  1  0.61594000  0.28000000  0.78032000  1.0 -0.524655368
O  O21  1  0.59974000  0.97360000  0.25984000  1.0 -0.5718298665
O  O22  1  0.40026000  0.47360000  0.24016000  1.0 -0.5718298665
O  O23  1  0.40026000  0.02640000  0.74016000  1.0 -0.5718298665
O  O24  1  0.59974000  0.52640000  0.75984000  1.0 -0.5718298665
