# DDEC6 charges by PACMAN v1.1 (https://github.com/mtap-research/PACMAN-charge/)
data_WAHGIY_FSR_pacman
_symmetry_space_group_name_H-M   'P 1'
_cell_length_a   11.30180000
_cell_length_b   10.35830000
_cell_length_c   21.36610000
_cell_angle_alpha   90.00000000
_cell_angle_beta   95.06600000
_cell_angle_gamma   90.00000000
_symmetry_Int_Tables_number   1
_chemical_formula_structural   CuH13C20N5O6
_chemical_formula_sum   'Cu4 H52 C80 N20 O24'
_cell_volume   2491.50364537
_cell_formula_units_Z   4
loop_
 _symmetry_equiv_pos_site_id
 _symmetry_equiv_pos_as_xyz
  1  'x, y, z'
loop_
 _atom_site_type_symbol
 _atom_site_label
 _atom_site_symmetry_multiplicity
 _atom_site_fract_x
 _atom_site_fract_y
 _atom_site_fract_z
 _atom_site_occupancy
 _atom_site_charge
Cu  Cu1  1  0.41565000  0.84031000  0.45065000  1.0 0.783217567
Cu  Cu2  1  0.58435000  0.34031000  0.04935000  1.0 0.783217567
Cu  Cu3  1  0.58435000  0.15969000  0.54935000  1.0 0.783217567
Cu  Cu4  1  0.41565000  0.65969000  0.95065000  1.0 0.783217567
H  H1  1  0.19650000  0.93080000  0.50750000  1.0 0.1102665258
H  H2  1  0.80350000  0.43080000  0.99250000  1.0 0.1102665258
H  H3  1  0.80350000  0.06920000  0.49250000  1.0 0.1102665258
H  H4  1  0.19650000  0.56920000  0.00750000  1.0 0.1102665258
H  H5  1  0.06710000  0.10050000  0.49930000  1.0 0.1303694742
H  H6  1  0.93290000  0.60050000  0.00070000  1.0 0.1303694742
H  H7  1  0.93290000  0.89950000  0.50070000  1.0 0.1303694742
H  H8  1  0.06710000  0.39950000  0.99930000  1.0 0.1303694742
H  H9  1  0.21900000  0.21740000  0.34700000  1.0 0.1380391968
H  H10  1  0.78100000  0.71740000  0.15300000  1.0 0.1380391968
H  H11  1  0.78100000  0.78260000  0.65300000  1.0 0.1380391968
H  H12  1  0.21900000  0.28260000  0.84700000  1.0 0.1380391968
H  H13  1  0.34760000  0.04800000  0.36150000  1.0 0.1102665258
H  H14  1  0.65240000  0.54800000  0.13850000  1.0 0.1102665258
H  H15  1  0.65240000  0.95200000  0.63850000  1.0 0.1102665258
H  H16  1  0.34760000  0.45200000  0.86150000  1.0 0.1102665258
H  H17  1  0.77470000  0.61190000  0.39360000  1.0 0.1380391968
H  H18  1  0.22530000  0.11190000  0.10640000  1.0 0.1380391968
H  H19  1  0.22530000  0.38810000  0.60640000  1.0 0.1380391968
H  H20  1  0.77470000  0.88810000  0.89360000  1.0 0.1380391968
H  H21  1  0.62310000  0.75850000  0.38580000  1.0 0.1102665258
H  H22  1  0.37690000  0.25850000  0.11420000  1.0 0.1102665258
H  H23  1  0.37690000  0.24150000  0.61420000  1.0 0.1102665258
H  H24  1  0.62310000  0.74150000  0.88580000  1.0 0.1102665258
H  H25  1  0.52220000  0.65000000  0.54710000  1.0 0.0989437957
H  H26  1  0.47780000  0.15000000  0.95290000  1.0 0.0989437957
H  H27  1  0.47780000  0.35000000  0.45290000  1.0 0.0989437957
H  H28  1  0.52220000  0.85000000  0.04710000  1.0 0.0989437957
H  H29  1  0.67290000  0.50350000  0.55940000  1.0 0.1380391968
H  H30  1  0.32710000  0.00350000  0.94060000  1.0 0.1380391968
H  H31  1  0.32710000  0.49650000  0.44060000  1.0 0.1380391968
H  H32  1  0.67290000  0.99650000  0.05940000  1.0 0.1380391968
H  H33  1  0.32650000  0.68490000  0.63070000  1.0 0.1200953712
H  H34  1  0.67350000  0.18490000  0.86930000  1.0 0.1200953712
H  H35  1  0.67350000  0.31510000  0.36930000  1.0 0.1200953712
H  H36  1  0.32650000  0.81510000  0.13070000  1.0 0.1200953712
H  H37  1  0.30180000  0.63890000  0.73410000  1.0 0.1303694742
H  H38  1  0.69820000  0.13890000  0.76590000  1.0 0.1303694742
H  H39  1  0.69820000  0.36110000  0.26590000  1.0 0.1303694742
H  H40  1  0.30180000  0.86110000  0.23410000  1.0 0.1303694742
H  H41  1  0.42720000  0.04570000  0.67920000  1.0 0.1380391968
H  H42  1  0.57280000  0.54570000  0.82080000  1.0 0.1380391968
H  H43  1  0.57280000  0.95430000  0.32080000  1.0 0.1380391968
H  H44  1  0.42720000  0.45430000  0.17920000  1.0 0.1380391968
H  H45  1  0.84000000  0.37700000  0.51900000  1.0 0.1200953712
H  H46  1  0.16000000  0.87700000  0.98100000  1.0 0.1200953712
H  H47  1  0.16000000  0.62300000  0.48100000  1.0 0.1200953712
H  H48  1  0.84000000  0.12300000  0.01900000  1.0 0.1200953712
H  H49  1  0.05000000  0.34800000  0.37900000  1.0 0.1102665258
H  H50  1  0.95000000  0.84800000  0.12100000  1.0 0.1102665258
H  H51  1  0.95000000  0.65200000  0.62100000  1.0 0.1102665258
H  H52  1  0.05000000  0.15200000  0.87900000  1.0 0.1102665258
C  C1  1  0.20190000  0.99020000  0.47520000  1.0 0.0989437957
C  C2  1  0.79810000  0.49020000  0.02480000  1.0 0.0989437957
C  C3  1  0.79810000  0.00980000  0.52480000  1.0 0.0989437957
C  C4  1  0.20190000  0.50980000  0.97520000  1.0 0.0989437957
C  C5  1  0.12320000  0.09120000  0.47020000  1.0 -0.1813071131
C  C6  1  0.87680000  0.59120000  0.02980000  1.0 -0.1813071131
C  C7  1  0.87680000  0.90880000  0.52980000  1.0 -0.1813071131
C  C8  1  0.12320000  0.40880000  0.97020000  1.0 -0.1813071131
C  C9  1  0.12750000  0.17920000  0.42190000  1.0 0.1200953712
C  C10  1  0.87250000  0.67920000  0.07810000  1.0 0.1200953712
C  C11  1  0.87250000  0.82080000  0.57810000  1.0 0.1200953712
C  C12  1  0.12750000  0.32080000  0.92190000  1.0 0.1200953712
C  C13  1  0.21320000  0.16100000  0.38050000  1.0 -0.1813071131
C  C14  1  0.78680000  0.66100000  0.11950000  1.0 -0.1813071131
C  C15  1  0.78680000  0.83900000  0.61950000  1.0 -0.1813071131
C  C16  1  0.21320000  0.33900000  0.88050000  1.0 -0.1813071131
C  C17  1  0.28970000  0.05880000  0.38936000  1.0 0.0896833939
C  C18  1  0.71030000  0.55880000  0.11064000  1.0 0.0896833939
C  C19  1  0.71030000  0.94120000  0.61064000  1.0 0.0896833939
C  C20  1  0.28970000  0.44120000  0.88936000  1.0 0.0896833939
C  C21  1  0.04390000  0.28920000  0.41510000  1.0 0.0359216164
C  C22  1  0.95610000  0.78920000  0.08490000  1.0 0.0359216164
C  C23  1  0.95610000  0.71080000  0.58490000  1.0 0.0359216164
C  C24  1  0.04390000  0.21080000  0.91510000  1.0 0.0359216164
C  C25  1  0.82980000  0.43520000  0.48310000  1.0 0.0534801203
C  C26  1  0.17020000  0.93520000  0.01690000  1.0 0.0534801203
C  C27  1  0.17020000  0.56480000  0.51690000  1.0 0.0534801203
C  C28  1  0.82980000  0.06480000  0.98310000  1.0 0.0534801203
C  C29  1  0.73950000  0.53680000  0.47660000  1.0 0.1102665258
C  C30  1  0.26050000  0.03680000  0.02340000  1.0 0.1102665258
C  C31  1  0.26050000  0.46320000  0.52340000  1.0 0.1102665258
C  C32  1  0.73950000  0.96320000  0.97660000  1.0 0.1102665258
C  C33  1  0.72350000  0.61700000  0.42530000  1.0 -0.1708457069
C  C34  1  0.27650000  0.11700000  0.07470000  1.0 -0.1708457069
C  C35  1  0.27650000  0.38300000  0.57470000  1.0 -0.1708457069
C  C36  1  0.72350000  0.88300000  0.92530000  1.0 -0.1708457069
C  C37  1  0.63190000  0.70480000  0.42080000  1.0 0.0989437957
C  C38  1  0.36810000  0.20480000  0.07920000  1.0 0.0989437957
C  C39  1  0.36810000  0.29520000  0.57920000  1.0 0.0989437957
C  C40  1  0.63190000  0.79520000  0.92080000  1.0 0.0989437957
C  C41  1  0.57310000  0.64160000  0.51543000  1.0 0.0773516623
C  C42  1  0.42690000  0.14160000  0.98457000  1.0 0.0773516623
C  C43  1  0.42690000  0.35840000  0.48457000  1.0 0.0773516623
C  C44  1  0.57310000  0.85840000  0.01543000  1.0 0.0773516623
C  C45  1  0.66320000  0.55290000  0.52295000  1.0 -0.1813071131
C  C46  1  0.33680000  0.05290000  0.97705000  1.0 -0.1813071131
C  C47  1  0.33680000  0.44710000  0.47705000  1.0 -0.1813071131
C  C48  1  0.66320000  0.94710000  0.02295000  1.0 -0.1813071131
C  C49  1  0.38200000  0.86870000  0.64436000  1.0 -0.0119522624
C  C50  1  0.61800000  0.36870000  0.85564000  1.0 -0.0119522624
C  C51  1  0.61800000  0.13130000  0.35564000  1.0 -0.0119522624
C  C52  1  0.38200000  0.63130000  0.14436000  1.0 -0.0119522624
C  C53  1  0.34280000  0.74780000  0.66133000  1.0 -0.0778873535
C  C54  1  0.65720000  0.24780000  0.83867000  1.0 -0.0778873535
C  C55  1  0.65720000  0.25220000  0.33867000  1.0 -0.0778873535
C  C56  1  0.34280000  0.75220000  0.16133000  1.0 -0.0778873535
C  C57  1  0.32790000  0.72040000  0.72333000  1.0 -0.1099455031
C  C58  1  0.67210000  0.22040000  0.77667000  1.0 -0.1099455031
C  C59  1  0.67210000  0.27960000  0.27667000  1.0 -0.1099455031
C  C60  1  0.32790000  0.77960000  0.22333000  1.0 -0.1099455031
C  C61  1  0.35130000  0.81280000  0.76991000  1.0 -0.0295237182
C  C62  1  0.64870000  0.31280000  0.73009000  1.0 -0.0295237182
C  C63  1  0.64870000  0.18720000  0.23009000  1.0 -0.0295237182
C  C64  1  0.35130000  0.68720000  0.26991000  1.0 -0.0295237182
C  C65  1  0.38650000  0.93360000  0.75132000  1.0 0.0359216164
C  C66  1  0.61350000  0.43360000  0.74868000  1.0 0.0359216164
C  C67  1  0.61350000  0.06640000  0.24868000  1.0 0.0359216164
C  C68  1  0.38650000  0.56640000  0.25132000  1.0 0.0359216164
C  C69  1  0.40280000  0.96360000  0.68994000  1.0 -0.1480603637
C  C70  1  0.59720000  0.46360000  0.81006000  1.0 -0.1480603637
C  C71  1  0.59720000  0.03640000  0.31006000  1.0 -0.1480603637
C  C72  1  0.40280000  0.53640000  0.18994000  1.0 -0.1480603637
C  C73  1  0.33930000  0.77820000  0.83819000  1.0 0.5499359695
C  C74  1  0.66070000  0.27820000  0.66181000  1.0 0.5499359695
C  C75  1  0.66070000  0.22180000  0.16181000  1.0 0.5499359695
C  C76  1  0.33930000  0.72180000  0.33819000  1.0 0.5499359695
C  C77  1  0.40380000  0.90040000  0.57738000  1.0 0.5499359695
C  C78  1  0.59620000  0.40040000  0.92262000  1.0 0.5499359695
C  C79  1  0.59620000  0.09960000  0.42262000  1.0 0.5499359695
C  C80  1  0.40380000  0.59960000  0.07738000  1.0 0.5499359695
N  N1  1  0.28500000  0.97360000  0.43622000  1.0 -0.219658616
N  N2  1  0.71500000  0.47360000  0.06378000  1.0 -0.219658616
N  N3  1  0.71500000  0.02640000  0.56378000  1.0 -0.219658616
N  N4  1  0.28500000  0.52640000  0.93622000  1.0 -0.219658616
N  N5  1  0.97070000  0.30660000  0.45470000  1.0 -0.1708457069
N  N6  1  0.02930000  0.80660000  0.04530000  1.0 -0.1708457069
N  N7  1  0.02930000  0.69340000  0.54530000  1.0 -0.1708457069
N  N8  1  0.97070000  0.19340000  0.95470000  1.0 -0.1708457069
N  N9  1  0.89590000  0.41310000  0.43988000  1.0 -0.1914632591
N  N10  1  0.10410000  0.91310000  0.06012000  1.0 -0.1914632591
N  N11  1  0.10410000  0.58690000  0.56012000  1.0 -0.1914632591
N  N12  1  0.89590000  0.08690000  0.93988000  1.0 -0.1914632591
N  N13  1  0.55510000  0.71650000  0.46450000  1.0 -0.219658616
N  N14  1  0.44490000  0.21650000  0.03550000  1.0 -0.219658616
N  N15  1  0.44490000  0.28350000  0.53550000  1.0 -0.219658616
N  N16  1  0.55510000  0.78350000  0.96450000  1.0 -0.219658616
N  N17  1  0.41150000  0.03560000  0.79750000  1.0 0.50964016
N  N18  1  0.58850000  0.53560000  0.70250000  1.0 0.50964016
N  N19  1  0.58850000  0.96440000  0.20250000  1.0 0.50964016
N  N20  1  0.41150000  0.46440000  0.29750000  1.0 0.50964016
O  O1  1  0.37920000  0.81150000  0.53721000  1.0 -0.5491439523
O  O2  1  0.62080000  0.31150000  0.96279000  1.0 -0.5491439523
O  O3  1  0.62080000  0.18850000  0.46279000  1.0 -0.5491439523
O  O4  1  0.37920000  0.68850000  0.03721000  1.0 -0.5491439523
O  O5  1  0.44260000  0.00790000  0.56565000  1.0 -0.5695699425
O  O6  1  0.55740000  0.50790000  0.93435000  1.0 -0.5695699425
O  O7  1  0.55740000  0.99210000  0.43435000  1.0 -0.5695699425
O  O8  1  0.44260000  0.49210000  0.06565000  1.0 -0.5695699425
O  O9  1  0.41010000  0.69190000  0.85988000  1.0 -0.5364765497
O  O10  1  0.58990000  0.19190000  0.64012000  1.0 -0.5364765497
O  O11  1  0.58990000  0.30810000  0.14012000  1.0 -0.5364765497
O  O12  1  0.41010000  0.80810000  0.35988000  1.0 -0.5364765497
O  O13  1  0.26450000  0.83360000  0.86704000  1.0 -0.5491439523
O  O14  1  0.73550000  0.33360000  0.63296000  1.0 -0.5491439523
O  O15  1  0.73550000  0.16640000  0.13296000  1.0 -0.5491439523
O  O16  1  0.26450000  0.66640000  0.36704000  1.0 -0.5491439523
O  O17  1  0.46200000  0.00810000  0.84852000  1.0 -0.2945929738
O  O18  1  0.53800000  0.50810000  0.65148000  1.0 -0.2945929738
O  O19  1  0.53800000  0.99190000  0.15148000  1.0 -0.2945929738
O  O20  1  0.46200000  0.49190000  0.34852000  1.0 -0.2945929738
O  O21  1  0.38450000  0.14650000  0.78350000  1.0 -0.313744125
O  O22  1  0.61550000  0.64650000  0.71650000  1.0 -0.313744125
O  O23  1  0.61550000  0.85350000  0.21650000  1.0 -0.313744125
O  O24  1  0.38450000  0.35350000  0.28350000  1.0 -0.313744125
