# DDEC6 charges by PACMAN v1.1 (https://github.com/mtap-research/PACMAN-charge/)
data_WAHMEY01_ASR_pacman
_symmetry_space_group_name_H-M   'P 1'
_cell_length_a   7.01300000
_cell_length_b   15.79000000
_cell_length_c   15.79000000
_cell_angle_alpha   120.00000000
_cell_angle_beta   90.00000000
_cell_angle_gamma   90.00000000
_symmetry_Int_Tables_number   1
_chemical_formula_structural   FeH8Au2(C2N)8
_chemical_formula_sum   'Fe3 H24 Au6 C48 N24'
_cell_volume   1514.25400369
_cell_formula_units_Z   3
loop_
 _symmetry_equiv_pos_site_id
 _symmetry_equiv_pos_as_xyz
  1  'x, y, z'
loop_
 _atom_site_type_symbol
 _atom_site_label
 _atom_site_symmetry_multiplicity
 _atom_site_fract_x
 _atom_site_fract_y
 _atom_site_fract_z
 _atom_site_occupancy
 _atom_site_charge
Fe  Fe1  1  0.50000000  0.50000000  0.50000000  1.0 0.7903257437
Fe  Fe2  1  0.50000000  0.00000000  0.50000000  1.0 0.7903257437
Fe  Fe3  1  0.50000000  0.50000000  0.00000000  1.0 0.7903257437
H  H1  1  0.64026000  0.73300000  0.57531000  1.0 0.0871555286
H  H2  1  0.81489000  0.83789000  0.87818000  1.0 0.1112991988
H  H3  1  0.74755000  0.67061000  0.85637000  1.0 0.1112991988
H  H4  1  0.62503000  0.53472000  0.69397000  1.0 0.0710052875
H  H5  1  0.64026000  0.84231000  0.26700000  1.0 0.0871555286
H  H6  1  0.81489000  0.04029000  0.16211000  1.0 0.1112991988
H  H7  1  0.74755000  0.18576000  0.32939000  1.0 0.1112991988
H  H8  1  0.62503000  0.15925000  0.46528000  1.0 0.0710052875
H  H9  1  0.64026000  0.42469000  0.15769000  1.0 0.0871555286
H  H10  1  0.81489000  0.12182000  0.95971000  1.0 0.1112991988
H  H11  1  0.74755000  0.14363000  0.81424000  1.0 0.1112991988
H  H12  1  0.62503000  0.30603000  0.84075000  1.0 0.0710052875
H  H13  1  0.35974000  0.26700000  0.42469000  1.0 0.0871555286
H  H14  1  0.18511000  0.16211000  0.12182000  1.0 0.1112991988
H  H15  1  0.25245000  0.32939000  0.14363000  1.0 0.1112991988
H  H16  1  0.37497000  0.46528000  0.30603000  1.0 0.0710052875
H  H17  1  0.35974000  0.15769000  0.73300000  1.0 0.0871555286
H  H18  1  0.18511000  0.95971000  0.83789000  1.0 0.1112991988
H  H19  1  0.25245000  0.81424000  0.67061000  1.0 0.1112991988
H  H20  1  0.37497000  0.84075000  0.53472000  1.0 0.0710052875
H  H21  1  0.35974000  0.57531000  0.84231000  1.0 0.0871555286
H  H22  1  0.18511000  0.87818000  0.04029000  1.0 0.1112991988
H  H23  1  0.25245000  0.85637000  0.18576000  1.0 0.1112991988
H  H24  1  0.37497000  0.69397000  0.15925000  1.0 0.0710052875
Au  Au1  1  0.00008000  0.73886000  0.47778000  1.0 0.0392533174
Au  Au2  1  0.00008000  0.73892000  0.26114000  1.0 0.0392533174
Au  Au3  1  0.00008000  0.52222000  0.26108000  1.0 0.0392533174
Au  Au4  1  0.99992000  0.26114000  0.52222000  1.0 0.0392533174
Au  Au5  1  0.99992000  0.26108000  0.73886000  1.0 0.0392533174
Au  Au6  1  0.99992000  0.47778000  0.73892000  1.0 0.0392533174
C  C1  1  0.19600000  0.64890000  0.48160000  1.0 0.0791507465
C  C2  1  0.19300000  0.48230000  0.65030000  1.0 0.0791507465
C  C3  1  0.66400000  0.71900000  0.63870000  1.0 0.0968273657
C  C4  1  0.73000000  0.79370000  0.72790000  1.0 -0.0042801733
C  C5  1  0.76000000  0.77660000  0.80510000  1.0 0.0035061766
C  C6  1  0.72300000  0.68470000  0.79310000  1.0 -0.1105087124
C  C7  1  0.65600000  0.61000000  0.70380000  1.0 0.1112991988
C  C8  1  0.75900000  0.88580000  0.74580000  1.0 0.2308612096
C  C9  1  0.19600000  0.83270000  0.35110000  1.0 0.0791507465
C  C10  1  0.19300000  0.16800000  0.51770000  1.0 0.0791507465
C  C11  1  0.66400000  0.91970000  0.28100000  1.0 0.0968273657
C  C12  1  0.73000000  0.93420000  0.20630000  1.0 -0.0042801733
C  C13  1  0.76000000  0.02850000  0.22340000  1.0 0.0035061766
C  C14  1  0.72300000  0.10840000  0.31530000  1.0 -0.1105087124
C  C15  1  0.65600000  0.09380000  0.39000000  1.0 0.1112991988
C  C16  1  0.75900000  0.86000000  0.11420000  1.0 0.2308612096
C  C17  1  0.19600000  0.51840000  0.16730000  1.0 0.0791507465
C  C18  1  0.19300000  0.34970000  0.83200000  1.0 0.0791507465
C  C19  1  0.66400000  0.36130000  0.08030000  1.0 0.0968273657
C  C20  1  0.73000000  0.27210000  0.06580000  1.0 -0.0042801733
C  C21  1  0.76000000  0.19490000  0.97150000  1.0 0.0035061766
C  C22  1  0.72300000  0.20690000  0.89160000  1.0 -0.1105087124
C  C23  1  0.65600000  0.29620000  0.90620000  1.0 0.1112991988
C  C24  1  0.75900000  0.25420000  0.14000000  1.0 0.2308612096
C  C25  1  0.80400000  0.35110000  0.51840000  1.0 0.0791507465
C  C26  1  0.80700000  0.51770000  0.34970000  1.0 0.0791507465
C  C27  1  0.33600000  0.28100000  0.36130000  1.0 0.0968273657
C  C28  1  0.27000000  0.20630000  0.27210000  1.0 -0.0042801733
C  C29  1  0.24000000  0.22340000  0.19490000  1.0 0.0035061766
C  C30  1  0.27700000  0.31530000  0.20690000  1.0 -0.1105087124
C  C31  1  0.34400000  0.39000000  0.29620000  1.0 0.1112991988
C  C32  1  0.24100000  0.11420000  0.25420000  1.0 0.2308612096
C  C33  1  0.80400000  0.16730000  0.64890000  1.0 0.0791507465
C  C34  1  0.80700000  0.83200000  0.48230000  1.0 0.0791507465
C  C35  1  0.33600000  0.08030000  0.71900000  1.0 0.0968273657
C  C36  1  0.27000000  0.06580000  0.79370000  1.0 -0.0042801733
C  C37  1  0.24000000  0.97150000  0.77660000  1.0 0.0035061766
C  C38  1  0.27700000  0.89160000  0.68470000  1.0 -0.1105087124
C  C39  1  0.34400000  0.90620000  0.61000000  1.0 0.1112991988
C  C40  1  0.24100000  0.14000000  0.88580000  1.0 0.2308612096
C  C41  1  0.80400000  0.48160000  0.83270000  1.0 0.0791507465
C  C42  1  0.80700000  0.65030000  0.16800000  1.0 0.0791507465
C  C43  1  0.33600000  0.63870000  0.91970000  1.0 0.0968273657
C  C44  1  0.27000000  0.72790000  0.93420000  1.0 -0.0042801733
C  C45  1  0.24000000  0.80510000  0.02850000  1.0 0.0035061766
C  C46  1  0.27700000  0.79310000  0.10840000  1.0 -0.1105087124
C  C47  1  0.34400000  0.70380000  0.09380000  1.0 0.1112991988
C  C48  1  0.24100000  0.74580000  0.86000000  1.0 0.2308612096
N  N1  1  0.30500000  0.59740000  0.48480000  1.0 -0.3129363877
N  N2  1  0.30730000  0.48470000  0.59690000  1.0 -0.332430514
N  N3  1  0.62690000  0.62720000  0.62670000  1.0 -0.2509464197
N  N4  1  0.77200000  0.97420000  0.76920000  1.0 -0.4038039791
N  N5  1  0.30500000  0.88740000  0.40260000  1.0 -0.3129363877
N  N6  1  0.30730000  0.11220000  0.51530000  1.0 -0.332430514
N  N7  1  0.62690000  0.99950000  0.37280000  1.0 -0.2509464197
N  N8  1  0.77200000  0.79500000  0.02580000  1.0 -0.406997961
N  N9  1  0.30500000  0.51520000  0.11260000  1.0 -0.3129363877
N  N10  1  0.30730000  0.40310000  0.88780000  1.0 -0.332430514
N  N11  1  0.62690000  0.37330000  0.00050000  1.0 -0.2509464197
N  N12  1  0.77200000  0.23080000  0.20500000  1.0 -0.4038039791
N  N13  1  0.69500000  0.40260000  0.51520000  1.0 -0.3129363877
N  N14  1  0.69270000  0.51530000  0.40310000  1.0 -0.332430514
N  N15  1  0.37310000  0.37280000  0.37330000  1.0 -0.2509464197
N  N16  1  0.22800000  0.02580000  0.23080000  1.0 -0.4038039791
N  N17  1  0.69500000  0.11260000  0.59740000  1.0 -0.3129363877
N  N18  1  0.69270000  0.88780000  0.48470000  1.0 -0.332430514
N  N19  1  0.37310000  0.00050000  0.62720000  1.0 -0.2509464197
N  N20  1  0.22800000  0.20500000  0.97420000  1.0 -0.4038039791
N  N21  1  0.69500000  0.48480000  0.88740000  1.0 -0.3129363877
N  N22  1  0.69270000  0.59690000  0.11220000  1.0 -0.332430514
N  N23  1  0.37310000  0.62670000  0.99950000  1.0 -0.2509464197
N  N24  1  0.22800000  0.76920000  0.79500000  1.0 -0.406997961
