# DDEC6 charges by PACMAN v1.1 (https://github.com/mtap-research/PACMAN-charge/)
data_WAHMEY_ASR_pacman
_symmetry_space_group_name_H-M   'P 1'
_cell_length_a   15.67300000
_cell_length_b   15.67300000
_cell_length_c   6.95000000
_cell_angle_alpha   90.00000000
_cell_angle_beta   90.00000000
_cell_angle_gamma   120.00000000
_symmetry_Int_Tables_number   1
_chemical_formula_structural   FeAu2(C2N)8
_chemical_formula_sum   'Fe3 Au6 C48 N24'
_cell_volume   1478.49446658
_cell_formula_units_Z   3
loop_
 _symmetry_equiv_pos_site_id
 _symmetry_equiv_pos_as_xyz
  1  'x, y, z'
loop_
 _atom_site_type_symbol
 _atom_site_label
 _atom_site_symmetry_multiplicity
 _atom_site_fract_x
 _atom_site_fract_y
 _atom_site_fract_z
 _atom_site_occupancy
 _atom_site_charge
Fe  Fe1  1  0.50000000  0.00000000  0.50000000  1.0 0.8298594963
Fe  Fe2  1  0.00000000  0.50000000  0.50000000  1.0 0.8298594963
Fe  Fe3  1  0.50000000  0.50000000  0.50000000  1.0 0.8298594963
Au  Au1  1  0.26100000  0.73875000  0.99981000  1.0 0.0116994194
Au  Au2  1  0.26125000  0.52225000  0.99981000  1.0 0.0116994194
Au  Au3  1  0.47775000  0.73900000  0.99981000  1.0 0.0116994194
Au  Au4  1  0.73900000  0.26125000  0.00019000  1.0 0.0116994194
Au  Au5  1  0.73875000  0.47775000  0.00019000  1.0 0.0116994194
Au  Au6  1  0.52225000  0.26100000  0.00019000  1.0 0.0116994194
C  C1  1  0.35000000  0.83070000  0.79900000  1.0 0.0978466867
C  C2  1  0.16930000  0.51930000  0.79900000  1.0 0.0978466867
C  C3  1  0.48070000  0.65000000  0.79900000  1.0 0.0978466867
C  C4  1  0.65000000  0.16930000  0.20100000  1.0 0.0978466867
C  C5  1  0.83070000  0.48070000  0.20100000  1.0 0.0978466867
C  C6  1  0.51930000  0.35000000  0.20100000  1.0 0.0978466867
C  C7  1  0.51970000  0.16650000  0.80200000  1.0 0.0897934982
C  C8  1  0.83350000  0.35320000  0.80200000  1.0 0.0897934982
C  C9  1  0.64680000  0.48030000  0.80200000  1.0 0.0897934982
C  C10  1  0.48030000  0.83350000  0.19800000  1.0 0.0897934982
C  C11  1  0.16650000  0.64680000  0.19800000  1.0 0.0897934982
C  C12  1  0.35320000  0.51970000  0.19800000  1.0 0.0897934982
C  C13  1  0.28570000  0.91470000  0.33900000  1.0 0.0897934982
C  C14  1  0.08530000  0.37100000  0.33900000  1.0 0.0897934982
C  C15  1  0.62900000  0.71430000  0.33900000  1.0 0.0897934982
C  C16  1  0.71430000  0.08530000  0.66100000  1.0 0.0897934982
C  C17  1  0.91470000  0.62900000  0.66100000  1.0 0.0897934982
C  C18  1  0.37100000  0.28570000  0.66100000  1.0 0.0897934982
C  C19  1  0.20600000  0.92020000  0.26600000  1.0 -0.0377995317
C  C20  1  0.07980000  0.28580000  0.26600000  1.0 -0.0377995317
C  C21  1  0.71420000  0.79400000  0.26600000  1.0 -0.0377995317
C  C22  1  0.79400000  0.07980000  0.73400000  1.0 -0.0377995317
C  C23  1  0.92020000  0.71420000  0.73400000  1.0 -0.0377995317
C  C24  1  0.28580000  0.20600000  0.73400000  1.0 -0.0377995317
C  C25  1  0.21420000  0.01150000  0.23300000  1.0 0.1460221371
C  C26  1  0.98850000  0.20270000  0.23300000  1.0 0.1447121612
C  C27  1  0.79730000  0.78580000  0.23300000  1.0 0.1460221371
C  C28  1  0.78580000  0.98850000  0.76700000  1.0 0.1460221371
C  C29  1  0.01150000  0.79730000  0.76700000  1.0 0.1460221371
C  C30  1  0.20270000  0.21420000  0.76700000  1.0 0.1460221371
C  C31  1  0.30210000  0.09730000  0.27300000  1.0 -0.0116700404
C  C32  1  0.90270000  0.20480000  0.27300000  1.0 -0.0116700404
C  C33  1  0.79520000  0.69790000  0.27300000  1.0 -0.0116700404
C  C34  1  0.69790000  0.90270000  0.72700000  1.0 -0.0116700404
C  C35  1  0.09730000  0.79520000  0.72700000  1.0 -0.0116700404
C  C36  1  0.20480000  0.30210000  0.72700000  1.0 -0.0116700404
C  C37  1  0.38190000  0.09180000  0.34600000  1.0 0.1980891872
C  C38  1  0.90820000  0.29010000  0.34600000  1.0 0.1980891872
C  C39  1  0.70990000  0.61810000  0.34600000  1.0 0.1980891872
C  C40  1  0.61810000  0.90820000  0.65400000  1.0 0.1980891872
C  C41  1  0.09180000  0.70990000  0.65400000  1.0 0.1980891872
C  C42  1  0.29010000  0.38190000  0.65400000  1.0 0.1980891872
C  C43  1  0.10940000  0.85200000  0.24700000  1.0 0.1980891872
C  C44  1  0.14800000  0.25740000  0.24700000  1.0 0.1980891872
C  C45  1  0.74260000  0.89060000  0.24700000  1.0 0.1980891872
C  C46  1  0.89060000  0.14800000  0.75300000  1.0 0.1980891872
C  C47  1  0.85200000  0.74260000  0.75300000  1.0 0.1980891872
C  C48  1  0.25740000  0.10940000  0.75300000  1.0 0.1980891872
N  N1  1  0.40590000  0.89140000  0.69400000  1.0 -0.3503222057
N  N2  1  0.10860000  0.51450000  0.69400000  1.0 -0.3503222057
N  N3  1  0.48550000  0.59410000  0.69400000  1.0 -0.3503222057
N  N4  1  0.59410000  0.10860000  0.30600000  1.0 -0.3503222057
N  N5  1  0.89140000  0.48550000  0.30600000  1.0 -0.3503222057
N  N6  1  0.51450000  0.40590000  0.30600000  1.0 -0.3503222057
N  N7  1  0.51500000  0.10980000  0.69300000  1.0 -0.3361758976
N  N8  1  0.89020000  0.40520000  0.69300000  1.0 -0.3361758976
N  N9  1  0.59480000  0.48500000  0.69300000  1.0 -0.3361758976
N  N10  1  0.48500000  0.89020000  0.30700000  1.0 -0.3361758976
N  N11  1  0.10980000  0.59480000  0.30700000  1.0 -0.3361758976
N  N12  1  0.40520000  0.51500000  0.30700000  1.0 -0.3361758976
N  N13  1  0.37360000  0.00050000  0.37900000  1.0 -0.1358848141
N  N14  1  0.99950000  0.37310000  0.37900000  1.0 -0.1358848141
N  N15  1  0.62690000  0.62640000  0.37900000  1.0 -0.1358848141
N  N16  1  0.62640000  0.99950000  0.62100000  1.0 -0.1358848141
N  N17  1  0.00050000  0.62690000  0.62100000  1.0 -0.1337148139
N  N18  1  0.37310000  0.37360000  0.62100000  1.0 -0.1337148139
N  N19  1  0.02070000  0.78700000  0.22700000  1.0 -0.3729327211
N  N20  1  0.21300000  0.23370000  0.22700000  1.0 -0.3759074548
N  N21  1  0.76630000  0.97930000  0.22700000  1.0 -0.3759074548
N  N22  1  0.97930000  0.21300000  0.77300000  1.0 -0.3729327211
N  N23  1  0.78700000  0.76630000  0.77300000  1.0 -0.3759074548
N  N24  1  0.23370000  0.02070000  0.77300000  1.0 -0.3759074548
