# DDEC6 charges by PACMAN v1.1 (https://github.com/mtap-research/PACMAN-charge/)
data_WAHMEY01_FSR_pacman
_symmetry_space_group_name_H-M   'P 1'
_cell_length_a   15.79000000
_cell_length_b   15.79000000
_cell_length_c   7.01300000
_cell_angle_alpha   90.00000000
_cell_angle_beta   90.00000000
_cell_angle_gamma   120.00000000
_symmetry_Int_Tables_number   1
_chemical_formula_structural   FeAu2(C2N)8
_chemical_formula_sum   'Fe3 Au6 C48 N24'
_cell_volume   1514.25400369
_cell_formula_units_Z   3
loop_
 _symmetry_equiv_pos_site_id
 _symmetry_equiv_pos_as_xyz
  1  'x, y, z'
loop_
 _atom_site_type_symbol
 _atom_site_label
 _atom_site_symmetry_multiplicity
 _atom_site_fract_x
 _atom_site_fract_y
 _atom_site_fract_z
 _atom_site_occupancy
 _atom_site_charge
Fe  Fe1  1  0.50000000  0.00000000  0.50000000  1.0 0.815416597
Fe  Fe2  1  0.00000000  0.50000000  0.50000000  1.0 0.8145603167
Fe  Fe3  1  0.50000000  0.50000000  0.50000000  1.0 0.815416597
Au  Au1  1  0.26114000  0.73892000  0.99992000  1.0 0.0186483305
Au  Au2  1  0.26108000  0.52222000  0.99992000  1.0 0.0186483305
Au  Au3  1  0.47778000  0.73886000  0.99992000  1.0 0.0186483305
Au  Au4  1  0.73886000  0.26108000  0.00008000  1.0 0.0186483305
Au  Au5  1  0.73892000  0.47778000  0.00008000  1.0 0.0186483305
Au  Au6  1  0.52222000  0.26114000  0.00008000  1.0 0.0186483305
C  C1  1  0.35110000  0.83270000  0.80400000  1.0 0.0842035177
C  C2  1  0.16730000  0.51840000  0.80400000  1.0 0.0842035177
C  C3  1  0.48160000  0.64890000  0.80400000  1.0 0.0842035177
C  C4  1  0.64890000  0.16730000  0.19600000  1.0 0.0842035177
C  C5  1  0.83270000  0.48160000  0.19600000  1.0 0.0908000461
C  C6  1  0.51840000  0.35110000  0.19600000  1.0 0.0842035177
C  C7  1  0.51770000  0.16800000  0.80700000  1.0 0.0908000461
C  C8  1  0.83200000  0.34970000  0.80700000  1.0 0.0908000461
C  C9  1  0.65030000  0.48230000  0.80700000  1.0 0.0908000461
C  C10  1  0.48230000  0.83200000  0.19300000  1.0 0.0908000461
C  C11  1  0.16800000  0.65030000  0.19300000  1.0 0.0908000461
C  C12  1  0.34970000  0.51770000  0.19300000  1.0 0.0908000461
C  C13  1  0.28100000  0.91970000  0.33600000  1.0 0.0999220537
C  C14  1  0.08030000  0.36130000  0.33600000  1.0 0.0999220537
C  C15  1  0.63870000  0.71900000  0.33600000  1.0 0.0999220537
C  C16  1  0.71900000  0.08030000  0.66400000  1.0 0.0999220537
C  C17  1  0.91970000  0.63870000  0.66400000  1.0 0.0999220537
C  C18  1  0.36130000  0.28100000  0.66400000  1.0 0.0999220537
C  C19  1  0.20630000  0.93420000  0.27000000  1.0 -0.0382197838
C  C20  1  0.06580000  0.27210000  0.27000000  1.0 -0.0382197838
C  C21  1  0.72790000  0.79370000  0.27000000  1.0 -0.0382197838
C  C22  1  0.79370000  0.06580000  0.73000000  1.0 -0.0382197838
C  C23  1  0.93420000  0.72790000  0.73000000  1.0 -0.0382197838
C  C24  1  0.27210000  0.20630000  0.73000000  1.0 -0.0382197838
C  C25  1  0.22340000  0.02850000  0.24000000  1.0 0.1613395291
C  C26  1  0.97150000  0.19490000  0.24000000  1.0 0.1613395291
C  C27  1  0.80510000  0.77660000  0.24000000  1.0 0.1613395291
C  C28  1  0.77660000  0.97150000  0.76000000  1.0 0.1613395291
C  C29  1  0.02850000  0.80510000  0.76000000  1.0 0.1613395291
C  C30  1  0.19490000  0.22340000  0.76000000  1.0 0.1613395291
C  C31  1  0.31530000  0.10840000  0.27700000  1.0 -0.0247541887
C  C32  1  0.89160000  0.20690000  0.27700000  1.0 -0.0261684803
C  C33  1  0.79310000  0.68470000  0.27700000  1.0 -0.0247541887
C  C34  1  0.68470000  0.89160000  0.72300000  1.0 -0.0261684803
C  C35  1  0.10840000  0.79310000  0.72300000  1.0 -0.0261684803
C  C36  1  0.20690000  0.31530000  0.72300000  1.0 -0.0261684803
C  C37  1  0.39000000  0.09380000  0.34400000  1.0 0.1934728073
C  C38  1  0.90620000  0.29620000  0.34400000  1.0 0.1934728073
C  C39  1  0.70380000  0.61000000  0.34400000  1.0 0.1934728073
C  C40  1  0.61000000  0.90620000  0.65600000  1.0 0.1934728073
C  C41  1  0.09380000  0.70380000  0.65600000  1.0 0.195789926
C  C42  1  0.29620000  0.39000000  0.65600000  1.0 0.1934728073
C  C43  1  0.11420000  0.86000000  0.24100000  1.0 0.224563338
C  C44  1  0.14000000  0.25420000  0.24100000  1.0 0.224563338
C  C45  1  0.74580000  0.88580000  0.24100000  1.0 0.2253380196
C  C46  1  0.88580000  0.14000000  0.75900000  1.0 0.224563338
C  C47  1  0.86000000  0.74580000  0.75900000  1.0 0.224563338
C  C48  1  0.25420000  0.11420000  0.75900000  1.0 0.224563338
N  N1  1  0.40260000  0.88740000  0.69500000  1.0 -0.3304873628
N  N2  1  0.11260000  0.51520000  0.69500000  1.0 -0.3304873628
N  N3  1  0.48480000  0.59740000  0.69500000  1.0 -0.3304873628
N  N4  1  0.59740000  0.11260000  0.30500000  1.0 -0.3304873628
N  N5  1  0.88740000  0.48480000  0.30500000  1.0 -0.3304873628
N  N6  1  0.51520000  0.40260000  0.30500000  1.0 -0.3304873628
N  N7  1  0.51530000  0.11220000  0.69270000  1.0 -0.3512072238
N  N8  1  0.88780000  0.40310000  0.69270000  1.0 -0.3512072238
N  N9  1  0.59690000  0.48470000  0.69270000  1.0 -0.3512072238
N  N10  1  0.48470000  0.88780000  0.30730000  1.0 -0.3512072238
N  N11  1  0.11220000  0.59690000  0.30730000  1.0 -0.3512072238
N  N12  1  0.40310000  0.51530000  0.30730000  1.0 -0.3512072238
N  N13  1  0.37280000  0.99950000  0.37310000  1.0 -0.1413684808
N  N14  1  0.00050000  0.37330000  0.37310000  1.0 -0.1413684808
N  N15  1  0.62670000  0.62720000  0.37310000  1.0 -0.1413684808
N  N16  1  0.62720000  0.00050000  0.62690000  1.0 -0.1413684808
N  N17  1  0.99950000  0.62670000  0.62690000  1.0 -0.1413684808
N  N18  1  0.37330000  0.37280000  0.62690000  1.0 -0.1413684808
N  N19  1  0.02580000  0.79500000  0.22800000  1.0 -0.3976082576
N  N20  1  0.20500000  0.23080000  0.22800000  1.0 -0.3976082576
N  N21  1  0.76920000  0.97420000  0.22800000  1.0 -0.3939209131
N  N22  1  0.97420000  0.20500000  0.77200000  1.0 -0.3939209131
N  N23  1  0.79500000  0.76920000  0.77200000  1.0 -0.3939209131
N  N24  1  0.23080000  0.02580000  0.77200000  1.0 -0.3939209131
