# DDEC6 charges by PACMAN v1.1 (https://github.com/mtap-research/PACMAN-charge/)
data_WAJGIY_FSR_pacman
_symmetry_space_group_name_H-M   'P 1'
_cell_length_a   10.79900000
_cell_length_b   10.79900000
_cell_length_c   20.89700000
_cell_angle_alpha   90.00000000
_cell_angle_beta   90.00000000
_cell_angle_gamma   90.00000000
_symmetry_Int_Tables_number   1
_chemical_formula_structural   K2Mn2H36WC32(N2O)6
_chemical_formula_sum   'K4 Mn4 H72 W2 C64 N24 O12'
_cell_volume   2436.97472570
_cell_formula_units_Z   2
loop_
 _symmetry_equiv_pos_site_id
 _symmetry_equiv_pos_as_xyz
  1  'x, y, z'
loop_
 _atom_site_type_symbol
 _atom_site_label
 _atom_site_symmetry_multiplicity
 _atom_site_fract_x
 _atom_site_fract_y
 _atom_site_fract_z
 _atom_site_occupancy
 _atom_site_charge
K  K1  1  0.97030000  0.29930000  0.50000000  1.0 0.8457117198
K  K2  1  0.70070000  0.97030000  0.00000000  1.0 0.8457117198
K  K3  1  0.29930000  0.02970000  0.00000000  1.0 0.8457117198
K  K4  1  0.02970000  0.70070000  0.50000000  1.0 0.8457117198
Mn  Mn1  1  0.50000000  0.00000000  0.70668000  1.0 0.9912007569
Mn  Mn2  1  0.00000000  0.50000000  0.20668000  1.0 0.9912007569
Mn  Mn3  1  0.50000000  0.00000000  0.29332000  1.0 0.9912007569
Mn  Mn4  1  0.00000000  0.50000000  0.79332000  1.0 0.9912007569
H  H1  1  0.71900000  0.35100000  0.70800000  1.0 0.1264277633
H  H2  1  0.64900000  0.71900000  0.20800000  1.0 0.1264277633
H  H3  1  0.35100000  0.28100000  0.20800000  1.0 0.1264277633
H  H4  1  0.71900000  0.35100000  0.29200000  1.0 0.1264277633
H  H5  1  0.28100000  0.64900000  0.29200000  1.0 0.1264277633
H  H6  1  0.35100000  0.28100000  0.79200000  1.0 0.1264277633
H  H7  1  0.64900000  0.71900000  0.79200000  1.0 0.1264277633
H  H8  1  0.28100000  0.64900000  0.70800000  1.0 0.1264277633
H  H9  1  0.61800000  0.23690000  0.55670000  1.0 0.1574074545
H  H10  1  0.76310000  0.61800000  0.05670000  1.0 0.1574074545
H  H11  1  0.23690000  0.38200000  0.05670000  1.0 0.1574074545
H  H12  1  0.61800000  0.23690000  0.44330000  1.0 0.1574074545
H  H13  1  0.38200000  0.76310000  0.44330000  1.0 0.1574074545
H  H14  1  0.23690000  0.38200000  0.94330000  1.0 0.1574074545
H  H15  1  0.76310000  0.61800000  0.94330000  1.0 0.1574074545
H  H16  1  0.38200000  0.76310000  0.55670000  1.0 0.1574074545
H  H17  1  0.74000000  0.27930000  0.59090000  1.0 0.1423219858
H  H18  1  0.72070000  0.74000000  0.09090000  1.0 0.1423219858
H  H19  1  0.27930000  0.26000000  0.09090000  1.0 0.1423219858
H  H20  1  0.74000000  0.27930000  0.40910000  1.0 0.1423219858
H  H21  1  0.26000000  0.72070000  0.40910000  1.0 0.1423219858
H  H22  1  0.27930000  0.26000000  0.90910000  1.0 0.1423219858
H  H23  1  0.72070000  0.74000000  0.90910000  1.0 0.1423219858
H  H24  1  0.26000000  0.72070000  0.59090000  1.0 0.1423219858
H  H25  1  0.62260000  0.36460000  0.59230000  1.0 0.1574074545
H  H26  1  0.63540000  0.62260000  0.09230000  1.0 0.1574074545
H  H27  1  0.36460000  0.37740000  0.09230000  1.0 0.1574074545
H  H28  1  0.62260000  0.36460000  0.40770000  1.0 0.1574074545
H  H29  1  0.37740000  0.63540000  0.40770000  1.0 0.1574074545
H  H30  1  0.36460000  0.37740000  0.90770000  1.0 0.1574074545
H  H31  1  0.63540000  0.62260000  0.90770000  1.0 0.1574074545
H  H32  1  0.37740000  0.63540000  0.59230000  1.0 0.1574074545
H  H33  1  0.60010000  0.25480000  0.86790000  1.0 0.1519162326
H  H34  1  0.74520000  0.60010000  0.36790000  1.0 0.1519162326
H  H35  1  0.25480000  0.39990000  0.36790000  1.0 0.1519162326
H  H36  1  0.60010000  0.25480000  0.13210000  1.0 0.1519162326
H  H37  1  0.39990000  0.74520000  0.13210000  1.0 0.1519162326
H  H38  1  0.25480000  0.39990000  0.63210000  1.0 0.1519162326
H  H39  1  0.74520000  0.60010000  0.63210000  1.0 0.1519162326
H  H40  1  0.39990000  0.74520000  0.86790000  1.0 0.1519162326
H  H41  1  0.59870000  0.37630000  0.82690000  1.0 0.1574074545
H  H42  1  0.62370000  0.59870000  0.32690000  1.0 0.1574074545
H  H43  1  0.37630000  0.40130000  0.32690000  1.0 0.1574074545
H  H44  1  0.59870000  0.37630000  0.17310000  1.0 0.1574074545
H  H45  1  0.40130000  0.62370000  0.17310000  1.0 0.1574074545
H  H46  1  0.37630000  0.40130000  0.67310000  1.0 0.1574074545
H  H47  1  0.62370000  0.59870000  0.67310000  1.0 0.1574074545
H  H48  1  0.40130000  0.62370000  0.82690000  1.0 0.1574074545
H  H49  1  0.72190000  0.30110000  0.83490000  1.0 0.1742714165
H  H50  1  0.69890000  0.72190000  0.33490000  1.0 0.1742714165
H  H51  1  0.30110000  0.27810000  0.33490000  1.0 0.1742714165
H  H52  1  0.72190000  0.30110000  0.16510000  1.0 0.1742714165
H  H53  1  0.27810000  0.69890000  0.16510000  1.0 0.1742714165
H  H54  1  0.30110000  0.27810000  0.66510000  1.0 0.1742714165
H  H55  1  0.69890000  0.72190000  0.66510000  1.0 0.1742714165
H  H56  1  0.27810000  0.69890000  0.83490000  1.0 0.1742714165
H  H57  1  0.54590000  0.09380000  0.87370000  1.0 0.1145134463
H  H58  1  0.90620000  0.54590000  0.37370000  1.0 0.1145134463
H  H59  1  0.09380000  0.45410000  0.37370000  1.0 0.1145134463
H  H60  1  0.54590000  0.09380000  0.12630000  1.0 0.1145134463
H  H61  1  0.45410000  0.90620000  0.12630000  1.0 0.1145134463
H  H62  1  0.09380000  0.45410000  0.62630000  1.0 0.1145134463
H  H63  1  0.90620000  0.54590000  0.62630000  1.0 0.1145134463
H  H64  1  0.45410000  0.90620000  0.87370000  1.0 0.1145134463
H  H65  1  0.41040000  0.08420000  0.84710000  1.0 0.1264277633
H  H66  1  0.91580000  0.41040000  0.34710000  1.0 0.1264277633
H  H67  1  0.08420000  0.58960000  0.34710000  1.0 0.1264277633
H  H68  1  0.41040000  0.08420000  0.15290000  1.0 0.1264277633
H  H69  1  0.58960000  0.91580000  0.15290000  1.0 0.1264277633
H  H70  1  0.08420000  0.58960000  0.65290000  1.0 0.1264277633
H  H71  1  0.91580000  0.41040000  0.65290000  1.0 0.1264277633
H  H72  1  0.58960000  0.91580000  0.84710000  1.0 0.1264277633
W  W1  1  0.00000000  0.00000000  0.75000000  1.0 0.5197146802
W  W2  1  0.00000000  0.00000000  0.25000000  1.0 0.5197146802
C  C1  1  0.98490000  0.11650000  0.66700000  1.0 0.0457949384
C  C2  1  0.88350000  0.98490000  0.16700000  1.0 0.0457949384
C  C3  1  0.11650000  0.01510000  0.16700000  1.0 0.0457949384
C  C4  1  0.98490000  0.11650000  0.33300000  1.0 0.0457949384
C  C5  1  0.01510000  0.88350000  0.33300000  1.0 0.0457949384
C  C6  1  0.11650000  0.01510000  0.83300000  1.0 0.0457949384
C  C7  1  0.88350000  0.98490000  0.83300000  1.0 0.0457949384
C  C8  1  0.01510000  0.88350000  0.66700000  1.0 0.0457949384
C  C9  1  0.19400000  0.03020000  0.72100000  1.0 0.0659698117
C  C10  1  0.96980000  0.19400000  0.22100000  1.0 0.0659698117
C  C11  1  0.03020000  0.80600000  0.22100000  1.0 0.0637385926
C  C12  1  0.19400000  0.03020000  0.27900000  1.0 0.0659698117
C  C13  1  0.80600000  0.96980000  0.27900000  1.0 0.0659698117
C  C14  1  0.03020000  0.80600000  0.77900000  1.0 0.0637385926
C  C15  1  0.96980000  0.19400000  0.77900000  1.0 0.0659698117
C  C16  1  0.80600000  0.96980000  0.72100000  1.0 0.0659698117
C  C17  1  0.60880000  0.21850000  0.65380000  1.0 0.4251091151
C  C18  1  0.78150000  0.60880000  0.15380000  1.0 0.4251091151
C  C19  1  0.21850000  0.39120000  0.15380000  1.0 0.4251091151
C  C20  1  0.60880000  0.21850000  0.34620000  1.0 0.4251091151
C  C21  1  0.39120000  0.78150000  0.34620000  1.0 0.4251091151
C  C22  1  0.21850000  0.39120000  0.84620000  1.0 0.4251091151
C  C23  1  0.78150000  0.60880000  0.84620000  1.0 0.4251091151
C  C24  1  0.39120000  0.78150000  0.65380000  1.0 0.4251091151
C  C25  1  0.64330000  0.26330000  0.71160000  1.0 -0.398927837
C  C26  1  0.73670000  0.64330000  0.21160000  1.0 -0.398927837
C  C27  1  0.26330000  0.35670000  0.21160000  1.0 -0.398927837
C  C28  1  0.64330000  0.26330000  0.28840000  1.0 -0.398927837
C  C29  1  0.35670000  0.73670000  0.28840000  1.0 -0.398927837
C  C30  1  0.26330000  0.35670000  0.78840000  1.0 -0.398927837
C  C31  1  0.73670000  0.64330000  0.78840000  1.0 -0.398927837
C  C32  1  0.35670000  0.73670000  0.71160000  1.0 -0.398927837
C  C33  1  0.65120000  0.28050000  0.59290000  1.0 -0.4872314309
C  C34  1  0.71950000  0.65120000  0.09290000  1.0 -0.4872314309
C  C35  1  0.28050000  0.34880000  0.09290000  1.0 -0.4872314309
C  C36  1  0.65120000  0.28050000  0.40710000  1.0 -0.4872314309
C  C37  1  0.34880000  0.71950000  0.40710000  1.0 -0.4872314309
C  C38  1  0.28050000  0.34880000  0.90710000  1.0 -0.4872314309
C  C39  1  0.71950000  0.65120000  0.90710000  1.0 -0.4872314309
C  C40  1  0.34880000  0.71950000  0.59290000  1.0 -0.4872314309
C  C41  1  0.60190000  0.21960000  0.77150000  1.0 0.3760187073
C  C42  1  0.78040000  0.60190000  0.27150000  1.0 0.3760187073
C  C43  1  0.21960000  0.39810000  0.27150000  1.0 0.3760187073
C  C44  1  0.60190000  0.21960000  0.22850000  1.0 0.3760187073
C  C45  1  0.39810000  0.78040000  0.22850000  1.0 0.3760187073
C  C46  1  0.21960000  0.39810000  0.72850000  1.0 0.3760187073
C  C47  1  0.78040000  0.60190000  0.72850000  1.0 0.3760187073
C  C48  1  0.39810000  0.78040000  0.77150000  1.0 0.3760187073
C  C49  1  0.63360000  0.29490000  0.83080000  1.0 -0.4872314309
C  C50  1  0.70510000  0.63360000  0.33080000  1.0 -0.4872314309
C  C51  1  0.29490000  0.36640000  0.33080000  1.0 -0.4872314309
C  C52  1  0.63360000  0.29490000  0.16920000  1.0 -0.4872314309
C  C53  1  0.36640000  0.70510000  0.16920000  1.0 -0.4872314309
C  C54  1  0.29490000  0.36640000  0.66920000  1.0 -0.4872314309
C  C55  1  0.70510000  0.63360000  0.66920000  1.0 -0.4872314309
C  C56  1  0.36640000  0.70510000  0.83080000  1.0 -0.4872314309
C  C57  1  0.49570000  0.06050000  0.83920000  1.0 -0.0917045766
C  C58  1  0.93950000  0.49570000  0.33920000  1.0 -0.0917045766
C  C59  1  0.06050000  0.50430000  0.33920000  1.0 -0.0917045766
C  C60  1  0.49570000  0.06050000  0.16080000  1.0 -0.0917045766
C  C61  1  0.50430000  0.93950000  0.16080000  1.0 -0.0917045766
C  C62  1  0.06050000  0.50430000  0.66080000  1.0 -0.0917045766
C  C63  1  0.93950000  0.49570000  0.66080000  1.0 -0.0917045766
C  C64  1  0.50430000  0.93950000  0.83920000  1.0 -0.0917045766
N  N1  1  0.28970000  0.05020000  0.70780000  1.0 -0.3275885953
N  N2  1  0.94980000  0.28970000  0.20780000  1.0 -0.3275885953
N  N3  1  0.05020000  0.71030000  0.20780000  1.0 -0.3275885953
N  N4  1  0.28970000  0.05020000  0.29220000  1.0 -0.3275885953
N  N5  1  0.71030000  0.94980000  0.29220000  1.0 -0.3275885953
N  N6  1  0.05020000  0.71030000  0.79220000  1.0 -0.3275885953
N  N7  1  0.94980000  0.28970000  0.79220000  1.0 -0.3275885953
N  N8  1  0.71030000  0.94980000  0.70780000  1.0 -0.3275885953
N  N9  1  0.97470000  0.17440000  0.62170000  1.0 -0.398927837
N  N10  1  0.82560000  0.97470000  0.12170000  1.0 -0.398927837
N  N11  1  0.17440000  0.02530000  0.12170000  1.0 -0.398927837
N  N12  1  0.97470000  0.17440000  0.37830000  1.0 -0.398927837
N  N13  1  0.02530000  0.82560000  0.37830000  1.0 -0.398927837
N  N14  1  0.17440000  0.02530000  0.87830000  1.0 -0.398927837
N  N15  1  0.82560000  0.97470000  0.87830000  1.0 -0.398927837
N  N16  1  0.02530000  0.82560000  0.62170000  1.0 -0.398927837
N  N17  1  0.53650000  0.11400000  0.77870000  1.0 -0.3275885953
N  N18  1  0.88600000  0.53650000  0.27870000  1.0 -0.3275885953
N  N19  1  0.11400000  0.46350000  0.27870000  1.0 -0.3275885953
N  N20  1  0.53650000  0.11400000  0.22130000  1.0 -0.3245863946
N  N21  1  0.46350000  0.88600000  0.22130000  1.0 -0.3245863946
N  N22  1  0.11400000  0.46350000  0.72130000  1.0 -0.3275885953
N  N23  1  0.88600000  0.53650000  0.72130000  1.0 -0.3275885953
N  N24  1  0.46350000  0.88600000  0.77870000  1.0 -0.3275885953
O  O1  1  0.53870000  0.11940000  0.64460000  1.0 -0.4419820936
O  O2  1  0.88060000  0.53870000  0.14460000  1.0 -0.4419820936
O  O3  1  0.11940000  0.46130000  0.14460000  1.0 -0.4419820936
O  O4  1  0.53870000  0.11940000  0.35540000  1.0 -0.4419820936
O  O5  1  0.46130000  0.88060000  0.35540000  1.0 -0.4419820936
O  O6  1  0.11940000  0.46130000  0.85540000  1.0 -0.4419820936
O  O7  1  0.88060000  0.53870000  0.85540000  1.0 -0.4419820936
O  O8  1  0.46130000  0.88060000  0.64460000  1.0 -0.4419820936
O  O9  1  0.83500000  0.52500000  0.50000000  1.0 -0.616777602
O  O10  1  0.47500000  0.83500000  0.00000000  1.0 -0.616777602
O  O11  1  0.52500000  0.16500000  0.00000000  1.0 -0.616777602
O  O12  1  0.16500000  0.47500000  0.50000000  1.0 -0.616777602
