# DDEC6 charges by PACMAN v1.1 (https://github.com/mtap-research/PACMAN-charge/)
data_WAMRIN02_FSR_pacman
_symmetry_space_group_name_H-M   'P 1'
_cell_length_a   14.48400000
_cell_length_b   13.38900000
_cell_length_c   20.37300000
_cell_angle_alpha   90.00000000
_cell_angle_beta   133.80000000
_cell_angle_gamma   90.00000000
_symmetry_Int_Tables_number   1
_chemical_formula_structural   Mg3H30C32(NO5)4
_chemical_formula_sum   'Mg6 H60 C64 N8 O40'
_cell_volume   2851.57362990
_cell_formula_units_Z   2
loop_
 _symmetry_equiv_pos_site_id
 _symmetry_equiv_pos_as_xyz
  1  'x, y, z'
loop_
 _atom_site_type_symbol
 _atom_site_label
 _atom_site_symmetry_multiplicity
 _atom_site_fract_x
 _atom_site_fract_y
 _atom_site_fract_z
 _atom_site_occupancy
 _atom_site_charge
Mg  Mg1  1  0.00000000  0.00000000  0.00000000  1.0 1.3814926004
Mg  Mg2  1  0.00000000  0.50000000  0.50000000  1.0 1.3814926004
Mg  Mg3  1  0.75181000  0.94059000  0.99391000  1.0 1.3429901456
Mg  Mg4  1  0.24819000  0.44059000  0.50609000  1.0 1.3429901456
Mg  Mg5  1  0.24819000  0.05941000  0.00609000  1.0 1.3429901456
Mg  Mg6  1  0.75181000  0.55941000  0.49391000  1.0 1.3429901456
H  H1  1  0.58160000  0.82640000  0.93630000  1.0 0.2981886198
H  H2  1  0.41840000  0.32640000  0.56370000  1.0 0.2981886198
H  H3  1  0.41840000  0.17360000  0.06370000  1.0 0.2981886198
H  H4  1  0.58160000  0.67360000  0.43630000  1.0 0.2981886198
H  H5  1  0.65970000  0.78800000  0.01970000  1.0 0.3216789072
H  H6  1  0.34030000  0.28800000  0.48030000  1.0 0.3216789072
H  H7  1  0.34030000  0.21200000  0.98030000  1.0 0.3216789072
H  H8  1  0.65970000  0.71200000  0.51970000  1.0 0.3216789072
H  H9  1  0.08950000  0.61110000  0.40700000  1.0 0.27271317
H  H10  1  0.91050000  0.11110000  0.09300000  1.0 0.27271317
H  H11  1  0.91050000  0.38890000  0.59300000  1.0 0.27271317
H  H12  1  0.08950000  0.88890000  0.90700000  1.0 0.27271317
H  H13  1  0.80460000  0.57380000  0.66730000  1.0 0.2767632534
H  H14  1  0.19540000  0.07380000  0.83270000  1.0 0.2767632534
H  H15  1  0.19540000  0.42620000  0.33270000  1.0 0.2767632534
H  H16  1  0.80460000  0.92620000  0.16730000  1.0 0.2767632534
H  H17  1  0.91050000  0.60520000  0.75600000  1.0 0.2594770198
H  H18  1  0.08950000  0.10520000  0.74400000  1.0 0.2594770198
H  H19  1  0.08950000  0.39480000  0.24400000  1.0 0.2594770198
H  H20  1  0.91050000  0.89480000  0.25600000  1.0 0.2594770198
H  H21  1  0.41940000  0.71010000  0.26050000  1.0 0.2942160894
H  H22  1  0.58060000  0.21010000  0.23950000  1.0 0.2942160894
H  H23  1  0.58060000  0.28990000  0.73950000  1.0 0.2942160894
H  H24  1  0.41940000  0.78990000  0.76050000  1.0 0.2942160894
H  H25  1  0.44910000  0.61150000  0.30960000  1.0 0.2981886198
H  H26  1  0.55090000  0.11150000  0.19040000  1.0 0.2981886198
H  H27  1  0.55090000  0.38850000  0.69040000  1.0 0.2981886198
H  H28  1  0.44910000  0.88850000  0.80960000  1.0 0.2981886198
H  H29  1  0.88430000  0.76370000  0.81370000  1.0 0.1366939103
H  H30  1  0.11570000  0.26370000  0.68630000  1.0 0.1366939103
H  H31  1  0.11570000  0.23630000  0.18630000  1.0 0.1366939103
H  H32  1  0.88430000  0.73630000  0.31370000  1.0 0.1366939103
H  H33  1  0.61060000  0.56430000  0.63550000  1.0 0.1286713207
H  H34  1  0.38940000  0.06430000  0.86450000  1.0 0.1286713207
H  H35  1  0.38940000  0.43570000  0.36450000  1.0 0.1286713207
H  H36  1  0.61060000  0.93570000  0.13550000  1.0 0.1286713207
H  H37  1  0.57370000  0.74030000  0.77580000  1.0 0.1192027485
H  H38  1  0.42630000  0.24030000  0.72420000  1.0 0.1192027485
H  H39  1  0.42630000  0.25970000  0.22420000  1.0 0.1192027485
H  H40  1  0.57370000  0.75970000  0.27580000  1.0 0.1192027485
H  H41  1  0.02300000  0.74220000  0.24090000  1.0 0.1286713207
H  H42  1  0.97700000  0.24220000  0.25910000  1.0 0.1286713207
H  H43  1  0.97700000  0.25780000  0.75910000  1.0 0.1286713207
H  H44  1  0.02300000  0.75780000  0.74090000  1.0 0.1286713207
H  H45  1  0.35460000  0.59700000  0.37680000  1.0 0.1366939103
H  H46  1  0.64540000  0.09700000  0.12320000  1.0 0.1366939103
H  H47  1  0.64540000  0.40300000  0.62320000  1.0 0.1366939103
H  H48  1  0.35460000  0.90300000  0.87680000  1.0 0.1366939103
H  H49  1  0.23470000  0.79670000  0.18480000  1.0 0.1467833338
H  H50  1  0.76530000  0.29670000  0.31520000  1.0 0.1467833338
H  H51  1  0.76530000  0.20330000  0.81520000  1.0 0.1467833338
H  H52  1  0.23470000  0.70330000  0.68480000  1.0 0.1467833338
H  H53  1  0.78870000  0.08070000  0.93930000  1.0 0.349348784
H  H54  1  0.21130000  0.58070000  0.56070000  1.0 0.349348784
H  H55  1  0.21130000  0.91930000  0.06070000  1.0 0.349348784
H  H56  1  0.78870000  0.41930000  0.43930000  1.0 0.349348784
H  H57  1  0.87570000  0.09160000  0.03000000  1.0 0.2445309018
H  H58  1  0.12430000  0.59160000  0.47000000  1.0 0.2460616907
H  H59  1  0.12430000  0.90840000  0.97000000  1.0 0.2460616907
H  H60  1  0.87570000  0.40840000  0.53000000  1.0 0.2445309018
C  C1  1  0.78784000  0.84613000  0.87535000  1.0 0.6220688602
C  C2  1  0.21216000  0.34613000  0.62465000  1.0 0.6220688602
C  C3  1  0.21216000  0.15387000  0.12465000  1.0 0.6220688602
C  C4  1  0.78784000  0.65387000  0.37535000  1.0 0.6220688602
C  C5  1  0.73660000  0.76470000  0.80577000  1.0 0.0014258414
C  C6  1  0.26340000  0.26470000  0.69423000  1.0 0.0014258414
C  C7  1  0.26340000  0.23530000  0.19423000  1.0 0.0014258414
C  C8  1  0.73660000  0.73530000  0.30577000  1.0 0.0014258414
C  C9  1  0.80648000  0.73382000  0.78565000  1.0 -0.1995045482
C  C10  1  0.19352000  0.23382000  0.71435000  1.0 -0.1995045482
C  C11  1  0.19352000  0.26618000  0.21435000  1.0 -0.1995045482
C  C12  1  0.80648000  0.76618000  0.28565000  1.0 -0.1995045482
C  C13  1  0.75827000  0.65817000  0.72335000  1.0 0.2594770198
C  C14  1  0.24173000  0.15817000  0.77665000  1.0 0.2594770198
C  C15  1  0.24173000  0.34183000  0.27665000  1.0 0.2594770198
C  C16  1  0.75827000  0.84183000  0.22335000  1.0 0.2594770198
C  C17  1  0.64169000  0.61410000  0.67833000  1.0 -0.2078871498
C  C18  1  0.35831000  0.11410000  0.82167000  1.0 -0.2078871498
C  C19  1  0.35831000  0.38590000  0.32167000  1.0 -0.2078871498
C  C20  1  0.64169000  0.88590000  0.17833000  1.0 -0.2078871498
C  C21  1  0.57084000  0.64512000  0.69772000  1.0 -0.0039510775
C  C22  1  0.42916000  0.14512000  0.80228000  1.0 -0.0039510775
C  C23  1  0.42916000  0.35488000  0.30228000  1.0 -0.0039510775
C  C24  1  0.57084000  0.85488000  0.19772000  1.0 -0.0039510775
C  C25  1  0.44241000  0.59826000  0.64914000  1.0 0.5764413853
C  C26  1  0.55759000  0.09826000  0.85086000  1.0 0.5764413853
C  C27  1  0.55759000  0.40174000  0.35086000  1.0 0.5764413853
C  C28  1  0.44241000  0.90174000  0.14914000  1.0 0.5764413853
C  C29  1  0.61996000  0.71990000  0.76196000  1.0 -0.1322644795
C  C30  1  0.38004000  0.21990000  0.73804000  1.0 -0.1322644795
C  C31  1  0.38004000  0.28010000  0.23804000  1.0 -0.1322644795
C  C32  1  0.61996000  0.78010000  0.26196000  1.0 -0.1322644795
C  C33  1  0.01758000  0.85493000  0.12881000  1.0 0.6220688602
C  C34  1  0.98242000  0.35493000  0.37119000  1.0 0.6220688602
C  C35  1  0.98242000  0.14507000  0.87119000  1.0 0.6220688602
C  C36  1  0.01758000  0.64507000  0.62881000  1.0 0.6220688602
C  C37  1  0.11350000  0.78077000  0.20163000  1.0 -0.0039510775
C  C38  1  0.88650000  0.28077000  0.29837000  1.0 -0.0039510775
C  C39  1  0.88650000  0.21923000  0.79837000  1.0 -0.0039510775
C  C40  1  0.11350000  0.71923000  0.70163000  1.0 -0.0039510775
C  C41  1  0.09565000  0.73005000  0.25148000  1.0 -0.1463841307
C  C42  1  0.90435000  0.23005000  0.24852000  1.0 -0.1463841307
C  C43  1  0.90435000  0.26995000  0.74852000  1.0 -0.1463841307
C  C44  1  0.09565000  0.76995000  0.75148000  1.0 -0.1463841307
C  C45  1  0.18587000  0.66120000  0.31716000  1.0 -0.0294192521
C  C46  1  0.81413000  0.16120000  0.18284000  1.0 -0.0294192521
C  C47  1  0.81413000  0.33880000  0.68284000  1.0 -0.0294192521
C  C48  1  0.18587000  0.83880000  0.81716000  1.0 -0.0294192521
C  C49  1  0.16754000  0.60859000  0.37247000  1.0 0.5764413853
C  C50  1  0.83246000  0.10859000  0.12753000  1.0 0.5764413853
C  C51  1  0.83246000  0.39141000  0.62753000  1.0 0.5764413853
C  C52  1  0.16754000  0.89141000  0.87247000  1.0 0.5764413853
C  C53  1  0.29393000  0.64283000  0.33255000  1.0 -0.1995045482
C  C54  1  0.70607000  0.14283000  0.16745000  1.0 -0.1995045482
C  C55  1  0.70607000  0.35717000  0.66745000  1.0 -0.1995045482
C  C56  1  0.29393000  0.85717000  0.83255000  1.0 -0.1995045482
C  C57  1  0.31205000  0.69227000  0.28237000  1.0 0.27271317
C  C58  1  0.68795000  0.19227000  0.21763000  1.0 0.27271317
C  C59  1  0.68795000  0.30773000  0.71763000  1.0 0.27271317
C  C60  1  0.31205000  0.80773000  0.78237000  1.0 0.27271317
C  C61  1  0.22209000  0.76210000  0.21766000  1.0 -0.1912313918
C  C62  1  0.77791000  0.26210000  0.28234000  1.0 -0.1912313918
C  C63  1  0.77791000  0.23790000  0.78234000  1.0 -0.1912313918
C  C64  1  0.22209000  0.73790000  0.71766000  1.0 -0.1912313918
N  N1  1  0.83588000  0.62383000  0.70598000  1.0 -0.5644341851
N  N2  1  0.16412000  0.12383000  0.79402000  1.0 -0.5644341851
N  N3  1  0.16412000  0.37617000  0.29402000  1.0 -0.5644341851
N  N4  1  0.83588000  0.87617000  0.20598000  1.0 -0.5644341851
N  N5  1  0.42347000  0.67638000  0.29969000  1.0 -0.5937835867
N  N6  1  0.57653000  0.17638000  0.20031000  1.0 -0.5937835867
N  N7  1  0.57653000  0.32362000  0.70031000  1.0 -0.5937835867
N  N8  1  0.42347000  0.82362000  0.79969000  1.0 -0.5937835867
O  O1  1  0.73132000  0.85797000  0.90095000  1.0 -0.6201621968
O  O2  1  0.26868000  0.35797000  0.59905000  1.0 -0.6201621968
O  O3  1  0.26868000  0.14203000  0.09905000  1.0 -0.6201621968
O  O4  1  0.73132000  0.64203000  0.40095000  1.0 -0.6201621968
O  O5  1  0.64109000  0.83688000  0.99066000  1.0 -0.6515107299
O  O6  1  0.35891000  0.33688000  0.50934000  1.0 -0.6515107299
O  O7  1  0.35891000  0.16312000  0.00934000  1.0 -0.6515107299
O  O8  1  0.64109000  0.66312000  0.49066000  1.0 -0.6515107299
O  O9  1  0.88206000  0.89435000  0.90120000  1.0 -0.6201621968
O  O10  1  0.11794000  0.39435000  0.59880000  1.0 -0.6201621968
O  O11  1  0.11794000  0.10565000  0.09880000  1.0 -0.6201621968
O  O12  1  0.88206000  0.60565000  0.40120000  1.0 -0.6201621968
O  O13  1  0.85241000  0.05313000  0.98880000  1.0 -0.7833969439
O  O14  1  0.14759000  0.55313000  0.51120000  1.0 -0.7833969439
O  O15  1  0.14759000  0.94687000  0.01120000  1.0 -0.7833969439
O  O16  1  0.85241000  0.44687000  0.48880000  1.0 -0.7833969439
O  O17  1  0.36851000  0.64418000  0.65037000  1.0 -0.5390508021
O  O18  1  0.63149000  0.14418000  0.84963000  1.0 -0.5390508021
O  O19  1  0.63149000  0.35582000  0.34963000  1.0 -0.5390508021
O  O20  1  0.36851000  0.85582000  0.15037000  1.0 -0.5390508021
O  O21  1  0.41910000  0.51608000  0.60994000  1.0 -0.6437543327
O  O22  1  0.58090000  0.01608000  0.89006000  1.0 -0.6437543327
O  O23  1  0.58090000  0.48392000  0.39006000  1.0 -0.6437543327
O  O24  1  0.41910000  0.98392000  0.10994000  1.0 -0.6437543327
O  O25  1  0.91170000  0.86323000  0.10596000  1.0 -0.6201621968
O  O26  1  0.08830000  0.36323000  0.39404000  1.0 -0.6201621968
O  O27  1  0.08830000  0.13677000  0.89404000  1.0 -0.6201621968
O  O28  1  0.91170000  0.63677000  0.60596000  1.0 -0.6201621968
O  O29  1  0.05039000  0.90334000  0.09577000  1.0 -0.6201621968
O  O30  1  0.94961000  0.40334000  0.40423000  1.0 -0.6201621968
O  O31  1  0.94961000  0.09666000  0.90423000  1.0 -0.6201621968
O  O32  1  0.05039000  0.59666000  0.59577000  1.0 -0.6201621968
O  O33  1  0.09209000  0.64568000  0.37504000  1.0 -0.3887112583
O  O34  1  0.90791000  0.14568000  0.12496000  1.0 -0.3887112583
O  O35  1  0.90791000  0.35432000  0.62496000  1.0 -0.3887112583
O  O36  1  0.09209000  0.85432000  0.87504000  1.0 -0.3887112583
O  O37  1  0.23087000  0.52858000  0.41258000  1.0 -0.6201621968
O  O38  1  0.76913000  0.02858000  0.08742000  1.0 -0.6149817849
O  O39  1  0.76913000  0.47142000  0.58742000  1.0 -0.6201621968
O  O40  1  0.23087000  0.97142000  0.91258000  1.0 -0.6149817849
