# DDEC6 charges by PACMAN v1.1 (https://github.com/mtap-research/PACMAN-charge/)
data_WANBOE_ASR_pacman
_symmetry_space_group_name_H-M   'P 1'
_cell_length_a   17.78790000
_cell_length_b   17.98000000
_cell_length_c   26.74200000
_cell_angle_alpha   88.79100000
_cell_angle_beta   100.95100000
_cell_angle_gamma   108.69400000
_symmetry_Int_Tables_number   1
_chemical_formula_structural   Na7Pr4P5H9W30C16(NO60)2
_chemical_formula_sum   'Na14 Pr8 P10 H18 W60 C32 N4 O240'
_cell_volume   7946.77315339
_cell_formula_units_Z   2
loop_
 _symmetry_equiv_pos_site_id
 _symmetry_equiv_pos_as_xyz
  1  'x, y, z'
loop_
 _atom_site_type_symbol
 _atom_site_label
 _atom_site_symmetry_multiplicity
 _atom_site_fract_x
 _atom_site_fract_y
 _atom_site_fract_z
 _atom_site_occupancy
 _atom_site_charge
Na  Na1  1  0.13130000  0.99320000  0.98090000  1.0 0.9435949255
Na  Na2  1  0.86870000  0.00680000  0.01910000  1.0 0.9435949255
Na  Na3  1  0.82360000  0.51540000  0.19090000  1.0 0.903186791
Na  Na4  1  0.17640000  0.48460000  0.80910000  1.0 0.9061688114
Na  Na5  1  0.63640000  0.25150000  0.88670000  1.0 0.8719745804
Na  Na6  1  0.36360000  0.74850000  0.11330000  1.0 0.8719745804
Na  Na7  1  0.08360000  0.89900000  0.50440000  1.0 0.903186791
Na  Na8  1  0.91640000  0.10100000  0.49560000  1.0 0.903186791
Na  Na9  1  0.66710000  0.25120000  0.49840000  1.0 0.8619850804
Na  Na10  1  0.33290000  0.74880000  0.50160000  1.0 0.8619850804
Na  Na11  1  0.25940000  0.50850000  0.94230000  1.0 0.903186791
Na  Na12  1  0.74060000  0.49150000  0.05770000  1.0 0.9061688114
Na  Na13  1  0.14050000  0.14090000  0.59340000  1.0 0.9192290236
Na  Na14  1  0.85950000  0.85910000  0.40660000  1.0 0.9192290236
Pr  Pr1  1  0.39872000  0.07441000  0.92460000  1.0 2.043974631
Pr  Pr2  1  0.60128000  0.92559000  0.07540000  1.0 2.043974631
Pr  Pr3  1  0.73242000  0.25409000  0.11502000  1.0 2.2784656216
Pr  Pr4  1  0.26758000  0.74591000  0.88498000  1.0 2.2784656216
Pr  Pr5  1  0.77006000  0.71643000  0.22349000  1.0 2.2043380667
Pr  Pr6  1  0.22994000  0.28357000  0.77651000  1.0 2.2095966269
Pr  Pr7  1  0.07949000  0.37463000  0.57172000  1.0 2.0258684088
Pr  Pr8  1  0.92051000  0.62537000  0.42828000  1.0 2.0245816637
P  P1  1  0.10220000  0.31220000  0.30450000  1.0 1.449908178
P  P2  1  0.89780000  0.68780000  0.69550000  1.0 1.449908178
P  P3  1  0.10140000  0.08310000  0.30820000  1.0 1.4592249323
P  P4  1  0.89860000  0.91690000  0.69180000  1.0 1.4592249323
P  P5  1  0.24660000  0.05840000  0.21230000  1.0 1.4712623287
P  P6  1  0.75340000  0.94160000  0.78770000  1.0 1.4712623287
P  P7  1  0.33430000  0.26920000  0.14850000  1.0 1.449908178
P  P8  1  0.66570000  0.73080000  0.85150000  1.0 1.449908178
P  P9  1  0.24540000  0.42520000  0.20500000  1.0 1.449908178
P  P10  1  0.75460000  0.57480000  0.79500000  1.0 1.4592249323
H  H1  1  0.80150000  0.28010000  0.64760000  1.0 0.1364532043
H  H2  1  0.19850000  0.71990000  0.35240000  1.0 0.1364532043
H  H3  1  0.85810000  0.29310000  0.73390000  1.0 0.107959642
H  H4  1  0.14190000  0.70690000  0.26610000  1.0 0.107959642
H  H5  1  0.99760000  0.33390000  0.76030000  1.0 0.1203433056
H  H6  1  0.00240000  0.66610000  0.23970000  1.0 0.1203433056
H  H7  1  0.61900000  0.35110000  0.01810000  1.0 0.107959642
H  H8  1  0.38100000  0.64890000  0.98190000  1.0 0.1203433056
H  H9  1  0.55490000  0.43820000  0.97680000  1.0 0.0997838829
H  H10  1  0.44510000  0.56180000  0.02320000  1.0 0.0997838829
H  H11  1  0.43660000  0.38950000  0.91400000  1.0 0.1364532043
H  H12  1  0.56340000  0.61050000  0.08600000  1.0 0.1364532043
H  H13  1  0.27110000  0.95980000  0.75520000  1.0 0.161011741
H  H14  1  0.72890000  0.04020000  0.24480000  1.0 0.161011741
H  H15  1  0.30240000  0.88540000  0.75870000  1.0 0.150262982
H  H16  1  0.69760000  0.11460000  0.24130000  1.0 0.150262982
H  H17  1  0.21560000  0.87700000  0.77110000  1.0 0.133359291
H  H18  1  0.78440000  0.12300000  0.22890000  1.0 0.133359291
W  W1  1  0.07825000  0.35773000  0.11020000  1.0 2.5385076929
W  W2  1  0.92175000  0.64227000  0.88980000  1.0 2.5385076929
W  W3  1  0.16101000  0.21514000  0.05882000  1.0 2.4890096713
W  W4  1  0.83899000  0.78486000  0.94118000  1.0 2.4825627734
W  W5  1  0.25802000  0.96096000  0.10827000  1.0 2.3520873715
W  W6  1  0.74198000  0.03904000  0.89173000  1.0 2.3520873715
W  W7  1  0.99973000  0.44562000  0.26945000  1.0 2.4890096713
W  W8  1  0.00027000  0.55438000  0.73055000  1.0 2.4980962206
W  W9  1  0.33925000  0.15614000  0.04760000  1.0 2.4663339783
W  W10  1  0.66075000  0.84386000  0.95240000  1.0 2.463163488
W  W11  1  0.12103000  0.86472000  0.19963000  1.0 2.432106607
W  W12  1  0.87897000  0.13528000  0.80037000  1.0 2.432106607
W  W13  1  0.26349000  0.51378000  0.09000000  1.0 2.4391846586
W  W14  1  0.73651000  0.48622000  0.91000000  1.0 2.4391846586
W  W15  1  0.27779000  0.59087000  0.28086000  1.0 2.463163488
W  W16  1  0.72221000  0.40913000  0.71914000  1.0 2.4663339783
W  W17  1  0.50137000  0.22487000  0.13806000  1.0 2.4391846586
W  W18  1  0.49863000  0.77513000  0.86194000  1.0 2.4391846586
W  W19  1  0.08273000  0.02096000  0.11564000  1.0 2.4085582424
W  W20  1  0.91727000  0.97904000  0.88436000  1.0 2.4085582424
W  W21  1  0.95148000  0.25221000  0.20186000  1.0 2.4980962206
W  W22  1  0.04852000  0.74779000  0.79814000  1.0 2.4980962206
W  W23  1  0.42389000  0.02802000  0.19669000  1.0 2.4663339783
W  W24  1  0.57611000  0.97198000  0.80331000  1.0 2.4663339783
W  W25  1  0.40454000  0.12540000  0.31236000  1.0 2.522228234
W  W26  1  0.59546000  0.87460000  0.68764000  1.0 2.522228234
W  W27  1  0.13286000  0.54719000  0.17680000  1.0 2.463163488
W  W28  1  0.86714000  0.45281000  0.82320000  1.0 2.4663339783
W  W29  1  0.34460000  0.36561000  0.03749000  1.0 2.4000341822
W  W30  1  0.65540000  0.63439000  0.96251000  1.0 2.3909984359
W  W31  1  0.27120000  0.14794000  0.39896000  1.0 2.3189885546
W  W32  1  0.72880000  0.85206000  0.60104000  1.0 2.3303770949
W  W33  1  0.15552000  0.93524000  0.37424000  1.0 2.4391846586
W  W34  1  0.84448000  0.06476000  0.62576000  1.0 2.432106607
W  W35  1  0.95213000  0.04535000  0.20383000  1.0 2.4391846586
W  W36  1  0.04787000  0.95465000  0.79617000  1.0 2.4391846586
W  W37  1  0.27380000  0.35683000  0.39487000  1.0 2.522228234
W  W38  1  0.72620000  0.64317000  0.60513000  1.0 2.522228234
W  W39  1  0.91176000  0.25522000  0.33015000  1.0 2.4391846586
W  W40  1  0.08824000  0.74478000  0.66985000  1.0 2.432106607
W  W41  1  0.98597000  0.89096000  0.28719000  1.0 2.4190791775
W  W42  1  0.01403000  0.10904000  0.71281000  1.0 2.4190791775
W  W43  1  0.14572000  0.48247000  0.37252000  1.0 2.4000341822
W  W44  1  0.85428000  0.51753000  0.62748000  1.0 2.4000341822
W  W45  1  0.29294000  0.91674000  0.28617000  1.0 2.3909984359
W  W46  1  0.70706000  0.08326000  0.71383000  1.0 2.3909984359
W  W47  1  0.41199000  0.57619000  0.19116000  1.0 2.463163488
W  W48  1  0.58801000  0.42381000  0.80884000  1.0 2.4663339783
W  W49  1  0.49508000  0.43278000  0.13608000  1.0 2.4190791775
W  W50  1  0.50492000  0.56722000  0.86392000  1.0 2.4190791775
W  W51  1  0.48476000  0.31774000  0.25321000  1.0 2.3303770949
W  W52  1  0.51524000  0.68226000  0.74679000  1.0 2.3189885546
W  W53  1  0.40505000  0.46154000  0.30449000  1.0 2.5385076929
W  W54  1  0.59495000  0.53846000  0.69551000  1.0 2.5385076929
W  W55  1  0.06838000  0.28412000  0.42653000  1.0 2.4890096713
W  W56  1  0.93162000  0.71588000  0.57347000  1.0 2.4890096713
W  W57  1  0.06961000  0.07310000  0.42938000  1.0 2.3758318354
W  W58  1  0.93039000  0.92690000  0.57062000  1.0 2.3728346754
W  W59  1  0.91031000  0.04400000  0.33496000  1.0 2.4190791775
W  W60  1  0.08969000  0.95600000  0.66504000  1.0 2.4190791775
C  C1  1  0.90760000  0.31310000  0.62300000  1.0 0.107959642
C  C2  1  0.09240000  0.68690000  0.37700000  1.0 0.107959642
C  C3  1  0.85860000  0.29680000  0.65840000  1.0 -0.1199140246
C  C4  1  0.14140000  0.70320000  0.34160000  1.0 -0.1199140246
C  C5  1  0.89200000  0.30450000  0.70940000  1.0 -0.0232470776
C  C6  1  0.10800000  0.69550000  0.29060000  1.0 -0.0232470776
C  C7  1  0.97450000  0.32850000  0.72500000  1.0 -0.113000549
C  C8  1  0.02550000  0.67150000  0.27500000  1.0 -0.113000549
C  C9  1  0.02350000  0.34490000  0.68960000  1.0 0.0597216789
C  C10  1  0.97650000  0.65510000  0.31040000  1.0 0.0597216789
C  C11  1  0.89100000  0.63300000  0.30060000  1.0 0.5791556765
C  C12  1  0.10900000  0.36700000  0.69940000  1.0 0.5791556765
C  C13  1  0.87500000  0.30700000  0.56520000  1.0 0.5492828418
C  C14  1  0.12500000  0.69300000  0.43480000  1.0 0.5492828418
C  C15  1  0.53890000  0.25040000  0.97980000  1.0 0.0305390101
C  C16  1  0.46110000  0.74960000  0.02020000  1.0 0.0305390101
C  C17  1  0.57130000  0.33150000  0.99270000  1.0 -0.1314646784
C  C18  1  0.42870000  0.66850000  0.00730000  1.0 -0.1314646784
C  C19  1  0.53310000  0.38350000  0.96810000  1.0 -0.0382989334
C  C20  1  0.46690000  0.61650000  0.03190000  1.0 -0.0382989334
C  C21  1  0.46240000  0.35440000  0.93060000  1.0 -0.113000549
C  C22  1  0.53760000  0.64560000  0.06940000  1.0 -0.113000549
C  C23  1  0.42990000  0.27340000  0.91770000  1.0 0.090518285
C  C24  1  0.57010000  0.72660000  0.08230000  1.0 0.090518285
C  C25  1  0.56910000  0.19110000  0.00630000  1.0 0.6035869051
C  C26  1  0.43090000  0.80890000  0.99370000  1.0 0.6035869051
C  C27  1  0.36100000  0.23450000  0.87610000  1.0 0.5791556765
C  C28  1  0.63900000  0.76550000  0.12390000  1.0 0.5791556765
C  C29  1  0.27100000  0.91200000  0.77360000  1.0 -0.5585278541
C  C30  1  0.72900000  0.08800000  0.22640000  1.0 -0.5493823122
C  C31  1  0.31100000  0.93520000  0.83150000  1.0 0.757908218
C  C32  1  0.68900000  0.06480000  0.16850000  1.0 0.757908218
N  N1  1  0.99000000  0.33720000  0.63860000  1.0 -0.3680814575
N  N2  1  0.01000000  0.66280000  0.36140000  1.0 -0.3680814575
N  N3  1  0.46820000  0.22140000  0.94240000  1.0 -0.4274123233
N  N4  1  0.53180000  0.77860000  0.05760000  1.0 -0.4242129396
O  O1  1  0.76790000  0.25270000  0.95870000  1.0 0.0233724494
O  O2  1  0.23210000  0.74730000  0.04130000  1.0 0.004363595
O  O3  1  0.17800000  0.80500000  0.54400000  1.0 -0.2908813726
O  O4  1  0.82200000  0.19500000  0.45600000  1.0 -0.2908813726
O  O5  1  0.31520000  0.45750000  0.06370000  1.0 -0.8621044428
O  O6  1  0.68480000  0.54250000  0.93630000  1.0 -0.8621044428
O  O7  1  0.28680000  0.25640000  0.39500000  1.0 -0.9025744032
O  O8  1  0.71320000  0.74360000  0.60500000  1.0 -0.9025744032
O  O9  1  0.20390000  0.89000000  0.14900000  1.0 -0.9396230748
O  O10  1  0.79610000  0.11000000  0.85100000  1.0 -0.9318194672
O  O11  1  0.45520000  0.50820000  0.15340000  1.0 -0.8621044428
O  O12  1  0.54480000  0.49180000  0.84660000  1.0 -0.8621044428
O  O13  1  0.08300000  0.93410000  0.15620000  1.0 -0.9570256939
O  O14  1  0.91700000  0.06590000  0.84380000  1.0 -0.9514119695
O  O15  1  0.23410000  0.44480000  0.38560000  1.0 -0.9796014167
O  O16  1  0.76590000  0.55520000  0.61440000  1.0 -0.9796014167
O  O17  1  0.10880000  0.27260000  0.08630000  1.0 -0.9181205988
O  O18  1  0.89120000  0.72740000  0.91370000  1.0 -0.9181205988
O  O19  1  0.36710000  0.27340000  0.03140000  1.0 -0.8917403232
O  O20  1  0.63290000  0.72660000  0.96860000  1.0 -0.8917403232
O  O21  1  0.46070000  0.11140000  0.16060000  1.0 -0.8301897119
O  O22  1  0.53930000  0.88860000  0.83940000  1.0 -0.8301897119
O  O23  1  0.95950000  0.15110000  0.19570000  1.0 -0.8708688866
O  O24  1  0.04050000  0.84890000  0.80430000  1.0 -0.8708688866
O  O25  1  0.07270000  0.44400000  0.14950000  1.0 -0.9887620281
O  O26  1  0.92730000  0.55600000  0.85050000  1.0 -0.9887620281
O  O27  1  0.96770000  0.36120000  0.22090000  1.0 -0.9109931704
O  O28  1  0.03230000  0.63880000  0.77910000  1.0 -0.9109931704
O  O29  1  0.17590000  0.08050000  0.18130000  1.0 -0.7504387189
O  O30  1  0.82410000  0.91950000  0.81870000  1.0 -0.7504387189
O  O31  1  0.94300000  0.35860000  0.31470000  1.0 -0.9396230748
O  O32  1  0.05700000  0.64140000  0.68530000  1.0 -0.9514119695
O  O33  1  0.44160000  0.22850000  0.29180000  1.0 -0.9025744032
O  O34  1  0.55840000  0.77150000  0.70820000  1.0 -0.9025744032
O  O35  1  0.94290000  0.94410000  0.32210000  1.0 -0.8812710862
O  O36  1  0.05710000  0.05590000  0.67790000  1.0 -0.8812710862
O  O37  1  0.51750000  0.32670000  0.12530000  1.0 -0.838971753
O  O38  1  0.48250000  0.67330000  0.87470000  1.0 -0.838971753
O  O39  1  0.35610000  0.94320000  0.23870000  1.0 -0.9318194672
O  O40  1  0.64390000  0.05680000  0.76130000  1.0 -0.9318194672
O  O41  1  0.91060000  0.80270000  0.27320000  1.0 -0.8199098479
O  O42  1  0.08940000  0.19730000  0.72680000  1.0 -0.8199098479
O  O43  1  0.34330000  0.15370000  0.35640000  1.0 -0.8917403232
O  O44  1  0.65670000  0.84630000  0.64360000  1.0 -0.8917403232
O  O45  1  0.24430000  0.24300000  0.13410000  1.0 -0.7504387189
O  O46  1  0.75570000  0.75700000  0.86590000  1.0 -0.7504387189
O  O47  1  0.31730000  0.06090000  0.07570000  1.0 -0.8708688866
O  O48  1  0.68270000  0.93910000  0.92430000  1.0 -0.8708688866
O  O49  1  0.04930000  0.86120000  0.34590000  1.0 -0.838971753
O  O50  1  0.95070000  0.13880000  0.65410000  1.0 -0.838971753
O  O51  1  0.11320000  0.12240000  0.09010000  1.0 -0.9109931704
O  O52  1  0.88680000  0.87760000  0.90990000  1.0 -0.9109931704
O  O53  1  0.01590000  0.04650000  0.15560000  1.0 -0.9109931704
O  O54  1  0.98410000  0.95350000  0.84440000  1.0 -0.9109931704
O  O55  1  0.44200000  0.09150000  0.25550000  1.0 -0.9796014167
O  O56  1  0.55800000  0.90850000  0.74450000  1.0 -0.967272388
O  O57  1  0.50480000  0.39740000  0.20600000  1.0 -0.9318194672
O  O58  1  0.49520000  0.60260000  0.79400000  1.0 -0.9318194672
O  O59  1  0.36130000  0.27810000  0.20490000  1.0 -0.7685842386
O  O60  1  0.63870000  0.72190000  0.79510000  1.0 -0.7685842386
O  O61  1  0.85720000  0.23790000  0.16200000  1.0 -0.9318194672
O  O62  1  0.14280000  0.76210000  0.83800000  1.0 -0.9318194672
O  O63  1  0.20440000  0.83760000  0.24310000  1.0 -0.8917403232
O  O64  1  0.79560000  0.16240000  0.75690000  1.0 -0.8917403232
O  O65  1  0.34760000  0.01740000  0.31930000  1.0 -0.9570256939
O  O66  1  0.65240000  0.98260000  0.68070000  1.0 -0.967272388
O  O67  1  0.23290000  0.03460000  0.39140000  1.0 -0.9181205988
O  O68  1  0.76710000  0.96540000  0.60860000  1.0 -0.9181205988
O  O69  1  0.29770000  0.39830000  0.24850000  1.0 -0.7582785557
O  O70  1  0.70230000  0.60170000  0.75150000  1.0 -0.7582785557
O  O71  1  0.44200000  0.37950000  0.28890000  1.0 -0.9025744032
O  O72  1  0.55800000  0.62050000  0.71110000  1.0 -0.9025744032
O  O73  1  0.09200000  0.40170000  0.40680000  1.0 -0.9109931704
O  O74  1  0.90800000  0.59830000  0.59320000  1.0 -0.9181205988
O  O75  1  0.18590000  0.31150000  0.32540000  1.0 -0.7504387189
O  O76  1  0.81410000  0.68850000  0.67460000  1.0 -0.7504387189
O  O77  1  0.16820000  0.42720000  0.08660000  1.0 -0.967272388
O  O78  1  0.83180000  0.57280000  0.91340000  1.0 -0.967272388
O  O79  1  0.20290000  0.55910000  0.13340000  1.0 -0.9570256939
O  O80  1  0.79710000  0.44090000  0.86660000  1.0 -0.9570256939
O  O81  1  0.10010000  0.39700000  0.30320000  1.0 -0.9396230748
O  O82  1  0.89990000  0.60300000  0.69680000  1.0 -0.9318194672
O  O83  1  0.06850000  0.51050000  0.23090000  1.0 -0.9181205988
O  O84  1  0.93150000  0.48950000  0.76910000  1.0 -0.9181205988
O  O85  1  0.45620000  0.18250000  0.07030000  1.0 -0.8708688866
O  O86  1  0.54380000  0.81750000  0.92970000  1.0 -0.8708688866
O  O87  1  0.06280000  0.86260000  0.24640000  1.0 -0.838971753
O  O88  1  0.93720000  0.13740000  0.75360000  1.0 -0.8461179804
O  O89  1  0.24400000  0.90600000  0.05440000  1.0 -0.6278389763
O  O90  1  0.75600000  0.09400000  0.94560000  1.0 -0.6278389763
O  O91  1  0.01280000  0.28840000  0.15180000  1.0 -0.8917403232
O  O92  1  0.98720000  0.71160000  0.84820000  1.0 -0.8917403232
O  O93  1  0.17170000  0.00340000  0.09170000  1.0 -0.9796014167
O  O94  1  0.82830000  0.99660000  0.90830000  1.0 -0.9796014167
O  O95  1  0.21110000  0.90920000  0.32970000  1.0 -0.8708688866
O  O96  1  0.78890000  0.09080000  0.67030000  1.0 -0.8708688866
O  O97  1  0.96650000  0.95020000  0.23150000  1.0 -0.9181205988
O  O98  1  0.03350000  0.04980000  0.76850000  1.0 -0.9181205988
O  O99  1  0.36470000  0.95980000  0.13790000  1.0 -0.9025744032
O  O100  1  0.63530000  0.04020000  0.86210000  1.0 -0.9025744032
O  O101  1  0.33760000  0.13070000  0.98410000  1.0 -0.8812710862
O  O102  1  0.66240000  0.86930000  0.01590000  1.0 -0.8812710862
O  O103  1  0.06750000  0.09740000  0.25420000  1.0 -0.7504387189
O  O104  1  0.93250000  0.90260000  0.74580000  1.0 -0.7504387189
O  O105  1  0.50690000  0.24960000  0.20800000  1.0 -0.9181205988
O  O106  1  0.49310000  0.75040000  0.79200000  1.0 -0.9181205988
O  O107  1  0.59580000  0.48360000  0.13590000  1.0 -0.5780988108
O  O108  1  0.40420000  0.51640000  0.86410000  1.0 -0.5780988108
O  O109  1  0.33360000  0.39370000  0.97580000  1.0 -0.6877689208
O  O110  1  0.66640000  0.60630000  0.02420000  1.0 -0.6877689208
O  O111  1  0.21040000  0.48420000  0.22630000  1.0 -0.9318194672
O  O112  1  0.78960000  0.51580000  0.77370000  1.0 -0.9318194672
O  O113  1  0.23760000  0.16330000  0.04560000  1.0 -0.9570256939
O  O114  1  0.76240000  0.83670000  0.95440000  1.0 -0.9514119695
O  O115  1  0.44070000  0.51490000  0.24500000  1.0 -0.9887620281
O  O116  1  0.55930000  0.48510000  0.75500000  1.0 -0.9887620281
O  O117  1  0.20560000  0.55350000  0.32020000  1.0 -0.8708688866
O  O118  1  0.79440000  0.44650000  0.67980000  1.0 -0.8708688866
O  O119  1  0.57580000  0.34580000  0.28870000  1.0 -0.5493823122
O  O120  1  0.42420000  0.65420000  0.71130000  1.0 -0.5493823122
O  O121  1  0.18820000  0.13660000  0.32700000  1.0 -0.7582785557
O  O122  1  0.81180000  0.86340000  0.67300000  1.0 -0.7504387189
O  O123  1  0.17660000  0.88090000  0.42650000  1.0 -0.7210660275
O  O124  1  0.82340000  0.11910000  0.57350000  1.0 -0.7210660275
O  O125  1  0.30320000  0.04680000  0.17710000  1.0 -0.9181205988
O  O126  1  0.69680000  0.95320000  0.82290000  1.0 -0.9181205988
O  O127  1  0.33280000  0.85770000  0.32350000  1.0 -0.6111831139
O  O128  1  0.66720000  0.14230000  0.67650000  1.0 -0.6111831139
O  O129  1  0.91180000  0.22520000  0.26240000  1.0 -0.9318194672
O  O130  1  0.08820000  0.77480000  0.73760000  1.0 -0.9318194672
O  O131  1  0.07110000  0.06510000  0.49270000  1.0 -0.7504387189
O  O132  1  0.92890000  0.93490000  0.50730000  1.0 -0.7504387189
O  O133  1  0.91640000  0.47860000  0.25550000  1.0 -0.8090593885
O  O134  1  0.08360000  0.52140000  0.74450000  1.0 -0.8090593885
O  O135  1  0.95650000  0.27260000  0.40340000  1.0 -0.9318194672
O  O136  1  0.04350000  0.72740000  0.59660000  1.0 -0.9318194672
O  O137  1  0.06910000  0.27430000  0.25360000  1.0 -0.7582785557
O  O138  1  0.93090000  0.72570000  0.74640000  1.0 -0.7582785557
O  O139  1  0.34450000  0.39440000  0.35090000  1.0 -0.9396230748
O  O140  1  0.65550000  0.60560000  0.64910000  1.0 -0.9396230748
O  O141  1  0.45200000  0.42680000  0.06490000  1.0 -0.8621044428
O  O142  1  0.54800000  0.57320000  0.93510000  1.0 -0.8621044428
O  O143  1  0.09890000  0.99750000  0.31100000  1.0 -0.9181205988
O  O144  1  0.90110000  0.00250000  0.68900000  1.0 -0.9181205988
O  O145  1  0.04640000  0.26920000  0.34350000  1.0 -0.9181205988
O  O146  1  0.95360000  0.73080000  0.65650000  1.0 -0.9181205988
O  O147  1  0.17690000  0.13630000  0.42830000  1.0 -0.9181205988
O  O148  1  0.82310000  0.86370000  0.57170000  1.0 -0.9181205988
O  O149  1  0.90730000  0.14010000  0.34070000  1.0 -0.8301897119
O  O150  1  0.09270000  0.85990000  0.65930000  1.0 -0.8301897119
O  O151  1  0.35870000  0.59360000  0.12550000  1.0 -0.967272388
O  O152  1  0.64130000  0.40640000  0.87450000  1.0 -0.967272388
O  O153  1  0.30030000  0.47020000  0.16740000  1.0 -0.9181205988
O  O154  1  0.69970000  0.52980000  0.83260000  1.0 -0.9181205988
O  O155  1  0.95150000  0.03390000  0.40630000  1.0 -0.9796014167
O  O156  1  0.04850000  0.96610000  0.59370000  1.0 -0.9796014167
O  O157  1  0.05250000  0.50190000  0.33510000  1.0 -0.9181205988
O  O158  1  0.94750000  0.49810000  0.66490000  1.0 -0.9181205988
O  O159  1  0.21350000  0.97850000  0.23740000  1.0 -0.9109931704
O  O160  1  0.78650000  0.02150000  0.76260000  1.0 -0.9109931704
O  O161  1  0.20900000  0.62380000  0.22820000  1.0 -0.9396230748
O  O162  1  0.79100000  0.37620000  0.77180000  1.0 -0.9396230748
O  O163  1  0.37070000  0.21220000  0.12680000  1.0 -0.9181205988
O  O164  1  0.62930000  0.78780000  0.87320000  1.0 -0.9181205988
O  O165  1  0.34880000  0.60830000  0.22640000  1.0 -0.9796014167
O  O166  1  0.65120000  0.39170000  0.77360000  1.0 -0.9796014167
O  O167  1  0.07200000  0.31000000  0.49080000  1.0 -0.9109931704
O  O168  1  0.92800000  0.69000000  0.50920000  1.0 -0.9181205988
O  O169  1  0.29520000  0.12140000  0.25370000  1.0 -0.7685842386
O  O170  1  0.70480000  0.87860000  0.74630000  1.0 -0.7685842386
O  O171  1  0.04890000  0.17870000  0.43000000  1.0 -0.8917403232
O  O172  1  0.95110000  0.82130000  0.57000000  1.0 -0.8917403232
O  O173  1  0.23750000  0.56650000  0.03880000  1.0 -0.6877689208
O  O174  1  0.76250000  0.43350000  0.96120000  1.0 -0.6877689208
O  O175  1  0.09240000  0.98610000  0.41370000  1.0 -0.9396230748
O  O176  1  0.90760000  0.01390000  0.58630000  1.0 -0.9396230748
O  O177  1  0.04470000  0.09140000  0.34340000  1.0 -0.9109931704
O  O178  1  0.95530000  0.90860000  0.65660000  1.0 -0.9109931704
O  O179  1  0.90980000  0.05050000  0.26590000  1.0 -0.9181205988
O  O180  1  0.09020000  0.94950000  0.73410000  1.0 -0.9109931704
O  O181  1  0.59700000  0.22380000  0.13910000  1.0 -0.7964289855
O  O182  1  0.40300000  0.77620000  0.86090000  1.0 -0.7964289855
O  O183  1  0.34320000  0.53070000  0.30740000  1.0 -0.999396212
O  O184  1  0.65680000  0.46930000  0.69260000  1.0 -0.999396212
O  O185  1  0.24140000  0.31330000  0.04180000  1.0 -0.9025744032
O  O186  1  0.75860000  0.68670000  0.95820000  1.0 -0.9025744032
O  O187  1  0.80990000  0.98890000  0.33520000  1.0 -0.7210660275
O  O188  1  0.19010000  0.01110000  0.66480000  1.0 -0.7210660275
O  O189  1  0.17780000  0.35910000  0.17600000  1.0 -0.7685842386
O  O190  1  0.82220000  0.64090000  0.82400000  1.0 -0.7685842386
O  O191  1  0.36700000  0.35030000  0.12270000  1.0 -0.9181205988
O  O192  1  0.63300000  0.64970000  0.87730000  1.0 -0.9181205988
O  O193  1  0.00640000  0.97270000  0.06450000  1.0 -0.8301897119
O  O194  1  0.99360000  0.02730000  0.93550000  1.0 -0.8301897119
O  O195  1  0.33230000  0.15270000  0.45450000  1.0 -0.5493823122
O  O196  1  0.66770000  0.84730000  0.54550000  1.0 -0.5493823122
O  O197  1  0.17660000  0.30960000  0.42510000  1.0 -0.9396230748
O  O198  1  0.82340000  0.69040000  0.57490000  1.0 -0.9396230748
O  O199  1  0.62890000  0.20930000  0.03960000  1.0 -0.6030712496
O  O200  1  0.37110000  0.79070000  0.96040000  1.0 -0.6030712496
O  O201  1  0.52950000  0.11880000  0.98800000  1.0 -0.6409992646
O  O202  1  0.47050000  0.88120000  0.01200000  1.0 -0.6409992646
O  O203  1  0.85280000  0.63430000  0.25680000  1.0 -0.6238698434
O  O204  1  0.14720000  0.36570000  0.74320000  1.0 -0.6238698434
O  O205  1  0.34020000  0.16450000  0.87180000  1.0 -0.4989879649
O  O206  1  0.65980000  0.83550000  0.12820000  1.0 -0.4989879649
O  O207  1  0.34170000  0.00640000  0.83850000  1.0 -0.5585278541
O  O208  1  0.65830000  0.99360000  0.16150000  1.0 -0.5585278541
O  O209  1  0.67090000  0.71700000  0.14470000  1.0 -0.5780988108
O  O210  1  0.32910000  0.28300000  0.85530000  1.0 -0.5780988108
O  O211  1  0.93610000  0.33650000  0.53920000  1.0 -0.6877689208
O  O212  1  0.06390000  0.66350000  0.46080000  1.0 -0.6877689208
O  O213  1  0.14670000  0.38540000  0.66020000  1.0 -0.5860725712
O  O214  1  0.85330000  0.61460000  0.33980000  1.0 -0.5860725712
O  O215  1  0.80790000  0.27900000  0.54800000  1.0 -0.4242129396
O  O216  1  0.19210000  0.72100000  0.45200000  1.0 -0.4274123233
O  O217  1  0.68430000  0.11870000  0.13910000  1.0 -0.6814365576
O  O218  1  0.31570000  0.88130000  0.86090000  1.0 -0.6877689208
O  O219  1  0.03620000  0.22370000  0.58330000  1.0 -0.6877689208
O  O220  1  0.96380000  0.77630000  0.41670000  1.0 -0.6814365576
O  O221  1  0.50160000  0.12530000  0.86640000  1.0 -0.709984995
O  O222  1  0.49840000  0.87470000  0.13360000  1.0 -0.709984995
O  O223  1  0.24970000  0.99850000  0.91960000  1.0 -0.6814365576
O  O224  1  0.75030000  0.00150000  0.08040000  1.0 -0.6739378642
O  O225  1  0.84990000  0.39660000  0.14510000  1.0 -0.6814365576
O  O226  1  0.15010000  0.60340000  0.85490000  1.0 -0.6814365576
O  O227  1  0.79280000  0.32870000  0.04520000  1.0 -0.6954186927
O  O228  1  0.20720000  0.67130000  0.95480000  1.0 -0.6954186927
O  O229  1  0.68250000  0.37050000  0.11130000  1.0 -0.8301897119
O  O230  1  0.31750000  0.62950000  0.88870000  1.0 -0.8301897119
O  O231  1  0.74780000  0.59940000  0.15700000  1.0 -0.9570256939
O  O232  1  0.25220000  0.40060000  0.84300000  1.0 -0.9396230748
O  O233  1  0.65100000  0.74700000  0.24190000  1.0 -0.7210660275
O  O234  1  0.34900000  0.25300000  0.75810000  1.0 -0.7276145886
O  O235  1  0.76300000  0.72800000  0.31640000  1.0 -0.7276145886
O  O236  1  0.23700000  0.27200000  0.68360000  1.0 -0.7210660275
O  O237  1  0.21000000  0.34070000  0.57600000  1.0 -0.2817264866
O  O238  1  0.79000000  0.65930000  0.42400000  1.0 -0.2675390314
O  O239  1  0.21800000  0.48800000  0.58110000  1.0 -0.7210660275
O  O240  1  0.78200000  0.51200000  0.41890000  1.0 -0.7210660275
