# DDEC6 charges by PACMAN v1.1 (https://github.com/mtap-research/PACMAN-charge/)
data_WANHAX_ASR_pacman
_symmetry_space_group_name_H-M   'P 1'
_cell_length_a   16.79390000
_cell_length_b   16.79390000
_cell_length_c   16.79390000
_cell_angle_alpha   67.04900000
_cell_angle_beta   67.04900000
_cell_angle_gamma   67.04900000
_symmetry_Int_Tables_number   1
_chemical_formula_structural   CuH7C15(O2F3)2
_chemical_formula_sum   'Cu6 H42 C90 O24 F36'
_cell_volume   3854.96856854
_cell_formula_units_Z   6
loop_
 _symmetry_equiv_pos_site_id
 _symmetry_equiv_pos_as_xyz
  1  'x, y, z'
loop_
 _atom_site_type_symbol
 _atom_site_label
 _atom_site_symmetry_multiplicity
 _atom_site_fract_x
 _atom_site_fract_y
 _atom_site_fract_z
 _atom_site_occupancy
 _atom_site_charge
Cu  Cu1  1  0.49620000  0.49620000  0.92402000  1.0 0.8732962335
Cu  Cu2  1  0.49620000  0.92402000  0.49620000  1.0 0.8732962335
Cu  Cu3  1  0.92402000  0.49620000  0.49620000  1.0 0.8732962335
Cu  Cu4  1  0.50380000  0.07598000  0.50380000  1.0 0.8732962335
Cu  Cu5  1  0.07598000  0.50380000  0.50380000  1.0 0.8732962335
Cu  Cu6  1  0.50380000  0.50380000  0.07598000  1.0 0.8732962335
H  H1  1  0.77300000  0.47050000  0.77300000  1.0 0.1421475187
H  H2  1  0.47050000  0.77300000  0.77300000  1.0 0.1421475187
H  H3  1  0.77300000  0.77300000  0.47050000  1.0 0.1421475187
H  H4  1  0.22700000  0.22700000  0.52950000  1.0 0.1421475187
H  H5  1  0.22700000  0.52950000  0.22700000  1.0 0.1421475187
H  H6  1  0.52950000  0.22700000  0.22700000  1.0 0.1421475187
H  H7  1  0.78510000  0.47960000  0.00290000  1.0 0.1300688312
H  H8  1  0.47960000  0.00290000  0.78510000  1.0 0.1300688312
H  H9  1  0.00290000  0.78510000  0.47960000  1.0 0.1300688312
H  H10  1  0.21490000  0.99710000  0.52040000  1.0 0.1300688312
H  H11  1  0.99710000  0.52040000  0.21490000  1.0 0.1300688312
H  H12  1  0.52040000  0.21490000  0.99710000  1.0 0.1300688312
H  H13  1  0.21490000  0.52040000  0.99710000  1.0 0.1300688312
H  H14  1  0.52040000  0.99710000  0.21490000  1.0 0.1300688312
H  H15  1  0.99710000  0.21490000  0.52040000  1.0 0.1300688312
H  H16  1  0.78510000  0.00290000  0.47960000  1.0 0.1300688312
H  H17  1  0.00290000  0.47960000  0.78510000  1.0 0.1300688312
H  H18  1  0.47960000  0.78510000  0.00290000  1.0 0.1300688312
H  H19  1  0.02960000  0.40220000  0.13130000  1.0 0.1133681834
H  H20  1  0.40220000  0.13130000  0.02960000  1.0 0.1133681834
H  H21  1  0.13130000  0.02960000  0.40220000  1.0 0.1133681834
H  H22  1  0.97040000  0.86870000  0.59780000  1.0 0.1133681834
H  H23  1  0.86870000  0.59780000  0.97040000  1.0 0.1133681834
H  H24  1  0.59780000  0.97040000  0.86870000  1.0 0.1133681834
H  H25  1  0.97040000  0.59780000  0.86870000  1.0 0.1133681834
H  H26  1  0.59780000  0.86870000  0.97040000  1.0 0.1133681834
H  H27  1  0.86870000  0.97040000  0.59780000  1.0 0.1133681834
H  H28  1  0.02960000  0.13130000  0.40220000  1.0 0.1133681834
H  H29  1  0.13130000  0.40220000  0.02960000  1.0 0.1133681834
H  H30  1  0.40220000  0.02960000  0.13130000  1.0 0.1133681834
H  H31  1  0.94140000  0.37200000  0.06280000  1.0 0.1690299437
H  H32  1  0.37200000  0.06280000  0.94140000  1.0 0.1690299437
H  H33  1  0.06280000  0.94140000  0.37200000  1.0 0.1690299437
H  H34  1  0.05860000  0.93720000  0.62800000  1.0 0.1690299437
H  H35  1  0.93720000  0.62800000  0.05860000  1.0 0.1690299437
H  H36  1  0.62800000  0.05860000  0.93720000  1.0 0.1690299437
H  H37  1  0.05860000  0.62800000  0.93720000  1.0 0.1690299437
H  H38  1  0.62800000  0.93720000  0.05860000  1.0 0.1690299437
H  H39  1  0.93720000  0.05860000  0.62800000  1.0 0.1690299437
H  H40  1  0.94140000  0.06280000  0.37200000  1.0 0.1690299437
H  H41  1  0.06280000  0.37200000  0.94140000  1.0 0.1690299437
H  H42  1  0.37200000  0.94140000  0.06280000  1.0 0.1690299437
C  C1  1  0.66733000  0.47983000  0.93573000  1.0 0.5860282804
C  C2  1  0.47983000  0.93573000  0.66733000  1.0 0.5860282804
C  C3  1  0.93573000  0.66733000  0.47983000  1.0 0.5860282804
C  C4  1  0.33267000  0.06427000  0.52017000  1.0 0.5860282804
C  C5  1  0.06427000  0.52017000  0.33267000  1.0 0.5860282804
C  C6  1  0.52017000  0.33267000  0.06427000  1.0 0.5860282804
C  C7  1  0.33267000  0.52017000  0.06427000  1.0 0.5860282804
C  C8  1  0.52017000  0.06427000  0.33267000  1.0 0.5860282804
C  C9  1  0.06427000  0.33267000  0.52017000  1.0 0.5860282804
C  C10  1  0.66733000  0.93573000  0.47983000  1.0 0.5860282804
C  C11  1  0.93573000  0.47983000  0.66733000  1.0 0.5860282804
C  C12  1  0.47983000  0.66733000  0.93573000  1.0 0.5860282804
C  C13  1  0.76517000  0.47467000  0.89417000  1.0 -0.0097294957
C  C14  1  0.47467000  0.89417000  0.76517000  1.0 -0.0097294957
C  C15  1  0.89417000  0.76517000  0.47467000  1.0 -0.0097294957
C  C16  1  0.23483000  0.10583000  0.52533000  1.0 -0.0097294957
C  C17  1  0.10583000  0.52533000  0.23483000  1.0 -0.0097294957
C  C18  1  0.52533000  0.23483000  0.10583000  1.0 -0.0097294957
C  C19  1  0.23483000  0.52533000  0.10583000  1.0 -0.0097294957
C  C20  1  0.52533000  0.10583000  0.23483000  1.0 -0.0097294957
C  C21  1  0.10583000  0.23483000  0.52533000  1.0 -0.0097294957
C  C22  1  0.76517000  0.89417000  0.47467000  1.0 -0.0097294957
C  C23  1  0.89417000  0.47467000  0.76517000  1.0 -0.0097294957
C  C24  1  0.47467000  0.76517000  0.89417000  1.0 -0.0097294957
C  C25  1  0.80557000  0.47292000  0.80557000  1.0 -0.1042231209
C  C26  1  0.47292000  0.80557000  0.80557000  1.0 -0.1042231209
C  C27  1  0.80557000  0.80557000  0.47292000  1.0 -0.1042231209
C  C28  1  0.19443000  0.19443000  0.52708000  1.0 -0.1042231209
C  C29  1  0.19443000  0.52708000  0.19443000  1.0 -0.1042231209
C  C30  1  0.52708000  0.19443000  0.19443000  1.0 -0.1042231209
C  C31  1  0.81275000  0.47805000  0.94335000  1.0 -0.1592767437
C  C32  1  0.47805000  0.94335000  0.81275000  1.0 -0.1592767437
C  C33  1  0.94335000  0.81275000  0.47805000  1.0 -0.1592767437
C  C34  1  0.18725000  0.05665000  0.52195000  1.0 -0.1592767437
C  C35  1  0.05665000  0.52195000  0.18725000  1.0 -0.1592767437
C  C36  1  0.52195000  0.18725000  0.05665000  1.0 -0.1592767437
C  C37  1  0.18725000  0.52195000  0.05665000  1.0 -0.1592767437
C  C38  1  0.52195000  0.05665000  0.18725000  1.0 -0.1592767437
C  C39  1  0.05665000  0.18725000  0.52195000  1.0 -0.1592767437
C  C40  1  0.81275000  0.94335000  0.47805000  1.0 -0.1592767437
C  C41  1  0.94335000  0.47805000  0.81275000  1.0 -0.1592767437
C  C42  1  0.47805000  0.81275000  0.94335000  1.0 -0.1592767437
C  C43  1  0.90294000  0.47909000  0.90294000  1.0 0.0480556438
C  C44  1  0.47909000  0.90294000  0.90294000  1.0 0.0480556438
C  C45  1  0.90294000  0.90294000  0.47909000  1.0 0.0480556438
C  C46  1  0.09706000  0.09706000  0.52091000  1.0 0.0480556438
C  C47  1  0.09706000  0.52091000  0.09706000  1.0 0.0480556438
C  C48  1  0.52091000  0.09706000  0.09706000  1.0 0.0480556438
C  C49  1  0.95403000  0.48818000  0.95403000  1.0 0.0480556438
C  C50  1  0.48818000  0.95403000  0.95403000  1.0 0.0480556438
C  C51  1  0.95403000  0.95403000  0.48818000  1.0 0.0480556438
C  C52  1  0.04597000  0.04597000  0.51182000  1.0 0.0480556438
C  C53  1  0.04597000  0.51182000  0.04597000  1.0 0.0480556438
C  C54  1  0.51182000  0.04597000  0.04597000  1.0 0.0480556438
C  C55  1  0.96454000  0.42414000  0.03834000  1.0 -0.1140713431
C  C56  1  0.42414000  0.03834000  0.96454000  1.0 -0.1140713431
C  C57  1  0.03834000  0.96454000  0.42414000  1.0 -0.1140713431
C  C58  1  0.03546000  0.96166000  0.57586000  1.0 -0.1140713431
C  C59  1  0.96166000  0.57586000  0.03546000  1.0 -0.1140713431
C  C60  1  0.57586000  0.03546000  0.96166000  1.0 -0.1140713431
C  C61  1  0.03546000  0.57586000  0.96166000  1.0 -0.1140713431
C  C62  1  0.57586000  0.96166000  0.03546000  1.0 -0.1140713431
C  C63  1  0.96166000  0.03546000  0.57586000  1.0 -0.1140713431
C  C64  1  0.96454000  0.03834000  0.42414000  1.0 -0.1140713431
C  C65  1  0.03834000  0.42414000  0.96454000  1.0 -0.1140713431
C  C66  1  0.42414000  0.96454000  0.03834000  1.0 -0.1140713431
C  C67  1  0.00711000  0.44281000  0.08081000  1.0 -0.0764759618
C  C68  1  0.44281000  0.08081000  0.00711000  1.0 -0.0764759618
C  C69  1  0.08081000  0.00711000  0.44281000  1.0 -0.0764759618
C  C70  1  0.99289000  0.91919000  0.55719000  1.0 -0.0764759618
C  C71  1  0.91919000  0.55719000  0.99289000  1.0 -0.0764759618
C  C72  1  0.55719000  0.99289000  0.91919000  1.0 -0.0764759618
C  C73  1  0.99289000  0.55719000  0.91919000  1.0 -0.0764759618
C  C74  1  0.55719000  0.91919000  0.99289000  1.0 -0.0764759618
C  C75  1  0.91919000  0.99289000  0.55719000  1.0 -0.0764759618
C  C76  1  0.00711000  0.08081000  0.44281000  1.0 -0.0764759618
C  C77  1  0.08081000  0.44281000  0.00711000  1.0 -0.0764759618
C  C78  1  0.44281000  0.00711000  0.08081000  1.0 -0.0764759618
C  C79  1  0.93600000  0.33200000  0.08210000  1.0 0.3315460832
C  C80  1  0.33200000  0.08210000  0.93600000  1.0 0.3315460832
C  C81  1  0.08210000  0.93600000  0.33200000  1.0 0.3315460832
C  C82  1  0.06400000  0.91790000  0.66800000  1.0 0.3315460832
C  C83  1  0.91790000  0.66800000  0.06400000  1.0 0.3315460832
C  C84  1  0.66800000  0.06400000  0.91790000  1.0 0.3315460832
C  C85  1  0.06400000  0.66800000  0.91790000  1.0 0.3315460832
C  C86  1  0.66800000  0.91790000  0.06400000  1.0 0.3315460832
C  C87  1  0.91790000  0.06400000  0.66800000  1.0 0.3315460832
C  C88  1  0.93600000  0.08210000  0.33200000  1.0 0.3315460832
C  C89  1  0.08210000  0.33200000  0.93600000  1.0 0.3315460832
C  C90  1  0.33200000  0.93600000  0.08210000  1.0 0.3315460832
O  O1  1  0.62617000  0.47865000  0.88714000  1.0 -0.5181232386
O  O2  1  0.47865000  0.88714000  0.62617000  1.0 -0.5181232386
O  O3  1  0.88714000  0.62617000  0.47865000  1.0 -0.5181232386
O  O4  1  0.37383000  0.11286000  0.52135000  1.0 -0.5181232386
O  O5  1  0.11286000  0.52135000  0.37383000  1.0 -0.5181232386
O  O6  1  0.52135000  0.37383000  0.11286000  1.0 -0.5181232386
O  O7  1  0.37383000  0.52135000  0.11286000  1.0 -0.5181232386
O  O8  1  0.52135000  0.11286000  0.37383000  1.0 -0.5181232386
O  O9  1  0.11286000  0.37383000  0.52135000  1.0 -0.5181232386
O  O10  1  0.62617000  0.88714000  0.47865000  1.0 -0.5181232386
O  O11  1  0.88714000  0.47865000  0.62617000  1.0 -0.5181232386
O  O12  1  0.47865000  0.62617000  0.88714000  1.0 -0.5181232386
O  O13  1  0.63315000  0.48535000  0.01512000  1.0 -0.5181232386
O  O14  1  0.48535000  0.01512000  0.63315000  1.0 -0.5181232386
O  O15  1  0.01512000  0.63315000  0.48535000  1.0 -0.5181232386
O  O16  1  0.36685000  0.98488000  0.51465000  1.0 -0.5181232386
O  O17  1  0.98488000  0.51465000  0.36685000  1.0 -0.5143190399
O  O18  1  0.51465000  0.36685000  0.98488000  1.0 -0.5181232386
O  O19  1  0.36685000  0.51465000  0.98488000  1.0 -0.5181232386
O  O20  1  0.51465000  0.98488000  0.36685000  1.0 -0.5181232386
O  O21  1  0.98488000  0.36685000  0.51465000  1.0 -0.5143190399
O  O22  1  0.63315000  0.01512000  0.48535000  1.0 -0.5181232386
O  O23  1  0.01512000  0.48535000  0.63315000  1.0 -0.5181232386
O  O24  1  0.48535000  0.63315000  0.01512000  1.0 -0.5181232386
F  F1  1  0.94968000  0.29238000  0.02008000  1.0 -0.0740865983
F  F2  1  0.29238000  0.02008000  0.94968000  1.0 -0.0740865983
F  F3  1  0.02008000  0.94968000  0.29238000  1.0 -0.0740865983
F  F4  1  0.05032000  0.97992000  0.70762000  1.0 -0.0740865983
F  F5  1  0.97992000  0.70762000  0.05032000  1.0 -0.0740865983
F  F6  1  0.70762000  0.05032000  0.97992000  1.0 -0.0764759618
F  F7  1  0.05032000  0.70762000  0.97992000  1.0 -0.0740865983
F  F8  1  0.70762000  0.97992000  0.05032000  1.0 -0.0740865983
F  F9  1  0.97992000  0.05032000  0.70762000  1.0 -0.0740865983
F  F10  1  0.94968000  0.02008000  0.29238000  1.0 -0.0740865983
F  F11  1  0.02008000  0.29238000  0.94968000  1.0 -0.0740865983
F  F12  1  0.29238000  0.94968000  0.02008000  1.0 -0.0740865983
F  F13  1  0.84987000  0.34937000  0.13127000  1.0 -0.1661806082
F  F14  1  0.34937000  0.13127000  0.84987000  1.0 -0.1661806082
F  F15  1  0.13127000  0.84987000  0.34937000  1.0 -0.1661806082
F  F16  1  0.15013000  0.86873000  0.65063000  1.0 -0.1661806082
F  F17  1  0.86873000  0.65063000  0.15013000  1.0 -0.1661806082
F  F18  1  0.65063000  0.15013000  0.86873000  1.0 -0.1661806082
F  F19  1  0.15013000  0.65063000  0.86873000  1.0 -0.1661806082
F  F20  1  0.65063000  0.86873000  0.15013000  1.0 -0.1661806082
F  F21  1  0.86873000  0.15013000  0.65063000  1.0 -0.1661806082
F  F22  1  0.84987000  0.13127000  0.34937000  1.0 -0.1661806082
F  F23  1  0.13127000  0.34937000  0.84987000  1.0 -0.1661806082
F  F24  1  0.34937000  0.84987000  0.13127000  1.0 -0.1661806082
F  F25  1  0.98100000  0.26980000  0.14100000  1.0 -0.1980749729
F  F26  1  0.26980000  0.14100000  0.98100000  1.0 -0.1980749729
F  F27  1  0.14100000  0.98100000  0.26980000  1.0 -0.1980749729
F  F28  1  0.01900000  0.85900000  0.73020000  1.0 -0.1980749729
F  F29  1  0.85900000  0.73020000  0.01900000  1.0 -0.1980749729
F  F30  1  0.73020000  0.01900000  0.85900000  1.0 -0.1980749729
F  F31  1  0.01900000  0.73020000  0.85900000  1.0 -0.1980749729
F  F32  1  0.73020000  0.85900000  0.01900000  1.0 -0.1980749729
F  F33  1  0.85900000  0.01900000  0.73020000  1.0 -0.1980749729
F  F34  1  0.98100000  0.14100000  0.26980000  1.0 -0.1980749729
F  F35  1  0.14100000  0.26980000  0.98100000  1.0 -0.1980749729
F  F36  1  0.26980000  0.98100000  0.14100000  1.0 -0.1980749729
