# DDEC6 charges by PACMAN v1.1 (https://github.com/mtap-research/PACMAN-charge/)
data_WANHUR_ASR_pacman
_symmetry_space_group_name_H-M   'P 1'
_cell_length_a   16.77690000
_cell_length_b   16.77690000
_cell_length_c   16.77690000
_cell_angle_alpha   67.39780000
_cell_angle_beta   67.39780000
_cell_angle_gamma   67.39780000
_symmetry_Int_Tables_number   1
_chemical_formula_structural   CuH13C15O4
_chemical_formula_sum   'Cu6 H78 C90 O24'
_cell_volume   3866.38379694
_cell_formula_units_Z   6
loop_
 _symmetry_equiv_pos_site_id
 _symmetry_equiv_pos_as_xyz
  1  'x, y, z'
loop_
 _atom_site_type_symbol
 _atom_site_label
 _atom_site_symmetry_multiplicity
 _atom_site_fract_x
 _atom_site_fract_y
 _atom_site_fract_z
 _atom_site_occupancy
 _atom_site_charge
Cu  Cu1  1  0.49561000  0.49561000  0.92466000  1.0 0.8706300889
Cu  Cu2  1  0.49561000  0.92466000  0.49561000  1.0 0.8706300889
Cu  Cu3  1  0.92466000  0.49561000  0.49561000  1.0 0.8706300889
Cu  Cu4  1  0.50439000  0.07534000  0.50439000  1.0 0.8706300889
Cu  Cu5  1  0.07534000  0.50439000  0.50439000  1.0 0.8706300889
Cu  Cu6  1  0.50439000  0.50439000  0.07534000  1.0 0.8706300889
H  H1  1  0.77295000  0.47030000  0.77295000  1.0 0.1364657201
H  H2  1  0.47030000  0.77295000  0.77295000  1.0 0.1364657201
H  H3  1  0.77295000  0.77295000  0.47030000  1.0 0.1364657201
H  H4  1  0.22705000  0.22705000  0.52970000  1.0 0.1364657201
H  H5  1  0.22705000  0.52970000  0.22705000  1.0 0.1364657201
H  H6  1  0.52970000  0.22705000  0.22705000  1.0 0.1364657201
H  H7  1  0.78710000  0.47740000  0.00100000  1.0 0.1364657201
H  H8  1  0.47740000  0.00100000  0.78710000  1.0 0.1364657201
H  H9  1  0.00100000  0.78710000  0.47740000  1.0 0.1364657201
H  H10  1  0.21290000  0.99900000  0.52260000  1.0 0.1364657201
H  H11  1  0.99900000  0.52260000  0.21290000  1.0 0.1364657201
H  H12  1  0.52260000  0.21290000  0.99900000  1.0 0.1364657201
H  H13  1  0.21290000  0.52260000  0.99900000  1.0 0.1364657201
H  H14  1  0.52260000  0.99900000  0.21290000  1.0 0.1364657201
H  H15  1  0.99900000  0.21290000  0.52260000  1.0 0.1364657201
H  H16  1  0.78710000  0.00100000  0.47740000  1.0 0.1364657201
H  H17  1  0.00100000  0.47740000  0.78710000  1.0 0.1364657201
H  H18  1  0.47740000  0.78710000  0.00100000  1.0 0.1364657201
H  H19  1  0.01950000  0.41070000  0.13380000  1.0 0.1001700762
H  H20  1  0.41070000  0.13380000  0.01950000  1.0 0.1001700762
H  H21  1  0.13380000  0.01950000  0.41070000  1.0 0.1001700762
H  H22  1  0.98050000  0.86620000  0.58930000  1.0 0.1001700762
H  H23  1  0.86620000  0.58930000  0.98050000  1.0 0.1001700762
H  H24  1  0.58930000  0.98050000  0.86620000  1.0 0.1001700762
H  H25  1  0.98050000  0.58930000  0.86620000  1.0 0.1001700762
H  H26  1  0.58930000  0.86620000  0.98050000  1.0 0.1001700762
H  H27  1  0.86620000  0.98050000  0.58930000  1.0 0.1001700762
H  H28  1  0.01950000  0.13380000  0.41070000  1.0 0.1001700762
H  H29  1  0.13380000  0.41070000  0.01950000  1.0 0.1001700762
H  H30  1  0.41070000  0.01950000  0.13380000  1.0 0.1001700762
H  H31  1  0.93290000  0.31360000  0.14440000  1.0 0.1001700762
H  H32  1  0.31360000  0.14440000  0.93290000  1.0 0.1001700762
H  H33  1  0.14440000  0.93290000  0.31360000  1.0 0.1001700762
H  H34  1  0.06710000  0.85560000  0.68640000  1.0 0.1001700762
H  H35  1  0.85560000  0.68640000  0.06710000  1.0 0.1001700762
H  H36  1  0.68640000  0.06710000  0.85560000  1.0 0.1001700762
H  H37  1  0.06710000  0.68640000  0.85560000  1.0 0.1001700762
H  H38  1  0.68640000  0.85560000  0.06710000  1.0 0.1001700762
H  H39  1  0.85560000  0.06710000  0.68640000  1.0 0.1001700762
H  H40  1  0.93290000  0.14440000  0.31360000  1.0 0.1001700762
H  H41  1  0.14440000  0.31360000  0.93290000  1.0 0.1001700762
H  H42  1  0.31360000  0.93290000  0.14440000  1.0 0.1001700762
H  H43  1  0.86440000  0.35280000  0.08730000  1.0 0.0880599572
H  H44  1  0.35280000  0.08730000  0.86440000  1.0 0.0880599572
H  H45  1  0.08730000  0.86440000  0.35280000  1.0 0.0880599572
H  H46  1  0.13560000  0.91270000  0.64720000  1.0 0.0880599572
H  H47  1  0.91270000  0.64720000  0.13560000  1.0 0.0880599572
H  H48  1  0.64720000  0.13560000  0.91270000  1.0 0.0880599572
H  H49  1  0.13560000  0.64720000  0.91270000  1.0 0.0880599572
H  H50  1  0.64720000  0.91270000  0.13560000  1.0 0.0880599572
H  H51  1  0.91270000  0.13560000  0.64720000  1.0 0.0880599572
H  H52  1  0.86440000  0.08730000  0.35280000  1.0 0.0880599572
H  H53  1  0.08730000  0.35280000  0.86440000  1.0 0.0880599572
H  H54  1  0.35280000  0.86440000  0.08730000  1.0 0.0880599572
H  H55  1  0.96360000  0.29980000  0.04860000  1.0 0.1001700762
H  H56  1  0.29980000  0.04860000  0.96360000  1.0 0.1001700762
H  H57  1  0.04860000  0.96360000  0.29980000  1.0 0.1001700762
H  H58  1  0.03640000  0.95140000  0.70020000  1.0 0.1001700762
H  H59  1  0.95140000  0.70020000  0.03640000  1.0 0.0880599572
H  H60  1  0.70020000  0.03640000  0.95140000  1.0 0.1001700762
H  H61  1  0.03640000  0.70020000  0.95140000  1.0 0.1001700762
H  H62  1  0.70020000  0.95140000  0.03640000  1.0 0.1001700762
H  H63  1  0.95140000  0.03640000  0.70020000  1.0 0.1001700762
H  H64  1  0.96360000  0.04860000  0.29980000  1.0 0.1001700762
H  H65  1  0.04860000  0.29980000  0.96360000  1.0 0.1001700762
H  H66  1  0.29980000  0.96360000  0.04860000  1.0 0.0880599572
H  H67  1  0.93130000  0.38040000  0.06540000  1.0 0.0505120826
H  H68  1  0.38040000  0.06540000  0.93130000  1.0 0.0505120826
H  H69  1  0.06540000  0.93130000  0.38040000  1.0 0.0505120826
H  H70  1  0.06870000  0.93460000  0.61960000  1.0 0.0505120826
H  H71  1  0.93460000  0.61960000  0.06870000  1.0 0.0505120826
H  H72  1  0.61960000  0.06870000  0.93460000  1.0 0.0505120826
H  H73  1  0.06870000  0.61960000  0.93460000  1.0 0.0505120826
H  H74  1  0.61960000  0.93460000  0.06870000  1.0 0.0505120826
H  H75  1  0.93460000  0.06870000  0.61960000  1.0 0.0505120826
H  H76  1  0.93130000  0.06540000  0.38040000  1.0 0.0505120826
H  H77  1  0.06540000  0.38040000  0.93130000  1.0 0.0505120826
H  H78  1  0.38040000  0.93130000  0.06540000  1.0 0.0505120826
C  C1  1  0.66746000  0.47856000  0.93516000  1.0 0.5787746345
C  C2  1  0.47856000  0.93516000  0.66746000  1.0 0.5787746345
C  C3  1  0.93516000  0.66746000  0.47856000  1.0 0.5787746345
C  C4  1  0.33254000  0.06484000  0.52144000  1.0 0.5787746345
C  C5  1  0.06484000  0.52144000  0.33254000  1.0 0.5787746345
C  C6  1  0.52144000  0.33254000  0.06484000  1.0 0.5787746345
C  C7  1  0.33254000  0.52144000  0.06484000  1.0 0.5787746345
C  C8  1  0.52144000  0.06484000  0.33254000  1.0 0.5787746345
C  C9  1  0.06484000  0.33254000  0.52144000  1.0 0.5787746345
C  C10  1  0.66746000  0.93516000  0.47856000  1.0 0.5787746345
C  C11  1  0.93516000  0.47856000  0.66746000  1.0 0.5787746345
C  C12  1  0.47856000  0.66746000  0.93516000  1.0 0.5787746345
C  C13  1  0.76422000  0.47512000  0.89302000  1.0 -0.0155220044
C  C14  1  0.47512000  0.89302000  0.76422000  1.0 -0.0148410661
C  C15  1  0.89302000  0.76422000  0.47512000  1.0 -0.0155220044
C  C16  1  0.23578000  0.10698000  0.52488000  1.0 -0.0148410661
C  C17  1  0.10698000  0.52488000  0.23578000  1.0 -0.0148410661
C  C18  1  0.52488000  0.23578000  0.10698000  1.0 -0.0148410661
C  C19  1  0.23578000  0.52488000  0.10698000  1.0 -0.0155220044
C  C20  1  0.52488000  0.10698000  0.23578000  1.0 -0.0148410661
C  C21  1  0.10698000  0.23578000  0.52488000  1.0 -0.0148410661
C  C22  1  0.76422000  0.89302000  0.47512000  1.0 -0.0155220044
C  C23  1  0.89302000  0.47512000  0.76422000  1.0 -0.0155220044
C  C24  1  0.47512000  0.76422000  0.89302000  1.0 -0.0148410661
C  C25  1  0.80543000  0.47308000  0.80543000  1.0 -0.1094748791
C  C26  1  0.47308000  0.80543000  0.80543000  1.0 -0.1094748791
C  C27  1  0.80543000  0.80543000  0.47308000  1.0 -0.1094748791
C  C28  1  0.19457000  0.19457000  0.52692000  1.0 -0.1094748791
C  C29  1  0.19457000  0.52692000  0.19457000  1.0 -0.1094748791
C  C30  1  0.52692000  0.19457000  0.19457000  1.0 -0.1094748791
C  C31  1  0.81401000  0.47741000  0.94111000  1.0 -0.1464563201
C  C32  1  0.47741000  0.94111000  0.81401000  1.0 -0.1464563201
C  C33  1  0.94111000  0.81401000  0.47741000  1.0 -0.1464563201
C  C34  1  0.18599000  0.05889000  0.52259000  1.0 -0.1464563201
C  C35  1  0.05889000  0.52259000  0.18599000  1.0 -0.1464563201
C  C36  1  0.52259000  0.18599000  0.05889000  1.0 -0.1464563201
C  C37  1  0.18599000  0.52259000  0.05889000  1.0 -0.1464563201
C  C38  1  0.52259000  0.05889000  0.18599000  1.0 -0.1464563201
C  C39  1  0.05889000  0.18599000  0.52259000  1.0 -0.1464563201
C  C40  1  0.81401000  0.94111000  0.47741000  1.0 -0.1464563201
C  C41  1  0.94111000  0.47741000  0.81401000  1.0 -0.1464563201
C  C42  1  0.47741000  0.81401000  0.94111000  1.0 -0.1464563201
C  C43  1  0.90247000  0.47982000  0.90247000  1.0 0.062320961
C  C44  1  0.47982000  0.90247000  0.90247000  1.0 0.062320961
C  C45  1  0.90247000  0.90247000  0.47982000  1.0 0.062320961
C  C46  1  0.09753000  0.09753000  0.52018000  1.0 0.062320961
C  C47  1  0.09753000  0.52018000  0.09753000  1.0 0.062320961
C  C48  1  0.52018000  0.09753000  0.09753000  1.0 0.062320961
C  C49  1  0.95368000  0.48873000  0.95368000  1.0 0.002438757
C  C50  1  0.48873000  0.95368000  0.95368000  1.0 0.002438757
C  C51  1  0.95368000  0.95368000  0.48873000  1.0 0.002438757
C  C52  1  0.04632000  0.04632000  0.51127000  1.0 0.002438757
C  C53  1  0.04632000  0.51127000  0.04632000  1.0 0.002438757
C  C54  1  0.51127000  0.04632000  0.04632000  1.0 0.002438757
C  C55  1  0.95450000  0.43260000  0.04100000  1.0 0.0352936905
C  C56  1  0.43260000  0.04100000  0.95450000  1.0 0.0352936905
C  C57  1  0.04100000  0.95450000  0.43260000  1.0 0.0338556726
C  C58  1  0.04550000  0.95900000  0.56740000  1.0 0.0338556726
C  C59  1  0.95900000  0.56740000  0.04550000  1.0 0.0338556726
C  C60  1  0.56740000  0.04550000  0.95900000  1.0 0.0352936905
C  C61  1  0.04550000  0.56740000  0.95900000  1.0 0.0338556726
C  C62  1  0.56740000  0.95900000  0.04550000  1.0 0.0338556726
C  C63  1  0.95900000  0.04550000  0.56740000  1.0 0.0338556726
C  C64  1  0.95450000  0.04100000  0.43260000  1.0 0.0352936905
C  C65  1  0.04100000  0.43260000  0.95450000  1.0 0.0338556726
C  C66  1  0.43260000  0.95450000  0.04100000  1.0 0.0338556726
C  C67  1  0.99700000  0.45120000  0.08340000  1.0 -0.0975696559
C  C68  1  0.45120000  0.08340000  0.99700000  1.0 -0.0975696559
C  C69  1  0.08340000  0.99700000  0.45120000  1.0 -0.0975696559
C  C70  1  0.00300000  0.91660000  0.54880000  1.0 -0.0975696559
C  C71  1  0.91660000  0.54880000  0.00300000  1.0 -0.0975696559
C  C72  1  0.54880000  0.00300000  0.91660000  1.0 -0.0975696559
C  C73  1  0.00300000  0.54880000  0.91660000  1.0 -0.0975696559
C  C74  1  0.54880000  0.91660000  0.00300000  1.0 -0.0975696559
C  C75  1  0.91660000  0.00300000  0.54880000  1.0 -0.0975696559
C  C76  1  0.99700000  0.08340000  0.45120000  1.0 -0.0975696559
C  C77  1  0.08340000  0.45120000  0.99700000  1.0 -0.0975696559
C  C78  1  0.45120000  0.99700000  0.08340000  1.0 -0.0975696559
C  C79  1  0.92590000  0.34040000  0.08470000  1.0 -0.3608019914
C  C80  1  0.34040000  0.08470000  0.92590000  1.0 -0.3608019914
C  C81  1  0.08470000  0.92590000  0.34040000  1.0 -0.3608019914
C  C82  1  0.07410000  0.91530000  0.65960000  1.0 -0.3608019914
C  C83  1  0.91530000  0.65960000  0.07410000  1.0 -0.3608019914
C  C84  1  0.65960000  0.07410000  0.91530000  1.0 -0.3608019914
C  C85  1  0.07410000  0.65960000  0.91530000  1.0 -0.3608019914
C  C86  1  0.65960000  0.91530000  0.07410000  1.0 -0.3608019914
C  C87  1  0.91530000  0.07410000  0.65960000  1.0 -0.3608019914
C  C88  1  0.92590000  0.08470000  0.34040000  1.0 -0.3608019914
C  C89  1  0.08470000  0.34040000  0.92590000  1.0 -0.3608019914
C  C90  1  0.34040000  0.92590000  0.08470000  1.0 -0.3608019914
O  O1  1  0.62572000  0.47817000  0.88642000  1.0 -0.5236177053
O  O2  1  0.47817000  0.88642000  0.62572000  1.0 -0.5255420174
O  O3  1  0.88642000  0.62572000  0.47817000  1.0 -0.5236177053
O  O4  1  0.37428000  0.11358000  0.52183000  1.0 -0.5236177053
O  O5  1  0.11358000  0.52183000  0.37428000  1.0 -0.5236177053
O  O6  1  0.52183000  0.37428000  0.11358000  1.0 -0.5255420174
O  O7  1  0.37428000  0.52183000  0.11358000  1.0 -0.5236177053
O  O8  1  0.52183000  0.11358000  0.37428000  1.0 -0.5236177053
O  O9  1  0.11358000  0.37428000  0.52183000  1.0 -0.5255420174
O  O10  1  0.62572000  0.88642000  0.47817000  1.0 -0.5236177053
O  O11  1  0.88642000  0.47817000  0.62572000  1.0 -0.5236177053
O  O12  1  0.47817000  0.62572000  0.88642000  1.0 -0.5255420174
O  O13  1  0.63293000  0.48540000  0.01427000  1.0 -0.5236177053
O  O14  1  0.48540000  0.01427000  0.63293000  1.0 -0.5236177053
O  O15  1  0.01427000  0.63293000  0.48540000  1.0 -0.5236177053
O  O16  1  0.36707000  0.98573000  0.51460000  1.0 -0.5236177053
O  O17  1  0.98573000  0.51460000  0.36707000  1.0 -0.5236177053
O  O18  1  0.51460000  0.36707000  0.98573000  1.0 -0.5236177053
O  O19  1  0.36707000  0.51460000  0.98573000  1.0 -0.5236177053
O  O20  1  0.51460000  0.98573000  0.36707000  1.0 -0.5236177053
O  O21  1  0.98573000  0.36707000  0.51460000  1.0 -0.5236177053
O  O22  1  0.63293000  0.01427000  0.48540000  1.0 -0.5236177053
O  O23  1  0.01427000  0.48540000  0.63293000  1.0 -0.5236177053
O  O24  1  0.48540000  0.63293000  0.01427000  1.0 -0.5236177053
