# DDEC6 charges by PACMAN v1.1 (https://github.com/mtap-research/PACMAN-charge/)
data_WANHIF_ASR_pacman
_symmetry_space_group_name_H-M   'P 1'
_cell_length_a   16.76510000
_cell_length_b   16.76510000
_cell_length_c   16.76510000
_cell_angle_alpha   67.19850000
_cell_angle_beta   67.19850000
_cell_angle_gamma   67.19850000
_symmetry_Int_Tables_number   1
_chemical_formula_structural   CuH3C13(NO4)2
_chemical_formula_sum   'Cu6 H18 C78 N12 O48'
_cell_volume   3845.07902434
_cell_formula_units_Z   6
loop_
 _symmetry_equiv_pos_site_id
 _symmetry_equiv_pos_as_xyz
  1  'x, y, z'
loop_
 _atom_site_type_symbol
 _atom_site_label
 _atom_site_symmetry_multiplicity
 _atom_site_fract_x
 _atom_site_fract_y
 _atom_site_fract_z
 _atom_site_occupancy
 _atom_site_charge
Cu  Cu1  1  0.92407000  0.49595000  0.49595000  1.0 0.8760337348
Cu  Cu2  1  0.49595000  0.49595000  0.92407000  1.0 0.8760337348
Cu  Cu3  1  0.49595000  0.92407000  0.49595000  1.0 0.8760337348
Cu  Cu4  1  0.07593000  0.50405000  0.50405000  1.0 0.8760337348
Cu  Cu5  1  0.50405000  0.50405000  0.07593000  1.0 0.8760337348
Cu  Cu6  1  0.50405000  0.07593000  0.50405000  1.0 0.8760337348
H  H1  1  0.00190000  0.47950000  0.78620000  1.0 0.148746353
H  H2  1  0.47950000  0.78620000  0.00190000  1.0 0.148746353
H  H3  1  0.78620000  0.00190000  0.47950000  1.0 0.148746353
H  H4  1  0.99810000  0.21380000  0.52050000  1.0 0.148746353
H  H5  1  0.21380000  0.52050000  0.99810000  1.0 0.148746353
H  H6  1  0.52050000  0.99810000  0.21380000  1.0 0.148746353
H  H7  1  0.99810000  0.52050000  0.21380000  1.0 0.148746353
H  H8  1  0.52050000  0.21380000  0.99810000  1.0 0.148746353
H  H9  1  0.21380000  0.99810000  0.52050000  1.0 0.148746353
H  H10  1  0.00190000  0.78620000  0.47950000  1.0 0.148746353
H  H11  1  0.78620000  0.47950000  0.00190000  1.0 0.148746353
H  H12  1  0.47950000  0.00190000  0.78620000  1.0 0.148746353
H  H13  1  0.77350000  0.46830000  0.77350000  1.0 0.1586363629
H  H14  1  0.46830000  0.77350000  0.77350000  1.0 0.1586363629
H  H15  1  0.77350000  0.77350000  0.46830000  1.0 0.1586363629
H  H16  1  0.22650000  0.22650000  0.53170000  1.0 0.1586363629
H  H17  1  0.22650000  0.53170000  0.22650000  1.0 0.1586363629
H  H18  1  0.53170000  0.22650000  0.22650000  1.0 0.1586363629
C  C1  1  0.93537000  0.48007000  0.66666667  1.0 0.5969939049
C  C2  1  0.48007000  0.66666667  0.93537000  1.0 0.5969939049
C  C3  1  0.66666667  0.93537000  0.48007000  1.0 0.5969939049
C  C4  1  0.06463000  0.33333333  0.51993000  1.0 0.5969939049
C  C5  1  0.33333333  0.51993000  0.06463000  1.0 0.5969939049
C  C6  1  0.51993000  0.06463000  0.33333333  1.0 0.5969939049
C  C7  1  0.06463000  0.51993000  0.33333333  1.0 0.5969939049
C  C8  1  0.51993000  0.33333333  0.06463000  1.0 0.5969939049
C  C9  1  0.33333333  0.06463000  0.51993000  1.0 0.5969939049
C  C10  1  0.93537000  0.66666667  0.48007000  1.0 0.5969939049
C  C11  1  0.66666667  0.48007000  0.93537000  1.0 0.5969939049
C  C12  1  0.48007000  0.93537000  0.66666667  1.0 0.5969939049
C  C13  1  0.89371000  0.47541000  0.76351000  1.0 -0.0185308073
C  C14  1  0.47541000  0.76351000  0.89371000  1.0 -0.0185308073
C  C15  1  0.76351000  0.89371000  0.47541000  1.0 -0.0185308073
C  C16  1  0.10629000  0.23649000  0.52459000  1.0 -0.0185308073
C  C17  1  0.23649000  0.52459000  0.10629000  1.0 -0.0185308073
C  C18  1  0.52459000  0.10629000  0.23649000  1.0 -0.0185308073
C  C19  1  0.10629000  0.52459000  0.23649000  1.0 -0.0185308073
C  C20  1  0.52459000  0.23649000  0.10629000  1.0 -0.0185308073
C  C21  1  0.23649000  0.10629000  0.52459000  1.0 -0.0185308073
C  C22  1  0.89371000  0.76351000  0.47541000  1.0 -0.0185308073
C  C23  1  0.76351000  0.47541000  0.89371000  1.0 -0.0185308073
C  C24  1  0.47541000  0.89371000  0.76351000  1.0 -0.0185308073
C  C25  1  0.94216000  0.47856000  0.81316000  1.0 -0.1364692844
C  C26  1  0.47856000  0.81316000  0.94216000  1.0 -0.1364692844
C  C27  1  0.81316000  0.94216000  0.47856000  1.0 -0.1364692844
C  C28  1  0.05784000  0.18684000  0.52144000  1.0 -0.1364692844
C  C29  1  0.18684000  0.52144000  0.05784000  1.0 -0.1364692844
C  C30  1  0.52144000  0.05784000  0.18684000  1.0 -0.1364692844
C  C31  1  0.05784000  0.52144000  0.18684000  1.0 -0.1364692844
C  C32  1  0.52144000  0.18684000  0.05784000  1.0 -0.1364692844
C  C33  1  0.18684000  0.05784000  0.52144000  1.0 -0.1364692844
C  C34  1  0.94216000  0.81316000  0.47856000  1.0 -0.1364692844
C  C35  1  0.81316000  0.47856000  0.94216000  1.0 -0.1364692844
C  C36  1  0.47856000  0.94216000  0.81316000  1.0 -0.1364692844
C  C37  1  0.90215000  0.48040000  0.90215000  1.0 0.0603996816
C  C38  1  0.48040000  0.90215000  0.90215000  1.0 0.0603996816
C  C39  1  0.90215000  0.90215000  0.48040000  1.0 0.0603996816
C  C40  1  0.09785000  0.09785000  0.51960000  1.0 0.0603996816
C  C41  1  0.09785000  0.51960000  0.09785000  1.0 0.0603996816
C  C42  1  0.51960000  0.09785000  0.09785000  1.0 0.0603996816
C  C43  1  0.80555000  0.47245000  0.80555000  1.0 -0.0807865818
C  C44  1  0.47245000  0.80555000  0.80555000  1.0 -0.0807865818
C  C45  1  0.80555000  0.80555000  0.47245000  1.0 -0.0807865818
C  C46  1  0.19445000  0.19445000  0.52755000  1.0 -0.0807865818
C  C47  1  0.19445000  0.52755000  0.19445000  1.0 -0.0807865818
C  C48  1  0.52755000  0.19445000  0.19445000  1.0 -0.0807865818
C  C49  1  0.95365000  0.48885000  0.95365000  1.0 0.0603996816
C  C50  1  0.48885000  0.95365000  0.95365000  1.0 0.0603996816
C  C51  1  0.95365000  0.95365000  0.48885000  1.0 0.0603996816
C  C52  1  0.04635000  0.04635000  0.51115000  1.0 0.0603996816
C  C53  1  0.04635000  0.51115000  0.04635000  1.0 0.0603996816
C  C54  1  0.51115000  0.04635000  0.04635000  1.0 0.0603996816
C  C55  1  0.04010000  0.43640000  0.95370000  1.0 0.0325298228
C  C56  1  0.43640000  0.95370000  0.04010000  1.0 0.0325298228
C  C57  1  0.95370000  0.04010000  0.43640000  1.0 0.0325298228
C  C58  1  0.95990000  0.04630000  0.56360000  1.0 0.0325298228
C  C59  1  0.04630000  0.56360000  0.95990000  1.0 0.0325298228
C  C60  1  0.56360000  0.95990000  0.04630000  1.0 0.0325298228
C  C61  1  0.95990000  0.56360000  0.04630000  1.0 0.0325298228
C  C62  1  0.56360000  0.04630000  0.95990000  1.0 0.0325298228
C  C63  1  0.04630000  0.95990000  0.56360000  1.0 0.0325298228
C  C64  1  0.04010000  0.95370000  0.43640000  1.0 0.0325298228
C  C65  1  0.95370000  0.43640000  0.04010000  1.0 0.0325298228
C  C66  1  0.43640000  0.04010000  0.95370000  1.0 0.0325298228
C  C67  1  0.00260000  0.55250000  0.91170000  1.0 0.0109867421
C  C68  1  0.55250000  0.91170000  0.00260000  1.0 0.0109867421
C  C69  1  0.91170000  0.00260000  0.55250000  1.0 0.0109867421
C  C70  1  0.99740000  0.08830000  0.44750000  1.0 0.0109867421
C  C71  1  0.08830000  0.44750000  0.99740000  1.0 0.0109867421
C  C72  1  0.44750000  0.99740000  0.08830000  1.0 0.0109867421
C  C73  1  0.99740000  0.44750000  0.08830000  1.0 0.0109867421
C  C74  1  0.44750000  0.08830000  0.99740000  1.0 0.0109867421
C  C75  1  0.08830000  0.99740000  0.44750000  1.0 0.0109867421
C  C76  1  0.00260000  0.91170000  0.55250000  1.0 0.0109867421
C  C77  1  0.91170000  0.55250000  0.00260000  1.0 0.0109867421
C  C78  1  0.55250000  0.00260000  0.91170000  1.0 0.0109867421
N  N1  1  0.06970000  0.33670000  0.92420000  1.0 0.0693993399
N  N2  1  0.33670000  0.92420000  0.06970000  1.0 0.0693993399
N  N3  1  0.92420000  0.06970000  0.33670000  1.0 0.0693993399
N  N4  1  0.93030000  0.07580000  0.66330000  1.0 0.0693993399
N  N5  1  0.07580000  0.66330000  0.93030000  1.0 0.0603996816
N  N6  1  0.66330000  0.93030000  0.07580000  1.0 0.0693993399
N  N7  1  0.93030000  0.66330000  0.07580000  1.0 0.0693993399
N  N8  1  0.66330000  0.07580000  0.93030000  1.0 0.0693993399
N  N9  1  0.07580000  0.93030000  0.66330000  1.0 0.0693993399
N  N10  1  0.06970000  0.92420000  0.33670000  1.0 0.0693993399
N  N11  1  0.92420000  0.33670000  0.06970000  1.0 0.0693993399
N  N12  1  0.33670000  0.06970000  0.92420000  1.0 0.0693993399
O  O1  1  0.88684000  0.47870000  0.62573000  1.0 -0.5060454889
O  O2  1  0.47870000  0.62573000  0.88684000  1.0 -0.5060454889
O  O3  1  0.62573000  0.88684000  0.47870000  1.0 -0.5060454889
O  O4  1  0.11316000  0.37427000  0.52130000  1.0 -0.5060454889
O  O5  1  0.37427000  0.52130000  0.11316000  1.0 -0.5060454889
O  O6  1  0.52130000  0.11316000  0.37427000  1.0 -0.5060454889
O  O7  1  0.11316000  0.52130000  0.37427000  1.0 -0.5060454889
O  O8  1  0.52130000  0.37427000  0.11316000  1.0 -0.5060454889
O  O9  1  0.37427000  0.11316000  0.52130000  1.0 -0.5060454889
O  O10  1  0.88684000  0.62573000  0.47870000  1.0 -0.5060454889
O  O11  1  0.62573000  0.47870000  0.88684000  1.0 -0.5060454889
O  O12  1  0.47870000  0.88684000  0.62573000  1.0 -0.5060454889
O  O13  1  0.01420000  0.48525000  0.63372000  1.0 -0.491368029
O  O14  1  0.48525000  0.63372000  0.01420000  1.0 -0.491368029
O  O15  1  0.63372000  0.01420000  0.48525000  1.0 -0.491368029
O  O16  1  0.98580000  0.36628000  0.51475000  1.0 -0.491368029
O  O17  1  0.36628000  0.51475000  0.98580000  1.0 -0.491368029
O  O18  1  0.51475000  0.98580000  0.36628000  1.0 -0.491368029
O  O19  1  0.98580000  0.51475000  0.36628000  1.0 -0.491368029
O  O20  1  0.51475000  0.36628000  0.98580000  1.0 -0.491368029
O  O21  1  0.36628000  0.98580000  0.51475000  1.0 -0.491368029
O  O22  1  0.01420000  0.63372000  0.48525000  1.0 -0.491368029
O  O23  1  0.63372000  0.48525000  0.01420000  1.0 -0.491368029
O  O24  1  0.48525000  0.01420000  0.63372000  1.0 -0.491368029
O  O25  1  0.02900000  0.27300000  0.96200000  1.0 0.1916461292
O  O26  1  0.27300000  0.96200000  0.02900000  1.0 0.1968305587
O  O27  1  0.96200000  0.02900000  0.27300000  1.0 0.1968305587
O  O28  1  0.97100000  0.03800000  0.72700000  1.0 0.2052491124
O  O29  1  0.03800000  0.72700000  0.97100000  1.0 0.1968305587
O  O30  1  0.72700000  0.97100000  0.03800000  1.0 0.1916461292
O  O31  1  0.97100000  0.72700000  0.03800000  1.0 0.1968305587
O  O32  1  0.72700000  0.03800000  0.97100000  1.0 0.1968305587
O  O33  1  0.03800000  0.97100000  0.72700000  1.0 0.1916461292
O  O34  1  0.02900000  0.96200000  0.27300000  1.0 0.1916461292
O  O35  1  0.96200000  0.27300000  0.02900000  1.0 0.1968305587
O  O36  1  0.27300000  0.02900000  0.96200000  1.0 0.1968305587
O  O37  1  0.18090000  0.34790000  0.87290000  1.0 -0.4380593402
O  O38  1  0.34790000  0.87290000  0.18090000  1.0 -0.4380593402
O  O39  1  0.87290000  0.18090000  0.34790000  1.0 -0.4380593402
O  O40  1  0.81910000  0.12710000  0.65210000  1.0 -0.4380593402
O  O41  1  0.12710000  0.65210000  0.81910000  1.0 -0.4380593402
O  O42  1  0.65210000  0.81910000  0.12710000  1.0 -0.4380593402
O  O43  1  0.81910000  0.65210000  0.12710000  1.0 -0.4380593402
O  O44  1  0.65210000  0.12710000  0.81910000  1.0 -0.445003051
O  O45  1  0.12710000  0.81910000  0.65210000  1.0 -0.4380593402
O  O46  1  0.18090000  0.87290000  0.34790000  1.0 -0.4380593402
O  O47  1  0.87290000  0.34790000  0.18090000  1.0 -0.4380593402
O  O48  1  0.34790000  0.18090000  0.87290000  1.0 -0.4380593402
