# DDEC6 charges by PACMAN v1.1 (https://github.com/mtap-research/PACMAN-charge/)
data_WANHEB_ASR_pacman
_symmetry_space_group_name_H-M   'P 1'
_cell_length_a   16.70740000
_cell_length_b   16.70740000
_cell_length_c   16.70740000
_cell_angle_alpha   67.71070000
_cell_angle_beta   67.71070000
_cell_angle_gamma   67.71070000
_symmetry_Int_Tables_number   1
_chemical_formula_structural   CuH11C13(NO2)2
_chemical_formula_sum   'Cu6 H66 C78 N12 O24'
_cell_volume   3838.83477026
_cell_formula_units_Z   6
loop_
 _symmetry_equiv_pos_site_id
 _symmetry_equiv_pos_as_xyz
  1  'x, y, z'
loop_
 _atom_site_type_symbol
 _atom_site_label
 _atom_site_symmetry_multiplicity
 _atom_site_fract_x
 _atom_site_fract_y
 _atom_site_fract_z
 _atom_site_occupancy
 _atom_site_charge
Cu  Cu1  1  0.42466000  0.99510000  0.99510000  1.0 0.8690992935
Cu  Cu2  1  0.99510000  0.99510000  0.42466000  1.0 0.8690992935
Cu  Cu3  1  0.99510000  0.42466000  0.99510000  1.0 0.8690992935
Cu  Cu4  1  0.00490000  0.57534000  0.00490000  1.0 0.8690992935
Cu  Cu5  1  0.00490000  0.00490000  0.57534000  1.0 0.8690992935
Cu  Cu6  1  0.57534000  0.00490000  0.00490000  1.0 0.8690992935
H  H1  1  0.72885000  0.72885000  0.03060000  1.0 0.1439747257
H  H2  1  0.72885000  0.03060000  0.72885000  1.0 0.1439747257
H  H3  1  0.03060000  0.72885000  0.72885000  1.0 0.1439747257
H  H4  1  0.27115000  0.27115000  0.96940000  1.0 0.1439747257
H  H5  1  0.96940000  0.27115000  0.27115000  1.0 0.1439747257
H  H6  1  0.27115000  0.96940000  0.27115000  1.0 0.1439747257
H  H7  1  0.49830000  0.71370000  0.02280000  1.0 0.1232300195
H  H8  1  0.71370000  0.02280000  0.49830000  1.0 0.1232300195
H  H9  1  0.02280000  0.49830000  0.71370000  1.0 0.1232300195
H  H10  1  0.28630000  0.50170000  0.97720000  1.0 0.1232300195
H  H11  1  0.97720000  0.28630000  0.50170000  1.0 0.1232300195
H  H12  1  0.50170000  0.97720000  0.28630000  1.0 0.1232300195
H  H13  1  0.50170000  0.28630000  0.97720000  1.0 0.1232300195
H  H14  1  0.28630000  0.97720000  0.50170000  1.0 0.1232300195
H  H15  1  0.97720000  0.50170000  0.28630000  1.0 0.1232300195
H  H16  1  0.71370000  0.49830000  0.02280000  1.0 0.1232300195
H  H17  1  0.02280000  0.71370000  0.49830000  1.0 0.1232300195
H  H18  1  0.49830000  0.02280000  0.71370000  1.0 0.1232300195
H  H19  1  0.35660000  0.49480000  0.09180000  1.0 0.0894457517
H  H20  1  0.49480000  0.09180000  0.35660000  1.0 0.0894457517
H  H21  1  0.09180000  0.35660000  0.49480000  1.0 0.0894457517
H  H22  1  0.50520000  0.64340000  0.90820000  1.0 0.0894457517
H  H23  1  0.90820000  0.50520000  0.64340000  1.0 0.0894457517
H  H24  1  0.64340000  0.90820000  0.50520000  1.0 0.0894457517
H  H25  1  0.64340000  0.50520000  0.90820000  1.0 0.0894457517
H  H26  1  0.50520000  0.90820000  0.64340000  1.0 0.0894457517
H  H27  1  0.90820000  0.64340000  0.50520000  1.0 0.0894457517
H  H28  1  0.49480000  0.35660000  0.09180000  1.0 0.0894457517
H  H29  1  0.09180000  0.49480000  0.35660000  1.0 0.0894457517
H  H30  1  0.35660000  0.09180000  0.49480000  1.0 0.0894457517
H  H31  1  0.36770000  0.56600000  0.19940000  1.0 0.2320107537
H  H32  1  0.56600000  0.19940000  0.36770000  1.0 0.2320107537
H  H33  1  0.19940000  0.36770000  0.56600000  1.0 0.2320107537
H  H34  1  0.43400000  0.63230000  0.80060000  1.0 0.2320107537
H  H35  1  0.80060000  0.43400000  0.63230000  1.0 0.2320107537
H  H36  1  0.63230000  0.80060000  0.43400000  1.0 0.2320107537
H  H37  1  0.63230000  0.43400000  0.80060000  1.0 0.2320107537
H  H38  1  0.43400000  0.80060000  0.63230000  1.0 0.2320107537
H  H39  1  0.80060000  0.63230000  0.43400000  1.0 0.2320107537
H  H40  1  0.56600000  0.36770000  0.19940000  1.0 0.2320107537
H  H41  1  0.19940000  0.56600000  0.36770000  1.0 0.2320107537
H  H42  1  0.36770000  0.19940000  0.56600000  1.0 0.2320107537
H  H43  1  0.44900000  0.60640000  0.16410000  1.0 0.1599415757
H  H44  1  0.60640000  0.16410000  0.44900000  1.0 0.1599415757
H  H45  1  0.16410000  0.44900000  0.60640000  1.0 0.1599415757
H  H46  1  0.39360000  0.55100000  0.83590000  1.0 0.1599415757
H  H47  1  0.83590000  0.39360000  0.55100000  1.0 0.1599415757
H  H48  1  0.55100000  0.83590000  0.39360000  1.0 0.1599415757
H  H49  1  0.55100000  0.39360000  0.83590000  1.0 0.1599415757
H  H50  1  0.39360000  0.83590000  0.55100000  1.0 0.1599415757
H  H51  1  0.83590000  0.55100000  0.39360000  1.0 0.1599415757
H  H52  1  0.60640000  0.44900000  0.16410000  1.0 0.1599415757
H  H53  1  0.16410000  0.60640000  0.44900000  1.0 0.1599415757
H  H54  1  0.44900000  0.16410000  0.60640000  1.0 0.1599415757
H  H55  1  0.43650000  0.56820000  0.12090000  1.0 0.1122310353
H  H56  1  0.56820000  0.12090000  0.43650000  1.0 0.1122310353
H  H57  1  0.12090000  0.43650000  0.56820000  1.0 0.1122310353
H  H58  1  0.43180000  0.56350000  0.87910000  1.0 0.1122310353
H  H59  1  0.87910000  0.43180000  0.56350000  1.0 0.1122310353
H  H60  1  0.56350000  0.87910000  0.43180000  1.0 0.1122310353
H  H61  1  0.56350000  0.43180000  0.87910000  1.0 0.1122310353
H  H62  1  0.43180000  0.87910000  0.56350000  1.0 0.1122310353
H  H63  1  0.87910000  0.56350000  0.43180000  1.0 0.1122310353
H  H64  1  0.56820000  0.43650000  0.12090000  1.0 0.1122310353
H  H65  1  0.12090000  0.56820000  0.43650000  1.0 0.1122310353
H  H66  1  0.43650000  0.12090000  0.56820000  1.0 0.1122310353
C  C1  1  0.56576000  0.83373000  0.02113000  1.0 0.5822701447
C  C2  1  0.83373000  0.02113000  0.56576000  1.0 0.5822701447
C  C3  1  0.02113000  0.56576000  0.83373000  1.0 0.5822701447
C  C4  1  0.16627000  0.43424000  0.97887000  1.0 0.5822701447
C  C5  1  0.97887000  0.16627000  0.43424000  1.0 0.5822701447
C  C6  1  0.43424000  0.97887000  0.16627000  1.0 0.5822701447
C  C7  1  0.43424000  0.16627000  0.97887000  1.0 0.5822701447
C  C8  1  0.16627000  0.97887000  0.43424000  1.0 0.5822701447
C  C9  1  0.97887000  0.43424000  0.16627000  1.0 0.5822701447
C  C10  1  0.83373000  0.56576000  0.02113000  1.0 0.5822701447
C  C11  1  0.02113000  0.83373000  0.56576000  1.0 0.5822701447
C  C12  1  0.56576000  0.02113000  0.83373000  1.0 0.5822701447
C  C13  1  0.60697000  0.73577000  0.02652000  1.0 -0.0120445587
C  C14  1  0.73577000  0.02652000  0.60697000  1.0 -0.0120445587
C  C15  1  0.02652000  0.60697000  0.73577000  1.0 -0.0120445587
C  C16  1  0.26423000  0.39303000  0.97348000  1.0 -0.0120445587
C  C17  1  0.97348000  0.26423000  0.39303000  1.0 -0.0120445587
C  C18  1  0.39303000  0.97348000  0.26423000  1.0 -0.0120445587
C  C19  1  0.39303000  0.26423000  0.97348000  1.0 -0.0120445587
C  C20  1  0.26423000  0.97348000  0.39303000  1.0 -0.0120445587
C  C21  1  0.97348000  0.39303000  0.26423000  1.0 -0.0120445587
C  C22  1  0.73577000  0.60697000  0.02652000  1.0 -0.0120445587
C  C23  1  0.02652000  0.73577000  0.60697000  1.0 -0.0120445587
C  C24  1  0.60697000  0.02652000  0.73577000  1.0 -0.0120445587
C  C25  1  0.69600000  0.69600000  0.02820000  1.0 -0.1181709289
C  C26  1  0.69600000  0.02820000  0.69600000  1.0 -0.1181709289
C  C27  1  0.02820000  0.69600000  0.69600000  1.0 -0.1181709289
C  C28  1  0.30400000  0.30400000  0.97180000  1.0 -0.1181709289
C  C29  1  0.97180000  0.30400000  0.30400000  1.0 -0.1181709289
C  C30  1  0.30400000  0.97180000  0.30400000  1.0 -0.1181709289
C  C31  1  0.55824000  0.68690000  0.02317000  1.0 -0.1440781238
C  C32  1  0.68690000  0.02317000  0.55824000  1.0 -0.1456027018
C  C33  1  0.02317000  0.55824000  0.68690000  1.0 -0.1456027018
C  C34  1  0.31310000  0.44176000  0.97683000  1.0 -0.1456027018
C  C35  1  0.97683000  0.31310000  0.44176000  1.0 -0.1456027018
C  C36  1  0.44176000  0.97683000  0.31310000  1.0 -0.1456027018
C  C37  1  0.44176000  0.31310000  0.97683000  1.0 -0.1456027018
C  C38  1  0.31310000  0.97683000  0.44176000  1.0 -0.1456027018
C  C39  1  0.97683000  0.44176000  0.31310000  1.0 -0.1440781238
C  C40  1  0.68690000  0.55824000  0.02317000  1.0 -0.1456027018
C  C41  1  0.02317000  0.68690000  0.55824000  1.0 -0.1456027018
C  C42  1  0.55824000  0.02317000  0.68690000  1.0 -0.1456027018
C  C43  1  0.59793000  0.59793000  0.02043000  1.0 0.0746057717
C  C44  1  0.59793000  0.02043000  0.59793000  1.0 0.0746057717
C  C45  1  0.02043000  0.59793000  0.59793000  1.0 0.0746057717
C  C46  1  0.40207000  0.40207000  0.97957000  1.0 0.0746057717
C  C47  1  0.97957000  0.40207000  0.40207000  1.0 0.0768877981
C  C48  1  0.40207000  0.97957000  0.40207000  1.0 0.0746057717
C  C49  1  0.54612000  0.54612000  0.01242000  1.0 0.019187992
C  C50  1  0.54612000  0.01242000  0.54612000  1.0 0.019187992
C  C51  1  0.01242000  0.54612000  0.54612000  1.0 0.019187992
C  C52  1  0.45388000  0.45388000  0.98758000  1.0 0.019187992
C  C53  1  0.98758000  0.45388000  0.45388000  1.0 0.019187992
C  C54  1  0.45388000  0.98758000  0.45388000  1.0 0.019187992
C  C55  1  0.46302000  0.54152000  0.06982000  1.0 0.0309582076
C  C56  1  0.54152000  0.06982000  0.46302000  1.0 0.0309582076
C  C57  1  0.06982000  0.46302000  0.54152000  1.0 0.0309582076
C  C58  1  0.45848000  0.53698000  0.93018000  1.0 0.0309582076
C  C59  1  0.93018000  0.45848000  0.53698000  1.0 0.0309582076
C  C60  1  0.53698000  0.93018000  0.45848000  1.0 0.0309582076
C  C61  1  0.53698000  0.45848000  0.93018000  1.0 0.0309582076
C  C62  1  0.45848000  0.93018000  0.53698000  1.0 0.0309582076
C  C63  1  0.93018000  0.53698000  0.45848000  1.0 0.0309582076
C  C64  1  0.54152000  0.46302000  0.06982000  1.0 0.0309582076
C  C65  1  0.06982000  0.54152000  0.46302000  1.0 0.0309582076
C  C66  1  0.46302000  0.06982000  0.54152000  1.0 0.0309582076
C  C67  1  0.41667000  0.49607000  0.05527000  1.0 -0.1181709289
C  C68  1  0.49607000  0.05527000  0.41667000  1.0 -0.1181709289
C  C69  1  0.05527000  0.41667000  0.49607000  1.0 -0.1181709289
C  C70  1  0.50393000  0.58333000  0.94473000  1.0 -0.1181709289
C  C71  1  0.94473000  0.50393000  0.58333000  1.0 -0.1181709289
C  C72  1  0.58333000  0.94473000  0.50393000  1.0 -0.1181709289
C  C73  1  0.58333000  0.50393000  0.94473000  1.0 -0.1181709289
C  C74  1  0.50393000  0.94473000  0.58333000  1.0 -0.1181709289
C  C75  1  0.94473000  0.58333000  0.50393000  1.0 -0.1181709289
C  C76  1  0.49607000  0.41667000  0.05527000  1.0 -0.1181709289
C  C77  1  0.05527000  0.49607000  0.41667000  1.0 -0.1181709289
C  C78  1  0.41667000  0.05527000  0.49607000  1.0 -0.1181709289
N  N1  1  0.41780000  0.57720000  0.15670000  1.0 -0.5186343846
N  N2  1  0.57720000  0.15670000  0.41780000  1.0 -0.5131614543
N  N3  1  0.15670000  0.41780000  0.57720000  1.0 -0.5186343846
N  N4  1  0.42280000  0.58220000  0.84330000  1.0 -0.5186343846
N  N5  1  0.84330000  0.42280000  0.58220000  1.0 -0.5131614543
N  N6  1  0.58220000  0.84330000  0.42280000  1.0 -0.5186343846
N  N7  1  0.58220000  0.42280000  0.84330000  1.0 -0.5131614543
N  N8  1  0.42280000  0.84330000  0.58220000  1.0 -0.5186343846
N  N9  1  0.84330000  0.58220000  0.42280000  1.0 -0.5186343846
N  N10  1  0.57720000  0.41780000  0.15670000  1.0 -0.5186343846
N  N11  1  0.15670000  0.57720000  0.41780000  1.0 -0.5186343846
N  N12  1  0.41780000  0.15670000  0.57720000  1.0 -0.5186343846
O  O1  1  0.48678000  0.86691000  0.01443000  1.0 -0.5186343846
O  O2  1  0.86691000  0.01443000  0.48678000  1.0 -0.5186343846
O  O3  1  0.01443000  0.48678000  0.86691000  1.0 -0.5186343846
O  O4  1  0.13309000  0.51322000  0.98557000  1.0 -0.5186343846
O  O5  1  0.98557000  0.13309000  0.51322000  1.0 -0.5186343846
O  O6  1  0.51322000  0.98557000  0.13309000  1.0 -0.5186343846
O  O7  1  0.51322000  0.13309000  0.98557000  1.0 -0.5186343846
O  O8  1  0.13309000  0.98557000  0.51322000  1.0 -0.5186343846
O  O9  1  0.98557000  0.51322000  0.13309000  1.0 -0.5186343846
O  O10  1  0.86691000  0.48678000  0.01443000  1.0 -0.5186343846
O  O11  1  0.01443000  0.86691000  0.48678000  1.0 -0.5186343846
O  O12  1  0.48678000  0.01443000  0.86691000  1.0 -0.5186343846
O  O13  1  0.61457000  0.87500000  0.02219000  1.0 -0.5131614543
O  O14  1  0.87500000  0.02219000  0.61457000  1.0 -0.5131614543
O  O15  1  0.02219000  0.61457000  0.87500000  1.0 -0.5131614543
O  O16  1  0.12500000  0.38543000  0.97781000  1.0 -0.5131614543
O  O17  1  0.97781000  0.12500000  0.38543000  1.0 -0.5131614543
O  O18  1  0.38543000  0.97781000  0.12500000  1.0 -0.5131614543
O  O19  1  0.38543000  0.12500000  0.97781000  1.0 -0.5131614543
O  O20  1  0.12500000  0.97781000  0.38543000  1.0 -0.5131614543
O  O21  1  0.97781000  0.38543000  0.12500000  1.0 -0.5131614543
O  O22  1  0.87500000  0.61457000  0.02219000  1.0 -0.5131614543
O  O23  1  0.02219000  0.87500000  0.61457000  1.0 -0.5131614543
O  O24  1  0.61457000  0.02219000  0.87500000  1.0 -0.5131614543
