# DDEC6 charges by PACMAN v1.1 (https://github.com/mtap-research/PACMAN-charge/)
data_WANNEH_FSR_pacman
_symmetry_space_group_name_H-M   'P 1'
_cell_length_a   14.67380000
_cell_length_b   14.67380000
_cell_length_c   15.54030000
_cell_angle_alpha   62.16170000
_cell_angle_beta   117.83800000
_cell_angle_gamma   140.54400000
_symmetry_Int_Tables_number   1
_chemical_formula_structural   CoH18C17N3O4
_chemical_formula_sum   'Co4 H72 C68 N12 O16'
_cell_volume   1846.30988159
_cell_formula_units_Z   4
loop_
 _symmetry_equiv_pos_site_id
 _symmetry_equiv_pos_as_xyz
  1  'x, y, z'
loop_
 _atom_site_type_symbol
 _atom_site_label
 _atom_site_symmetry_multiplicity
 _atom_site_fract_x
 _atom_site_fract_y
 _atom_site_fract_z
 _atom_site_occupancy
 _atom_site_charge
Co  Co1  1  0.65336000  0.07238000  0.53248000  1.0 0.9137997635
Co  Co2  1  0.07238000  0.65336000  0.96752000  1.0 0.9137997635
Co  Co3  1  0.34664000  0.92762000  0.46752000  1.0 0.9137997635
Co  Co4  1  0.92762000  0.34664000  0.03248000  1.0 0.9137997635
H  H1  1  0.29360000  0.74540000  0.78040000  1.0 0.1317870345
H  H2  1  0.31590000  0.47510000  0.00920000  1.0 0.1317870345
H  H3  1  0.56280000  0.72640000  0.80150000  1.0 0.1385670014
H  H4  1  0.86660000  0.16400000  0.43520000  1.0 0.1317870345
H  H5  1  0.12950000  0.31870000  0.49490000  1.0 0.1192207866
H  H6  1  0.87690000  0.22630000  0.71170000  1.0 0.1192207866
H  H7  1  0.04120000  0.31160000  0.75830000  1.0 0.0994207718
H  H8  1  0.95970000  0.45250000  0.59050000  1.0 0.1317870345
H  H9  1  0.00360000  0.47000000  0.69900000  1.0 0.1192207866
H  H10  1  0.11990000  0.53510000  0.64900000  1.0 0.1192207866
H  H11  1  0.41220000  0.30940000  0.84950000  1.0 0.0691130095
H  H12  1  0.42900000  0.27680000  0.77990000  1.0 0.0797663488
H  H13  1  0.42650000  0.45270000  0.74110000  1.0 0.0797663488
H  H14  1  0.37930000  0.44490000  0.62890000  1.0 0.0853483089
H  H15  1  0.17940000  0.23380000  0.72650000  1.0 0.0691130095
H  H16  1  0.23270000  0.24230000  0.65330000  1.0 0.0797663488
H  H17  1  0.30200000  0.54040000  0.62440000  1.0 0.0853483089
H  H18  1  0.25050000  0.44150000  0.72730000  1.0 0.0797663488
H  H19  1  0.74540000  0.29360000  0.71960000  1.0 0.1317870345
H  H20  1  0.47510000  0.31590000  0.49080000  1.0 0.1317870345
H  H21  1  0.72640000  0.56280000  0.69850000  1.0 0.1385670014
H  H22  1  0.16400000  0.86660000  0.06480000  1.0 0.1317870345
H  H23  1  0.31870000  0.12950000  0.00510000  1.0 0.1192207866
H  H24  1  0.22630000  0.87690000  0.78830000  1.0 0.1192207866
H  H25  1  0.31160000  0.04120000  0.74170000  1.0 0.0994207718
H  H26  1  0.45250000  0.95970000  0.90950000  1.0 0.1317870345
H  H27  1  0.47000000  0.00360000  0.80100000  1.0 0.1192207866
H  H28  1  0.53510000  0.11990000  0.85100000  1.0 0.1192207866
H  H29  1  0.30940000  0.41220000  0.65050000  1.0 0.0691130095
H  H30  1  0.27680000  0.42900000  0.72010000  1.0 0.0797663488
H  H31  1  0.45270000  0.42650000  0.75890000  1.0 0.0797663488
H  H32  1  0.44490000  0.37930000  0.87110000  1.0 0.0853483089
H  H33  1  0.23380000  0.17940000  0.77350000  1.0 0.0691130095
H  H34  1  0.24230000  0.23270000  0.84670000  1.0 0.0797663488
H  H35  1  0.54040000  0.30200000  0.87560000  1.0 0.0853483089
H  H36  1  0.44150000  0.25050000  0.77270000  1.0 0.0797663488
H  H37  1  0.70640000  0.25460000  0.21960000  1.0 0.1317870345
H  H38  1  0.68410000  0.52490000  0.99080000  1.0 0.1317870345
H  H39  1  0.43720000  0.27360000  0.19850000  1.0 0.1385670014
H  H40  1  0.13340000  0.83600000  0.56480000  1.0 0.1317870345
H  H41  1  0.87050000  0.68130000  0.50510000  1.0 0.1192207866
H  H42  1  0.12310000  0.77370000  0.28830000  1.0 0.1192207866
H  H43  1  0.95880000  0.68840000  0.24170000  1.0 0.0994207718
H  H44  1  0.04030000  0.54750000  0.40950000  1.0 0.1317870345
H  H45  1  0.99640000  0.53000000  0.30100000  1.0 0.1192207866
H  H46  1  0.88010000  0.46490000  0.35100000  1.0 0.1192207866
H  H47  1  0.58780000  0.69060000  0.15050000  1.0 0.0691130095
H  H48  1  0.57100000  0.72320000  0.22010000  1.0 0.0797663488
H  H49  1  0.57350000  0.54730000  0.25890000  1.0 0.0797663488
H  H50  1  0.62070000  0.55510000  0.37110000  1.0 0.0853483089
H  H51  1  0.82060000  0.76620000  0.27350000  1.0 0.0691130095
H  H52  1  0.76730000  0.75770000  0.34670000  1.0 0.0797663488
H  H53  1  0.69800000  0.45960000  0.37560000  1.0 0.0853483089
H  H54  1  0.74950000  0.55850000  0.27270000  1.0 0.0797663488
H  H55  1  0.25460000  0.70640000  0.28040000  1.0 0.1317870345
H  H56  1  0.52490000  0.68410000  0.50920000  1.0 0.1317870345
H  H57  1  0.27360000  0.43720000  0.30150000  1.0 0.1385670014
H  H58  1  0.83600000  0.13340000  0.93520000  1.0 0.1317870345
H  H59  1  0.68130000  0.87050000  0.99490000  1.0 0.1192207866
H  H60  1  0.77370000  0.12310000  0.21170000  1.0 0.1192207866
H  H61  1  0.68840000  0.95880000  0.25830000  1.0 0.0994207718
H  H62  1  0.54750000  0.04030000  0.09050000  1.0 0.1317870345
H  H63  1  0.53000000  0.99640000  0.19900000  1.0 0.1192207866
H  H64  1  0.46490000  0.88010000  0.14900000  1.0 0.1192207866
H  H65  1  0.69060000  0.58780000  0.34950000  1.0 0.0691130095
H  H66  1  0.72320000  0.57100000  0.27990000  1.0 0.0797663488
H  H67  1  0.54730000  0.57350000  0.24110000  1.0 0.0797663488
H  H68  1  0.55510000  0.62070000  0.12890000  1.0 0.0853483089
H  H69  1  0.76620000  0.82060000  0.22650000  1.0 0.0691130095
H  H70  1  0.75770000  0.76730000  0.15330000  1.0 0.0797663488
H  H71  1  0.45960000  0.69800000  0.12440000  1.0 0.0853483089
H  H72  1  0.55850000  0.74950000  0.22730000  1.0 0.0797663488
C  C1  1  0.29110000  0.60590000  0.90250000  1.0 -0.0016654907
C  C2  1  0.33280000  0.70700000  0.81390000  1.0 -0.1088039395
C  C3  1  0.34670000  0.54570000  0.95170000  1.0 -0.2172103963
C  C4  1  0.47120000  0.85180000  0.67760000  1.0 0.5735368588
C  C5  1  0.43240000  0.75000000  0.77570000  1.0 -0.0124406863
C  C6  1  0.49360000  0.69540000  0.82590000  1.0 -0.2061113074
C  C7  1  0.44920000  0.59300000  0.91340000  1.0 0.0994207718
C  C8  1  0.18270000  0.55970000  0.94330000  1.0 0.5735368588
C  C9  1  0.97780000  0.26480000  0.62160000  1.0 0.2707047768
C  C10  1  0.92140000  0.20560000  0.49140000  1.0 -0.0314767204
C  C11  1  0.06600000  0.28860000  0.52530000  1.0 -0.1545622937
C  C12  1  0.97430000  0.30410000  0.69700000  1.0 -0.2360357634
C  C13  1  0.01890000  0.45570000  0.65460000  1.0 -0.3497873835
C  C14  1  0.34340000  0.40720000  0.68750000  1.0 -0.1088039395
C  C15  1  0.25650000  0.44490000  0.66620000  1.0 -0.1204592131
C  C16  1  0.26480000  0.27980000  0.70910000  1.0 -0.1088039395
C  C17  1  0.35740000  0.24060000  0.80870000  1.0 -0.0528303768
C  C18  1  0.60590000  0.29110000  0.59750000  1.0 -0.0016654907
C  C19  1  0.70700000  0.33280000  0.68610000  1.0 -0.1088039395
C  C20  1  0.54570000  0.34670000  0.54830000  1.0 -0.2172103963
C  C21  1  0.85180000  0.47120000  0.82240000  1.0 0.5735368588
C  C22  1  0.75000000  0.43240000  0.72430000  1.0 -0.0124406863
C  C23  1  0.69540000  0.49360000  0.67410000  1.0 -0.2061113074
C  C24  1  0.59300000  0.44920000  0.58660000  1.0 0.0994207718
C  C25  1  0.55970000  0.18270000  0.55670000  1.0 0.5735368588
C  C26  1  0.26480000  0.97780000  0.87840000  1.0 0.2707047768
C  C27  1  0.20560000  0.92140000  0.00860000  1.0 -0.0314767204
C  C28  1  0.28860000  0.06600000  0.97470000  1.0 -0.1551323525
C  C29  1  0.30410000  0.97430000  0.80300000  1.0 -0.2360357634
C  C30  1  0.45570000  0.01890000  0.84540000  1.0 -0.3497873835
C  C31  1  0.40720000  0.34340000  0.81250000  1.0 -0.1088039395
C  C32  1  0.44490000  0.25650000  0.83380000  1.0 -0.1204592131
C  C33  1  0.27980000  0.26480000  0.79090000  1.0 -0.1088039395
C  C34  1  0.24060000  0.35740000  0.69130000  1.0 -0.0528303768
C  C35  1  0.70890000  0.39410000  0.09750000  1.0 -0.0016654907
C  C36  1  0.66720000  0.29300000  0.18610000  1.0 -0.1088039395
C  C37  1  0.65330000  0.45430000  0.04830000  1.0 -0.2172103963
C  C38  1  0.52880000  0.14820000  0.32240000  1.0 0.5735368588
C  C39  1  0.56760000  0.25000000  0.22430000  1.0 -0.0124406863
C  C40  1  0.50640000  0.30460000  0.17410000  1.0 -0.2061113074
C  C41  1  0.55080000  0.40700000  0.08660000  1.0 0.0994207718
C  C42  1  0.81730000  0.44030000  0.05670000  1.0 0.5735368588
C  C43  1  0.02220000  0.73520000  0.37840000  1.0 0.2707047768
C  C44  1  0.07860000  0.79440000  0.50860000  1.0 -0.0314767204
C  C45  1  0.93400000  0.71140000  0.47470000  1.0 -0.1551323525
C  C46  1  0.02570000  0.69590000  0.30300000  1.0 -0.2360357634
C  C47  1  0.98110000  0.54430000  0.34540000  1.0 -0.3497873835
C  C48  1  0.65660000  0.59280000  0.31250000  1.0 -0.1088039395
C  C49  1  0.74350000  0.55510000  0.33380000  1.0 -0.1204592131
C  C50  1  0.73520000  0.72020000  0.29090000  1.0 -0.1088039395
C  C51  1  0.64260000  0.75940000  0.19130000  1.0 -0.0528303768
C  C52  1  0.39410000  0.70890000  0.40250000  1.0 -0.0016654907
C  C53  1  0.29300000  0.66720000  0.31390000  1.0 -0.1088039395
C  C54  1  0.45430000  0.65330000  0.45170000  1.0 -0.2172103963
C  C55  1  0.14820000  0.52880000  0.17760000  1.0 0.5735368588
C  C56  1  0.25000000  0.56760000  0.27570000  1.0 -0.0124406863
C  C57  1  0.30460000  0.50640000  0.32590000  1.0 -0.2061113074
C  C58  1  0.40700000  0.55080000  0.41340000  1.0 0.0994207718
C  C59  1  0.44030000  0.81730000  0.44330000  1.0 0.5735368588
C  C60  1  0.73520000  0.02220000  0.12160000  1.0 0.2707047768
C  C61  1  0.79440000  0.07860000  0.99140000  1.0 -0.0314767204
C  C62  1  0.71140000  0.93400000  0.02530000  1.0 -0.1545622937
C  C63  1  0.69590000  0.02570000  0.19700000  1.0 -0.2360357634
C  C64  1  0.54430000  0.98110000  0.15460000  1.0 -0.3497873835
C  C65  1  0.59280000  0.65660000  0.18750000  1.0 -0.1088039395
C  C66  1  0.55510000  0.74350000  0.16620000  1.0 -0.1204592131
C  C67  1  0.72020000  0.73520000  0.20910000  1.0 -0.1088039395
C  C68  1  0.75940000  0.64260000  0.30870000  1.0 -0.0528303768
N  N1  1  0.51179000  0.53681000  0.95760000  1.0 -0.1008011169
N  N2  1  0.86970000  0.19350000  0.55330000  1.0 -0.3146695487
N  N3  1  0.10150000  0.31950000  0.61110000  1.0 0.0004034157
N  N4  1  0.53681000  0.51179000  0.54240000  1.0 -0.1008011169
N  N5  1  0.19350000  0.86970000  0.94670000  1.0 -0.3146695487
N  N6  1  0.31950000  0.10150000  0.88890000  1.0 -0.0016654907
N  N7  1  0.48821000  0.46319000  0.04240000  1.0 -0.1008011169
N  N8  1  0.13030000  0.80650000  0.44670000  1.0 -0.3152749531
N  N9  1  0.89850000  0.68050000  0.38890000  1.0 -0.0016654907
N  N10  1  0.46319000  0.48821000  0.45760000  1.0 -0.1008011169
N  N11  1  0.80650000  0.13030000  0.05330000  1.0 -0.3152749531
N  N12  1  0.68050000  0.89850000  0.11110000  1.0 -0.0016654907
O  O1  1  0.37335000  0.84505000  0.61490000  1.0 -0.5666833363
O  O2  1  0.59660000  0.93320000  0.66430000  1.0 -0.5345414273
O  O3  1  0.18996000  0.65584000  0.93020000  1.0 -0.551548957
O  O4  1  0.09561000  0.43079000  0.98690000  1.0 -0.5220342867
O  O5  1  0.84505000  0.37335000  0.88510000  1.0 -0.5666833363
O  O6  1  0.93320000  0.59660000  0.83570000  1.0 -0.5345414273
O  O7  1  0.65584000  0.18996000  0.56980000  1.0 -0.551548957
O  O8  1  0.43079000  0.09561000  0.51310000  1.0 -0.5220342867
O  O9  1  0.62665000  0.15495000  0.38510000  1.0 -0.5666833363
O  O10  1  0.40340000  0.06680000  0.33570000  1.0 -0.5345414273
O  O11  1  0.81004000  0.34416000  0.06980000  1.0 -0.551548957
O  O12  1  0.90439000  0.56921000  0.01310000  1.0 -0.5220342867
O  O13  1  0.15495000  0.62665000  0.11490000  1.0 -0.5666833363
O  O14  1  0.06680000  0.40340000  0.16430000  1.0 -0.5345414273
O  O15  1  0.34416000  0.81004000  0.43020000  1.0 -0.551548957
O  O16  1  0.56921000  0.90439000  0.48690000  1.0 -0.5220342867
