# DDEC6 charges by PACMAN v1.1 (https://github.com/mtap-research/PACMAN-charge/)
data_WANNIL_FSR_pacman
_symmetry_space_group_name_H-M   'P 1'
_cell_length_a   14.62780000
_cell_length_b   14.62780000
_cell_length_c   15.55700000
_cell_angle_alpha   62.36540000
_cell_angle_beta   117.63500000
_cell_angle_gamma   140.95700000
_symmetry_Int_Tables_number   1
_chemical_formula_structural   CoH18C17N3O4
_chemical_formula_sum   'Co4 H72 C68 N12 O16'
_cell_volume   1825.32145241
_cell_formula_units_Z   4
loop_
 _symmetry_equiv_pos_site_id
 _symmetry_equiv_pos_as_xyz
  1  'x, y, z'
loop_
 _atom_site_type_symbol
 _atom_site_label
 _atom_site_symmetry_multiplicity
 _atom_site_fract_x
 _atom_site_fract_y
 _atom_site_fract_z
 _atom_site_occupancy
 _atom_site_charge
Co  Co1  1  0.07467000  0.65471000  0.96792000  1.0 0.912985008
Co  Co2  1  0.65471000  0.07467000  0.53208000  1.0 0.912985008
Co  Co3  1  0.92533000  0.34529000  0.03208000  1.0 0.912985008
Co  Co4  1  0.34529000  0.92533000  0.46792000  1.0 0.912985008
H  H1  1  0.31210000  0.13150000  0.00340000  1.0 0.1279732744
H  H2  1  0.74630000  0.29570000  0.72070000  1.0 0.1279732744
H  H3  1  0.47400000  0.31320000  0.49240000  1.0 0.14124101
H  H4  1  0.72450000  0.56270000  0.69870000  1.0 0.14124101
H  H5  1  0.16510000  0.86850000  0.06580000  1.0 0.1279732744
H  H6  1  0.30130000  0.04450000  0.74550000  1.0 0.110484462
H  H7  1  0.21710000  0.88030000  0.79120000  1.0 0.1279732744
H  H8  1  0.51630000  0.10810000  0.84620000  1.0 0.1279732744
H  H9  1  0.42250000  0.94010000  0.86780000  1.0 0.1279732744
H  H10  1  0.44400000  0.03040000  0.75960000  1.0 0.1171605175
H  H11  1  0.54420000  0.31100000  0.88590000  1.0 0.0871108104
H  H12  1  0.46740000  0.43560000  0.74210000  1.0 0.0254089699
H  H13  1  0.45440000  0.32120000  0.85810000  1.0 0.0714950894
H  H14  1  0.46270000  0.25190000  0.78660000  1.0 0.0871108104
H  H15  1  0.16710000  0.18350000  0.79500000  1.0 0.0871108104
H  H16  1  0.38010000  0.25350000  0.76620000  1.0 0.0546519009
H  H17  1  0.42520000  0.37980000  0.84340000  1.0 0.062586121
H  H18  1  0.30650000  0.34810000  0.80990000  1.0 0.062586121
H  H19  1  0.13150000  0.31210000  0.49660000  1.0 0.1279732744
H  H20  1  0.29570000  0.74630000  0.77930000  1.0 0.1279732744
H  H21  1  0.31320000  0.47400000  0.00760000  1.0 0.14124101
H  H22  1  0.56270000  0.72450000  0.80130000  1.0 0.14124101
H  H23  1  0.86850000  0.16510000  0.43420000  1.0 0.1279732744
H  H24  1  0.04450000  0.30130000  0.75450000  1.0 0.110484462
H  H25  1  0.88030000  0.21710000  0.70880000  1.0 0.1279732744
H  H26  1  0.10810000  0.51630000  0.65380000  1.0 0.1279732744
H  H27  1  0.94010000  0.42250000  0.63220000  1.0 0.1279732744
H  H28  1  0.03040000  0.44400000  0.74040000  1.0 0.1171605175
H  H29  1  0.31100000  0.54420000  0.61410000  1.0 0.0871108104
H  H30  1  0.43560000  0.46740000  0.75790000  1.0 0.0254089699
H  H31  1  0.32120000  0.45440000  0.64190000  1.0 0.0714950894
H  H32  1  0.25190000  0.46270000  0.71340000  1.0 0.0871108104
H  H33  1  0.18350000  0.16710000  0.70500000  1.0 0.0871108104
H  H34  1  0.25350000  0.38010000  0.73380000  1.0 0.0546519009
H  H35  1  0.37980000  0.42520000  0.65660000  1.0 0.062586121
H  H36  1  0.34810000  0.30650000  0.69010000  1.0 0.062586121
H  H37  1  0.68790000  0.86850000  0.99660000  1.0 0.1279732744
H  H38  1  0.25370000  0.70430000  0.27930000  1.0 0.1279732744
H  H39  1  0.52600000  0.68680000  0.50760000  1.0 0.14124101
H  H40  1  0.27550000  0.43730000  0.30130000  1.0 0.14124101
H  H41  1  0.83490000  0.13150000  0.93420000  1.0 0.1279732744
H  H42  1  0.69870000  0.95550000  0.25450000  1.0 0.110484462
H  H43  1  0.78290000  0.11970000  0.20880000  1.0 0.1279732744
H  H44  1  0.48370000  0.89190000  0.15380000  1.0 0.1279732744
H  H45  1  0.57750000  0.05990000  0.13220000  1.0 0.1279732744
H  H46  1  0.55600000  0.96960000  0.24040000  1.0 0.1171605175
H  H47  1  0.45580000  0.68900000  0.11410000  1.0 0.0871108104
H  H48  1  0.53260000  0.56440000  0.25790000  1.0 0.0246568282
H  H49  1  0.54560000  0.67880000  0.14190000  1.0 0.0714950894
H  H50  1  0.53730000  0.74810000  0.21340000  1.0 0.0871108104
H  H51  1  0.83290000  0.81650000  0.20500000  1.0 0.0871108104
H  H52  1  0.61990000  0.74650000  0.23380000  1.0 0.0546519009
H  H53  1  0.57480000  0.62020000  0.15660000  1.0 0.062586121
H  H54  1  0.69350000  0.65190000  0.19010000  1.0 0.062586121
H  H55  1  0.86850000  0.68790000  0.50340000  1.0 0.1279732744
H  H56  1  0.70430000  0.25370000  0.22070000  1.0 0.1279732744
H  H57  1  0.68680000  0.52600000  0.99240000  1.0 0.14124101
H  H58  1  0.43730000  0.27550000  0.19870000  1.0 0.14124101
H  H59  1  0.13150000  0.83490000  0.56580000  1.0 0.1279732744
H  H60  1  0.95550000  0.69870000  0.24550000  1.0 0.110484462
H  H61  1  0.11970000  0.78290000  0.29120000  1.0 0.1279732744
H  H62  1  0.89190000  0.48370000  0.34620000  1.0 0.1279732744
H  H63  1  0.05990000  0.57750000  0.36780000  1.0 0.1279732744
H  H64  1  0.96960000  0.55600000  0.25960000  1.0 0.1171605175
H  H65  1  0.68900000  0.45580000  0.38590000  1.0 0.0871108104
H  H66  1  0.56440000  0.53260000  0.24210000  1.0 0.0246568282
H  H67  1  0.67880000  0.54560000  0.35810000  1.0 0.0714950894
H  H68  1  0.74810000  0.53730000  0.28660000  1.0 0.0871108104
H  H69  1  0.81650000  0.83290000  0.29500000  1.0 0.0871108104
H  H70  1  0.74650000  0.61990000  0.26620000  1.0 0.0546519009
H  H71  1  0.62020000  0.57480000  0.34340000  1.0 0.062586121
H  H72  1  0.65190000  0.69350000  0.30990000  1.0 0.062586121
C  C1  1  0.28680000  0.06880000  0.97530000  1.0 -0.1637226755
C  C2  1  0.70729000  0.33411000  0.68710000  1.0 -0.1052019785
C  C3  1  0.59123000  0.44837000  0.58720000  1.0 0.0714950894
C  C4  1  0.54490000  0.34510000  0.54970000  1.0 -0.2084606479
C  C5  1  0.69386000  0.49334000  0.67450000  1.0 -0.1973385702
C  C6  1  0.20570000  0.92350000  0.00910000  1.0 -0.0335357825
C  C7  1  0.75036000  0.43444000  0.72500000  1.0 -0.0076171484
C  C8  1  0.85152000  0.47368000  0.82330000  1.0 0.568571191
C  C9  1  0.26950000  0.98310000  0.87990000  1.0 0.2608190884
C  C10  1  0.60593000  0.29067000  0.59900000  1.0 -0.0076171484
C  C11  1  0.56056000  0.18264000  0.55820000  1.0 0.568571191
C  C12  1  0.30080000  0.97960000  0.80520000  1.0 -0.2311977039
C  C13  1  0.43190000  0.01770000  0.82100000  1.0 -0.3362995873
C  C14  1  0.45170000  0.25950000  0.83900000  1.0 -0.1396910737
C  C15  1  0.40770000  0.34070000  0.79730000  1.0 -0.0766506309
C  C16  1  0.36070000  0.23970000  0.82510000  1.0 0.0038904657
C  C17  1  0.26340000  0.26540000  0.78820000  1.0 -0.0909637849
C  C18  1  0.06880000  0.28680000  0.52470000  1.0 -0.1637226755
C  C19  1  0.33411000  0.70729000  0.81290000  1.0 -0.1052019785
C  C20  1  0.44837000  0.59123000  0.91280000  1.0 0.0714950894
C  C21  1  0.34510000  0.54490000  0.95030000  1.0 -0.2084606479
C  C22  1  0.49334000  0.69386000  0.82550000  1.0 -0.1973385702
C  C23  1  0.92350000  0.20570000  0.49090000  1.0 -0.0335357825
C  C24  1  0.43444000  0.75036000  0.77500000  1.0 -0.0076171484
C  C25  1  0.47368000  0.85152000  0.67670000  1.0 0.568571191
C  C26  1  0.98310000  0.26950000  0.62010000  1.0 0.2608190884
C  C27  1  0.29067000  0.60593000  0.90100000  1.0 -0.0076171484
C  C28  1  0.18264000  0.56056000  0.94180000  1.0 0.568571191
C  C29  1  0.97960000  0.30080000  0.69480000  1.0 -0.2311977039
C  C30  1  0.01770000  0.43190000  0.67900000  1.0 -0.3362995873
C  C31  1  0.25950000  0.45170000  0.66100000  1.0 -0.1396910737
C  C32  1  0.34070000  0.40770000  0.70270000  1.0 -0.0766506309
C  C33  1  0.23970000  0.36070000  0.67490000  1.0 0.0038904657
C  C34  1  0.26540000  0.26340000  0.71180000  1.0 -0.0909637849
C  C35  1  0.71320000  0.93120000  0.02470000  1.0 -0.1637226755
C  C36  1  0.29271000  0.66589000  0.31290000  1.0 -0.1052019785
C  C37  1  0.40877000  0.55163000  0.41280000  1.0 0.0714950894
C  C38  1  0.45510000  0.65490000  0.45030000  1.0 -0.2084606479
C  C39  1  0.30614000  0.50666000  0.32550000  1.0 -0.1973385702
C  C40  1  0.79430000  0.07650000  0.99090000  1.0 -0.0335357825
C  C41  1  0.24964000  0.56556000  0.27500000  1.0 -0.0076171484
C  C42  1  0.14848000  0.52632000  0.17670000  1.0 0.568571191
C  C43  1  0.73050000  0.01690000  0.12010000  1.0 0.2608190884
C  C44  1  0.39407000  0.70933000  0.40100000  1.0 -0.0076171484
C  C45  1  0.43944000  0.81736000  0.44180000  1.0 0.568571191
C  C46  1  0.69920000  0.02040000  0.19480000  1.0 -0.2311977039
C  C47  1  0.56810000  0.98230000  0.17900000  1.0 -0.3362995873
C  C48  1  0.54830000  0.74050000  0.16100000  1.0 -0.1396910737
C  C49  1  0.59230000  0.65930000  0.20270000  1.0 -0.0766506309
C  C50  1  0.63930000  0.76030000  0.17490000  1.0 0.0038904657
C  C51  1  0.73660000  0.73460000  0.21180000  1.0 -0.0909637849
C  C52  1  0.93120000  0.71320000  0.47530000  1.0 -0.1637226755
C  C53  1  0.66589000  0.29271000  0.18710000  1.0 -0.1052019785
C  C54  1  0.55163000  0.40877000  0.08720000  1.0 0.0714950894
C  C55  1  0.65490000  0.45510000  0.04970000  1.0 -0.2084606479
C  C56  1  0.50666000  0.30614000  0.17450000  1.0 -0.1973385702
C  C57  1  0.07650000  0.79430000  0.50910000  1.0 -0.0335357825
C  C58  1  0.56556000  0.24964000  0.22500000  1.0 -0.0076171484
C  C59  1  0.52632000  0.14848000  0.32330000  1.0 0.568571191
C  C60  1  0.01690000  0.73050000  0.37990000  1.0 0.2608190884
C  C61  1  0.70933000  0.39407000  0.09900000  1.0 -0.0076171484
C  C62  1  0.81736000  0.43944000  0.05820000  1.0 0.568571191
C  C63  1  0.02040000  0.69920000  0.30520000  1.0 -0.2311977039
C  C64  1  0.98230000  0.56810000  0.32100000  1.0 -0.3362995873
C  C65  1  0.74050000  0.54830000  0.33900000  1.0 -0.1396910737
C  C66  1  0.65930000  0.59230000  0.29730000  1.0 -0.0766506309
C  C67  1  0.76030000  0.63930000  0.32510000  1.0 0.0038904657
C  C68  1  0.73460000  0.73660000  0.28820000  1.0 -0.0909637849
N  N1  1  0.53676000  0.51204000  0.54160000  1.0 -0.1166100616
N  N2  1  0.32440000  0.10460000  0.89080000  1.0 0.0052513282
N  N3  1  0.19238000  0.86982000  0.94760000  1.0 -0.3326671163
N  N4  1  0.51204000  0.53676000  0.95840000  1.0 -0.1166100616
N  N5  1  0.10460000  0.32440000  0.60920000  1.0 0.0038904657
N  N6  1  0.86982000  0.19238000  0.55240000  1.0 -0.3326671163
N  N7  1  0.46324000  0.48796000  0.45840000  1.0 -0.1166100616
N  N8  1  0.67560000  0.89540000  0.10920000  1.0 0.0038904657
N  N9  1  0.80762000  0.13018000  0.05240000  1.0 -0.3326671163
N  N10  1  0.48796000  0.46324000  0.04160000  1.0 -0.1166100616
N  N11  1  0.89540000  0.67560000  0.39080000  1.0 0.0038904657
N  N12  1  0.13018000  0.80762000  0.44760000  1.0 -0.3326671163
O  O1  1  0.93436000  0.60004000  0.83580000  1.0 -0.5220338146
O  O2  1  0.84446000  0.37534000  0.88530000  1.0 -0.5684172998
O  O3  1  0.65677000  0.18983000  0.57180000  1.0 -0.5461550842
O  O4  1  0.43016000  0.09464000  0.51330000  1.0 -0.5220338146
O  O5  1  0.60004000  0.93436000  0.66420000  1.0 -0.5220338146
O  O6  1  0.37534000  0.84446000  0.61470000  1.0 -0.5684172998
O  O7  1  0.18983000  0.65677000  0.92820000  1.0 -0.5461550842
O  O8  1  0.09464000  0.43016000  0.98670000  1.0 -0.5220338146
O  O9  1  0.06564000  0.39996000  0.16420000  1.0 -0.5220338146
O  O10  1  0.15554000  0.62466000  0.11470000  1.0 -0.5684172998
O  O11  1  0.34323000  0.81017000  0.42820000  1.0 -0.5461550842
O  O12  1  0.56984000  0.90536000  0.48670000  1.0 -0.5220338146
O  O13  1  0.39996000  0.06564000  0.33580000  1.0 -0.5220338146
O  O14  1  0.62466000  0.15554000  0.38530000  1.0 -0.5684172998
O  O15  1  0.81017000  0.34323000  0.07180000  1.0 -0.5461550842
O  O16  1  0.90536000  0.56984000  0.01330000  1.0 -0.5220338146
