# DDEC6 charges by PACMAN v1.1 (https://github.com/mtap-research/PACMAN-charge/)
data_WANRIM01_ASR_pacman
_symmetry_space_group_name_H-M   'P 1'
_cell_length_a   9.64060000
_cell_length_b   9.64550000
_cell_length_c   10.59870000
_cell_angle_alpha   105.28600000
_cell_angle_beta   105.84100000
_cell_angle_gamma   88.95500000
_symmetry_Int_Tables_number   1
_chemical_formula_structural   Al4P4O17
_chemical_formula_sum   'Al8 P8 O34'
_cell_volume   913.05056327
_cell_formula_units_Z   2
loop_
 _symmetry_equiv_pos_site_id
 _symmetry_equiv_pos_as_xyz
  1  'x, y, z'
loop_
 _atom_site_type_symbol
 _atom_site_label
 _atom_site_symmetry_multiplicity
 _atom_site_fract_x
 _atom_site_fract_y
 _atom_site_fract_z
 _atom_site_occupancy
 _atom_site_charge
Al  Al1  1  0.78660000  0.23160000  0.16110000  1.0 1.7136967051
Al  Al2  1  0.21340000  0.76840000  0.83890000  1.0 1.7136967051
Al  Al3  1  0.22430000  0.48430000  0.07710000  1.0 1.7596739399
Al  Al4  1  0.77570000  0.51570000  0.92290000  1.0 1.7596739399
Al  Al5  1  0.95120000  0.17850000  0.65780000  1.0 1.7406407463
Al  Al6  1  0.04880000  0.82150000  0.34220000  1.0 1.7406407463
Al  Al7  1  0.50040000  0.97720000  0.13250000  1.0 1.6337721217
Al  Al8  1  0.49960000  0.02280000  0.86750000  1.0 1.6387569773
P  P1  1  0.96890000  0.50290000  0.20570000  1.0 1.5195640989
P  P2  1  0.03110000  0.49710000  0.79430000  1.0 1.5278069842
P  P3  1  0.47610000  0.27590000  0.09720000  1.0 1.5195640989
P  P4  1  0.52390000  0.72410000  0.90280000  1.0 1.5195640989
P  P5  1  0.79870000  0.03400000  0.35040000  1.0 1.5278069842
P  P6  1  0.20130000  0.96600000  0.64960000  1.0 1.5278069842
P  P7  1  0.76810000  0.18710000  0.86010000  1.0 1.5506256687
P  P8  1  0.23190000  0.81290000  0.13990000  1.0 1.5506256687
O  O1  1  0.44660000  0.16960000  0.16960000  1.0 -0.7269961071
O  O2  1  0.55340000  0.83040000  0.83040000  1.0 -0.7269961071
O  O3  1  0.38390000  0.40390000  0.12280000  1.0 -0.7212426098
O  O4  1  0.61610000  0.59610000  0.87720000  1.0 -0.7212426098
O  O5  1  0.84320000  0.19950000  0.01020000  1.0 -0.7644018066
O  O6  1  0.15680000  0.80050000  0.98980000  1.0 -0.7644018066
O  O7  1  0.09240000  0.44830000  0.14880000  1.0 -0.8207976651
O  O8  1  0.90760000  0.55170000  0.85120000  1.0 -0.8207976651
O  O9  1  0.91280000  0.38950000  0.25480000  1.0 -0.7212426098
O  O10  1  0.08720000  0.61050000  0.74520000  1.0 -0.7212426098
O  O11  1  0.63320000  0.33770000  0.16230000  1.0 -0.779547168
O  O12  1  0.36680000  0.66230000  0.83770000  1.0 -0.779547168
O  O13  1  0.64090000  0.99240000  0.29280000  1.0 -0.7212426098
O  O14  1  0.35910000  0.00760000  0.70720000  1.0 -0.7212426098
O  O15  1  0.83250000  0.10520000  0.50160000  1.0 -0.8016483915
O  O16  1  0.16750000  0.89480000  0.49840000  1.0 -0.7914142144
O  O17  1  0.64030000  0.04690000  0.05290000  1.0 -0.7499147189
O  O18  1  0.35970000  0.95310000  0.94710000  1.0 -0.7499147189
O  O19  1  0.45000000  0.21170000  0.94480000  1.0 -0.7042283547
O  O20  1  0.55000000  0.78830000  0.05520000  1.0 -0.7042283547
O  O21  1  0.85160000  0.13510000  0.28270000  1.0 -0.779547168
O  O22  1  0.14840000  0.86490000  0.71730000  1.0 -0.779547168
O  O23  1  0.71560000  0.33600000  0.84610000  1.0 -0.8016483915
O  O24  1  0.28440000  0.66400000  0.15390000  1.0 -0.8016483915
O  O25  1  0.88090000  0.14710000  0.78420000  1.0 -0.779547168
O  O26  1  0.11910000  0.85290000  0.21580000  1.0 -0.779547168
O  O27  1  0.02010000  0.63680000  0.32110000  1.0 -0.7914142144
O  O28  1  0.97990000  0.36320000  0.67890000  1.0 -0.7914142144
O  O29  1  0.84970000  0.54550000  0.09750000  1.0 -0.8071130645
O  O30  1  0.15030000  0.45450000  0.90250000  1.0 -0.8071130645
O  O31  1  0.64180000  0.08070000  0.80330000  1.0 -0.7269961071
O  O32  1  0.35820000  0.91930000  0.19670000  1.0 -0.7269961071
O  O33  1  0.88300000  0.89560000  0.33150000  1.0 -0.779547168
O  O34  1  0.11700000  0.10440000  0.66850000  1.0 -0.779547168
