# DDEC6 charges by PACMAN v1.1 (https://github.com/mtap-research/PACMAN-charge/)
data_WAPNUZ_ASR_pacman
_symmetry_space_group_name_H-M   'P 1'
_cell_length_a   9.11090000
_cell_length_b   24.15470000
_cell_length_c   10.36830000
_cell_angle_alpha   90.00000000
_cell_angle_beta   110.13600000
_cell_angle_gamma   90.00000000
_symmetry_Int_Tables_number   1
_chemical_formula_structural   CoH32(C10N3)4
_chemical_formula_sum   'Co2 H64 C80 N24'
_cell_volume   2142.29714772
_cell_formula_units_Z   2
loop_
 _symmetry_equiv_pos_site_id
 _symmetry_equiv_pos_as_xyz
  1  'x, y, z'
loop_
 _atom_site_type_symbol
 _atom_site_label
 _atom_site_symmetry_multiplicity
 _atom_site_fract_x
 _atom_site_fract_y
 _atom_site_fract_z
 _atom_site_occupancy
 _atom_site_charge
Co  Co1  1  0.00000000  0.50000000  0.50000000  1.0 0.2631076076
Co  Co2  1  0.50000000  0.00000000  0.50000000  1.0 0.2631076076
H  H1  1  0.62040000  0.58000000  0.45500000  1.0 0.1211091536
H  H2  1  0.57320000  0.59040000  0.58480000  1.0 0.1276636936
H  H3  1  0.44310000  0.67600000  0.60610000  1.0 0.1211091536
H  H4  1  0.27400000  0.79440000  0.53980000  1.0 0.1211091536
H  H5  1  0.38990000  0.76460000  0.66920000  1.0 0.1211091536
H  H6  1  0.03270000  0.45450000  0.18530000  1.0 0.1276636936
H  H7  1  0.43000000  0.80080000  0.34830000  1.0 0.1276636936
H  H8  1  0.49580000  0.54550000  0.19730000  1.0 0.1276636936
H  H9  1  0.54840000  0.64820000  0.26760000  1.0 0.1211091536
H  H10  1  0.94370000  0.79790000  0.93950000  1.0 0.1105932956
H  H11  1  0.50290000  0.74080000  0.20860000  1.0 0.1105932956
H  H12  1  0.12730000  0.44750000  0.00560000  1.0 0.1211091536
H  H13  1  0.70090000  0.76400000  0.80560000  1.0 0.1276636936
H  H14  1  0.84150000  0.95070000  0.77800000  1.0 0.1211091536
H  H15  1  0.35270000  0.49260000  0.01060000  1.0 0.1105932956
H  H16  1  0.01170000  0.88970000  0.92490000  1.0 0.1105932956
H  H17  1  0.87960000  0.08000000  0.54500000  1.0 0.1211091536
H  H18  1  0.92680000  0.09040000  0.41520000  1.0 0.1276636936
H  H19  1  0.05690000  0.17600000  0.39390000  1.0 0.1211091536
H  H20  1  0.22600000  0.29440000  0.46020000  1.0 0.1211091536
H  H21  1  0.11010000  0.26460000  0.33080000  1.0 0.1211091536
H  H22  1  0.46730000  0.95450000  0.81470000  1.0 0.1276636936
H  H23  1  0.07000000  0.30080000  0.65170000  1.0 0.1276636936
H  H24  1  0.00420000  0.04550000  0.80270000  1.0 0.1276636936
H  H25  1  0.95160000  0.14820000  0.73240000  1.0 0.1211091536
H  H26  1  0.55630000  0.29790000  0.06050000  1.0 0.1105932956
H  H27  1  0.99710000  0.24080000  0.79140000  1.0 0.1105932956
H  H28  1  0.37270000  0.94750000  0.99440000  1.0 0.1211091536
H  H29  1  0.79910000  0.26400000  0.19440000  1.0 0.1276636936
H  H30  1  0.65850000  0.45070000  0.22200000  1.0 0.1211091536
H  H31  1  0.14730000  0.99260000  0.98940000  1.0 0.1105932956
H  H32  1  0.48830000  0.38970000  0.07510000  1.0 0.1105932956
H  H33  1  0.37960000  0.42000000  0.54500000  1.0 0.1211091536
H  H34  1  0.42680000  0.40960000  0.41520000  1.0 0.1276636936
H  H35  1  0.55690000  0.32400000  0.39390000  1.0 0.1211091536
H  H36  1  0.72600000  0.20560000  0.46020000  1.0 0.1211091536
H  H37  1  0.61010000  0.23540000  0.33080000  1.0 0.1211091536
H  H38  1  0.96730000  0.54550000  0.81470000  1.0 0.1276636936
H  H39  1  0.57000000  0.19920000  0.65170000  1.0 0.1276636936
H  H40  1  0.50420000  0.45450000  0.80270000  1.0 0.1276636936
H  H41  1  0.45160000  0.35180000  0.73240000  1.0 0.1211091536
H  H42  1  0.05630000  0.20210000  0.06050000  1.0 0.1105932956
H  H43  1  0.49710000  0.25920000  0.79140000  1.0 0.1105932956
H  H44  1  0.87270000  0.55250000  0.99440000  1.0 0.1211091536
H  H45  1  0.29910000  0.23600000  0.19440000  1.0 0.1276636936
H  H46  1  0.15850000  0.04930000  0.22200000  1.0 0.1211091536
H  H47  1  0.64730000  0.50740000  0.98940000  1.0 0.1105932956
H  H48  1  0.98830000  0.11030000  0.07510000  1.0 0.1105932956
H  H49  1  0.12040000  0.92000000  0.45500000  1.0 0.1211091536
H  H50  1  0.07320000  0.90960000  0.58480000  1.0 0.1276636936
H  H51  1  0.94310000  0.82400000  0.60610000  1.0 0.1211091536
H  H52  1  0.77400000  0.70560000  0.53980000  1.0 0.1211091536
H  H53  1  0.88990000  0.73540000  0.66920000  1.0 0.1211091536
H  H54  1  0.53270000  0.04550000  0.18530000  1.0 0.1276636936
H  H55  1  0.93000000  0.69920000  0.34830000  1.0 0.1276636936
H  H56  1  0.99580000  0.95450000  0.19730000  1.0 0.1276636936
H  H57  1  0.04840000  0.85180000  0.26760000  1.0 0.1211091536
H  H58  1  0.44370000  0.70210000  0.93950000  1.0 0.1105932956
H  H59  1  0.00290000  0.75920000  0.20860000  1.0 0.1105932956
H  H60  1  0.62730000  0.05250000  0.00560000  1.0 0.1211091536
H  H61  1  0.20090000  0.73600000  0.80560000  1.0 0.1276636936
H  H62  1  0.34150000  0.54930000  0.77800000  1.0 0.1211091536
H  H63  1  0.85270000  0.00740000  0.01060000  1.0 0.1105932956
H  H64  1  0.51170000  0.61030000  0.92490000  1.0 0.1105932956
C  C1  1  0.53680000  0.59275000  0.48530000  1.0 -0.2010890089
C  C2  1  0.21120000  0.50395000  0.30220000  1.0 0.098436328
C  C3  1  0.34750000  0.53077000  0.30360000  1.0 0.0693271155
C  C4  1  0.45580000  0.68911000  0.52630000  1.0 -0.2270100169
C  C5  1  0.50010000  0.65259000  0.44250000  1.0 0.1105932956
C  C6  1  0.38240000  0.78382000  0.58500000  1.0 -0.2010890089
C  C7  1  0.66666667  0.89358000  0.69940000  1.0 0.098436328
C  C8  1  0.12450000  0.47228000  0.18860000  1.0 -0.1623102814
C  C9  1  0.44780000  0.76368000  0.37260000  1.0 -0.1623102814
C  C10  1  0.40480000  0.52745000  0.19510000  1.0 -0.2010890089
C  C11  1  0.51820000  0.67221000  0.32410000  1.0 -0.1752517536
C  C12  1  0.87190000  0.82136000  0.87840000  1.0 -0.1181517407
C  C13  1  0.62760000  0.83854000  0.70970000  1.0 0.0693271155
C  C14  1  0.49140000  0.72776000  0.28900000  1.0 -0.0920270361
C  C15  1  0.43040000  0.74488000  0.49260000  1.0 0.1105932956
C  C16  1  0.18150000  0.46871000  0.08220000  1.0 -0.1093220862
C  C17  1  0.72890000  0.80070000  0.79970000  1.0 -0.2010890089
C  C18  1  0.81370000  0.91392000  0.78250000  1.0 -0.1623102814
C  C19  1  0.31910000  0.49604000  0.08530000  1.0 -0.1093220862
C  C20  1  0.91340000  0.87744000  0.86960000  1.0 -0.1181517407
C  C21  1  0.96320000  0.09275000  0.51470000  1.0 -0.2010890089
C  C22  1  0.28880000  0.00395000  0.69780000  1.0 0.098436328
C  C23  1  0.15250000  0.03077000  0.69640000  1.0 0.0693271155
C  C24  1  0.04420000  0.18911000  0.47370000  1.0 -0.2270100169
C  C25  1  0.99990000  0.15259000  0.55750000  1.0 0.1105932956
C  C26  1  0.11760000  0.28382000  0.41500000  1.0 -0.2010890089
C  C27  1  0.83333000  0.39358000  0.30060000  1.0 0.098436328
C  C28  1  0.37550000  0.97228000  0.81140000  1.0 -0.1623102814
C  C29  1  0.05220000  0.26368000  0.62740000  1.0 -0.1623102814
C  C30  1  0.09520000  0.02745000  0.80490000  1.0 -0.2010890089
C  C31  1  0.98180000  0.17221000  0.67590000  1.0 -0.1752517536
C  C32  1  0.62810000  0.32136000  0.12160000  1.0 -0.1181517407
C  C33  1  0.87240000  0.33854000  0.29030000  1.0 0.0693271155
C  C34  1  0.00860000  0.22776000  0.71100000  1.0 -0.0920270361
C  C35  1  0.06960000  0.24488000  0.50740000  1.0 0.1105932956
C  C36  1  0.31850000  0.96871000  0.91780000  1.0 -0.1093220862
C  C37  1  0.77110000  0.30070000  0.20030000  1.0 -0.2010890089
C  C38  1  0.68630000  0.41392000  0.21750000  1.0 -0.1623102814
C  C39  1  0.18090000  0.99604000  0.91470000  1.0 -0.1093220862
C  C40  1  0.58660000  0.37744000  0.13040000  1.0 -0.1181517407
C  C41  1  0.46320000  0.40725000  0.51470000  1.0 -0.2010890089
C  C42  1  0.78880000  0.49605000  0.69780000  1.0 0.098436328
C  C43  1  0.65250000  0.46923000  0.69640000  1.0 0.0693271155
C  C44  1  0.54420000  0.31089000  0.47370000  1.0 -0.2270100169
C  C45  1  0.49990000  0.34741000  0.55750000  1.0 0.1105932956
C  C46  1  0.61760000  0.21618000  0.41500000  1.0 -0.2010890089
C  C47  1  0.33333333  0.10642000  0.30060000  1.0 0.098436328
C  C48  1  0.87550000  0.52772000  0.81140000  1.0 -0.1623102814
C  C49  1  0.55220000  0.23632000  0.62740000  1.0 -0.1623102814
C  C50  1  0.59520000  0.47255000  0.80490000  1.0 -0.2010890089
C  C51  1  0.48180000  0.32779000  0.67590000  1.0 -0.1752517536
C  C52  1  0.12810000  0.17864000  0.12160000  1.0 -0.1181517407
C  C53  1  0.37240000  0.16146000  0.29030000  1.0 0.0693271155
C  C54  1  0.50860000  0.27224000  0.71100000  1.0 -0.0920270361
C  C55  1  0.56960000  0.25512000  0.50740000  1.0 0.1105932956
C  C56  1  0.81850000  0.53129000  0.91780000  1.0 -0.1093220862
C  C57  1  0.27110000  0.19930000  0.20030000  1.0 -0.2010890089
C  C58  1  0.18630000  0.08608000  0.21750000  1.0 -0.1623102814
C  C59  1  0.68090000  0.50396000  0.91470000  1.0 -0.1093220862
C  C60  1  0.08660000  0.12256000  0.13040000  1.0 -0.1181517407
C  C61  1  0.03680000  0.90725000  0.48530000  1.0 -0.2010890089
C  C62  1  0.71120000  0.99605000  0.30220000  1.0 0.098436328
C  C63  1  0.84750000  0.96923000  0.30360000  1.0 0.0693271155
C  C64  1  0.95580000  0.81089000  0.52630000  1.0 -0.2270100169
C  C65  1  0.00010000  0.84741000  0.44250000  1.0 0.1105932956
C  C66  1  0.88240000  0.71618000  0.58500000  1.0 -0.2010890089
C  C67  1  0.16667000  0.60642000  0.69940000  1.0 0.098436328
C  C68  1  0.62450000  0.02772000  0.18860000  1.0 -0.1623102814
C  C69  1  0.94780000  0.73632000  0.37260000  1.0 -0.1623102814
C  C70  1  0.90480000  0.97255000  0.19510000  1.0 -0.2010890089
C  C71  1  0.01820000  0.82779000  0.32410000  1.0 -0.1752517536
C  C72  1  0.37190000  0.67864000  0.87840000  1.0 -0.1181517407
C  C73  1  0.12760000  0.66146000  0.70970000  1.0 0.0693271155
C  C74  1  0.99140000  0.77224000  0.28900000  1.0 -0.0920270361
C  C75  1  0.93040000  0.75512000  0.49260000  1.0 0.1105932956
C  C76  1  0.68150000  0.03129000  0.08220000  1.0 -0.1093220862
C  C77  1  0.22890000  0.69930000  0.79970000  1.0 -0.2010890089
C  C78  1  0.31370000  0.58608000  0.78250000  1.0 -0.1623102814
C  C79  1  0.81910000  0.00396000  0.08530000  1.0 -0.1093220862
C  C80  1  0.41340000  0.62256000  0.86960000  1.0 -0.1181517407
N  N1  1  0.19016000  0.51506000  0.42534000  1.0 -0.1949481271
N  N2  1  0.30558000  0.54681000  0.49922000  1.0 -0.0920270361
N  N3  1  0.40072000  0.55636000  0.42817000  1.0 0.1105932956
N  N4  1  0.47870000  0.83359000  0.61888000  1.0 0.1105932956
N  N5  1  0.54058000  0.91883000  0.60096000  1.0 -0.2010890089
N  N6  1  0.42910000  0.88184000  0.55487000  1.0 -0.1093220862
N  N7  1  0.30984000  0.01506000  0.57466000  1.0 -0.1949481271
N  N8  1  0.19442000  0.04681000  0.50078000  1.0 -0.0920270361
N  N9  1  0.09928000  0.05636000  0.57183000  1.0 0.1105932956
N  N10  1  0.02130000  0.33359000  0.38112000  1.0 0.1105932956
N  N11  1  0.95942000  0.41883000  0.39904000  1.0 -0.2010890089
N  N12  1  0.07090000  0.38184000  0.44513000  1.0 -0.1093220862
N  N13  1  0.80984000  0.48494000  0.57466000  1.0 -0.1949481271
N  N14  1  0.69442000  0.45319000  0.50078000  1.0 -0.0920270361
N  N15  1  0.59928000  0.44364000  0.57183000  1.0 0.1105932956
N  N16  1  0.52130000  0.16641000  0.38112000  1.0 0.1105932956
N  N17  1  0.45942000  0.08117000  0.39904000  1.0 -0.2010890089
N  N18  1  0.57090000  0.11816000  0.44513000  1.0 -0.1093220862
N  N19  1  0.69016000  0.98494000  0.42534000  1.0 -0.1949481271
N  N20  1  0.80558000  0.95319000  0.49922000  1.0 -0.0920270361
N  N21  1  0.90072000  0.94364000  0.42817000  1.0 0.1105932956
N  N22  1  0.97870000  0.66641000  0.61888000  1.0 0.1105932956
N  N23  1  0.04058000  0.58117000  0.60096000  1.0 -0.2010890089
N  N24  1  0.92910000  0.61816000  0.55487000  1.0 -0.1093220862
