# DDEC6 charges by PACMAN v1.1 (https://github.com/mtap-research/PACMAN-charge/)
data_WAPTAL_ASR_pacman
_symmetry_space_group_name_H-M   'P 1'
_cell_length_a   15.08820000
_cell_length_b   16.18480000
_cell_length_c   27.42940000
_cell_angle_alpha   90.00000000
_cell_angle_beta   105.47900000
_cell_angle_gamma   90.00000000
_symmetry_Int_Tables_number   1
_chemical_formula_structural   Nd2AsP2H4W11C2O37
_chemical_formula_sum   'Nd8 As4 P8 H16 W44 C8 O148'
_cell_volume   6455.28923169
_cell_formula_units_Z   4
loop_
 _symmetry_equiv_pos_site_id
 _symmetry_equiv_pos_as_xyz
  1  'x, y, z'
loop_
 _atom_site_type_symbol
 _atom_site_label
 _atom_site_symmetry_multiplicity
 _atom_site_fract_x
 _atom_site_fract_y
 _atom_site_fract_z
 _atom_site_occupancy
 _atom_site_charge
Nd  Nd1  1  0.19766000  0.43436000  0.47446000  1.0 2.3120898032
Nd  Nd2  1  0.80234000  0.93436000  0.02554000  1.0 2.3120898032
Nd  Nd3  1  0.80234000  0.56564000  0.52554000  1.0 2.3120898032
Nd  Nd4  1  0.19766000  0.06564000  0.97446000  1.0 2.3120898032
Nd  Nd5  1  0.34901000  0.28267000  0.73803000  1.0 2.0230676436
Nd  Nd6  1  0.65099000  0.78267000  0.76197000  1.0 2.0230676436
Nd  Nd7  1  0.65099000  0.71733000  0.26197000  1.0 2.0265945697
Nd  Nd8  1  0.34901000  0.21733000  0.23803000  1.0 2.0230676436
As  As1  1  0.24251000  0.67761000  0.47260000  1.0 1.0710860992
As  As2  1  0.75749000  0.17761000  0.02740000  1.0 1.0830697322
As  As3  1  0.75749000  0.32239000  0.52740000  1.0 1.0830697322
As  As4  1  0.24251000  0.82239000  0.97260000  1.0 1.0710860992
P  P1  1  0.48300000  0.43290000  0.67723000  1.0 1.2690670395
P  P2  1  0.51700000  0.93290000  0.82277000  1.0 1.2690670395
P  P3  1  0.51700000  0.56710000  0.32277000  1.0 1.2690670395
P  P4  1  0.48300000  0.06710000  0.17723000  1.0 1.2690670395
P  P5  1  0.58760000  0.58950000  0.68384000  1.0 1.2311097586
P  P6  1  0.41240000  0.08950000  0.81616000  1.0 1.2311097586
P  P7  1  0.41240000  0.41050000  0.31616000  1.0 1.2311097586
P  P8  1  0.58760000  0.91050000  0.18384000  1.0 1.2311097586
H  H1  1  0.50450000  0.58830000  0.76170000  1.0 0.2642706537
H  H2  1  0.49550000  0.08830000  0.73830000  1.0 0.2642706537
H  H3  1  0.49550000  0.41170000  0.23830000  1.0 0.2650969529
H  H4  1  0.50450000  0.91170000  0.26170000  1.0 0.2650969529
H  H5  1  0.66600000  0.44810000  0.74170000  1.0 0.0934975685
H  H6  1  0.33400000  0.94810000  0.75830000  1.0 0.0934975685
H  H7  1  0.33400000  0.55190000  0.25830000  1.0 0.0934975685
H  H8  1  0.66600000  0.05190000  0.24170000  1.0 0.0934975685
H  H9  1  0.60140000  0.43180000  0.77700000  1.0 0.0934975685
H  H10  1  0.39860000  0.93180000  0.72300000  1.0 0.0934975685
H  H11  1  0.39860000  0.56820000  0.22300000  1.0 0.0934975685
H  H12  1  0.60140000  0.06820000  0.27700000  1.0 0.0934975685
H  H13  1  0.65580000  0.51520000  0.78120000  1.0 0.0793453583
H  H14  1  0.34420000  0.01520000  0.71880000  1.0 0.0793453583
H  H15  1  0.34420000  0.48480000  0.21880000  1.0 0.0793453583
H  H16  1  0.65580000  0.98480000  0.28120000  1.0 0.0793453583
W  W1  1  0.43736000  0.77557000  0.54977000  1.0 2.4104795957
W  W2  1  0.56264000  0.27557000  0.95023000  1.0 2.4104795957
W  W3  1  0.56264000  0.22443000  0.45023000  1.0 2.416703155
W  W4  1  0.43736000  0.72443000  0.04977000  1.0 2.4104795957
W  W5  1  0.24824000  0.71858000  0.60784000  1.0 2.4391400463
W  W6  1  0.75176000  0.21858000  0.89216000  1.0 2.4391400463
W  W7  1  0.75176000  0.28142000  0.39216000  1.0 2.4391400463
W  W8  1  0.24824000  0.78142000  0.10784000  1.0 2.4391400463
W  W9  1  0.41423000  0.76642000  0.42514000  1.0 2.3989767337
W  W10  1  0.58577000  0.26642000  0.07486000  1.0 2.4104795957
W  W11  1  0.58577000  0.23358000  0.57486000  1.0 2.3989767337
W  W12  1  0.41423000  0.73358000  0.92514000  1.0 2.3989767337
W  W13  1  0.06641000  0.63245000  0.52389000  1.0 2.2772259021
W  W14  1  0.93359000  0.13245000  0.97611000  1.0 2.28772681
W  W15  1  0.93359000  0.36755000  0.47611000  1.0 2.2772259021
W  W16  1  0.06641000  0.86755000  0.02389000  1.0 2.28772681
W  W17  1  0.10234000  0.84035000  0.52336000  1.0 2.3510791167
W  W18  1  0.89766000  0.34035000  0.97664000  1.0 2.3510791167
W  W19  1  0.89766000  0.15965000  0.47664000  1.0 2.3510791167
W  W20  1  0.10234000  0.65965000  0.02336000  1.0 2.3510791167
W  W21  1  0.04153000  0.62283000  0.38882000  1.0 2.3881765708
W  W22  1  0.95847000  0.12283000  0.11118000  1.0 2.3820964599
W  W23  1  0.95847000  0.37717000  0.61118000  1.0 2.3820964599
W  W24  1  0.04153000  0.87717000  0.88882000  1.0 2.3881765708
W  W25  1  0.19792000  0.69752000  0.33239000  1.0 2.4461819434
W  W26  1  0.80208000  0.19752000  0.16761000  1.0 2.4391400463
W  W27  1  0.80208000  0.30248000  0.66761000  1.0 2.4391400463
W  W28  1  0.19792000  0.80248000  0.83239000  1.0 2.4391400463
W  W29  1  0.29361000  0.90629000  0.47186000  1.0 2.3591778779
W  W30  1  0.70639000  0.40629000  0.02814000  1.0 2.3510791167
W  W31  1  0.70639000  0.09371000  0.52814000  1.0 2.3510791167
W  W32  1  0.29361000  0.59371000  0.97186000  1.0 2.3591778779
W  W33  1  0.07902000  0.83109000  0.38492000  1.0 2.3120898032
W  W34  1  0.92098000  0.33109000  0.11508000  1.0 2.323878537
W  W35  1  0.92098000  0.16891000  0.61508000  1.0 2.323878537
W  W36  1  0.07902000  0.66891000  0.88492000  1.0 2.323878537
W  W37  1  0.40520000  0.56078000  0.58223000  1.0 2.3881765708
W  W38  1  0.59480000  0.06078000  0.91777000  1.0 2.3881765708
W  W39  1  0.59480000  0.43922000  0.41777000  1.0 2.3881765708
W  W40  1  0.40520000  0.93922000  0.08223000  1.0 2.3881765708
W  W41  1  0.62793000  0.45274000  0.60308000  1.0 2.3686446452
W  W42  1  0.37207000  0.95274000  0.89692000  1.0 2.3686446452
W  W43  1  0.37207000  0.54726000  0.39692000  1.0 2.3686446452
W  W44  1  0.62793000  0.04726000  0.10308000  1.0 2.3686446452
C  C1  1  0.54490000  0.51120000  0.71940000  1.0 -0.3017237729
C  C2  1  0.45510000  0.01120000  0.78060000  1.0 -0.3017237729
C  C3  1  0.45510000  0.48880000  0.28060000  1.0 -0.3017237729
C  C4  1  0.54490000  0.98880000  0.21940000  1.0 -0.3056942916
C  C5  1  0.62420000  0.47310000  0.75840000  1.0 -0.4218184447
C  C6  1  0.37580000  0.97310000  0.74160000  1.0 -0.4250522351
C  C7  1  0.37580000  0.52690000  0.24160000  1.0 -0.4218184447
C  C8  1  0.62420000  0.02690000  0.25840000  1.0 -0.4218184447
O  O1  1  0.31440000  0.61880000  0.60510000  1.0 -0.9713911889
O  O2  1  0.68560000  0.11880000  0.89490000  1.0 -0.9713911889
O  O3  1  0.68560000  0.38120000  0.39490000  1.0 -0.9713911889
O  O4  1  0.31440000  0.88120000  0.10510000  1.0 -0.9713911889
O  O5  1  0.08740000  0.63670000  0.32870000  1.0 -1.075427053
O  O6  1  0.91260000  0.13670000  0.17130000  1.0 -1.075427053
O  O7  1  0.91260000  0.36330000  0.67130000  1.0 -1.075427053
O  O8  1  0.08740000  0.86330000  0.82870000  1.0 -1.0729568696
O  O9  1  0.18040000  0.71550000  0.51640000  1.0 -1.0507077869
O  O10  1  0.81960000  0.21550000  0.98360000  1.0 -1.0507077869
O  O11  1  0.81960000  0.28450000  0.48360000  1.0 -1.0507077869
O  O12  1  0.18040000  0.78450000  0.01640000  1.0 -1.0507077869
O  O13  1  0.50030000  0.62170000  0.64460000  1.0 -0.8266844249
O  O14  1  0.49970000  0.12170000  0.85540000  1.0 -0.8266844249
O  O15  1  0.49970000  0.37830000  0.35540000  1.0 -0.8266844249
O  O16  1  0.50030000  0.87830000  0.14460000  1.0 -0.8266844249
O  O17  1  0.06650000  0.83950000  0.45170000  1.0 -1.0394178592
O  O18  1  0.93350000  0.33950000  0.04830000  1.0 -1.0394178592
O  O19  1  0.93350000  0.16050000  0.54830000  1.0 -1.0507077869
O  O20  1  0.06650000  0.66050000  0.95170000  1.0 -1.0394178592
O  O21  1  0.65040000  0.54220000  0.65650000  1.0 -0.7721894925
O  O22  1  0.34960000  0.04220000  0.84350000  1.0 -0.7721894925
O  O23  1  0.34960000  0.45780000  0.34350000  1.0 -0.7721894925
O  O24  1  0.65040000  0.95780000  0.15650000  1.0 -0.7721894925
O  O25  1  0.51410000  0.50650000  0.57570000  1.0 -0.9488284575
O  O26  1  0.48590000  0.00650000  0.92430000  1.0 -0.9488284575
O  O27  1  0.48590000  0.49350000  0.42430000  1.0 -0.9488284575
O  O28  1  0.51410000  0.99350000  0.07570000  1.0 -0.9488284575
O  O29  1  0.38430000  0.87750000  0.43290000  1.0 -1.0200791594
O  O30  1  0.61570000  0.37750000  0.06710000  1.0 -1.0200791594
O  O31  1  0.61570000  0.12250000  0.56710000  1.0 -1.0200791594
O  O32  1  0.38430000  0.62250000  0.93290000  1.0 -1.0200791594
O  O33  1  0.59800000  0.35510000  0.56830000  1.0 -0.9342228716
O  O34  1  0.40200000  0.85510000  0.93170000  1.0 -0.9342228716
O  O35  1  0.40200000  0.64490000  0.43170000  1.0 -0.9342228716
O  O36  1  0.59800000  0.14490000  0.06830000  1.0 -0.9342228716
O  O37  1  0.13810000  0.65800000  0.59420000  1.0 -1.0011433525
O  O38  1  0.86190000  0.15800000  0.90580000  1.0 -1.0108485913
O  O39  1  0.86190000  0.34200000  0.40580000  1.0 -1.0011433525
O  O40  1  0.13810000  0.84200000  0.09420000  1.0 -1.0011433525
O  O41  1  0.16400000  0.70690000  0.41420000  1.0 -1.0200791594
O  O42  1  0.83600000  0.20690000  0.08580000  1.0 -1.0200791594
O  O43  1  0.83600000  0.29310000  0.58580000  1.0 -1.0200791594
O  O44  1  0.16400000  0.79310000  0.91420000  1.0 -1.0200791594
O  O45  1  0.13170000  0.54540000  0.51780000  1.0 -0.9713911889
O  O46  1  0.86830000  0.04540000  0.98220000  1.0 -0.9787172771
O  O47  1  0.86830000  0.45460000  0.48220000  1.0 -0.9713911889
O  O48  1  0.13170000  0.95460000  0.01780000  1.0 -0.9787172771
O  O49  1  0.55450000  0.39620000  0.65300000  1.0 -0.8405230885
O  O50  1  0.44550000  0.89620000  0.84700000  1.0 -0.8405230885
O  O51  1  0.44550000  0.60380000  0.34700000  1.0 -0.8405230885
O  O52  1  0.55450000  0.10380000  0.15300000  1.0 -0.8405230885
O  O53  1  0.13400000  0.79900000  0.33160000  1.0 -1.075427053
O  O54  1  0.86600000  0.29900000  0.16840000  1.0 -1.0729568696
O  O55  1  0.86600000  0.20100000  0.66840000  1.0 -1.075427053
O  O56  1  0.13400000  0.70100000  0.83160000  1.0 -1.0864018893
O  O57  1  0.02430000  0.75600000  0.52790000  1.0 -1.0200791594
O  O58  1  0.97570000  0.25600000  0.97210000  1.0 -1.0319048485
O  O59  1  0.97570000  0.24400000  0.47210000  1.0 -1.0200791594
O  O60  1  0.02430000  0.74400000  0.02790000  1.0 -1.0319048485
O  O61  1  0.21730000  0.89220000  0.51290000  1.0 -1.0011433525
O  O62  1  0.78270000  0.39220000  0.98710000  1.0 -1.0011433525
O  O63  1  0.78270000  0.10780000  0.48710000  1.0 -1.0011433525
O  O64  1  0.21730000  0.60780000  0.01290000  1.0 -1.0011433525
O  O65  1  0.49010000  0.76260000  0.49400000  1.0 -1.0011433525
O  O66  1  0.50990000  0.26260000  0.00600000  1.0 -1.0011433525
O  O67  1  0.50990000  0.23740000  0.50600000  1.0 -0.9900169383
O  O68  1  0.49010000  0.73740000  0.99400000  1.0 -0.9900169383
O  O69  1  0.31500000  0.76610000  0.47680000  1.0 -1.0319048485
O  O70  1  0.68500000  0.26610000  0.02320000  1.0 -1.0319048485
O  O71  1  0.68500000  0.23390000  0.52320000  1.0 -1.0319048485
O  O72  1  0.31500000  0.73390000  0.97680000  1.0 -1.0319048485
O  O73  1  0.02050000  0.64940000  0.45360000  1.0 -0.9900169383
O  O74  1  0.97950000  0.14940000  0.04640000  1.0 -0.9900169383
O  O75  1  0.97950000  0.35060000  0.54640000  1.0 -0.9900169383
O  O76  1  0.02050000  0.85060000  0.95360000  1.0 -0.9900169383
O  O77  1  0.42330000  0.65470000  0.54760000  1.0 -0.9488284575
O  O78  1  0.57670000  0.15470000  0.95240000  1.0 -0.9488284575
O  O79  1  0.57670000  0.34530000  0.45240000  1.0 -0.9488284575
O  O80  1  0.42330000  0.84530000  0.04760000  1.0 -0.9488284575
O  O81  1  0.34800000  0.76840000  0.58750000  1.0 -0.9900169383
O  O82  1  0.65200000  0.26840000  0.91250000  1.0 -0.9900169383
O  O83  1  0.65200000  0.23160000  0.41250000  1.0 -0.9900169383
O  O84  1  0.34800000  0.73160000  0.08750000  1.0 -0.9900169383
O  O85  1  0.40540000  0.47720000  0.63650000  1.0 -0.7892863548
O  O86  1  0.59460000  0.97720000  0.86350000  1.0 -0.7892863548
O  O87  1  0.59460000  0.52280000  0.36350000  1.0 -0.7892863548
O  O88  1  0.40540000  0.02280000  0.13650000  1.0 -0.7892863548
O  O89  1  0.18010000  0.81760000  0.59010000  1.0 -1.0394178592
O  O90  1  0.81990000  0.31760000  0.90990000  1.0 -1.0394178592
O  O91  1  0.81990000  0.18240000  0.40990000  1.0 -1.0394178592
O  O92  1  0.18010000  0.68240000  0.09010000  1.0 -1.0394178592
O  O93  1  0.99650000  0.74520000  0.36980000  1.0 -1.0586869017
O  O94  1  0.00350000  0.24520000  0.13020000  1.0 -1.0586869017
O  O95  1  0.00350000  0.25480000  0.63020000  1.0 -1.0586869017
O  O96  1  0.99650000  0.75480000  0.86980000  1.0 -1.0507077869
O  O97  1  0.19920000  0.88510000  0.41550000  1.0 -1.0108485913
O  O98  1  0.80080000  0.38510000  0.08450000  1.0 -1.0200791594
O  O99  1  0.80080000  0.11490000  0.58450000  1.0 -1.0200791594
O  O100  1  0.19920000  0.61490000  0.91550000  1.0 -1.0200791594
O  O101  1  0.64040000  0.65560000  0.71770000  1.0 -0.9395409918
O  O102  1  0.35960000  0.15560000  0.78230000  1.0 -0.9395409918
O  O103  1  0.35960000  0.34440000  0.28230000  1.0 -0.9395409918
O  O104  1  0.64040000  0.84440000  0.21770000  1.0 -0.9395409918
O  O105  1  0.73350000  0.40020000  0.64580000  1.0 -0.9713911889
O  O106  1  0.26650000  0.90020000  0.85420000  1.0 -0.9713911889
O  O107  1  0.26650000  0.59980000  0.35420000  1.0 -0.9713911889
O  O108  1  0.73350000  0.09980000  0.14580000  1.0 -0.9713911889
O  O109  1  0.32720000  0.50760000  0.53510000  1.0 -0.9488284575
O  O110  1  0.67280000  0.00760000  0.96490000  1.0 -0.9395409918
O  O111  1  0.67280000  0.49240000  0.46490000  1.0 -0.9488284575
O  O112  1  0.32720000  0.99240000  0.03510000  1.0 -0.9488284575
O  O113  1  0.11490000  0.54040000  0.41360000  1.0 -1.0200791594
O  O114  1  0.88510000  0.04040000  0.08640000  1.0 -1.0200791594
O  O115  1  0.88510000  0.45960000  0.58640000  1.0 -1.0200791594
O  O116  1  0.11490000  0.95960000  0.91360000  1.0 -1.0200791594
O  O117  1  0.30710000  0.75200000  0.37020000  1.0 -0.9900169383
O  O118  1  0.69290000  0.25200000  0.12980000  1.0 -0.9900169383
O  O119  1  0.69290000  0.24800000  0.62980000  1.0 -0.9900169383
O  O120  1  0.30710000  0.74800000  0.87020000  1.0 -0.9900169383
O  O121  1  0.96950000  0.59410000  0.53870000  1.0 -0.9713911889
O  O122  1  0.03050000  0.09410000  0.96130000  1.0 -0.9787172771
O  O123  1  0.03050000  0.40590000  0.46130000  1.0 -0.9787172771
O  O124  1  0.96950000  0.90590000  0.03870000  1.0 -0.9787172771
O  O125  1  0.68700000  0.50090000  0.56610000  1.0 -0.9093787765
O  O126  1  0.31300000  0.00090000  0.93390000  1.0 -0.9093787765
O  O127  1  0.31300000  0.49910000  0.43390000  1.0 -0.9093787765
O  O128  1  0.68700000  0.99910000  0.06610000  1.0 -0.9093787765
O  O129  1  0.44360000  0.36980000  0.70620000  1.0 -0.9093787765
O  O130  1  0.55640000  0.86980000  0.79380000  1.0 -0.9093787765
O  O131  1  0.55640000  0.63020000  0.29380000  1.0 -0.9093787765
O  O132  1  0.44360000  0.13020000  0.20620000  1.0 -0.9093787765
O  O133  1  0.40240000  0.88370000  0.52980000  1.0 -1.0319048485
O  O134  1  0.59760000  0.38370000  0.97020000  1.0 -1.0319048485
O  O135  1  0.59760000  0.11630000  0.47020000  1.0 -1.0394178592
O  O136  1  0.40240000  0.61630000  0.02980000  1.0 -1.0394178592
O  O137  1  0.47900000  0.55030000  0.74350000  1.0 -0.4067320323
O  O138  1  0.52100000  0.05030000  0.75650000  1.0 -0.4012788033
O  O139  1  0.52100000  0.44970000  0.25650000  1.0 -0.4012788033
O  O140  1  0.47900000  0.94970000  0.24350000  1.0 -0.4067320323
O  O141  1  0.38200000  0.21120000  0.67340000  1.0 -0.2601701563
O  O142  1  0.61800000  0.71120000  0.82660000  1.0 -0.2534758097
O  O143  1  0.61800000  0.78880000  0.32660000  1.0 -0.2601701563
O  O144  1  0.38200000  0.28880000  0.17340000  1.0 -0.2601701563
O  O145  1  0.44440000  0.17800000  0.69360000  1.0 -0.0585518056
O  O146  1  0.55560000  0.67800000  0.80640000  1.0 -0.0585518056
O  O147  1  0.55560000  0.82200000  0.30640000  1.0 -0.0585518056
O  O148  1  0.44440000  0.32200000  0.19360000  1.0 -0.0585518056
