# DDEC6 charges by PACMAN v1.1 (https://github.com/mtap-research/PACMAN-charge/)
data_WAQFIG_FSR_pacman
_symmetry_space_group_name_H-M   'P 1'
_cell_length_a   10.24600000
_cell_length_b   16.14700000
_cell_length_c   19.16100000
_cell_angle_alpha   90.00000000
_cell_angle_beta   99.98000000
_cell_angle_gamma   90.00000000
_symmetry_Int_Tables_number   1
_chemical_formula_structural   Zn2H19C26S(NO4)3
_chemical_formula_sum   'Zn4 H38 C52 S2 N6 O24'
_cell_volume   3122.06923747
_cell_formula_units_Z   2
loop_
 _symmetry_equiv_pos_site_id
 _symmetry_equiv_pos_as_xyz
  1  'x, y, z'
loop_
 _atom_site_type_symbol
 _atom_site_label
 _atom_site_symmetry_multiplicity
 _atom_site_fract_x
 _atom_site_fract_y
 _atom_site_fract_z
 _atom_site_occupancy
 _atom_site_charge
Zn  Zn1  1  0.27871000  0.86753000  0.98929000  1.0 1.0378711898
Zn  Zn2  1  0.72129000  0.36753000  0.01071000  1.0 1.0378711898
Zn  Zn3  1  0.03513000  0.77339000  0.87455000  1.0 0.9359365184
Zn  Zn4  1  0.96487000  0.27339000  0.12545000  1.0 0.9359365184
H  H1  1  0.56040000  0.78020000  0.89630000  1.0 0.1383143667
H  H2  1  0.43960000  0.28020000  0.10370000  1.0 0.1383143667
H  H3  1  0.29290000  0.71240000  0.72570000  1.0 0.1491114339
H  H4  1  0.70710000  0.21240000  0.27430000  1.0 0.1491114339
H  H5  1  0.68300000  0.71670000  0.71450000  1.0 0.1383143667
H  H6  1  0.31700000  0.21670000  0.28550000  1.0 0.1383143667
H  H7  1  0.52880000  0.67610000  0.49860000  1.0 0.1297450784
H  H8  1  0.47120000  0.17610000  0.50140000  1.0 0.1297450784
H  H9  1  0.45250000  0.64490000  0.37270000  1.0 0.1297450784
H  H10  1  0.54750000  0.14490000  0.62730000  1.0 0.1297450784
H  H11  1  0.21260000  0.71790000  0.15920000  1.0 0.1383143667
H  H12  1  0.78740000  0.21790000  0.84080000  1.0 0.1383143667
H  H13  1  0.97690000  0.57950000  0.01280000  1.0 0.1491114339
H  H14  1  0.02310000  0.07950000  0.98720000  1.0 0.1491114339
H  H15  1  0.08560000  0.49360000  0.21230000  1.0 0.1491114339
H  H16  1  0.91440000  0.99360000  0.78770000  1.0 0.1491114339
H  H17  1  0.32730000  0.13160000  0.98300000  1.0 0.1491114339
H  H18  1  0.67270000  0.63160000  0.01700000  1.0 0.1491114339
H  H19  1  0.27950000  0.05600000  0.02340000  1.0 0.1605119038
H  H20  1  0.72050000  0.55600000  0.97660000  1.0 0.1605119038
H  H21  1  0.41160000  0.10180000  0.05470000  1.0 0.1491114339
H  H22  1  0.58840000  0.60180000  0.94530000  1.0 0.1491114339
H  H23  1  0.63020000  0.02250000  0.86790000  1.0 0.1297450784
H  H24  1  0.36980000  0.52250000  0.13210000  1.0 0.1297450784
H  H25  1  0.70810000  0.99430000  0.94180000  1.0 0.1491114339
H  H26  1  0.29190000  0.49430000  0.05820000  1.0 0.1491114339
H  H27  1  0.58200000  0.94540000  0.90620000  1.0 0.1605119038
H  H28  1  0.41800000  0.44540000  0.09380000  1.0 0.1605119038
H  H29  1  0.67190000  0.14390000  0.98120000  1.0 0.1297450784
H  H30  1  0.32810000  0.64390000  0.01880000  1.0 0.1297450784
H  H31  1  0.54650000  0.17940000  0.93160000  1.0 0.1383143667
H  H32  1  0.45350000  0.67940000  0.06840000  1.0 0.1383143667
H  H33  1  0.54160000  0.16070000  0.01140000  1.0 0.1297450784
H  H34  1  0.45840000  0.66070000  0.98860000  1.0 0.1297450784
H  H35  1  0.53010000  0.68730000  0.61640000  1.0 0.2720691044
H  H36  1  0.46990000  0.18730000  0.38360000  1.0 0.2720691044
H  H37  1  0.31510000  0.63350000  0.27040000  1.0 0.2808670182
H  H38  1  0.68490000  0.13350000  0.72960000  1.0 0.2808670182
C  C1  1  0.78220000  0.76720000  0.84490000  1.0 0.5537828285
C  C2  1  0.21780000  0.26720000  0.15510000  1.0 0.5537828285
C  C3  1  0.64280000  0.75050000  0.81080000  1.0 0.0004121565
C  C4  1  0.35720000  0.25050000  0.18920000  1.0 0.0004121565
C  C5  1  0.54160000  0.76220000  0.84950000  1.0 -0.1192859979
C  C6  1  0.45840000  0.26220000  0.15050000  1.0 -0.1192859979
C  C7  1  0.41000000  0.74650000  0.81670000  1.0 -0.0093526311
C  C8  1  0.59000000  0.24650000  0.18330000  1.0 -0.0093526311
C  C9  1  0.30030000  0.76060000  0.85740000  1.0 0.6003903675
C  C10  1  0.69970000  0.26060000  0.14260000  1.0 0.6003903675
C  C11  1  0.38050000  0.72180000  0.74680000  1.0 -0.1683022637
C  C12  1  0.61950000  0.22180000  0.25320000  1.0 -0.1683022637
C  C13  1  0.48310000  0.71070000  0.70760000  1.0 0.2514440793
C  C14  1  0.51690000  0.21070000  0.29240000  1.0 0.2514440793
C  C15  1  0.61450000  0.72460000  0.74000000  1.0 -0.2048145008
C  C16  1  0.38550000  0.22460000  0.26000000  1.0 -0.2048145008
C  C17  1  0.34760000  0.66460000  0.59750000  1.0 0.472077303
C  C18  1  0.65240000  0.16460000  0.40250000  1.0 0.472077303
C  C19  1  0.34830000  0.65240000  0.51910000  1.0 -0.1070407737
C  C20  1  0.65170000  0.15240000  0.48090000  1.0 -0.1070407737
C  C21  1  0.44240000  0.66040000  0.48000000  1.0 -0.1192859979
C  C22  1  0.55760000  0.16040000  0.52000000  1.0 -0.1192859979
C  C23  1  0.39840000  0.64280000  0.40690000  1.0 -0.1032129653
C  C24  1  0.60160000  0.14280000  0.59310000  1.0 -0.1032129653
C  C25  1  0.26970000  0.62270000  0.39340000  1.0 -0.1192859979
C  C26  1  0.73030000  0.12270000  0.60660000  1.0 -0.1192859979
C  C27  1  0.17910000  0.60750000  0.32560000  1.0 0.472077303
C  C28  1  0.82090000  0.10750000  0.67440000  1.0 0.472077303
C  C29  1  0.15790000  0.60840000  0.19670000  1.0 0.2194689962
C  C30  1  0.84210000  0.10840000  0.80330000  1.0 0.2194689962
C  C31  1  0.16440000  0.66990000  0.14610000  1.0 -0.1625085693
C  C32  1  0.83560000  0.16990000  0.85390000  1.0 -0.1625085693
C  C33  1  0.10060000  0.66040000  0.07720000  1.0 -0.034327611
C  C34  1  0.89940000  0.16040000  0.92280000  1.0 -0.034327611
C  C35  1  0.02280000  0.58680000  0.05870000  1.0 -0.1032129653
C  C36  1  0.97720000  0.08680000  0.94130000  1.0 -0.1032129653
C  C37  1  0.01720000  0.52860000  0.10870000  1.0 -0.0093526311
C  C38  1  0.98280000  0.02860000  0.89130000  1.0 -0.0093526311
C  C39  1  0.08710000  0.53560000  0.17930000  1.0 -0.1683022637
C  C40  1  0.91290000  0.03560000  0.82070000  1.0 -0.1683022637
C  C41  1  0.94070000  0.45060000  0.08980000  1.0 0.6003903675
C  C42  1  0.05930000  0.95060000  0.91020000  1.0 0.6003903675
C  C43  1  0.11320000  0.72190000  0.02210000  1.0 0.5859512466
C  C44  1  0.88680000  0.22190000  0.97790000  1.0 0.5859512466
C  C45  1  0.43420000  0.02410000  0.97060000  1.0 0.481354304
C  C46  1  0.56580000  0.52410000  0.02940000  1.0 0.481354304
C  C47  1  0.35560000  0.08420000  0.01190000  1.0 -0.5201798003
C  C48  1  0.64440000  0.58420000  0.98810000  1.0 -0.5201798003
C  C49  1  0.62190000  0.99920000  0.91300000  1.0 -0.355683006
C  C50  1  0.37810000  0.49920000  0.08700000  1.0 -0.355683006
C  C51  1  0.57680000  0.14290000  0.97060000  1.0 -0.3510527632
C  C52  1  0.42320000  0.64290000  0.02940000  1.0 -0.3510527632
S  S1  1  0.20283000  0.62374000  0.46788000  1.0 0.2808670182
S  S2  1  0.79717000  0.12374000  0.53212000  1.0 0.2808670182
N  N1  1  0.46190000  0.68720000  0.63700000  1.0 -0.3510527632
N  N2  1  0.53810000  0.18720000  0.36300000  1.0 -0.3510527632
N  N3  1  0.23320000  0.61920000  0.26600000  1.0 -0.3510527632
N  N4  1  0.76680000  0.11920000  0.73400000  1.0 -0.3510527632
N  N5  1  0.53140000  0.05790000  0.95160000  1.0 0.0208015613
N  N6  1  0.46860000  0.55790000  0.04840000  1.0 0.0208015613
O  O1  1  0.33010000  0.78730000  0.92037000  1.0 -0.5664054077
O  O2  1  0.66990000  0.28730000  0.07963000  1.0 -0.5664054077
O  O3  1  0.18320000  0.74360000  0.82592000  1.0 -0.5119794976
O  O4  1  0.81680000  0.24360000  0.17408000  1.0 -0.5119794976
O  O5  1  0.87330000  0.73990000  0.81019000  1.0 -0.545647673
O  O6  1  0.12670000  0.23990000  0.18981000  1.0 -0.545647673
O  O7  1  0.80810000  0.80230000  0.90302000  1.0 -0.5119794976
O  O8  1  0.19190000  0.30230000  0.09698000  1.0 -0.5119794976
O  O9  1  0.05860000  0.70550000  0.95914000  1.0 -0.5335065287
O  O10  1  0.94140000  0.20550000  0.04086000  1.0 -0.5335065287
O  O11  1  0.17800000  0.78520000  0.04135000  1.0 -0.4895496738
O  O12  1  0.82200000  0.28520000  0.95865000  1.0 -0.4895496738
O  O13  1  0.87150000  0.44630000  0.02813000  1.0 -0.5335065287
O  O14  1  0.12850000  0.94630000  0.97187000  1.0 -0.5335065287
O  O15  1  0.94810000  0.39410000  0.13583000  1.0 -0.5410036963
O  O16  1  0.05190000  0.89410000  0.86417000  1.0 -0.5410036963
O  O17  1  0.24440000  0.65600000  0.61730000  1.0 -0.4611955356
O  O18  1  0.75560000  0.15600000  0.38270000  1.0 -0.4611955356
O  O19  1  0.06600000  0.58590000  0.32460000  1.0 -0.4548235458
O  O20  1  0.93400000  0.08590000  0.67540000  1.0 -0.4548235458
O  O21  1  0.39830000  0.95060000  0.94820000  1.0 -0.5410036963
O  O22  1  0.60170000  0.45060000  0.05180000  1.0 -0.5335065287
O  O23  1  0.39950000  0.87460000  0.08240000  1.0 -0.439277671
O  O24  1  0.60050000  0.37460000  0.91760000  1.0 -0.439277671
