# DDEC6 charges by PACMAN v1.1 (https://github.com/mtap-research/PACMAN-charge/)
data_WAQKUX_ASR_pacman
_symmetry_space_group_name_H-M   'P 1'
_cell_length_a   20.86380000
_cell_length_b   20.86380000
_cell_length_c   18.66690000
_cell_angle_alpha   90.00000000
_cell_angle_beta   90.00000000
_cell_angle_gamma   107.09200000
_symmetry_Int_Tables_number   1
_chemical_formula_structural   Cu6H29C69(NO6)4
_chemical_formula_sum   'Cu12 H58 C138 N8 O48'
_cell_volume   7766.78933151
_cell_formula_units_Z   2
loop_
 _symmetry_equiv_pos_site_id
 _symmetry_equiv_pos_as_xyz
  1  'x, y, z'
loop_
 _atom_site_type_symbol
 _atom_site_label
 _atom_site_symmetry_multiplicity
 _atom_site_fract_x
 _atom_site_fract_y
 _atom_site_fract_z
 _atom_site_occupancy
 _atom_site_charge
Cu  Cu1  1  0.94260000  0.47766000  0.53533000  1.0 0.8712409921
Cu  Cu2  1  0.05740000  0.52234000  0.03533000  1.0 0.8712409921
Cu  Cu3  1  0.47766000  0.94260000  0.46467000  1.0 0.8712409921
Cu  Cu4  1  0.52234000  0.05740000  0.96467000  1.0 0.8712409921
Cu  Cu5  1  0.05740000  0.52234000  0.46467000  1.0 0.8712409921
Cu  Cu6  1  0.94260000  0.47766000  0.96467000  1.0 0.8712409921
Cu  Cu7  1  0.52234000  0.05740000  0.53533000  1.0 0.8712409921
Cu  Cu8  1  0.47766000  0.94260000  0.03533000  1.0 0.8712409921
Cu  Cu9  1  0.93764000  0.06236000  0.75000000  1.0 0.8619408644
Cu  Cu10  1  0.06236000  0.93764000  0.25000000  1.0 0.8619408644
Cu  Cu11  1  0.85868000  0.14132000  0.75000000  1.0 0.8619408644
Cu  Cu12  1  0.14132000  0.85868000  0.25000000  1.0 0.8543552793
H  H1  1  0.13150000  0.35270000  0.49100000  1.0 0.132354537
H  H2  1  0.86850000  0.64730000  0.99100000  1.0 0.132354537
H  H3  1  0.35270000  0.13150000  0.50900000  1.0 0.132354537
H  H4  1  0.64730000  0.86850000  0.00900000  1.0 0.132354537
H  H5  1  0.86850000  0.64730000  0.50900000  1.0 0.132354537
H  H6  1  0.13150000  0.35270000  0.00900000  1.0 0.132354537
H  H7  1  0.64730000  0.86850000  0.49100000  1.0 0.132354537
H  H8  1  0.35270000  0.13150000  0.99100000  1.0 0.132354537
H  H9  1  0.95800000  0.28620000  0.59880000  1.0 0.1463107057
H  H10  1  0.04200000  0.71380000  0.09880000  1.0 0.1463107057
H  H11  1  0.28620000  0.95800000  0.40120000  1.0 0.1463107057
H  H12  1  0.71380000  0.04200000  0.90120000  1.0 0.1463107057
H  H13  1  0.04200000  0.71380000  0.40120000  1.0 0.1463107057
H  H14  1  0.95800000  0.28620000  0.90120000  1.0 0.1463107057
H  H15  1  0.71380000  0.04200000  0.59880000  1.0 0.1463107057
H  H16  1  0.28620000  0.95800000  0.09880000  1.0 0.1463107057
H  H17  1  0.01450000  0.52490000  0.75000000  1.0 0.1435396112
H  H18  1  0.98550000  0.47510000  0.25000000  1.0 0.1435396112
H  H19  1  0.52490000  0.01450000  0.25000000  1.0 0.1435396112
H  H20  1  0.47510000  0.98550000  0.75000000  1.0 0.1435396112
H  H21  1  0.18910000  0.59290000  0.64260000  1.0 0.1435396112
H  H22  1  0.81090000  0.40710000  0.14260000  1.0 0.1435396112
H  H23  1  0.59290000  0.18910000  0.35740000  1.0 0.1435396112
H  H24  1  0.40710000  0.81090000  0.85740000  1.0 0.1435396112
H  H25  1  0.81090000  0.40710000  0.35740000  1.0 0.1435396112
H  H26  1  0.18910000  0.59290000  0.85740000  1.0 0.1435396112
H  H27  1  0.40710000  0.81090000  0.64260000  1.0 0.1435396112
H  H28  1  0.59290000  0.18910000  0.14260000  1.0 0.1435396112
H  H29  1  0.08870000  0.17830000  0.59780000  1.0 0.132354537
H  H30  1  0.91130000  0.82170000  0.09780000  1.0 0.132354537
H  H31  1  0.17830000  0.08870000  0.40220000  1.0 0.132354537
H  H32  1  0.82170000  0.91130000  0.90220000  1.0 0.132354537
H  H33  1  0.91130000  0.82170000  0.40220000  1.0 0.132354537
H  H34  1  0.08870000  0.17830000  0.90220000  1.0 0.132354537
H  H35  1  0.82170000  0.91130000  0.59780000  1.0 0.132354537
H  H36  1  0.17830000  0.08870000  0.09780000  1.0 0.132354537
H  H37  1  0.15480000  0.15480000  0.50000000  1.0 0.1179071851
H  H38  1  0.84520000  0.84520000  0.00000000  1.0 0.1179071851
H  H39  1  0.84520000  0.84520000  0.50000000  1.0 0.1179071851
H  H40  1  0.15480000  0.15480000  0.00000000  1.0 0.1179071851
H  H41  1  0.24060000  0.35320000  0.53300000  1.0 0.132354537
H  H42  1  0.75940000  0.64680000  0.03300000  1.0 0.132354537
H  H43  1  0.35320000  0.24060000  0.46700000  1.0 0.132354537
H  H44  1  0.64680000  0.75940000  0.96700000  1.0 0.132354537
H  H45  1  0.75940000  0.64680000  0.46700000  1.0 0.132354537
H  H46  1  0.24060000  0.35320000  0.96700000  1.0 0.132354537
H  H47  1  0.64680000  0.75940000  0.53300000  1.0 0.132354537
H  H48  1  0.35320000  0.24060000  0.03300000  1.0 0.132354537
H  H49  1  0.27850000  0.72150000  0.75000000  1.0 0.1179071851
H  H50  1  0.72150000  0.27850000  0.25000000  1.0 0.1179071851
H  H51  1  0.28460000  0.54700000  0.68400000  1.0 0.1179071851
H  H52  1  0.71540000  0.45300000  0.18400000  1.0 0.1179071851
H  H53  1  0.54700000  0.28460000  0.31600000  1.0 0.1179071851
H  H54  1  0.45300000  0.71540000  0.81600000  1.0 0.1179071851
H  H55  1  0.71540000  0.45300000  0.31600000  1.0 0.1179071851
H  H56  1  0.28460000  0.54700000  0.81600000  1.0 0.1179071851
H  H57  1  0.45300000  0.71540000  0.68400000  1.0 0.1179071851
H  H58  1  0.54700000  0.28460000  0.18400000  1.0 0.1179071851
C  C1  1  0.02334000  0.38986000  0.52220000  1.0 0.5877973077
C  C2  1  0.97666000  0.61014000  0.02220000  1.0 0.5877973077
C  C3  1  0.38986000  0.02334000  0.47780000  1.0 0.5877973077
C  C4  1  0.61014000  0.97666000  0.97780000  1.0 0.5877973077
C  C5  1  0.97666000  0.61014000  0.47780000  1.0 0.5877973077
C  C6  1  0.02334000  0.38986000  0.97780000  1.0 0.5877973077
C  C7  1  0.61014000  0.97666000  0.52220000  1.0 0.5877973077
C  C8  1  0.38986000  0.02334000  0.02220000  1.0 0.5877973077
C  C9  1  0.05937000  0.53843000  0.61650000  1.0 0.583604419
C  C10  1  0.94063000  0.46157000  0.11650000  1.0 0.583604419
C  C11  1  0.53843000  0.05937000  0.38350000  1.0 0.5877973077
C  C12  1  0.46157000  0.94063000  0.88350000  1.0 0.5877973077
C  C13  1  0.94063000  0.46157000  0.38350000  1.0 0.583604419
C  C14  1  0.05937000  0.53843000  0.88350000  1.0 0.583604419
C  C15  1  0.46157000  0.94063000  0.61650000  1.0 0.5877973077
C  C16  1  0.53843000  0.05937000  0.11650000  1.0 0.5877973077
C  C17  1  0.04095000  0.32665000  0.53970000  1.0 -0.0070935987
C  C18  1  0.95905000  0.67335000  0.03970000  1.0 -0.0070935987
C  C19  1  0.32665000  0.04095000  0.46030000  1.0 -0.0046858802
C  C20  1  0.67335000  0.95905000  0.96030000  1.0 -0.0046858802
C  C21  1  0.95905000  0.67335000  0.46030000  1.0 -0.0070935987
C  C22  1  0.04095000  0.32665000  0.96030000  1.0 -0.0070935987
C  C23  1  0.67335000  0.95905000  0.53970000  1.0 -0.0070935987
C  C24  1  0.32665000  0.04095000  0.03970000  1.0 -0.0046858802
C  C25  1  0.09628000  0.55612000  0.68540000  1.0 -0.0070935987
C  C26  1  0.90372000  0.44388000  0.18540000  1.0 -0.0070935987
C  C27  1  0.55612000  0.09628000  0.31460000  1.0 -0.0070935987
C  C28  1  0.44388000  0.90372000  0.81460000  1.0 -0.0070935987
C  C29  1  0.90372000  0.44388000  0.31460000  1.0 -0.0070935987
C  C30  1  0.09628000  0.55612000  0.81460000  1.0 -0.0070935987
C  C31  1  0.44388000  0.90372000  0.68540000  1.0 -0.0070935987
C  C32  1  0.55612000  0.09628000  0.18540000  1.0 -0.0070935987
C  C33  1  0.10225000  0.31975000  0.51870000  1.0 -0.1293623721
C  C34  1  0.89775000  0.68025000  0.01870000  1.0 -0.1293623721
C  C35  1  0.31975000  0.10225000  0.48130000  1.0 -0.1293623721
C  C36  1  0.68025000  0.89775000  0.98130000  1.0 -0.1293623721
C  C37  1  0.89775000  0.68025000  0.48130000  1.0 -0.1293623721
C  C38  1  0.10225000  0.31975000  0.98130000  1.0 -0.1293623721
C  C39  1  0.68025000  0.89775000  0.51870000  1.0 -0.1293623721
C  C40  1  0.31975000  0.10225000  0.01870000  1.0 -0.1293623721
C  C41  1  0.99825000  0.27995000  0.58380000  1.0 -0.1003965978
C  C42  1  0.00175000  0.72005000  0.08380000  1.0 -0.1003965978
C  C43  1  0.27995000  0.99825000  0.41620000  1.0 -0.1003965978
C  C44  1  0.72005000  0.00175000  0.91620000  1.0 -0.1003965978
C  C45  1  0.00175000  0.72005000  0.41620000  1.0 -0.1003965978
C  C46  1  0.99825000  0.27995000  0.91620000  1.0 -0.1003965978
C  C47  1  0.72005000  0.00175000  0.58380000  1.0 -0.1003965978
C  C48  1  0.27995000  0.99825000  0.08380000  1.0 -0.1003965978
C  C49  1  0.06090000  0.54270000  0.75000000  1.0 -0.1129892283
C  C50  1  0.93910000  0.45730000  0.25000000  1.0 -0.1129892283
C  C51  1  0.54270000  0.06090000  0.25000000  1.0 -0.1129892283
C  C52  1  0.45730000  0.93910000  0.75000000  1.0 -0.1129892283
C  C53  1  0.16610000  0.58390000  0.68590000  1.0 -0.1418288909
C  C54  1  0.83390000  0.41610000  0.18590000  1.0 -0.1418288909
C  C55  1  0.58390000  0.16610000  0.31410000  1.0 -0.1418288909
C  C56  1  0.41610000  0.83390000  0.81410000  1.0 -0.1418288909
C  C57  1  0.83390000  0.41610000  0.31410000  1.0 -0.1418288909
C  C58  1  0.16610000  0.58390000  0.81410000  1.0 -0.1418288909
C  C59  1  0.41610000  0.83390000  0.68590000  1.0 -0.1418288909
C  C60  1  0.58390000  0.16610000  0.18590000  1.0 -0.1418288909
C  C61  1  0.11965000  0.26235000  0.53980000  1.0 0.0669109718
C  C62  1  0.88035000  0.73765000  0.03980000  1.0 0.0669109718
C  C63  1  0.26235000  0.11965000  0.46020000  1.0 0.0669109718
C  C64  1  0.73765000  0.88035000  0.96020000  1.0 0.0669109718
C  C65  1  0.88035000  0.73765000  0.46020000  1.0 0.0669109718
C  C66  1  0.11965000  0.26235000  0.96020000  1.0 0.0669109718
C  C67  1  0.73765000  0.88035000  0.53980000  1.0 0.0669109718
C  C68  1  0.26235000  0.11965000  0.03980000  1.0 0.0669109718
C  C69  1  0.01541000  0.22399000  0.60560000  1.0 -0.0046858802
C  C70  1  0.98459000  0.77601000  0.10560000  1.0 -0.0070935987
C  C71  1  0.22399000  0.01541000  0.39440000  1.0 -0.0070935987
C  C72  1  0.77601000  0.98459000  0.89440000  1.0 -0.0046858802
C  C73  1  0.98459000  0.77601000  0.39440000  1.0 -0.0070935987
C  C74  1  0.01541000  0.22399000  0.89440000  1.0 -0.0046858802
C  C75  1  0.77601000  0.98459000  0.60560000  1.0 -0.0046858802
C  C76  1  0.22399000  0.01541000  0.10560000  1.0 -0.0070935987
C  C77  1  0.20190000  0.59810000  0.75000000  1.0 0.081100339
C  C78  1  0.79810000  0.40190000  0.25000000  1.0 0.081100339
C  C79  1  0.59810000  0.20190000  0.25000000  1.0 0.081100339
C  C80  1  0.40190000  0.79810000  0.75000000  1.0 0.081100339
C  C81  1  0.18629000  0.25511000  0.51890000  1.0 0.0984975435
C  C82  1  0.81371000  0.74489000  0.01890000  1.0 0.0984975435
C  C83  1  0.25511000  0.18629000  0.48110000  1.0 0.0984975435
C  C84  1  0.74489000  0.81371000  0.98110000  1.0 0.0984975435
C  C85  1  0.81371000  0.74489000  0.48110000  1.0 0.0984975435
C  C86  1  0.18629000  0.25511000  0.98110000  1.0 0.0984975435
C  C87  1  0.74489000  0.81371000  0.51890000  1.0 0.0984975435
C  C88  1  0.25511000  0.18629000  0.01890000  1.0 0.0984975435
C  C89  1  0.07687000  0.21593000  0.58310000  1.0 -0.1293623721
C  C90  1  0.92313000  0.78407000  0.08310000  1.0 -0.1293623721
C  C91  1  0.21593000  0.07687000  0.41690000  1.0 -0.1293623721
C  C92  1  0.78407000  0.92313000  0.91690000  1.0 -0.1293623721
C  C93  1  0.92313000  0.78407000  0.41690000  1.0 -0.1293623721
C  C94  1  0.07687000  0.21593000  0.91690000  1.0 -0.1293623721
C  C95  1  0.78407000  0.92313000  0.58310000  1.0 -0.1293623721
C  C96  1  0.21593000  0.07687000  0.08310000  1.0 -0.1293623721
C  C97  1  0.96980000  0.17600000  0.65750000  1.0 0.583604419
C  C98  1  0.03020000  0.82400000  0.15750000  1.0 0.583604419
C  C99  1  0.17600000  0.96980000  0.34250000  1.0 0.583604419
C  C100  1  0.82400000  0.03020000  0.84250000  1.0 0.583604419
C  C101  1  0.03020000  0.82400000  0.34250000  1.0 0.583604419
C  C102  1  0.96980000  0.17600000  0.84250000  1.0 0.583604419
C  C103  1  0.82400000  0.03020000  0.65750000  1.0 0.583604419
C  C104  1  0.17600000  0.96980000  0.15750000  1.0 0.583604419
C  C105  1  0.27740000  0.62820000  0.75000000  1.0 0.0886724852
C  C106  1  0.72260000  0.37180000  0.25000000  1.0 0.0886724852
C  C107  1  0.62820000  0.27740000  0.25000000  1.0 0.0886724852
C  C108  1  0.37180000  0.72260000  0.75000000  1.0 0.0886724852
C  C109  1  0.19230000  0.19230000  0.50000000  1.0 -0.2145821415
C  C110  1  0.80770000  0.80770000  0.00000000  1.0 -0.2145821415
C  C111  1  0.80770000  0.80770000  0.50000000  1.0 -0.2145821415
C  C112  1  0.19230000  0.19230000  0.00000000  1.0 -0.2145821415
C  C113  1  0.24390000  0.31130000  0.51950000  1.0 -0.2272060476
C  C114  1  0.75610000  0.68870000  0.01950000  1.0 -0.2244965397
C  C115  1  0.31130000  0.24390000  0.48050000  1.0 -0.2272060476
C  C116  1  0.68870000  0.75610000  0.98050000  1.0 -0.2244965397
C  C117  1  0.75610000  0.68870000  0.48050000  1.0 -0.2244965397
C  C118  1  0.24390000  0.31130000  0.98050000  1.0 -0.2272060476
C  C119  1  0.68870000  0.75610000  0.51950000  1.0 -0.2244965397
C  C120  1  0.31130000  0.24390000  0.01950000  1.0 -0.2272060476
C  C121  1  0.30630000  0.69370000  0.75000000  1.0 -0.1623040698
C  C122  1  0.69370000  0.30630000  0.25000000  1.0 -0.1623040698
C  C123  1  0.31550000  0.58850000  0.70290000  1.0 -0.1293623721
C  C124  1  0.68450000  0.41150000  0.20290000  1.0 -0.1293623721
C  C125  1  0.58850000  0.31550000  0.29710000  1.0 -0.1293623721
C  C126  1  0.41150000  0.68450000  0.79710000  1.0 -0.1293623721
C  C127  1  0.68450000  0.41150000  0.29710000  1.0 -0.1293623721
C  C128  1  0.31550000  0.58850000  0.79710000  1.0 -0.1293623721
C  C129  1  0.41150000  0.68450000  0.70290000  1.0 -0.1293623721
C  C130  1  0.58850000  0.31550000  0.20290000  1.0 -0.1293623721
C  C131  1  0.30380000  0.30380000  0.50000000  1.0 0.2592966594
C  C132  1  0.69620000  0.69620000  0.00000000  1.0 0.2520569799
C  C133  1  0.69620000  0.69620000  0.50000000  1.0 0.2520569799
C  C134  1  0.30380000  0.30380000  0.00000000  1.0 0.2592966594
C  C135  1  0.39620000  0.60380000  0.66500000  1.0 0.2520569799
C  C136  1  0.60380000  0.39620000  0.16500000  1.0 0.2520569799
C  C137  1  0.60380000  0.39620000  0.33500000  1.0 0.2520569799
C  C138  1  0.39620000  0.60380000  0.83500000  1.0 0.2520569799
N  N1  1  0.36260000  0.36260000  0.50000000  1.0 -0.3114289157
N  N2  1  0.63740000  0.63740000  0.00000000  1.0 -0.3114289157
N  N3  1  0.63740000  0.63740000  0.50000000  1.0 -0.3114289157
N  N4  1  0.36260000  0.36260000  0.00000000  1.0 -0.3114289157
N  N5  1  0.43290000  0.56710000  0.61700000  1.0 -0.4801581763
N  N6  1  0.56710000  0.43290000  0.11700000  1.0 -0.4680028819
N  N7  1  0.56710000  0.43290000  0.38300000  1.0 -0.4680028819
N  N8  1  0.43290000  0.56710000  0.88300000  1.0 -0.4801581763
O  O1  1  0.96909000  0.39583000  0.54500000  1.0 -0.5041243695
O  O2  1  0.03091000  0.60417000  0.04500000  1.0 -0.5041243695
O  O3  1  0.39583000  0.96909000  0.45500000  1.0 -0.5041243695
O  O4  1  0.60417000  0.03091000  0.95500000  1.0 -0.5041243695
O  O5  1  0.03091000  0.60417000  0.45500000  1.0 -0.5041243695
O  O6  1  0.96909000  0.39583000  0.95500000  1.0 -0.5041243695
O  O7  1  0.60417000  0.03091000  0.54500000  1.0 -0.5041243695
O  O8  1  0.39583000  0.96909000  0.04500000  1.0 -0.5041243695
O  O9  1  0.99706000  0.51254000  0.61960000  1.0 -0.5041243695
O  O10  1  0.00294000  0.48746000  0.11960000  1.0 -0.5041243695
O  O11  1  0.51254000  0.99706000  0.38040000  1.0 -0.5041243695
O  O12  1  0.48746000  0.00294000  0.88040000  1.0 -0.5041243695
O  O13  1  0.00294000  0.48746000  0.38040000  1.0 -0.5041243695
O  O14  1  0.99706000  0.51254000  0.88040000  1.0 -0.5041243695
O  O15  1  0.48746000  0.00294000  0.61960000  1.0 -0.5041243695
O  O16  1  0.51254000  0.99706000  0.11960000  1.0 -0.5041243695
O  O17  1  0.90579000  0.44985000  0.43940000  1.0 -0.5186414806
O  O18  1  0.09421000  0.55015000  0.93940000  1.0 -0.5186414806
O  O19  1  0.44985000  0.90579000  0.56060000  1.0 -0.5186414806
O  O20  1  0.55015000  0.09421000  0.06060000  1.0 -0.5186414806
O  O21  1  0.09421000  0.55015000  0.56060000  1.0 -0.5186414806
O  O22  1  0.90579000  0.44985000  0.06060000  1.0 -0.5186414806
O  O23  1  0.55015000  0.09421000  0.43940000  1.0 -0.5186414806
O  O24  1  0.44985000  0.90579000  0.93940000  1.0 -0.5186414806
O  O25  1  0.93429000  0.56695000  0.51520000  1.0 -0.5186414806
O  O26  1  0.06571000  0.43305000  0.01520000  1.0 -0.5186414806
O  O27  1  0.56695000  0.93429000  0.48480000  1.0 -0.5186414806
O  O28  1  0.43305000  0.06571000  0.98480000  1.0 -0.5186414806
O  O29  1  0.06571000  0.43305000  0.48480000  1.0 -0.5186414806
O  O30  1  0.93429000  0.56695000  0.98480000  1.0 -0.5186414806
O  O31  1  0.43305000  0.06571000  0.51520000  1.0 -0.5186414806
O  O32  1  0.56695000  0.93429000  0.01520000  1.0 -0.5186414806
O  O33  1  0.98693000  0.12523000  0.67580000  1.0 -0.5186414806
O  O34  1  0.01307000  0.87477000  0.17580000  1.0 -0.5186414806
O  O35  1  0.12523000  0.98693000  0.32420000  1.0 -0.5186414806
O  O36  1  0.87477000  0.01307000  0.82420000  1.0 -0.5186414806
O  O37  1  0.01307000  0.87477000  0.32420000  1.0 -0.5186414806
O  O38  1  0.98693000  0.12523000  0.82420000  1.0 -0.5186414806
O  O39  1  0.87477000  0.01307000  0.67580000  1.0 -0.5186414806
O  O40  1  0.12523000  0.98693000  0.17580000  1.0 -0.5186414806
O  O41  1  0.91910000  0.19034000  0.67590000  1.0 -0.4909214042
O  O42  1  0.08090000  0.80966000  0.17590000  1.0 -0.4909214042
O  O43  1  0.19034000  0.91910000  0.32410000  1.0 -0.4909214042
O  O44  1  0.80966000  0.08090000  0.82410000  1.0 -0.4909214042
O  O45  1  0.08090000  0.80966000  0.32410000  1.0 -0.4909214042
O  O46  1  0.91910000  0.19034000  0.82410000  1.0 -0.4909214042
O  O47  1  0.80966000  0.08090000  0.67590000  1.0 -0.4909214042
O  O48  1  0.19034000  0.91910000  0.17590000  1.0 -0.4909214042
