# DDEC6 charges by PACMAN v1.1 (https://github.com/mtap-research/PACMAN-charge/)
data_WAQQUB_FSR_pacman
_symmetry_space_group_name_H-M   'P 1'
_cell_length_a   12.44640000
_cell_length_b   12.44640000
_cell_length_c   12.44640000
_cell_angle_alpha   60.00000000
_cell_angle_beta   60.00000000
_cell_angle_gamma   60.00000000
_symmetry_Int_Tables_number   1
_chemical_formula_structural   ZnH8(C4N3)2
_chemical_formula_sum   'Zn6 H48 C48 N36'
_cell_volume   1363.37794610
_cell_formula_units_Z   6
loop_
 _symmetry_equiv_pos_site_id
 _symmetry_equiv_pos_as_xyz
  1  'x, y, z'
loop_
 _atom_site_type_symbol
 _atom_site_label
 _atom_site_symmetry_multiplicity
 _atom_site_fract_x
 _atom_site_fract_y
 _atom_site_fract_z
 _atom_site_occupancy
 _atom_site_charge
Zn  Zn1  1  0.25000000  0.25000000  0.25000000  1.0 0.4373638768
Zn  Zn2  1  0.00000000  0.00000000  0.00000000  1.0 0.4373638768
Zn  Zn3  1  0.62500000  0.12500000  0.12500000  1.0 0.5608071674
Zn  Zn4  1  0.12500000  0.12500000  0.62500000  1.0 0.5608071674
Zn  Zn5  1  0.12500000  0.12500000  0.12500000  1.0 0.5608071674
Zn  Zn6  1  0.12500000  0.62500000  0.12500000  1.0 0.5608071674
H  H1  1  0.75500000  0.89500000  0.89500000  1.0 0.0851049021
H  H2  1  0.79500000  0.35500000  0.49500000  1.0 0.0851049021
H  H3  1  0.45500000  0.89500000  0.89500000  1.0 0.0851049021
H  H4  1  0.89500000  0.75500000  0.89500000  1.0 0.0851049021
H  H5  1  0.89500000  0.75500000  0.45500000  1.0 0.0851049021
H  H6  1  0.49500000  0.35500000  0.79500000  1.0 0.0851049021
H  H7  1  0.79500000  0.35500000  0.35500000  1.0 0.0851049021
H  H8  1  0.35500000  0.79500000  0.35500000  1.0 0.0851049021
H  H9  1  0.89500000  0.45500000  0.75500000  1.0 0.0851049021
H  H10  1  0.75500000  0.89500000  0.45500000  1.0 0.0851049021
H  H11  1  0.35500000  0.49500000  0.35500000  1.0 0.0851049021
H  H12  1  0.35500000  0.79500000  0.49500000  1.0 0.0851049021
H  H13  1  0.45500000  0.89500000  0.75500000  1.0 0.0851049021
H  H14  1  0.49500000  0.35500000  0.35500000  1.0 0.0851049021
H  H15  1  0.89500000  0.45500000  0.89500000  1.0 0.0851049021
H  H16  1  0.35500000  0.49500000  0.79500000  1.0 0.0851049021
H  H17  1  0.89500000  0.89500000  0.75500000  1.0 0.0851049021
H  H18  1  0.49500000  0.79500000  0.35500000  1.0 0.0851049021
H  H19  1  0.79500000  0.49500000  0.35500000  1.0 0.0851049021
H  H20  1  0.35500000  0.35500000  0.79500000  1.0 0.0851049021
H  H21  1  0.45500000  0.75500000  0.89500000  1.0 0.0851049021
H  H22  1  0.35500000  0.35500000  0.49500000  1.0 0.0851049021
H  H23  1  0.75500000  0.45500000  0.89500000  1.0 0.0851049021
H  H24  1  0.89500000  0.89500000  0.45500000  1.0 0.0851049021
H  H25  1  0.63000000  0.94200000  0.94200000  1.0 0.0515823178
H  H26  1  0.76400000  0.30800000  0.62000000  1.0 0.0515823178
H  H27  1  0.48600000  0.94200000  0.94200000  1.0 0.0515823178
H  H28  1  0.94200000  0.63000000  0.94200000  1.0 0.0515823178
H  H29  1  0.94200000  0.63000000  0.48600000  1.0 0.0515823178
H  H30  1  0.62000000  0.30800000  0.76400000  1.0 0.0515823178
H  H31  1  0.76400000  0.30800000  0.30800000  1.0 0.0515823178
H  H32  1  0.30800000  0.76400000  0.30800000  1.0 0.0515823178
H  H33  1  0.94200000  0.48600000  0.63000000  1.0 0.0515823178
H  H34  1  0.63000000  0.94200000  0.48600000  1.0 0.0515823178
H  H35  1  0.30800000  0.62000000  0.30800000  1.0 0.0515823178
H  H36  1  0.30800000  0.76400000  0.62000000  1.0 0.0515823178
H  H37  1  0.48600000  0.94200000  0.63000000  1.0 0.0515823178
H  H38  1  0.62000000  0.30800000  0.30800000  1.0 0.0515823178
H  H39  1  0.94200000  0.48600000  0.94200000  1.0 0.0515823178
H  H40  1  0.30800000  0.62000000  0.76400000  1.0 0.0515823178
H  H41  1  0.94200000  0.94200000  0.63000000  1.0 0.0515823178
H  H42  1  0.62000000  0.76400000  0.30800000  1.0 0.0515823178
H  H43  1  0.76400000  0.62000000  0.30800000  1.0 0.0515823178
H  H44  1  0.30800000  0.30800000  0.76400000  1.0 0.0515823178
H  H45  1  0.48600000  0.63000000  0.94200000  1.0 0.0515823178
H  H46  1  0.30800000  0.30800000  0.62000000  1.0 0.0515823178
H  H47  1  0.63000000  0.48600000  0.94200000  1.0 0.0515823178
H  H48  1  0.94200000  0.94200000  0.48600000  1.0 0.0515823178
C  C1  1  0.54190000  0.01210000  0.01210000  1.0 0.0592661408
C  C2  1  0.81610000  0.23790000  0.70810000  1.0 0.0592661408
C  C3  1  0.43390000  0.01210000  0.01210000  1.0 0.0592661408
C  C4  1  0.01210000  0.54190000  0.01210000  1.0 0.0592661408
C  C5  1  0.01210000  0.54190000  0.43390000  1.0 0.0592661408
C  C6  1  0.70810000  0.23790000  0.81610000  1.0 0.0592661408
C  C7  1  0.81610000  0.23790000  0.23790000  1.0 0.0592661408
C  C8  1  0.23790000  0.81610000  0.23790000  1.0 0.0592661408
C  C9  1  0.01210000  0.43390000  0.54190000  1.0 0.0592661408
C  C10  1  0.54190000  0.01210000  0.43390000  1.0 0.0592661408
C  C11  1  0.23790000  0.70810000  0.23790000  1.0 0.0592661408
C  C12  1  0.23790000  0.81610000  0.70810000  1.0 0.0592661408
C  C13  1  0.43390000  0.01210000  0.54190000  1.0 0.0592661408
C  C14  1  0.70810000  0.23790000  0.23790000  1.0 0.0592661408
C  C15  1  0.01210000  0.43390000  0.01210000  1.0 0.0592661408
C  C16  1  0.23790000  0.70810000  0.81610000  1.0 0.0592661408
C  C17  1  0.01210000  0.01210000  0.54190000  1.0 0.0592661408
C  C18  1  0.70810000  0.81610000  0.23790000  1.0 0.0592661408
C  C19  1  0.81610000  0.70810000  0.23790000  1.0 0.0592661408
C  C20  1  0.23790000  0.23790000  0.81610000  1.0 0.0592661408
C  C21  1  0.43390000  0.54190000  0.01210000  1.0 0.0592661408
C  C22  1  0.23790000  0.23790000  0.70810000  1.0 0.0592661408
C  C23  1  0.54190000  0.43390000  0.01210000  1.0 0.0592661408
C  C24  1  0.01210000  0.01210000  0.43390000  1.0 0.0592661408
C  C25  1  0.66590000  0.93670000  0.93670000  1.0 -0.1215870261
C  C26  1  0.78930000  0.31330000  0.58410000  1.0 -0.1215870261
C  C27  1  0.46070000  0.93670000  0.93670000  1.0 -0.1215870261
C  C28  1  0.93670000  0.66590000  0.93670000  1.0 -0.1215870261
C  C29  1  0.93670000  0.66590000  0.46070000  1.0 -0.1215870261
C  C30  1  0.58410000  0.31330000  0.78930000  1.0 -0.1215870261
C  C31  1  0.78930000  0.31330000  0.31330000  1.0 -0.1215870261
C  C32  1  0.31330000  0.78930000  0.31330000  1.0 -0.1215870261
C  C33  1  0.93670000  0.46070000  0.66590000  1.0 -0.1215870261
C  C34  1  0.66590000  0.93670000  0.46070000  1.0 -0.1215870261
C  C35  1  0.31330000  0.58410000  0.31330000  1.0 -0.1215870261
C  C36  1  0.31330000  0.78930000  0.58410000  1.0 -0.1215870261
C  C37  1  0.46070000  0.93670000  0.66590000  1.0 -0.1215870261
C  C38  1  0.58410000  0.31330000  0.31330000  1.0 -0.1215870261
C  C39  1  0.93670000  0.46070000  0.93670000  1.0 -0.1215870261
C  C40  1  0.31330000  0.58410000  0.78930000  1.0 -0.1215870261
C  C41  1  0.93670000  0.93670000  0.66590000  1.0 -0.1215870261
C  C42  1  0.58410000  0.78930000  0.31330000  1.0 -0.1215870261
C  C43  1  0.78930000  0.58410000  0.31330000  1.0 -0.1215870261
C  C44  1  0.31330000  0.31330000  0.78930000  1.0 -0.1215870261
C  C45  1  0.46070000  0.66590000  0.93670000  1.0 -0.1215870261
C  C46  1  0.31330000  0.31330000  0.58410000  1.0 -0.1215870261
C  C47  1  0.66590000  0.46070000  0.93670000  1.0 -0.1215870261
C  C48  1  0.93670000  0.93670000  0.46070000  1.0 -0.1215870261
N  N1  1  0.37290000  0.12710000  0.12710000  1.0 -0.0425149719
N  N2  1  0.87710000  0.12290000  0.87710000  1.0 -0.0425149719
N  N3  1  0.12710000  0.37290000  0.12710000  1.0 -0.0425149719
N  N4  1  0.12710000  0.37290000  0.37290000  1.0 -0.0425149719
N  N5  1  0.87710000  0.12290000  0.12290000  1.0 -0.0425149719
N  N6  1  0.12290000  0.87710000  0.12290000  1.0 -0.0425149719
N  N7  1  0.37290000  0.12710000  0.37290000  1.0 -0.0425149719
N  N8  1  0.12290000  0.87710000  0.87710000  1.0 -0.0425149719
N  N9  1  0.12710000  0.12710000  0.37290000  1.0 -0.0425149719
N  N10  1  0.87710000  0.87710000  0.12290000  1.0 -0.0425149719
N  N11  1  0.12290000  0.12290000  0.87710000  1.0 -0.0425149719
N  N12  1  0.37290000  0.37290000  0.12710000  1.0 -0.0425149719
N  N13  1  0.50280000  0.08340000  0.08340000  1.0 -0.1830236997
N  N14  1  0.91960000  0.16660000  0.74720000  1.0 -0.1830236997
N  N15  1  0.33040000  0.08340000  0.08340000  1.0 -0.1830236997
N  N16  1  0.08340000  0.50280000  0.08340000  1.0 -0.1830236997
N  N17  1  0.08340000  0.50280000  0.33040000  1.0 -0.1830236997
N  N18  1  0.74720000  0.16660000  0.91960000  1.0 -0.1830236997
N  N19  1  0.91960000  0.16660000  0.16660000  1.0 -0.1830236997
N  N20  1  0.16660000  0.91960000  0.16660000  1.0 -0.1830236997
N  N21  1  0.08340000  0.33040000  0.50280000  1.0 -0.1830236997
N  N22  1  0.50280000  0.08340000  0.33040000  1.0 -0.1830236997
N  N23  1  0.16660000  0.74720000  0.16660000  1.0 -0.1830236997
N  N24  1  0.16660000  0.91960000  0.74720000  1.0 -0.1830236997
N  N25  1  0.33040000  0.08340000  0.50280000  1.0 -0.1830236997
N  N26  1  0.74720000  0.16660000  0.16660000  1.0 -0.1830236997
N  N27  1  0.08340000  0.33040000  0.08340000  1.0 -0.1830236997
N  N28  1  0.16660000  0.74720000  0.91960000  1.0 -0.1830236997
N  N29  1  0.08340000  0.08340000  0.50280000  1.0 -0.1830236997
N  N30  1  0.74720000  0.91960000  0.16660000  1.0 -0.1830236997
N  N31  1  0.91960000  0.74720000  0.16660000  1.0 -0.1830236997
N  N32  1  0.16660000  0.16660000  0.91960000  1.0 -0.1830236997
N  N33  1  0.33040000  0.50280000  0.08340000  1.0 -0.1830236997
N  N34  1  0.16660000  0.16660000  0.74720000  1.0 -0.1830236997
N  N35  1  0.50280000  0.33040000  0.08340000  1.0 -0.1830236997
N  N36  1  0.08340000  0.08340000  0.33040000  1.0 -0.1830236997
