# DDEC6 charges by PACMAN v1.1 (https://github.com/mtap-research/PACMAN-charge/)
data_WAQTEQ_ASR_pacman
_symmetry_space_group_name_H-M   'P 1'
_cell_length_a   17.77850000
_cell_length_b   17.77850000
_cell_length_c   17.77850000
_cell_angle_alpha   77.13710000
_cell_angle_beta   77.13710000
_cell_angle_gamma   77.13710000
_symmetry_Int_Tables_number   1
_chemical_formula_structural   Zn2H6C12(NO2)3
_chemical_formula_sum   'Zn12 H36 C72 N18 O36'
_cell_volume   5251.56787823
_cell_formula_units_Z   6
loop_
 _symmetry_equiv_pos_site_id
 _symmetry_equiv_pos_as_xyz
  1  'x, y, z'
loop_
 _atom_site_type_symbol
 _atom_site_label
 _atom_site_symmetry_multiplicity
 _atom_site_fract_x
 _atom_site_fract_y
 _atom_site_fract_z
 _atom_site_occupancy
 _atom_site_charge
Zn  Zn1  1  0.49371000  0.03396000  0.33399000  1.0 0.8985376588
Zn  Zn2  1  0.03396000  0.33399000  0.49371000  1.0 0.8985376588
Zn  Zn3  1  0.33399000  0.49371000  0.03396000  1.0 0.8985376588
Zn  Zn4  1  0.50629000  0.96604000  0.66601000  1.0 0.8985376588
Zn  Zn5  1  0.96604000  0.66601000  0.50629000  1.0 0.8985376588
Zn  Zn6  1  0.66601000  0.50629000  0.96604000  1.0 0.8985376588
Zn  Zn7  1  0.58585000  0.01771000  0.46833000  1.0 0.9067858389
Zn  Zn8  1  0.01771000  0.46833000  0.58585000  1.0 0.9067858389
Zn  Zn9  1  0.46833000  0.58585000  0.01771000  1.0 0.9067858389
Zn  Zn10  1  0.41415000  0.98229000  0.53167000  1.0 0.9067858389
Zn  Zn11  1  0.98229000  0.53167000  0.41415000  1.0 0.9067858389
Zn  Zn12  1  0.53167000  0.41415000  0.98229000  1.0 0.9067858389
H  H1  1  0.46080000  0.11160000  0.44680000  1.0 0.4199081789
H  H2  1  0.11160000  0.44680000  0.46080000  1.0 0.4199081789
H  H3  1  0.44680000  0.46080000  0.11160000  1.0 0.4199081789
H  H4  1  0.53920000  0.88840000  0.55320000  1.0 0.4199081789
H  H5  1  0.88840000  0.55320000  0.53920000  1.0 0.4199081789
H  H6  1  0.55320000  0.53920000  0.88840000  1.0 0.4199081789
H  H7  1  0.80710000  0.65510000  0.27200000  1.0 0.1387795151
H  H8  1  0.65510000  0.27200000  0.80710000  1.0 0.1387795151
H  H9  1  0.27200000  0.80710000  0.65510000  1.0 0.1387795151
H  H10  1  0.19290000  0.34490000  0.72800000  1.0 0.1387795151
H  H11  1  0.34490000  0.72800000  0.19290000  1.0 0.1387795151
H  H12  1  0.72800000  0.19290000  0.34490000  1.0 0.1387795151
H  H13  1  0.76480000  0.81540000  0.40960000  1.0 0.1246306939
H  H14  1  0.81540000  0.40960000  0.76480000  1.0 0.1246306939
H  H15  1  0.40960000  0.76480000  0.81540000  1.0 0.1246306939
H  H16  1  0.23520000  0.18460000  0.59040000  1.0 0.1246306939
H  H17  1  0.18460000  0.59040000  0.23520000  1.0 0.1246306939
H  H18  1  0.59040000  0.23520000  0.18460000  1.0 0.1246306939
H  H19  1  0.62850000  0.83530000  0.25120000  1.0 0.1387795151
H  H20  1  0.83530000  0.25120000  0.62850000  1.0 0.1387795151
H  H21  1  0.25120000  0.62850000  0.83530000  1.0 0.1387795151
H  H22  1  0.37150000  0.16470000  0.74880000  1.0 0.1387795151
H  H23  1  0.16470000  0.74880000  0.37150000  1.0 0.1387795151
H  H24  1  0.74880000  0.37150000  0.16470000  1.0 0.1387795151
H  H25  1  0.72080000  0.61060000  0.07340000  1.0 0.1325390668
H  H26  1  0.61060000  0.07340000  0.72080000  1.0 0.1325390668
H  H27  1  0.07340000  0.72080000  0.61060000  1.0 0.1325390668
H  H28  1  0.27920000  0.38940000  0.92660000  1.0 0.1387795151
H  H29  1  0.38940000  0.92660000  0.27920000  1.0 0.1387795151
H  H30  1  0.92660000  0.27920000  0.38940000  1.0 0.1387795151
H  H31  1  0.49390000  0.69800000  0.12560000  1.0 0.1325390668
H  H32  1  0.69800000  0.12560000  0.49390000  1.0 0.1325390668
H  H33  1  0.12560000  0.49390000  0.69800000  1.0 0.1325390668
H  H34  1  0.50610000  0.30200000  0.87440000  1.0 0.1325390668
H  H35  1  0.30200000  0.87440000  0.50610000  1.0 0.1325390668
H  H36  1  0.87440000  0.50610000  0.30200000  1.0 0.1325390668
C  C1  1  0.86544000  0.68328000  0.38489000  1.0 0.5986858488
C  C2  1  0.68328000  0.38489000  0.86544000  1.0 0.5986858488
C  C3  1  0.38489000  0.86544000  0.68328000  1.0 0.5986858488
C  C4  1  0.13456000  0.31672000  0.61511000  1.0 0.5986858488
C  C5  1  0.31672000  0.61511000  0.13456000  1.0 0.5986858488
C  C6  1  0.61511000  0.13456000  0.31672000  1.0 0.5986858488
C  C7  1  0.79717000  0.72840000  0.34630000  1.0 -0.0099815072
C  C8  1  0.72840000  0.34630000  0.79717000  1.0 -0.0099815072
C  C9  1  0.34630000  0.79717000  0.72840000  1.0 -0.0099815072
C  C10  1  0.20283000  0.27160000  0.65370000  1.0 -0.0099815072
C  C11  1  0.27160000  0.65370000  0.20283000  1.0 -0.0193637361
C  C12  1  0.65370000  0.20283000  0.27160000  1.0 -0.0193637361
C  C13  1  0.77695000  0.70049000  0.28844000  1.0 -0.12879045
C  C14  1  0.70049000  0.28844000  0.77695000  1.0 -0.12879045
C  C15  1  0.28844000  0.77695000  0.70049000  1.0 -0.12879045
C  C16  1  0.22305000  0.29951000  0.71156000  1.0 -0.12879045
C  C17  1  0.29951000  0.71156000  0.22305000  1.0 -0.12879045
C  C18  1  0.71156000  0.22305000  0.29951000  1.0 -0.12879045
C  C19  1  0.63691000  0.90903000  0.36208000  1.0 0.5986858488
C  C20  1  0.90903000  0.36208000  0.63691000  1.0 0.5986858488
C  C21  1  0.36208000  0.63691000  0.90903000  1.0 0.5986858488
C  C22  1  0.36309000  0.09097000  0.63792000  1.0 0.5986858488
C  C23  1  0.09097000  0.63792000  0.36309000  1.0 0.5986858488
C  C24  1  0.63792000  0.36309000  0.09097000  1.0 0.5986858488
C  C25  1  0.68890000  0.83681000  0.33545000  1.0 -0.0193637361
C  C26  1  0.83681000  0.33545000  0.68890000  1.0 -0.0193637361
C  C27  1  0.33545000  0.68890000  0.83681000  1.0 -0.0193637361
C  C28  1  0.31110000  0.16319000  0.66455000  1.0 -0.0193637361
C  C29  1  0.16319000  0.66455000  0.31110000  1.0 -0.0193637361
C  C30  1  0.66455000  0.31110000  0.16319000  1.0 -0.0193637361
C  C31  1  0.75213000  0.79668000  0.37007000  1.0 -0.0908197022
C  C32  1  0.79668000  0.37007000  0.75213000  1.0 -0.0908197022
C  C33  1  0.37007000  0.75213000  0.79668000  1.0 -0.0908197022
C  C34  1  0.24787000  0.20332000  0.62993000  1.0 -0.0908197022
C  C35  1  0.20332000  0.62993000  0.24787000  1.0 -0.0908197022
C  C36  1  0.62993000  0.24787000  0.20332000  1.0 -0.0908197022
C  C37  1  0.66996000  0.80776000  0.27592000  1.0 -0.1404047602
C  C38  1  0.80776000  0.27592000  0.66996000  1.0 -0.1404047602
C  C39  1  0.27592000  0.66996000  0.80776000  1.0 -0.1404047602
C  C40  1  0.33004000  0.19224000  0.72408000  1.0 -0.1404047602
C  C41  1  0.19224000  0.72408000  0.33004000  1.0 -0.1404047602
C  C42  1  0.72408000  0.33004000  0.19224000  1.0 -0.1404047602
C  C43  1  0.71239000  0.73883000  0.25418000  1.0 0.2259872214
C  C44  1  0.73883000  0.25418000  0.71239000  1.0 0.2259872214
C  C45  1  0.25418000  0.71239000  0.73883000  1.0 0.2259872214
C  C46  1  0.28761000  0.26117000  0.74582000  1.0 0.2259872214
C  C47  1  0.26117000  0.74582000  0.28761000  1.0 0.2259872214
C  C48  1  0.74582000  0.28761000  0.26117000  1.0 0.2259872214
C  C49  1  0.62238000  0.71859000  0.17504000  1.0 0.4473497352
C  C50  1  0.71859000  0.17504000  0.62238000  1.0 0.4473497352
C  C51  1  0.17504000  0.62238000  0.71859000  1.0 0.4473497352
C  C52  1  0.37762000  0.28141000  0.82496000  1.0 0.4473497352
C  C53  1  0.28141000  0.82496000  0.37762000  1.0 0.4473497352
C  C54  1  0.82496000  0.37762000  0.28141000  1.0 0.4473497352
C  C55  1  0.61422000  0.67163000  0.12093000  1.0 -0.0997941724
C  C56  1  0.67163000  0.12093000  0.61422000  1.0 -0.0997941724
C  C57  1  0.12093000  0.61422000  0.67163000  1.0 -0.0997941724
C  C58  1  0.38578000  0.32837000  0.87907000  1.0 -0.0997941724
C  C59  1  0.32837000  0.87907000  0.38578000  1.0 -0.0997941724
C  C60  1  0.87907000  0.38578000  0.32837000  1.0 -0.0997941724
C  C61  1  0.66666667  0.62138000  0.07599000  1.0 -0.0099815072
C  C62  1  0.62138000  0.07599000  0.66666667  1.0 -0.0099815072
C  C63  1  0.07599000  0.66666667  0.62138000  1.0 -0.0099815072
C  C64  1  0.33333333  0.37862000  0.92401000  1.0 -0.0099815072
C  C65  1  0.37862000  0.92401000  0.33333333  1.0 -0.0099815072
C  C66  1  0.92401000  0.33333333  0.37862000  1.0 -0.0099815072
C  C67  1  0.54148000  0.66938000  0.10484000  1.0 0.0100864453
C  C68  1  0.66938000  0.10484000  0.54148000  1.0 0.0100864453
C  C69  1  0.10484000  0.54148000  0.66938000  1.0 0.0100864453
C  C70  1  0.45852000  0.33062000  0.89516000  1.0 0.0100864453
C  C71  1  0.33062000  0.89516000  0.45852000  1.0 0.0100864453
C  C72  1  0.89516000  0.45852000  0.33062000  1.0 0.0100864453
N  N1  1  0.54996000  0.62081000  0.05595000  1.0 -0.1800739362
N  N2  1  0.62081000  0.05595000  0.54996000  1.0 -0.1800739362
N  N3  1  0.05595000  0.54996000  0.62081000  1.0 -0.1800739362
N  N4  1  0.45004000  0.37919000  0.94405000  1.0 -0.1800739362
N  N5  1  0.37919000  0.94405000  0.45004000  1.0 -0.1800739362
N  N6  1  0.94405000  0.45004000  0.37919000  1.0 -0.1800739362
N  N7  1  0.69492000  0.70464000  0.19622000  1.0 -0.4306451052
N  N8  1  0.70464000  0.19622000  0.69492000  1.0 -0.4306451052
N  N9  1  0.19622000  0.69492000  0.70464000  1.0 -0.4306451052
N  N10  1  0.30508000  0.29536000  0.80378000  1.0 -0.4306451052
N  N11  1  0.29536000  0.80378000  0.30508000  1.0 -0.4306451052
N  N12  1  0.80378000  0.30508000  0.29536000  1.0 -0.4306451052
N  N13  1  0.62853000  0.59052000  0.03689000  1.0 -0.2089085052
N  N14  1  0.59052000  0.03689000  0.62853000  1.0 -0.2089085052
N  N15  1  0.03689000  0.62853000  0.59052000  1.0 -0.2089085052
N  N16  1  0.37147000  0.40948000  0.96311000  1.0 -0.2089085052
N  N17  1  0.40948000  0.96311000  0.37147000  1.0 -0.2089085052
N  N18  1  0.96311000  0.37147000  0.40948000  1.0 -0.2089085052
O  O1  1  0.89954000  0.62048000  0.36331000  1.0 -0.5389728019
O  O2  1  0.62048000  0.36331000  0.89954000  1.0 -0.5389728019
O  O3  1  0.36331000  0.89954000  0.62048000  1.0 -0.5389728019
O  O4  1  0.10046000  0.37952000  0.63669000  1.0 -0.5389728019
O  O5  1  0.37952000  0.63669000  0.10046000  1.0 -0.5389728019
O  O6  1  0.63669000  0.10046000  0.37952000  1.0 -0.5389728019
O  O7  1  0.88109000  0.71217000  0.43725000  1.0 -0.557546394
O  O8  1  0.71217000  0.43725000  0.88109000  1.0 -0.557546394
O  O9  1  0.43725000  0.88109000  0.71217000  1.0 -0.557546394
O  O10  1  0.11891000  0.28783000  0.56275000  1.0 -0.557546394
O  O11  1  0.28783000  0.56275000  0.11891000  1.0 -0.557546394
O  O12  1  0.56275000  0.11891000  0.28783000  1.0 -0.557546394
O  O13  1  0.65229000  0.92820000  0.42056000  1.0 -0.5312372912
O  O14  1  0.92820000  0.42056000  0.65229000  1.0 -0.5312372912
O  O15  1  0.42056000  0.65229000  0.92820000  1.0 -0.5312372912
O  O16  1  0.34771000  0.07180000  0.57944000  1.0 -0.5312372912
O  O17  1  0.07180000  0.57944000  0.34771000  1.0 -0.5312372912
O  O18  1  0.57944000  0.34771000  0.07180000  1.0 -0.5312372912
O  O19  1  0.58405000  0.94331000  0.32459000  1.0 -0.5312372912
O  O20  1  0.94331000  0.32459000  0.58405000  1.0 -0.5246212949
O  O21  1  0.32459000  0.58405000  0.94331000  1.0 -0.5312372912
O  O22  1  0.41595000  0.05669000  0.67541000  1.0 -0.5246212949
O  O23  1  0.05669000  0.67541000  0.41595000  1.0 -0.5246212949
O  O24  1  0.67541000  0.41595000  0.05669000  1.0 -0.5312372912
O  O25  1  0.56810000  0.76631000  0.20146000  1.0 -0.4501675188
O  O26  1  0.76631000  0.20146000  0.56810000  1.0 -0.4501675188
O  O27  1  0.20146000  0.56810000  0.76631000  1.0 -0.4501675188
O  O28  1  0.43190000  0.23369000  0.79854000  1.0 -0.4501675188
O  O29  1  0.23369000  0.79854000  0.43190000  1.0 -0.4501675188
O  O30  1  0.79854000  0.43190000  0.23369000  1.0 -0.4501675188
O  O31  1  0.47748000  0.05828000  0.44183000  1.0 -0.8486707676
O  O32  1  0.05828000  0.44183000  0.47748000  1.0 -0.8486707676
O  O33  1  0.44183000  0.47748000  0.05828000  1.0 -0.8486707676
O  O34  1  0.52252000  0.94172000  0.55817000  1.0 -0.8486707676
O  O35  1  0.94172000  0.55817000  0.52252000  1.0 -0.8486707676
O  O36  1  0.55817000  0.52252000  0.94172000  1.0 -0.8486707676
