# DDEC6 charges by PACMAN v1.1 (https://github.com/mtap-research/PACMAN-charge/)
data_WARFAY02_ASR_pacman
_symmetry_space_group_name_H-M   'P 1'
_cell_length_a   14.89200000
_cell_length_b   14.89200000
_cell_length_c   19.15570000
_cell_angle_alpha   90.00000000
_cell_angle_beta   90.00000000
_cell_angle_gamma   90.00000000
_symmetry_Int_Tables_number   1
_chemical_formula_structural   ZnH20C16NO4
_chemical_formula_sum   'Zn8 H160 C128 N8 O32'
_cell_volume   4248.19146408
_cell_formula_units_Z   8
loop_
 _symmetry_equiv_pos_site_id
 _symmetry_equiv_pos_as_xyz
  1  'x, y, z'
loop_
 _atom_site_type_symbol
 _atom_site_label
 _atom_site_symmetry_multiplicity
 _atom_site_fract_x
 _atom_site_fract_y
 _atom_site_fract_z
 _atom_site_occupancy
 _atom_site_charge
Zn  Zn1  1  0.50000000  0.00000000  0.33862000  1.0 0.6735537312
Zn  Zn2  1  0.00000000  0.50000000  0.16138000  1.0 0.6735537312
Zn  Zn3  1  0.00000000  0.50000000  0.66138000  1.0 0.6754895282
Zn  Zn4  1  0.50000000  0.00000000  0.83862000  1.0 0.6735537312
Zn  Zn5  1  0.50000000  0.00000000  0.18556000  1.0 0.6735537312
Zn  Zn6  1  0.00000000  0.50000000  0.31444000  1.0 0.6735537312
Zn  Zn7  1  0.00000000  0.50000000  0.81444000  1.0 0.6735537312
Zn  Zn8  1  0.50000000  0.00000000  0.68556000  1.0 0.6735537312
H  H1  1  0.24740000  0.84860000  0.36020000  1.0 0.1315515173
H  H2  1  0.75260000  0.15140000  0.36020000  1.0 0.1315515173
H  H3  1  0.65140000  0.74740000  0.36020000  1.0 0.1315515173
H  H4  1  0.34860000  0.25260000  0.36020000  1.0 0.1315515173
H  H5  1  0.25260000  0.34860000  0.13980000  1.0 0.1315515173
H  H6  1  0.74740000  0.65140000  0.13980000  1.0 0.1315515173
H  H7  1  0.84860000  0.24740000  0.13980000  1.0 0.1315515173
H  H8  1  0.15140000  0.75260000  0.13980000  1.0 0.1315515173
H  H9  1  0.25260000  0.65140000  0.63980000  1.0 0.1315515173
H  H10  1  0.74740000  0.34860000  0.63980000  1.0 0.1315515173
H  H11  1  0.84860000  0.75260000  0.63980000  1.0 0.1315515173
H  H12  1  0.15140000  0.24740000  0.63980000  1.0 0.1315515173
H  H13  1  0.24740000  0.15140000  0.86020000  1.0 0.1315515173
H  H14  1  0.75260000  0.84860000  0.86020000  1.0 0.1315515173
H  H15  1  0.65140000  0.25260000  0.86020000  1.0 0.1315515173
H  H16  1  0.34860000  0.74740000  0.86020000  1.0 0.1315515173
H  H17  1  0.25990000  0.86530000  0.14910000  1.0 0.1315515173
H  H18  1  0.74010000  0.13470000  0.14910000  1.0 0.1315515173
H  H19  1  0.63470000  0.75990000  0.14910000  1.0 0.1315515173
H  H20  1  0.36530000  0.24010000  0.14910000  1.0 0.1315515173
H  H21  1  0.24010000  0.36530000  0.35090000  1.0 0.1315515173
H  H22  1  0.75990000  0.63470000  0.35090000  1.0 0.1315515173
H  H23  1  0.86530000  0.25990000  0.35090000  1.0 0.1315515173
H  H24  1  0.13470000  0.74010000  0.35090000  1.0 0.1315515173
H  H25  1  0.24010000  0.63470000  0.85090000  1.0 0.1315515173
H  H26  1  0.75990000  0.36530000  0.85090000  1.0 0.1315515173
H  H27  1  0.86530000  0.74010000  0.85090000  1.0 0.1315515173
H  H28  1  0.13470000  0.25990000  0.85090000  1.0 0.1315515173
H  H29  1  0.25990000  0.13470000  0.64910000  1.0 0.1315515173
H  H30  1  0.74010000  0.86530000  0.64910000  1.0 0.1315515173
H  H31  1  0.63470000  0.24010000  0.64910000  1.0 0.1315515173
H  H32  1  0.36530000  0.75990000  0.64910000  1.0 0.1315515173
H  H33  1  0.47920000  0.86640000  0.45470000  1.0 0.0885445772
H  H34  1  0.52080000  0.13360000  0.45470000  1.0 0.0885445772
H  H35  1  0.63360000  0.97920000  0.45470000  1.0 0.0885445772
H  H36  1  0.36640000  0.02080000  0.45470000  1.0 0.0885445772
H  H37  1  0.02080000  0.36640000  0.04530000  1.0 0.0885445772
H  H38  1  0.97920000  0.63360000  0.04530000  1.0 0.0885445772
H  H39  1  0.86640000  0.47920000  0.04530000  1.0 0.0885445772
H  H40  1  0.13360000  0.52080000  0.04530000  1.0 0.0885445772
H  H41  1  0.02080000  0.63360000  0.54530000  1.0 0.0885445772
H  H42  1  0.97920000  0.36640000  0.54530000  1.0 0.0885445772
H  H43  1  0.86640000  0.52080000  0.54530000  1.0 0.0885445772
H  H44  1  0.13360000  0.47920000  0.54530000  1.0 0.0885445772
H  H45  1  0.47920000  0.13360000  0.95470000  1.0 0.0885445772
H  H46  1  0.52080000  0.86640000  0.95470000  1.0 0.0885445772
H  H47  1  0.63360000  0.02080000  0.95470000  1.0 0.0885445772
H  H48  1  0.36640000  0.97920000  0.95470000  1.0 0.0885445772
H  H49  1  0.38810000  0.92380000  0.45310000  1.0 0.0844312167
H  H50  1  0.61190000  0.07620000  0.45310000  1.0 0.0844312167
H  H51  1  0.57620000  0.88810000  0.45310000  1.0 0.0844312167
H  H52  1  0.42380000  0.11190000  0.45310000  1.0 0.0844312167
H  H53  1  0.11190000  0.42380000  0.04690000  1.0 0.0844312167
H  H54  1  0.88810000  0.57620000  0.04690000  1.0 0.0844312167
H  H55  1  0.92380000  0.38810000  0.04690000  1.0 0.0844312167
H  H56  1  0.07620000  0.61190000  0.04690000  1.0 0.0844312167
H  H57  1  0.11190000  0.57620000  0.54690000  1.0 0.0844312167
H  H58  1  0.88810000  0.42380000  0.54690000  1.0 0.0844312167
H  H59  1  0.92380000  0.61190000  0.54690000  1.0 0.0844312167
H  H60  1  0.07620000  0.38810000  0.54690000  1.0 0.0844312167
H  H61  1  0.38810000  0.07620000  0.95310000  1.0 0.0844312167
H  H62  1  0.61190000  0.92380000  0.95310000  1.0 0.0844312167
H  H63  1  0.57620000  0.11190000  0.95310000  1.0 0.0844312167
H  H64  1  0.42380000  0.88810000  0.95310000  1.0 0.0844312167
H  H65  1  0.39460000  0.92130000  0.45850000  1.0 0.0885445772
H  H66  1  0.60540000  0.07870000  0.45850000  1.0 0.0885445772
H  H67  1  0.57870000  0.89460000  0.45850000  1.0 0.0885445772
H  H68  1  0.42130000  0.10540000  0.45850000  1.0 0.0885445772
H  H69  1  0.10540000  0.42130000  0.04150000  1.0 0.0885445772
H  H70  1  0.89460000  0.57870000  0.04150000  1.0 0.0885445772
H  H71  1  0.92130000  0.39460000  0.04150000  1.0 0.0885445772
H  H72  1  0.07870000  0.60540000  0.04150000  1.0 0.0885445772
H  H73  1  0.10540000  0.57870000  0.54150000  1.0 0.0885445772
H  H74  1  0.89460000  0.42130000  0.54150000  1.0 0.0885445772
H  H75  1  0.92130000  0.60540000  0.54150000  1.0 0.0885445772
H  H76  1  0.07870000  0.39460000  0.54150000  1.0 0.0885445772
H  H77  1  0.39460000  0.07870000  0.95850000  1.0 0.0885445772
H  H78  1  0.60540000  0.92130000  0.95850000  1.0 0.0885445772
H  H79  1  0.57870000  0.10540000  0.95850000  1.0 0.0885445772
H  H80  1  0.42130000  0.89460000  0.95850000  1.0 0.0885445772
H  H81  1  0.37040000  0.02580000  0.45450000  1.0 0.0885445772
H  H82  1  0.62960000  0.97420000  0.45450000  1.0 0.0885445772
H  H83  1  0.47420000  0.87040000  0.45450000  1.0 0.0885445772
H  H84  1  0.52580000  0.12960000  0.45450000  1.0 0.0885445772
H  H85  1  0.12960000  0.52580000  0.04550000  1.0 0.0885445772
H  H86  1  0.87040000  0.47420000  0.04550000  1.0 0.0885445772
H  H87  1  0.02580000  0.37040000  0.04550000  1.0 0.0885445772
H  H88  1  0.97420000  0.62960000  0.04550000  1.0 0.0885445772
H  H89  1  0.12960000  0.47420000  0.54550000  1.0 0.0885445772
H  H90  1  0.87040000  0.52580000  0.54550000  1.0 0.0885445772
H  H91  1  0.02580000  0.62960000  0.54550000  1.0 0.0885445772
H  H92  1  0.97420000  0.37040000  0.54550000  1.0 0.0885445772
H  H93  1  0.37040000  0.97420000  0.95450000  1.0 0.0885445772
H  H94  1  0.62960000  0.02580000  0.95450000  1.0 0.0885445772
H  H95  1  0.47420000  0.12960000  0.95450000  1.0 0.0885445772
H  H96  1  0.52580000  0.87040000  0.95450000  1.0 0.0885445772
H  H97  1  0.47440000  0.86640000  0.56880000  1.0 0.0844312167
H  H98  1  0.52560000  0.13360000  0.56880000  1.0 0.0885445772
H  H99  1  0.63360000  0.97440000  0.56880000  1.0 0.0885445772
H  H100  1  0.36640000  0.02560000  0.56880000  1.0 0.0844312167
H  H101  1  0.02560000  0.36640000  0.93120000  1.0 0.0885445772
H  H102  1  0.97440000  0.63360000  0.93120000  1.0 0.0885445772
H  H103  1  0.86640000  0.47440000  0.93120000  1.0 0.0885445772
H  H104  1  0.13360000  0.52560000  0.93120000  1.0 0.0885445772
H  H105  1  0.02560000  0.63360000  0.43120000  1.0 0.0844312167
H  H106  1  0.97440000  0.36640000  0.43120000  1.0 0.0885445772
H  H107  1  0.86640000  0.52560000  0.43120000  1.0 0.0885445772
H  H108  1  0.13360000  0.47440000  0.43120000  1.0 0.0844312167
H  H109  1  0.47440000  0.13360000  0.06880000  1.0 0.0885445772
H  H110  1  0.52560000  0.86640000  0.06880000  1.0 0.0844312167
H  H111  1  0.63360000  0.02560000  0.06880000  1.0 0.0844312167
H  H112  1  0.36640000  0.97440000  0.06880000  1.0 0.0844312167
H  H113  1  0.38550000  0.92700000  0.56720000  1.0 0.0844312167
H  H114  1  0.61450000  0.07300000  0.56720000  1.0 0.0844312167
H  H115  1  0.57300000  0.88550000  0.56720000  1.0 0.0844312167
H  H116  1  0.42700000  0.11450000  0.56720000  1.0 0.0844312167
H  H117  1  0.11450000  0.42700000  0.93280000  1.0 0.0844312167
H  H118  1  0.88550000  0.57300000  0.93280000  1.0 0.0844312167
H  H119  1  0.92700000  0.38550000  0.93280000  1.0 0.0844312167
H  H120  1  0.07300000  0.61450000  0.93280000  1.0 0.0844312167
H  H121  1  0.11450000  0.57300000  0.43280000  1.0 0.0844312167
H  H122  1  0.88550000  0.42700000  0.43280000  1.0 0.0844312167
H  H123  1  0.92700000  0.61450000  0.43280000  1.0 0.0844312167
H  H124  1  0.07300000  0.38550000  0.43280000  1.0 0.0844312167
H  H125  1  0.38550000  0.07300000  0.06720000  1.0 0.0844312167
H  H126  1  0.61450000  0.92700000  0.06720000  1.0 0.0844312167
H  H127  1  0.57300000  0.11450000  0.06720000  1.0 0.0844312167
H  H128  1  0.42700000  0.88550000  0.06720000  1.0 0.0844312167
H  H129  1  0.56990000  0.88750000  0.57080000  1.0 0.0844312167
H  H130  1  0.43010000  0.11250000  0.57080000  1.0 0.0844312167
H  H131  1  0.61250000  0.06990000  0.57080000  1.0 0.0844312167
H  H132  1  0.38750000  0.93010000  0.57080000  1.0 0.0885445772
H  H133  1  0.93010000  0.38750000  0.92920000  1.0 0.0885445772
H  H134  1  0.06990000  0.61250000  0.92920000  1.0 0.0844312167
H  H135  1  0.88750000  0.56990000  0.92920000  1.0 0.0885445772
H  H136  1  0.11250000  0.43010000  0.92920000  1.0 0.0885445772
H  H137  1  0.93010000  0.61250000  0.42920000  1.0 0.0885445772
H  H138  1  0.06990000  0.38750000  0.42920000  1.0 0.0844312167
H  H139  1  0.88750000  0.43010000  0.42920000  1.0 0.0885445772
H  H140  1  0.11250000  0.56990000  0.42920000  1.0 0.0844312167
H  H141  1  0.56990000  0.11250000  0.07080000  1.0 0.0844312167
H  H142  1  0.43010000  0.88750000  0.07080000  1.0 0.0844312167
H  H143  1  0.61250000  0.93010000  0.07080000  1.0 0.0844312167
H  H144  1  0.38750000  0.06990000  0.07080000  1.0 0.0844312167
H  H145  1  0.46330000  0.87330000  0.56670000  1.0 0.0885445772
H  H146  1  0.53670000  0.12670000  0.56670000  1.0 0.0885445772
H  H147  1  0.62670000  0.96330000  0.56670000  1.0 0.0885445772
H  H148  1  0.37330000  0.03670000  0.56670000  1.0 0.0885445772
H  H149  1  0.03670000  0.37330000  0.93330000  1.0 0.0885445772
H  H150  1  0.96330000  0.62670000  0.93330000  1.0 0.0885445772
H  H151  1  0.87330000  0.46330000  0.93330000  1.0 0.0885445772
H  H152  1  0.12670000  0.53670000  0.93330000  1.0 0.0885445772
H  H153  1  0.03670000  0.62670000  0.43330000  1.0 0.0885445772
H  H154  1  0.96330000  0.37330000  0.43330000  1.0 0.0885445772
H  H155  1  0.87330000  0.53670000  0.43330000  1.0 0.0885445772
H  H156  1  0.12670000  0.46330000  0.43330000  1.0 0.0885445772
H  H157  1  0.46330000  0.12670000  0.06670000  1.0 0.0885445772
H  H158  1  0.53670000  0.87330000  0.06670000  1.0 0.0885445772
H  H159  1  0.62670000  0.03670000  0.06670000  1.0 0.0885445772
H  H160  1  0.37330000  0.96330000  0.06670000  1.0 0.0885445772
C  C1  1  0.34540000  0.92740000  0.26092000  1.0 0.4567906273
C  C2  1  0.65460000  0.07260000  0.26092000  1.0 0.4567906273
C  C3  1  0.57260000  0.84540000  0.26092000  1.0 0.4549541605
C  C4  1  0.42740000  0.15460000  0.26092000  1.0 0.4567906273
C  C5  1  0.15460000  0.42740000  0.23908000  1.0 0.4567906273
C  C6  1  0.84540000  0.57260000  0.23908000  1.0 0.4567906273
C  C7  1  0.92740000  0.34540000  0.23908000  1.0 0.4567906273
C  C8  1  0.07260000  0.65460000  0.23908000  1.0 0.4567906273
C  C9  1  0.15460000  0.57260000  0.73908000  1.0 0.4567906273
C  C10  1  0.84540000  0.42740000  0.73908000  1.0 0.4567906273
C  C11  1  0.92740000  0.65460000  0.73908000  1.0 0.4567906273
C  C12  1  0.07260000  0.34540000  0.73908000  1.0 0.4567906273
C  C13  1  0.34540000  0.07260000  0.76092000  1.0 0.4567906273
C  C14  1  0.65460000  0.92740000  0.76092000  1.0 0.4567906273
C  C15  1  0.57260000  0.15460000  0.76092000  1.0 0.4567906273
C  C16  1  0.42740000  0.84540000  0.76092000  1.0 0.4567906273
C  C17  1  0.26647000  0.86520000  0.25550000  1.0 0.007690949
C  C18  1  0.73353000  0.13480000  0.25550000  1.0 0.007690949
C  C19  1  0.63480000  0.76647000  0.25550000  1.0 0.007690949
C  C20  1  0.36520000  0.23353000  0.25550000  1.0 0.007690949
C  C21  1  0.23353000  0.36520000  0.24450000  1.0 0.007690949
C  C22  1  0.76647000  0.63480000  0.24450000  1.0 0.007690949
C  C23  1  0.86520000  0.26647000  0.24450000  1.0 0.007690949
C  C24  1  0.13480000  0.73353000  0.24450000  1.0 0.007690949
C  C25  1  0.23353000  0.63480000  0.74450000  1.0 0.007690949
C  C26  1  0.76647000  0.36520000  0.74450000  1.0 0.007690949
C  C27  1  0.86520000  0.73353000  0.74450000  1.0 0.007690949
C  C28  1  0.13480000  0.26647000  0.74450000  1.0 0.007690949
C  C29  1  0.26647000  0.13480000  0.75550000  1.0 0.007690949
C  C30  1  0.73353000  0.86520000  0.75550000  1.0 0.007690949
C  C31  1  0.63480000  0.23353000  0.75550000  1.0 0.007690949
C  C32  1  0.36520000  0.76647000  0.75550000  1.0 0.007690949
C  C33  1  0.22810000  0.82890000  0.31551000  1.0 -0.1314874243
C  C34  1  0.77190000  0.17110000  0.31551000  1.0 -0.1314874243
C  C35  1  0.67110000  0.72810000  0.31551000  1.0 -0.1314874243
C  C36  1  0.32890000  0.27190000  0.31551000  1.0 -0.1314874243
C  C37  1  0.27190000  0.32890000  0.18449000  1.0 -0.1314874243
C  C38  1  0.72810000  0.67110000  0.18449000  1.0 -0.1314874243
C  C39  1  0.82890000  0.22810000  0.18449000  1.0 -0.1314874243
C  C40  1  0.17110000  0.77190000  0.18449000  1.0 -0.1314874243
C  C41  1  0.27190000  0.67110000  0.68449000  1.0 -0.1314874243
C  C42  1  0.72810000  0.32890000  0.68449000  1.0 -0.1314874243
C  C43  1  0.82890000  0.77190000  0.68449000  1.0 -0.1314874243
C  C44  1  0.17110000  0.22810000  0.68449000  1.0 -0.1314874243
C  C45  1  0.22810000  0.17110000  0.81551000  1.0 -0.1314874243
C  C46  1  0.77190000  0.82890000  0.81551000  1.0 -0.1314874243
C  C47  1  0.67110000  0.27190000  0.81551000  1.0 -0.1314874243
C  C48  1  0.32890000  0.72810000  0.81551000  1.0 -0.1314874243
C  C49  1  0.23610000  0.83820000  0.19005000  1.0 -0.1314874243
C  C50  1  0.76390000  0.16180000  0.19005000  1.0 -0.1314874243
C  C51  1  0.66180000  0.73610000  0.19005000  1.0 -0.1314874243
C  C52  1  0.33820000  0.26390000  0.19005000  1.0 -0.1314874243
C  C53  1  0.26390000  0.33820000  0.30995000  1.0 -0.1314874243
C  C54  1  0.73610000  0.66180000  0.30995000  1.0 -0.1314874243
C  C55  1  0.83820000  0.23610000  0.30995000  1.0 -0.1314874243
C  C56  1  0.16180000  0.76390000  0.30995000  1.0 -0.1314874243
C  C57  1  0.26390000  0.66180000  0.80995000  1.0 -0.1314874243
C  C58  1  0.73610000  0.33820000  0.80995000  1.0 -0.1314874243
C  C59  1  0.83820000  0.76390000  0.80995000  1.0 -0.1314874243
C  C60  1  0.16180000  0.23610000  0.80995000  1.0 -0.1314874243
C  C61  1  0.23610000  0.16180000  0.69005000  1.0 -0.1314874243
C  C62  1  0.76390000  0.83820000  0.69005000  1.0 -0.1314874243
C  C63  1  0.66180000  0.26390000  0.69005000  1.0 -0.1314874243
C  C64  1  0.33820000  0.73610000  0.69005000  1.0 -0.1314874243
C  C65  1  0.45030000  0.92230000  0.47130000  1.0 -0.0765061487
C  C66  1  0.54970000  0.07770000  0.47130000  1.0 -0.0765061487
C  C67  1  0.57770000  0.95030000  0.47130000  1.0 -0.0765061487
C  C68  1  0.42230000  0.04970000  0.47130000  1.0 -0.0765061487
C  C69  1  0.04970000  0.42230000  0.02870000  1.0 -0.0765061487
C  C70  1  0.95030000  0.57770000  0.02870000  1.0 -0.0765061487
C  C71  1  0.92230000  0.45030000  0.02870000  1.0 -0.0765061487
C  C72  1  0.07770000  0.54970000  0.02870000  1.0 -0.0765061487
C  C73  1  0.04970000  0.57770000  0.52870000  1.0 -0.0765061487
C  C74  1  0.95030000  0.42230000  0.52870000  1.0 -0.0765061487
C  C75  1  0.92230000  0.54970000  0.52870000  1.0 -0.0765061487
C  C76  1  0.07770000  0.45030000  0.52870000  1.0 -0.0765061487
C  C77  1  0.45030000  0.07770000  0.97130000  1.0 -0.0765061487
C  C78  1  0.54970000  0.92230000  0.97130000  1.0 -0.0765061487
C  C79  1  0.57770000  0.04970000  0.97130000  1.0 -0.0765061487
C  C80  1  0.42230000  0.95030000  0.97130000  1.0 -0.0765061487
C  C81  1  0.41400000  0.98200000  0.47340000  1.0 -0.0672664999
C  C82  1  0.58600000  0.01800000  0.47340000  1.0 -0.0672664999
C  C83  1  0.51800000  0.91400000  0.47340000  1.0 -0.0672664999
C  C84  1  0.48200000  0.08600000  0.47340000  1.0 -0.0672664999
C  C85  1  0.08600000  0.48200000  0.02660000  1.0 -0.0672664999
C  C86  1  0.91400000  0.51800000  0.02660000  1.0 -0.0672664999
C  C87  1  0.98200000  0.41400000  0.02660000  1.0 -0.0672664999
C  C88  1  0.01800000  0.58600000  0.02660000  1.0 -0.0672664999
C  C89  1  0.08600000  0.51800000  0.52660000  1.0 -0.0672664999
C  C90  1  0.91400000  0.48200000  0.52660000  1.0 -0.0672664999
C  C91  1  0.98200000  0.58600000  0.52660000  1.0 -0.0672664999
C  C92  1  0.01800000  0.41400000  0.52660000  1.0 -0.0672664999
C  C93  1  0.41400000  0.01800000  0.97340000  1.0 -0.0672664999
C  C94  1  0.58600000  0.98200000  0.97340000  1.0 -0.0672664999
C  C95  1  0.51800000  0.08600000  0.97340000  1.0 -0.0672664999
C  C96  1  0.48200000  0.91400000  0.97340000  1.0 -0.0672664999
C  C97  1  0.44800000  0.92310000  0.55090000  1.0 -0.0765061487
C  C98  1  0.55200000  0.07690000  0.55090000  1.0 -0.0765061487
C  C99  1  0.57690000  0.94800000  0.55090000  1.0 -0.0765061487
C  C100  1  0.42310000  0.05200000  0.55090000  1.0 -0.0765061487
C  C101  1  0.05200000  0.42310000  0.94910000  1.0 -0.0765061487
C  C102  1  0.94800000  0.57690000  0.94910000  1.0 -0.0765061487
C  C103  1  0.92310000  0.44800000  0.94910000  1.0 -0.0765061487
C  C104  1  0.07690000  0.55200000  0.94910000  1.0 -0.0765061487
C  C105  1  0.05200000  0.57690000  0.44910000  1.0 -0.0765061487
C  C106  1  0.94800000  0.42310000  0.44910000  1.0 -0.0765061487
C  C107  1  0.92310000  0.55200000  0.44910000  1.0 -0.0765061487
C  C108  1  0.07690000  0.44800000  0.44910000  1.0 -0.0765061487
C  C109  1  0.44800000  0.07690000  0.05090000  1.0 -0.0765061487
C  C110  1  0.55200000  0.92310000  0.05090000  1.0 -0.0765061487
C  C111  1  0.57690000  0.05200000  0.05090000  1.0 -0.0765061487
C  C112  1  0.42310000  0.94800000  0.05090000  1.0 -0.0765061487
C  C113  1  0.51300000  0.91260000  0.55180000  1.0 -0.0672664999
C  C114  1  0.48700000  0.08740000  0.55180000  1.0 -0.0672664999
C  C115  1  0.58740000  0.01300000  0.55180000  1.0 -0.0672664999
C  C116  1  0.41260000  0.98700000  0.55180000  1.0 -0.0672664999
C  C117  1  0.98700000  0.41260000  0.94820000  1.0 -0.0672664999
C  C118  1  0.01300000  0.58740000  0.94820000  1.0 -0.0672664999
C  C119  1  0.91260000  0.51300000  0.94820000  1.0 -0.0672664999
C  C120  1  0.08740000  0.48700000  0.94820000  1.0 -0.0672664999
C  C121  1  0.98700000  0.58740000  0.44820000  1.0 -0.0672664999
C  C122  1  0.01300000  0.41260000  0.44820000  1.0 -0.0672664999
C  C123  1  0.91260000  0.48700000  0.44820000  1.0 -0.0672664999
C  C124  1  0.08740000  0.51300000  0.44820000  1.0 -0.0672664999
C  C125  1  0.51300000  0.08740000  0.05180000  1.0 -0.0672664999
C  C126  1  0.48700000  0.91260000  0.05180000  1.0 -0.0672664999
C  C127  1  0.58740000  0.98700000  0.05180000  1.0 -0.0672664999
C  C128  1  0.41260000  0.01300000  0.05180000  1.0 -0.0672664999
N  N1  1  0.50000000  0.00000000  0.44530000  1.0 -0.1314874243
N  N2  1  0.00000000  0.50000000  0.05470000  1.0 -0.1314874243
N  N3  1  0.00000000  0.50000000  0.55470000  1.0 -0.1314874243
N  N4  1  0.50000000  0.00000000  0.94530000  1.0 -0.1314874243
N  N5  1  0.50000000  0.00000000  0.57890000  1.0 -0.1210937535
N  N6  1  0.00000000  0.50000000  0.92110000  1.0 -0.1210937535
N  N7  1  0.00000000  0.50000000  0.42110000  1.0 -0.1210937535
N  N8  1  0.50000000  0.00000000  0.07890000  1.0 -0.1210937535
O  O1  1  0.38298000  0.93302000  0.31971000  1.0 -0.5702737327
O  O2  1  0.61702000  0.06698000  0.31971000  1.0 -0.5702737327
O  O3  1  0.56698000  0.88298000  0.31971000  1.0 -0.5702737327
O  O4  1  0.43302000  0.11702000  0.31971000  1.0 -0.5702737327
O  O5  1  0.11702000  0.43302000  0.18029000  1.0 -0.5702737327
O  O6  1  0.88298000  0.56698000  0.18029000  1.0 -0.5702737327
O  O7  1  0.93302000  0.38298000  0.18029000  1.0 -0.5702737327
O  O8  1  0.06698000  0.61702000  0.18029000  1.0 -0.5702737327
O  O9  1  0.11702000  0.56698000  0.68029000  1.0 -0.5702737327
O  O10  1  0.88298000  0.43302000  0.68029000  1.0 -0.5702737327
O  O11  1  0.93302000  0.61702000  0.68029000  1.0 -0.5702737327
O  O12  1  0.06698000  0.38298000  0.68029000  1.0 -0.5702737327
O  O13  1  0.38298000  0.06698000  0.81971000  1.0 -0.5702737327
O  O14  1  0.61702000  0.93302000  0.81971000  1.0 -0.5702737327
O  O15  1  0.56698000  0.11702000  0.81971000  1.0 -0.5702737327
O  O16  1  0.43302000  0.88298000  0.81971000  1.0 -0.5702737327
O  O17  1  0.36980000  0.96753000  0.20582000  1.0 -0.5761879625
O  O18  1  0.63020000  0.03247000  0.20582000  1.0 -0.5761879625
O  O19  1  0.53247000  0.86980000  0.20582000  1.0 -0.5761879625
O  O20  1  0.46753000  0.13020000  0.20582000  1.0 -0.5761879625
O  O21  1  0.13020000  0.46753000  0.29418000  1.0 -0.5761879625
O  O22  1  0.86980000  0.53247000  0.29418000  1.0 -0.5761879625
O  O23  1  0.96753000  0.36980000  0.29418000  1.0 -0.5761879625
O  O24  1  0.03247000  0.63020000  0.29418000  1.0 -0.5761879625
O  O25  1  0.13020000  0.53247000  0.79418000  1.0 -0.5761879625
O  O26  1  0.86980000  0.46753000  0.79418000  1.0 -0.5761879625
O  O27  1  0.96753000  0.63020000  0.79418000  1.0 -0.5761879625
O  O28  1  0.03247000  0.36980000  0.79418000  1.0 -0.5761879625
O  O29  1  0.36980000  0.03247000  0.70582000  1.0 -0.5761879625
O  O30  1  0.63020000  0.96753000  0.70582000  1.0 -0.5761879625
O  O31  1  0.53247000  0.13020000  0.70582000  1.0 -0.5761879625
O  O32  1  0.46753000  0.86980000  0.70582000  1.0 -0.5761879625
