# DDEC6 charges by PACMAN v1.1 (https://github.com/mtap-research/PACMAN-charge/)
data_WARFAY06_ASR_pacman
_symmetry_space_group_name_H-M   'P 1'
_cell_length_a   14.35680000
_cell_length_b   14.35680000
_cell_length_c   14.35680000
_cell_angle_alpha   116.72100000
_cell_angle_beta   116.72100000
_cell_angle_gamma   95.78000000
_symmetry_Int_Tables_number   1
_chemical_formula_structural   ZnH12C16NO4
_chemical_formula_sum   'Zn4 H48 C64 N4 O16'
_cell_volume   2184.13700222
_cell_formula_units_Z   4
loop_
 _symmetry_equiv_pos_site_id
 _symmetry_equiv_pos_as_xyz
  1  'x, y, z'
loop_
 _atom_site_type_symbol
 _atom_site_label
 _atom_site_symmetry_multiplicity
 _atom_site_fract_x
 _atom_site_fract_y
 _atom_site_fract_z
 _atom_site_occupancy
 _atom_site_charge
Zn  Zn1  1  0.07664000  0.07664000  0.00000000  1.0 0.7501338468
Zn  Zn2  1  0.42336000  0.42336000  0.00000000  1.0 0.7501338468
Zn  Zn3  1  0.92336000  0.92336000  0.00000000  1.0 0.7501338468
Zn  Zn4  1  0.57664000  0.57664000  0.00000000  1.0 0.7501338468
H  H1  1  0.34680000  0.95490000  0.09390000  1.0 0.1267383106
H  H2  1  0.86100000  0.25290000  0.90610000  1.0 0.1267383106
H  H3  1  0.95490000  0.86100000  0.60810000  1.0 0.1267383106
H  H4  1  0.25290000  0.34680000  0.39190000  1.0 0.1267383106
H  H5  1  0.63900000  0.54510000  0.39190000  1.0 0.1267383106
H  H6  1  0.15320000  0.24710000  0.60810000  1.0 0.1267383106
H  H7  1  0.24710000  0.63900000  0.09390000  1.0 0.1267383106
H  H8  1  0.54510000  0.15320000  0.90610000  1.0 0.1267383106
H  H9  1  0.65320000  0.04510000  0.90610000  1.0 0.1267383106
H  H10  1  0.13900000  0.74710000  0.09390000  1.0 0.1267383106
H  H11  1  0.04510000  0.13900000  0.39190000  1.0 0.1267383106
H  H12  1  0.74710000  0.65320000  0.60810000  1.0 0.1267383106
H  H13  1  0.36100000  0.45490000  0.60810000  1.0 0.1267383106
H  H14  1  0.84680000  0.75290000  0.39190000  1.0 0.1267383106
H  H15  1  0.75290000  0.36100000  0.90610000  1.0 0.1267383106
H  H16  1  0.45490000  0.84680000  0.09390000  1.0 0.1267383106
H  H17  1  0.27760000  0.08840000  0.00140000  1.0 0.0820493603
H  H18  1  0.08700000  0.27620000  0.99860000  1.0 0.0820493603
H  H19  1  0.08840000  0.08700000  0.81080000  1.0 0.0820493603
H  H20  1  0.27620000  0.27760000  0.18920000  1.0 0.0820493603
H  H21  1  0.41300000  0.41160000  0.18920000  1.0 0.0820493603
H  H22  1  0.22240000  0.22380000  0.81080000  1.0 0.0820493603
H  H23  1  0.22380000  0.41300000  0.00140000  1.0 0.0820493603
H  H24  1  0.41160000  0.22240000  0.99860000  1.0 0.0820493603
H  H25  1  0.72240000  0.91160000  0.99860000  1.0 0.0820493603
H  H26  1  0.91300000  0.72380000  0.00140000  1.0 0.0820493603
H  H27  1  0.91160000  0.91300000  0.18920000  1.0 0.0820493603
H  H28  1  0.72380000  0.72240000  0.81080000  1.0 0.0820493603
H  H29  1  0.58700000  0.58840000  0.81080000  1.0 0.0820493603
H  H30  1  0.77760000  0.77620000  0.18920000  1.0 0.0820493603
H  H31  1  0.77620000  0.58700000  0.99860000  1.0 0.0820493603
H  H32  1  0.58840000  0.77760000  0.00140000  1.0 0.0820493603
H  H33  1  0.34230000  0.21180000  0.12430000  1.0 0.0933318072
H  H34  1  0.08750000  0.21800000  0.87570000  1.0 0.0933318072
H  H35  1  0.21180000  0.08750000  0.86950000  1.0 0.0933318072
H  H36  1  0.21800000  0.34230000  0.13050000  1.0 0.0933318072
H  H37  1  0.41250000  0.28820000  0.13050000  1.0 0.0933318072
H  H38  1  0.15770000  0.28200000  0.86950000  1.0 0.0933318072
H  H39  1  0.28200000  0.41250000  0.12430000  1.0 0.0933318072
H  H40  1  0.28820000  0.15770000  0.87570000  1.0 0.0933318072
H  H41  1  0.65770000  0.78820000  0.87570000  1.0 0.0933318072
H  H42  1  0.91250000  0.78200000  0.12430000  1.0 0.0933318072
H  H43  1  0.78820000  0.91250000  0.13050000  1.0 0.0933318072
H  H44  1  0.78200000  0.65770000  0.86950000  1.0 0.0933318072
H  H45  1  0.58750000  0.71180000  0.86950000  1.0 0.0933318072
H  H46  1  0.84230000  0.71800000  0.13050000  1.0 0.0933318072
H  H47  1  0.71800000  0.58750000  0.87570000  1.0 0.0933318072
H  H48  1  0.71180000  0.84230000  0.12430000  1.0 0.0933318072
C  C1  1  0.15070000  0.92100000  0.07170000  1.0 0.5488487229
C  C2  1  0.84930000  0.07900000  0.92830000  1.0 0.5488487229
C  C3  1  0.92100000  0.84930000  0.77030000  1.0 0.5488487229
C  C4  1  0.07900000  0.15070000  0.22970000  1.0 0.5488487229
C  C5  1  0.65070000  0.57900000  0.22970000  1.0 0.5488487229
C  C6  1  0.34930000  0.42100000  0.77030000  1.0 0.5488487229
C  C7  1  0.42100000  0.65070000  0.07170000  1.0 0.5488487229
C  C8  1  0.57900000  0.34930000  0.92830000  1.0 0.5488487229
C  C9  1  0.22860000  0.85910000  0.08770000  1.0 0.0139841994
C  C10  1  0.77140000  0.14090000  0.91230000  1.0 0.0139841994
C  C11  1  0.85910000  0.77140000  0.63050000  1.0 0.0139841994
C  C12  1  0.14090000  0.22860000  0.36950000  1.0 0.0139841994
C  C13  1  0.72860000  0.64090000  0.36950000  1.0 0.0139841994
C  C14  1  0.27140000  0.35910000  0.63050000  1.0 0.0139841994
C  C15  1  0.35910000  0.72860000  0.08770000  1.0 0.0139841994
C  C16  1  0.64090000  0.27140000  0.91230000  1.0 0.0139841994
C  C17  1  0.32532000  0.89003000  0.09135000  1.0 -0.1214865327
C  C18  1  0.79868000  0.23397000  0.90865000  1.0 -0.1214865327
C  C19  1  0.89003000  0.79868000  0.56471000  1.0 -0.1214865327
C  C20  1  0.23397000  0.32532000  0.43529000  1.0 -0.1214865327
C  C21  1  0.70132000  0.60997000  0.43529000  1.0 -0.1214865327
C  C22  1  0.17468000  0.26603000  0.56471000  1.0 -0.1214865327
C  C23  1  0.26603000  0.70132000  0.09135000  1.0 -0.1214865327
C  C24  1  0.60997000  0.17468000  0.90865000  1.0 -0.1214865327
C  C25  1  0.67468000  0.10997000  0.90865000  1.0 -0.1214865327
C  C26  1  0.20132000  0.76603000  0.09135000  1.0 -0.1214865327
C  C27  1  0.10997000  0.20132000  0.43529000  1.0 -0.1214865327
C  C28  1  0.76603000  0.67468000  0.56471000  1.0 -0.1214865327
C  C29  1  0.29868000  0.39003000  0.56471000  1.0 -0.1214865327
C  C30  1  0.82532000  0.73397000  0.43529000  1.0 -0.1214865327
C  C31  1  0.73397000  0.29868000  0.90865000  1.0 -0.1214865327
C  C32  1  0.39003000  0.82532000  0.09135000  1.0 -0.1214865327
C  C33  1  0.28880000  0.16700000  0.03380000  1.0 -0.0528324378
C  C34  1  0.13320000  0.25500000  0.96620000  1.0 -0.0528324378
C  C35  1  0.16700000  0.13320000  0.87820000  1.0 -0.0528324378
C  C36  1  0.25500000  0.28880000  0.12180000  1.0 -0.0528324378
C  C37  1  0.36680000  0.33300000  0.12180000  1.0 -0.0528324378
C  C38  1  0.21120000  0.24500000  0.87820000  1.0 -0.0528324378
C  C39  1  0.24500000  0.36680000  0.03380000  1.0 -0.0528324378
C  C40  1  0.33300000  0.21120000  0.96620000  1.0 -0.0528324378
C  C41  1  0.71120000  0.83300000  0.96620000  1.0 -0.0528324378
C  C42  1  0.86680000  0.74500000  0.03380000  1.0 -0.0528324378
C  C43  1  0.83300000  0.86680000  0.12180000  1.0 -0.0528324378
C  C44  1  0.74500000  0.71120000  0.87820000  1.0 -0.0528324378
C  C45  1  0.63320000  0.66700000  0.87820000  1.0 -0.0528324378
C  C46  1  0.78880000  0.75500000  0.12180000  1.0 -0.0528324378
C  C47  1  0.75500000  0.63320000  0.96620000  1.0 -0.0528324378
C  C48  1  0.66700000  0.78880000  0.03380000  1.0 -0.0528324378
C  C49  1  0.23590000  0.12470000  0.94280000  1.0 -0.0383154574
C  C50  1  0.18190000  0.29310000  0.05720000  1.0 -0.0383154574
C  C51  1  0.12470000  0.18190000  0.88880000  1.0 -0.0383154574
C  C52  1  0.29310000  0.23590000  0.11120000  1.0 -0.0383154574
C  C53  1  0.31810000  0.37530000  0.11120000  1.0 -0.0383154574
C  C54  1  0.26410000  0.20690000  0.88880000  1.0 -0.0383154574
C  C55  1  0.20690000  0.31810000  0.94280000  1.0 -0.0383154574
C  C56  1  0.37530000  0.26410000  0.05720000  1.0 -0.0383154574
C  C57  1  0.76410000  0.87530000  0.05720000  1.0 -0.0383154574
C  C58  1  0.81810000  0.70690000  0.94280000  1.0 -0.0383154574
C  C59  1  0.87530000  0.81810000  0.11120000  1.0 -0.0383154574
C  C60  1  0.70690000  0.76410000  0.88880000  1.0 -0.0383154574
C  C61  1  0.68190000  0.62470000  0.88880000  1.0 -0.0383154574
C  C62  1  0.73590000  0.79310000  0.11120000  1.0 -0.0383154574
C  C63  1  0.79310000  0.68190000  0.05720000  1.0 -0.0383154574
C  C64  1  0.62470000  0.73590000  0.94280000  1.0 -0.0383154574
N  N1  1  0.18290000  0.18290000  0.00000000  1.0 -0.1136825953
N  N2  1  0.31710000  0.31710000  0.00000000  1.0 -0.1136825953
N  N3  1  0.81710000  0.81710000  0.00000000  1.0 -0.1136825953
N  N4  1  0.68290000  0.68290000  0.00000000  1.0 -0.1136825953
O  O1  1  0.17839000  0.00179000  0.06474000  1.0 -0.5300143241
O  O2  1  0.93705000  0.11365000  0.93526000  1.0 -0.5300143241
O  O3  1  0.00179000  0.93705000  0.82340000  1.0 -0.5300143241
O  O4  1  0.11365000  0.17839000  0.17660000  1.0 -0.5300143241
O  O5  1  0.56295000  0.49821000  0.17660000  1.0 -0.5300143241
O  O6  1  0.32161000  0.38635000  0.82340000  1.0 -0.5300143241
O  O7  1  0.38635000  0.56295000  0.06474000  1.0 -0.5300143241
O  O8  1  0.49821000  0.32161000  0.93526000  1.0 -0.5300143241
O  O9  1  0.82161000  0.99821000  0.93526000  1.0 -0.5300143241
O  O10  1  0.06295000  0.88635000  0.06474000  1.0 -0.5300143241
O  O11  1  0.99821000  0.06295000  0.17660000  1.0 -0.5300143241
O  O12  1  0.88635000  0.82161000  0.82340000  1.0 -0.5300143241
O  O13  1  0.43705000  0.50179000  0.82340000  1.0 -0.5300143241
O  O14  1  0.67839000  0.61365000  0.17660000  1.0 -0.5300143241
O  O15  1  0.61365000  0.43705000  0.93526000  1.0 -0.5300143241
O  O16  1  0.50179000  0.67839000  0.06474000  1.0 -0.5300143241
