# DDEC6 charges by PACMAN v1.1 (https://github.com/mtap-research/PACMAN-charge/)
data_WARXUL_ASR_pacman
_symmetry_space_group_name_H-M   'P 1'
_cell_length_a   20.81310000
_cell_length_b   20.81310000
_cell_length_c   18.46210000
_cell_angle_alpha   90.00000000
_cell_angle_beta   90.00000000
_cell_angle_gamma   107.06200000
_symmetry_Int_Tables_number   1
_chemical_formula_structural   Cu2H15(C8O3)3
_chemical_formula_sum   'Cu12 H90 C144 O54'
_cell_volume   7645.51948707
_cell_formula_units_Z   6
loop_
 _symmetry_equiv_pos_site_id
 _symmetry_equiv_pos_as_xyz
  1  'x, y, z'
loop_
 _atom_site_type_symbol
 _atom_site_label
 _atom_site_symmetry_multiplicity
 _atom_site_fract_x
 _atom_site_fract_y
 _atom_site_fract_z
 _atom_site_occupancy
 _atom_site_charge
Cu  Cu1  1  0.94326000  0.48678000  0.43366000  1.0 0.8675863388
Cu  Cu2  1  0.05674000  0.51322000  0.93366000  1.0 0.8675863388
Cu  Cu3  1  0.48678000  0.94326000  0.93366000  1.0 0.8675863388
Cu  Cu4  1  0.51322000  0.05674000  0.43366000  1.0 0.8675863388
Cu  Cu5  1  0.05726000  0.53156000  0.50733000  1.0 0.8475895219
Cu  Cu6  1  0.94274000  0.46844000  0.00733000  1.0 0.8475895219
Cu  Cu7  1  0.53156000  0.05726000  0.00733000  1.0 0.8475895219
Cu  Cu8  1  0.46844000  0.94274000  0.50733000  1.0 0.8475895219
Cu  Cu9  1  0.93937000  0.06063000  0.23288000  1.0 0.8675863388
Cu  Cu10  1  0.06063000  0.93937000  0.73288000  1.0 0.8675863388
Cu  Cu11  1  0.86028000  0.13972000  0.22686000  1.0 0.8621436202
Cu  Cu12  1  0.13972000  0.86028000  0.72686000  1.0 0.8621436202
H  H1  1  0.70950000  0.04250000  0.37270000  1.0 0.1396510159
H  H2  1  0.29050000  0.95750000  0.87270000  1.0 0.1396510159
H  H3  1  0.04250000  0.70950000  0.87270000  1.0 0.1396510159
H  H4  1  0.95750000  0.29050000  0.37270000  1.0 0.1396510159
H  H5  1  0.86710000  0.65530000  0.46520000  1.0 0.1396510159
H  H6  1  0.13290000  0.34470000  0.96520000  1.0 0.1396510159
H  H7  1  0.65530000  0.86710000  0.96520000  1.0 0.1396510159
H  H8  1  0.34470000  0.13290000  0.46520000  1.0 0.1396510159
H  H9  1  0.71310000  0.28690000  0.75380000  1.0 0.1396510159
H  H10  1  0.28690000  0.71310000  0.25380000  1.0 0.1396510159
H  H11  1  0.63910000  0.87010000  0.48760000  1.0 0.1303714542
H  H12  1  0.36090000  0.12990000  0.98760000  1.0 0.1396510159
H  H13  1  0.87010000  0.63910000  0.98760000  1.0 0.1303714542
H  H14  1  0.12990000  0.36090000  0.48760000  1.0 0.1303714542
H  H15  1  0.63510000  0.75890000  0.45280000  1.0 0.159171362
H  H16  1  0.36490000  0.24110000  0.95280000  1.0 0.159171362
H  H17  1  0.75890000  0.63510000  0.95280000  1.0 0.159171362
H  H18  1  0.24110000  0.36490000  0.45280000  1.0 0.159171362
H  H19  1  0.80760000  0.41580000  0.60900000  1.0 0.1303714542
H  H20  1  0.19240000  0.58420000  0.10900000  1.0 0.1303714542
H  H21  1  0.41580000  0.80760000  0.10900000  1.0 0.1303714542
H  H22  1  0.58420000  0.19240000  0.60900000  1.0 0.1303714542
H  H23  1  0.98170000  0.47390000  0.72010000  1.0 0.1396510159
H  H24  1  0.01830000  0.52610000  0.22010000  1.0 0.1396510159
H  H25  1  0.47390000  0.98170000  0.22010000  1.0 0.1396510159
H  H26  1  0.52610000  0.01830000  0.72010000  1.0 0.1396510159
H  H27  1  0.90540000  0.82560000  0.58150000  1.0 0.1228343893
H  H28  1  0.09460000  0.17440000  0.08150000  1.0 0.1303714542
H  H29  1  0.82560000  0.90540000  0.08150000  1.0 0.1228343893
H  H30  1  0.17440000  0.09460000  0.58150000  1.0 0.1228343893
H  H31  1  0.04170000  0.72270000  0.57140000  1.0 0.1396510159
H  H32  1  0.95830000  0.27730000  0.07140000  1.0 0.1396510159
H  H33  1  0.72270000  0.04170000  0.07140000  1.0 0.1396510159
H  H34  1  0.27730000  0.95830000  0.57140000  1.0 0.1396510159
H  H35  1  0.69770000  0.45950000  0.66420000  1.0 0.1480177584
H  H36  1  0.30230000  0.54050000  0.16420000  1.0 0.1480177584
H  H37  1  0.45950000  0.69770000  0.16420000  1.0 0.1480177584
H  H38  1  0.54050000  0.30230000  0.66420000  1.0 0.1480177584
H  H39  1  0.80680000  0.40320000  0.82680000  1.0 0.1303714542
H  H40  1  0.19320000  0.59680000  0.32680000  1.0 0.1303714542
H  H41  1  0.40320000  0.80680000  0.32680000  1.0 0.1303714542
H  H42  1  0.59680000  0.19320000  0.82680000  1.0 0.1303714542
H  H43  1  0.83600000  0.84580000  0.48790000  1.0 0.1303714542
H  H44  1  0.16400000  0.15420000  0.98790000  1.0 0.1396510159
H  H45  1  0.84580000  0.83600000  0.98790000  1.0 0.1396510159
H  H46  1  0.15420000  0.16400000  0.48790000  1.0 0.1303714542
H  H47  1  0.75700000  0.65100000  0.51180000  1.0 0.1396510159
H  H48  1  0.24300000  0.34900000  0.01180000  1.0 0.1396510159
H  H49  1  0.65100000  0.75700000  0.01180000  1.0 0.1396510159
H  H50  1  0.34900000  0.24300000  0.51180000  1.0 0.1396510159
H  H51  1  0.81790000  0.91250000  0.38460000  1.0 0.1303714542
H  H52  1  0.18210000  0.08750000  0.88460000  1.0 0.1303714542
H  H53  1  0.91250000  0.81790000  0.88460000  1.0 0.1303714542
H  H54  1  0.08750000  0.18210000  0.38460000  1.0 0.1303714542
H  H55  1  0.66170000  0.56390000  0.50950000  1.0 0.0599868425
H  H56  1  0.33830000  0.43610000  0.00950000  1.0 0.0599868425
H  H57  1  0.56390000  0.66170000  0.00950000  1.0 0.0599868425
H  H58  1  0.43610000  0.33830000  0.50950000  1.0 0.0599868425
H  H59  1  0.64880000  0.56460000  0.42590000  1.0 0.1228343893
H  H60  1  0.35120000  0.43540000  0.92590000  1.0 0.1228343893
H  H61  1  0.56460000  0.64880000  0.92590000  1.0 0.1228343893
H  H62  1  0.43540000  0.35120000  0.42590000  1.0 0.1228343893
H  H63  1  0.58800000  0.54240000  0.47960000  1.0 0.0693291865
H  H64  1  0.41200000  0.45760000  0.97960000  1.0 0.0814715416
H  H65  1  0.54240000  0.58800000  0.97960000  1.0 0.0814715416
H  H66  1  0.45760000  0.41200000  0.47960000  1.0 0.0693291865
H  H67  1  0.57950000  0.52690000  0.63200000  1.0 0.159171362
H  H68  1  0.42050000  0.47310000  0.13200000  1.0 0.1480177584
H  H69  1  0.52690000  0.57950000  0.13200000  1.0 0.1480177584
H  H70  1  0.47310000  0.42050000  0.63200000  1.0 0.159171362
H  H71  1  0.63780000  0.51560000  0.58480000  1.0 0.0814715416
H  H72  1  0.36220000  0.48440000  0.08480000  1.0 0.0814715416
H  H73  1  0.51560000  0.63780000  0.08480000  1.0 0.0814715416
H  H74  1  0.48440000  0.36220000  0.58480000  1.0 0.0814715416
H  H75  1  0.64440000  0.51900000  0.66940000  1.0 0.1303714542
H  H76  1  0.35560000  0.48100000  0.16940000  1.0 0.1228343893
H  H77  1  0.51900000  0.64440000  0.16940000  1.0 0.1228343893
H  H78  1  0.48100000  0.35560000  0.66940000  1.0 0.1303714542
H  H79  1  0.59610000  0.54810000  0.52010000  1.0 0.0198936483
H  H80  1  0.40390000  0.45190000  0.02010000  1.0 0.0198936483
H  H81  1  0.54810000  0.59610000  0.02010000  1.0 0.0198936483
H  H82  1  0.45190000  0.40390000  0.52010000  1.0 0.0198936483
H  H83  1  0.64180000  0.59900000  0.57470000  1.0 0.0693291865
H  H84  1  0.35820000  0.40100000  0.07470000  1.0 0.0693291865
H  H85  1  0.59900000  0.64180000  0.07470000  1.0 0.0693291865
H  H86  1  0.40100000  0.35820000  0.57470000  1.0 0.0693291865
H  H87  1  0.67430000  0.57110000  0.50990000  1.0 0.0599868425
H  H88  1  0.32570000  0.42890000  0.00990000  1.0 0.0599868425
H  H89  1  0.57110000  0.67430000  0.00990000  1.0 0.0599868425
H  H90  1  0.42890000  0.32570000  0.50990000  1.0 0.0599868425
C  C1  1  0.66476000  0.95944000  0.43520000  1.0 0.007215048
C  C2  1  0.33524000  0.04056000  0.93520000  1.0 0.007215048
C  C3  1  0.95944000  0.66476000  0.93520000  1.0 0.007215048
C  C4  1  0.04056000  0.33524000  0.43520000  1.0 0.007215048
C  C5  1  0.71543000  0.00277000  0.39020000  1.0 -0.1026099348
C  C6  1  0.28457000  0.99723000  0.89020000  1.0 -0.1026099348
C  C7  1  0.00277000  0.71543000  0.89020000  1.0 -0.1026099348
C  C8  1  0.99723000  0.28457000  0.39020000  1.0 -0.1026099348
C  C9  1  0.89532000  0.68768000  0.49470000  1.0 -0.1264480956
C  C10  1  0.10468000  0.31232000  0.99470000  1.0 -0.1245436402
C  C11  1  0.68768000  0.89532000  0.99470000  1.0 -0.1245436402
C  C12  1  0.31232000  0.10468000  0.49470000  1.0 -0.1264480956
C  C13  1  0.77204000  0.98596000  0.37290000  1.0 -0.022054036
C  C14  1  0.22796000  0.01404000  0.87290000  1.0 -0.022054036
C  C15  1  0.98596000  0.77204000  0.87290000  1.0 -0.022054036
C  C16  1  0.01404000  0.22796000  0.37290000  1.0 -0.022054036
C  C17  1  0.73149000  0.88171000  0.43790000  1.0 0.0506979797
C  C18  1  0.26851000  0.11829000  0.93790000  1.0 0.0506979797
C  C19  1  0.88171000  0.73149000  0.93790000  1.0 0.0506979797
C  C20  1  0.11829000  0.26851000  0.43790000  1.0 0.0506979797
C  C21  1  0.87384000  0.74076000  0.51870000  1.0 0.0693291865
C  C22  1  0.12616000  0.25924000  0.01870000  1.0 0.0693291865
C  C23  1  0.74076000  0.87384000  0.01870000  1.0 0.0693291865
C  C24  1  0.25924000  0.12616000  0.51870000  1.0 0.0693291865
C  C25  1  0.97984000  0.78216000  0.58430000  1.0 -0.06239383
C  C26  1  0.02016000  0.21784000  0.08430000  1.0 -0.06239383
C  C27  1  0.78216000  0.97984000  0.08430000  1.0 -0.06239383
C  C28  1  0.21784000  0.02016000  0.58430000  1.0 -0.06239383
C  C29  1  0.97602000  0.61798000  0.49460000  1.0 0.5782265317
C  C30  1  0.02398000  0.38202000  0.99460000  1.0 0.569762105
C  C31  1  0.61798000  0.97602000  0.99460000  1.0 0.5782265317
C  C32  1  0.38202000  0.02398000  0.49460000  1.0 0.5782265317
C  C33  1  0.68900000  0.31100000  0.72870000  1.0 -0.2270607906
C  C34  1  0.31100000  0.68900000  0.22870000  1.0 -0.2270607906
C  C35  1  0.95685000  0.68115000  0.51320000  1.0 -0.0129072787
C  C36  1  0.04315000  0.31885000  0.01320000  1.0 -0.0129072787
C  C37  1  0.68115000  0.95685000  0.01320000  1.0 -0.0129072787
C  C38  1  0.31885000  0.04315000  0.51320000  1.0 -0.0129072787
C  C39  1  0.89888000  0.44872000  0.65350000  1.0 -0.0263963442
C  C40  1  0.10112000  0.55128000  0.15350000  1.0 -0.0263963442
C  C41  1  0.44872000  0.89888000  0.15350000  1.0 -0.0263963442
C  C42  1  0.55128000  0.10112000  0.65350000  1.0 -0.0263963442
C  C43  1  0.71924000  0.37616000  0.71060000  1.0 0.1228343893
C  C44  1  0.28076000  0.62384000  0.21060000  1.0 0.1228343893
C  C45  1  0.37616000  0.71924000  0.21060000  1.0 0.1228343893
C  C46  1  0.62384000  0.28076000  0.71060000  1.0 0.1303714542
C  C47  1  0.59782000  0.97898000  0.44790000  1.0 0.5535358929
C  C48  1  0.40218000  0.02102000  0.94790000  1.0 0.5535358929
C  C49  1  0.97898000  0.59782000  0.94790000  1.0 0.5535358929
C  C50  1  0.02102000  0.40218000  0.44790000  1.0 0.5535358929
C  C51  1  0.79422000  0.40798000  0.71650000  1.0 0.0506979797
C  C52  1  0.20578000  0.59202000  0.21650000  1.0 0.0506979797
C  C53  1  0.40798000  0.79422000  0.21650000  1.0 0.0506979797
C  C54  1  0.59202000  0.20578000  0.71650000  1.0 0.0506979797
C  C55  1  0.67174000  0.89886000  0.45890000  1.0 -0.1463660669
C  C56  1  0.32826000  0.10114000  0.95890000  1.0 -0.1396501684
C  C57  1  0.89886000  0.67174000  0.95890000  1.0 -0.1463660669
C  C58  1  0.10114000  0.32826000  0.45890000  1.0 -0.1463660669
C  C59  1  0.02435000  0.82705000  0.63410000  1.0 0.569762105
C  C60  1  0.97565000  0.17295000  0.13410000  1.0 0.569762105
C  C61  1  0.82705000  0.02435000  0.13410000  1.0 0.569762105
C  C62  1  0.17295000  0.97565000  0.63410000  1.0 0.569762105
C  C63  1  0.93611000  0.45329000  0.85580000  1.0 0.5782265317
C  C64  1  0.06389000  0.54671000  0.35580000  1.0 0.5782265317
C  C65  1  0.45329000  0.93611000  0.35580000  1.0 0.5782265317
C  C66  1  0.54671000  0.06389000  0.85580000  1.0 0.5782265317
C  C67  1  0.67792000  0.75688000  0.46450000  1.0 -0.2687256046
C  C68  1  0.32208000  0.24312000  0.96450000  1.0 -0.2687256046
C  C69  1  0.75688000  0.67792000  0.96450000  1.0 -0.2687256046
C  C70  1  0.24312000  0.32208000  0.46450000  1.0 -0.2687256046
C  C71  1  0.93992000  0.47068000  0.58730000  1.0 0.569762105
C  C72  1  0.06008000  0.52932000  0.08730000  1.0 0.569762105
C  C73  1  0.47068000  0.93992000  0.08730000  1.0 0.569762105
C  C74  1  0.52932000  0.06008000  0.58730000  1.0 0.569762105
C  C75  1  0.83027000  0.42313000  0.65310000  1.0 -0.1264480956
C  C76  1  0.16973000  0.57687000  0.15310000  1.0 -0.1264480956
C  C77  1  0.42313000  0.83027000  0.15310000  1.0 -0.1264480956
C  C78  1  0.57687000  0.16973000  0.65310000  1.0 -0.1245436402
C  C79  1  0.93505000  0.45695000  0.71960000  1.0 -0.1026099348
C  C80  1  0.06495000  0.54305000  0.21960000  1.0 -0.1026099348
C  C81  1  0.45695000  0.93505000  0.21960000  1.0 -0.1026099348
C  C82  1  0.54305000  0.06495000  0.71960000  1.0 -0.1026099348
C  C83  1  0.82169000  0.02951000  0.32200000  1.0 0.5782265317
C  C84  1  0.17831000  0.97049000  0.82200000  1.0 0.5782265317
C  C85  1  0.02951000  0.82169000  0.82200000  1.0 0.5782265317
C  C86  1  0.97049000  0.17831000  0.32200000  1.0 0.5782265317
C  C87  1  0.80834000  0.74626000  0.49930000  1.0 0.0814715416
C  C88  1  0.19166000  0.25374000  0.99930000  1.0 0.0814715416
C  C89  1  0.74626000  0.80834000  0.99930000  1.0 0.0814715416
C  C90  1  0.25374000  0.19166000  0.49930000  1.0 0.0814715416
C  C91  1  0.91820000  0.78900000  0.56460000  1.0 -0.1264480956
C  C92  1  0.08180000  0.21100000  0.06460000  1.0 -0.1264480956
C  C93  1  0.78900000  0.91820000  0.06460000  1.0 -0.1264480956
C  C94  1  0.21100000  0.08180000  0.56460000  1.0 -0.1264480956
C  C95  1  0.89849000  0.43871000  0.78440000  1.0 -0.022054036
C  C96  1  0.10151000  0.56129000  0.28440000  1.0 -0.022054036
C  C97  1  0.43871000  0.89849000  0.28440000  1.0 -0.022054036
C  C98  1  0.56129000  0.10151000  0.78440000  1.0 -0.022054036
C  C99  1  0.00019000  0.72761000  0.55850000  1.0 -0.1052013643
C  C100  1  0.99981000  0.27239000  0.05850000  1.0 -0.1026099348
C  C101  1  0.72761000  0.00019000  0.05850000  1.0 -0.1052013643
C  C102  1  0.27239000  0.99981000  0.55850000  1.0 -0.1052013643
C  C103  1  0.67700000  0.41480000  0.67610000  1.0 -0.3688709967
C  C104  1  0.32300000  0.58520000  0.17610000  1.0 -0.3688709967
C  C105  1  0.41480000  0.67700000  0.17610000  1.0 -0.3688709967
C  C106  1  0.58520000  0.32300000  0.67610000  1.0 -0.3688709967
C  C107  1  0.61100000  0.38900000  0.66130000  1.0 0.2832526408
C  C108  1  0.38900000  0.61100000  0.16130000  1.0 0.2832526408
C  C109  1  0.83021000  0.41499000  0.78360000  1.0 -0.1396501684
C  C110  1  0.16979000  0.58501000  0.28360000  1.0 -0.1396501684
C  C111  1  0.41499000  0.83021000  0.28360000  1.0 -0.1396501684
C  C112  1  0.58501000  0.16979000  0.78360000  1.0 -0.1396501684
C  C113  1  0.79905000  0.80775000  0.48330000  1.0 -0.2270607906
C  C114  1  0.20095000  0.19225000  0.98330000  1.0 -0.2270607906
C  C115  1  0.80775000  0.79905000  0.98330000  1.0 -0.2270607906
C  C116  1  0.19225000  0.20095000  0.48330000  1.0 -0.2270607906
C  C117  1  0.73832000  0.81708000  0.46070000  1.0 0.1020744678
C  C118  1  0.26168000  0.18292000  0.96070000  1.0 0.1020744678
C  C119  1  0.81708000  0.73832000  0.96070000  1.0 0.1020744678
C  C120  1  0.18292000  0.26168000  0.46070000  1.0 0.1020744678
C  C121  1  0.75260000  0.69300000  0.50060000  1.0 -0.2463189594
C  C122  1  0.24740000  0.30700000  0.00060000  1.0 -0.2463189594
C  C123  1  0.69300000  0.75260000  0.00060000  1.0 -0.2463189594
C  C124  1  0.30700000  0.24740000  0.50060000  1.0 -0.2463189594
C  C125  1  0.77943000  0.92417000  0.39700000  1.0 -0.1396501684
C  C126  1  0.22057000  0.07583000  0.89700000  1.0 -0.1396501684
C  C127  1  0.92417000  0.77943000  0.89700000  1.0 -0.1396501684
C  C128  1  0.07583000  0.22057000  0.39700000  1.0 -0.1396501684
C  C129  1  0.68980000  0.69840000  0.48620000  1.0 0.2395258737
C  C130  1  0.31020000  0.30160000  0.98620000  1.0 0.2341435246
C  C131  1  0.69840000  0.68980000  0.98620000  1.0 0.2395258737
C  C132  1  0.30160000  0.31020000  0.48620000  1.0 0.2395258737
C  C133  1  0.63250000  0.57210000  0.47280000  1.0 -0.1742656759
C  C134  1  0.36750000  0.42790000  0.97280000  1.0 -0.1769261591
C  C135  1  0.57210000  0.63250000  0.97280000  1.0 -0.1769261591
C  C136  1  0.42790000  0.36750000  0.47280000  1.0 -0.1742656759
C  C137  1  0.61380000  0.50460000  0.62960000  1.0 -0.4375266291
C  C138  1  0.38620000  0.49540000  0.12960000  1.0 -0.4375266291
C  C139  1  0.50460000  0.61380000  0.12960000  1.0 -0.4375266291
C  C140  1  0.49540000  0.38620000  0.62960000  1.0 -0.4375266291
C  C141  1  0.63620000  0.58500000  0.52500000  1.0 -0.1769261591
C  C142  1  0.36380000  0.41500000  0.02500000  1.0 -0.1769261591
C  C143  1  0.58500000  0.63620000  0.02500000  1.0 -0.1769261591
C  C144  1  0.41500000  0.36380000  0.52500000  1.0 -0.1769261591
O  O1  1  0.03094000  0.61334000  0.51600000  1.0 -0.4992722206
O  O2  1  0.96906000  0.38666000  0.01600000  1.0 -0.4992722206
O  O3  1  0.61334000  0.03094000  0.01600000  1.0 -0.4992722206
O  O4  1  0.38666000  0.96906000  0.51600000  1.0 -0.4992722206
O  O5  1  0.87348000  0.01360000  0.30660000  1.0 -0.5080873824
O  O6  1  0.12652000  0.98640000  0.80660000  1.0 -0.5080873824
O  O7  1  0.01360000  0.87348000  0.80660000  1.0 -0.5080873824
O  O8  1  0.98640000  0.12652000  0.30660000  1.0 -0.5080873824
O  O9  1  0.00833000  0.87901000  0.65740000  1.0 -0.5296578266
O  O10  1  0.99167000  0.12099000  0.15740000  1.0 -0.5296578266
O  O11  1  0.87901000  0.00833000  0.15740000  1.0 -0.5296578266
O  O12  1  0.12099000  0.99167000  0.65740000  1.0 -0.5296578266
O  O13  1  0.99896000  0.47764000  0.85170000  1.0 -0.5179718069
O  O14  1  0.00104000  0.52236000  0.35170000  1.0 -0.5179718069
O  O15  1  0.47764000  0.99896000  0.35170000  1.0 -0.5179718069
O  O16  1  0.52236000  0.00104000  0.85170000  1.0 -0.5179718069
O  O17  1  0.93484000  0.57462000  0.45300000  1.0 -0.5446144797
O  O18  1  0.06516000  0.42538000  0.95300000  1.0 -0.5446144797
O  O19  1  0.57462000  0.93484000  0.95300000  1.0 -0.5446144797
O  O20  1  0.42538000  0.06516000  0.45300000  1.0 -0.5450886942
O  O21  1  0.90411000  0.45755000  0.52720000  1.0 -0.5580846227
O  O22  1  0.09589000  0.54245000  0.02720000  1.0 -0.5580846227
O  O23  1  0.45755000  0.90411000  0.02720000  1.0 -0.5580846227
O  O24  1  0.54245000  0.09589000  0.52720000  1.0 -0.5580846227
O  O25  1  0.90186000  0.44096000  0.91082000  1.0 -0.4992722206
O  O26  1  0.09814000  0.55904000  0.41082000  1.0 -0.4992722206
O  O27  1  0.44096000  0.90186000  0.41082000  1.0 -0.4992722206
O  O28  1  0.55904000  0.09814000  0.91082000  1.0 -0.4992722206
O  O29  1  0.00063000  0.49557000  0.58990000  1.0 -0.4689969676
O  O30  1  0.99937000  0.50443000  0.08990000  1.0 -0.4603660025
O  O31  1  0.49557000  0.00063000  0.08990000  1.0 -0.4689969676
O  O32  1  0.50443000  0.99937000  0.58990000  1.0 -0.4689969676
O  O33  1  0.55969000  0.93599000  0.48550000  1.0 -0.4921836115
O  O34  1  0.44031000  0.06401000  0.98550000  1.0 -0.4921836115
O  O35  1  0.93599000  0.55969000  0.98550000  1.0 -0.4921836115
O  O36  1  0.06401000  0.44031000  0.48550000  1.0 -0.4921836115
O  O37  1  0.59582000  0.03102000  0.42470000  1.0 -0.4603660025
O  O38  1  0.40418000  0.96898000  0.92470000  1.0 -0.4603660025
O  O39  1  0.03102000  0.59582000  0.92470000  1.0 -0.4603660025
O  O40  1  0.96898000  0.40418000  0.42470000  1.0 -0.4603660025
O  O41  1  0.80740000  0.08060000  0.29770000  1.0 -0.5179718069
O  O42  1  0.19260000  0.91940000  0.79770000  1.0 -0.5179718069
O  O43  1  0.08060000  0.80740000  0.79770000  1.0 -0.5179718069
O  O44  1  0.91940000  0.19260000  0.29770000  1.0 -0.5179718069
O  O45  1  0.07717000  0.81523000  0.64920000  1.0 -0.4802843041
O  O46  1  0.92283000  0.18477000  0.14920000  1.0 -0.4802843041
O  O47  1  0.81523000  0.07717000  0.14920000  1.0 -0.4802843041
O  O48  1  0.18477000  0.92283000  0.64920000  1.0 -0.4802843041
O  O49  1  0.57840000  0.42160000  0.63440000  1.0 -0.0129072787
O  O50  1  0.42160000  0.57840000  0.13440000  1.0 -0.0129072787
O  O51  1  0.63080000  0.64320000  0.47800000  1.0 -0.1463660669
O  O52  1  0.36920000  0.35680000  0.97800000  1.0 -0.1463660669
O  O53  1  0.64320000  0.63080000  0.97800000  1.0 -0.1463660669
O  O54  1  0.35680000  0.36920000  0.47800000  1.0 -0.1463660669
