# DDEC6 charges by PACMAN v1.1 (https://github.com/mtap-research/PACMAN-charge/)
data_WASMUB01_ASR_pacman
_symmetry_space_group_name_H-M   'P 1'
_cell_length_a   9.69370000
_cell_length_b   15.67180000
_cell_length_c   29.84600000
_cell_angle_alpha   90.00000000
_cell_angle_beta   90.00000000
_cell_angle_gamma   90.00000000
_symmetry_Int_Tables_number   1
_chemical_formula_structural   FeH32C44S4N7
_chemical_formula_sum   'Fe4 H128 C176 S16 N28'
_cell_volume   4534.13649974
_cell_formula_units_Z   4
loop_
 _symmetry_equiv_pos_site_id
 _symmetry_equiv_pos_as_xyz
  1  'x, y, z'
loop_
 _atom_site_type_symbol
 _atom_site_label
 _atom_site_symmetry_multiplicity
 _atom_site_fract_x
 _atom_site_fract_y
 _atom_site_fract_z
 _atom_site_occupancy
 _atom_site_charge
Fe  Fe1  1  0.00000000  0.21474000  0.73235000  1.0 0.5982780151
Fe  Fe2  1  0.00000000  0.78526000  0.26765000  1.0 0.5982780151
Fe  Fe3  1  0.00000000  0.28526000  0.23235000  1.0 0.5982780151
Fe  Fe4  1  0.00000000  0.71474000  0.76765000  1.0 0.5982780151
H  H1  1  0.27700000  0.28510000  0.69490000  1.0 0.0722869521
H  H2  1  0.27700000  0.71490000  0.30510000  1.0 0.0722869521
H  H3  1  0.72300000  0.21490000  0.19490000  1.0 0.0722869521
H  H4  1  0.72300000  0.78510000  0.80510000  1.0 0.0722869521
H  H5  1  0.72300000  0.71490000  0.30510000  1.0 0.0722869521
H  H6  1  0.72300000  0.28510000  0.69490000  1.0 0.0722869521
H  H7  1  0.27700000  0.78510000  0.80510000  1.0 0.0722869521
H  H8  1  0.27700000  0.21490000  0.19490000  1.0 0.0722869521
H  H9  1  0.10270000  0.06170000  0.67930000  1.0 0.1005544163
H  H10  1  0.10270000  0.93830000  0.32070000  1.0 0.1005544163
H  H11  1  0.89730000  0.43830000  0.17930000  1.0 0.1005544163
H  H12  1  0.89730000  0.56170000  0.82070000  1.0 0.1005544163
H  H13  1  0.89730000  0.93830000  0.32070000  1.0 0.1005544163
H  H14  1  0.89730000  0.06170000  0.67930000  1.0 0.1005544163
H  H15  1  0.10270000  0.56170000  0.82070000  1.0 0.1005544163
H  H16  1  0.10270000  0.43830000  0.17930000  1.0 0.1005544163
H  H17  1  0.44110000  0.25110000  0.64300000  1.0 0.0904892667
H  H18  1  0.44110000  0.74890000  0.35700000  1.0 0.0904892667
H  H19  1  0.55890000  0.24890000  0.14300000  1.0 0.0904892667
H  H20  1  0.55890000  0.75110000  0.85700000  1.0 0.0904892667
H  H21  1  0.55890000  0.74890000  0.35700000  1.0 0.0904892667
H  H22  1  0.55890000  0.25110000  0.64300000  1.0 0.0904892667
H  H23  1  0.44110000  0.75110000  0.85700000  1.0 0.0904892667
H  H24  1  0.44110000  0.24890000  0.14300000  1.0 0.0904892667
H  H25  1  0.24750000  0.03200000  0.62450000  1.0 0.1106414713
H  H26  1  0.24750000  0.96800000  0.37550000  1.0 0.1106414713
H  H27  1  0.75250000  0.46800000  0.12450000  1.0 0.1106414713
H  H28  1  0.75250000  0.53200000  0.87550000  1.0 0.1106414713
H  H29  1  0.75250000  0.96800000  0.37550000  1.0 0.1106414713
H  H30  1  0.75250000  0.03200000  0.62450000  1.0 0.1106414713
H  H31  1  0.24750000  0.53200000  0.87550000  1.0 0.1106414713
H  H32  1  0.24750000  0.46800000  0.12450000  1.0 0.1106414713
H  H33  1  0.42490000  0.14290000  0.28840000  1.0 0.0904892667
H  H34  1  0.42490000  0.85710000  0.71160000  1.0 0.0904892667
H  H35  1  0.57510000  0.35710000  0.78840000  1.0 0.0904892667
H  H36  1  0.57510000  0.64290000  0.21160000  1.0 0.0904892667
H  H37  1  0.57510000  0.85710000  0.71160000  1.0 0.0904892667
H  H38  1  0.57510000  0.14290000  0.28840000  1.0 0.0904892667
H  H39  1  0.42490000  0.64290000  0.21160000  1.0 0.0904892667
H  H40  1  0.42490000  0.35710000  0.78840000  1.0 0.0904892667
H  H41  1  0.20740000  0.26970000  0.38100000  1.0 0.1106414713
H  H42  1  0.20740000  0.73030000  0.61900000  1.0 0.1106414713
H  H43  1  0.79260000  0.23030000  0.88100000  1.0 0.1106414713
H  H44  1  0.79260000  0.76970000  0.11900000  1.0 0.1106414713
H  H45  1  0.79260000  0.73030000  0.61900000  1.0 0.1106414713
H  H46  1  0.79260000  0.26970000  0.38100000  1.0 0.1106414713
H  H47  1  0.20740000  0.76970000  0.11900000  1.0 0.1106414713
H  H48  1  0.20740000  0.23030000  0.88100000  1.0 0.1106414713
H  H49  1  0.25840000  0.18250000  0.23400000  1.0 0.0617593668
H  H50  1  0.25840000  0.81750000  0.76600000  1.0 0.0617593668
H  H51  1  0.74160000  0.31750000  0.73400000  1.0 0.0617593668
H  H52  1  0.74160000  0.68250000  0.26600000  1.0 0.0617593668
H  H53  1  0.74160000  0.81750000  0.76600000  1.0 0.0617593668
H  H54  1  0.74160000  0.18250000  0.23400000  1.0 0.0617593668
H  H55  1  0.25840000  0.68250000  0.26600000  1.0 0.0617593668
H  H56  1  0.25840000  0.31750000  0.73400000  1.0 0.0617593668
H  H57  1  0.06430000  0.31560000  0.32700000  1.0 0.078059661
H  H58  1  0.06430000  0.68440000  0.67300000  1.0 0.0722869521
H  H59  1  0.93570000  0.18440000  0.82700000  1.0 0.0722869521
H  H60  1  0.93570000  0.81560000  0.17300000  1.0 0.0722869521
H  H61  1  0.93570000  0.68440000  0.67300000  1.0 0.0722869521
H  H62  1  0.93570000  0.31560000  0.32700000  1.0 0.078059661
H  H63  1  0.06430000  0.81560000  0.17300000  1.0 0.0722869521
H  H64  1  0.06430000  0.18440000  0.82700000  1.0 0.0722869521
H  H65  1  0.96530000  0.24160000  0.63840000  1.0 0.0904892667
H  H66  1  0.96530000  0.75840000  0.36160000  1.0 0.0904892667
H  H67  1  0.03470000  0.25840000  0.13840000  1.0 0.0904892667
H  H68  1  0.03470000  0.74160000  0.86160000  1.0 0.0904892667
H  H69  1  0.03470000  0.75840000  0.36160000  1.0 0.0904892667
H  H70  1  0.03470000  0.24160000  0.63840000  1.0 0.0904892667
H  H71  1  0.96530000  0.74160000  0.86160000  1.0 0.0904892667
H  H72  1  0.96530000  0.25840000  0.13840000  1.0 0.0904892667
H  H73  1  0.81070000  0.21770000  0.58280000  1.0 0.1106414713
H  H74  1  0.81070000  0.78230000  0.41720000  1.0 0.1106414713
H  H75  1  0.18930000  0.28230000  0.08280000  1.0 0.1106414713
H  H76  1  0.18930000  0.71770000  0.91720000  1.0 0.1106414713
H  H77  1  0.18930000  0.78230000  0.41720000  1.0 0.1106414713
H  H78  1  0.18930000  0.21770000  0.58280000  1.0 0.1106414713
H  H79  1  0.81070000  0.71770000  0.91720000  1.0 0.1106414713
H  H80  1  0.81070000  0.28230000  0.08280000  1.0 0.1106414713
H  H81  1  0.60010000  0.06820000  0.66880000  1.0 0.1106414713
H  H82  1  0.60010000  0.93180000  0.33120000  1.0 0.1106414713
H  H83  1  0.39990000  0.43180000  0.16880000  1.0 0.1106414713
H  H84  1  0.39990000  0.56820000  0.83120000  1.0 0.1106414713
H  H85  1  0.39990000  0.93180000  0.33120000  1.0 0.1106414713
H  H86  1  0.39990000  0.06820000  0.66880000  1.0 0.1106414713
H  H87  1  0.60010000  0.56820000  0.83120000  1.0 0.1106414713
H  H88  1  0.60010000  0.43180000  0.16880000  1.0 0.1106414713
H  H89  1  0.75520000  0.10260000  0.72160000  1.0 0.1005544163
H  H90  1  0.75520000  0.89740000  0.27840000  1.0 0.0904892667
H  H91  1  0.24480000  0.39740000  0.22160000  1.0 0.0904892667
H  H92  1  0.24480000  0.60260000  0.77840000  1.0 0.1005544163
H  H93  1  0.24480000  0.89740000  0.27840000  1.0 0.0904892667
H  H94  1  0.24480000  0.10260000  0.72160000  1.0 0.1005544163
H  H95  1  0.75520000  0.60260000  0.77840000  1.0 0.1005544163
H  H96  1  0.75520000  0.39740000  0.22160000  1.0 0.0904892667
H  H97  1  0.57490000  0.30140000  0.32400000  1.0 0.1005544163
H  H98  1  0.57490000  0.69860000  0.67600000  1.0 0.1005544163
H  H99  1  0.42510000  0.19860000  0.82400000  1.0 0.1005544163
H  H100  1  0.42510000  0.80140000  0.17600000  1.0 0.1005544163
H  H101  1  0.42510000  0.69860000  0.67600000  1.0 0.1005544163
H  H102  1  0.42510000  0.30140000  0.32400000  1.0 0.1005544163
H  H103  1  0.57490000  0.80140000  0.17600000  1.0 0.1005544163
H  H104  1  0.57490000  0.19860000  0.82400000  1.0 0.1005544163
H  H105  1  0.71770000  0.34570000  0.27480000  1.0 0.078059661
H  H106  1  0.71770000  0.65430000  0.72520000  1.0 0.078059661
H  H107  1  0.28230000  0.15430000  0.77480000  1.0 0.078059661
H  H108  1  0.28230000  0.84570000  0.22520000  1.0 0.078059661
H  H109  1  0.28230000  0.65430000  0.72520000  1.0 0.078059661
H  H110  1  0.28230000  0.34570000  0.27480000  1.0 0.078059661
H  H111  1  0.71770000  0.84570000  0.22520000  1.0 0.078059661
H  H112  1  0.71770000  0.15430000  0.77480000  1.0 0.078059661
H  H113  1  0.93760000  0.13690000  0.29070000  1.0 0.0617593668
H  H114  1  0.93760000  0.86310000  0.70930000  1.0 0.0617593668
H  H115  1  0.06240000  0.36310000  0.79070000  1.0 0.0617593668
H  H116  1  0.06240000  0.63690000  0.20930000  1.0 0.0617593668
H  H117  1  0.06240000  0.86310000  0.70930000  1.0 0.0617593668
H  H118  1  0.06240000  0.13690000  0.29070000  1.0 0.0617593668
H  H119  1  0.93760000  0.63690000  0.20930000  1.0 0.0617593668
H  H120  1  0.93760000  0.36310000  0.79070000  1.0 0.0617593668
H  H121  1  0.79800000  0.08710000  0.34340000  1.0 0.0904892667
H  H122  1  0.79800000  0.91290000  0.65660000  1.0 0.0904892667
H  H123  1  0.20200000  0.41290000  0.84340000  1.0 0.0904892667
H  H124  1  0.20200000  0.58710000  0.15660000  1.0 0.0904892667
H  H125  1  0.20200000  0.91290000  0.65660000  1.0 0.0904892667
H  H126  1  0.20200000  0.08710000  0.34340000  1.0 0.0904892667
H  H127  1  0.79800000  0.58710000  0.15660000  1.0 0.0904892667
H  H128  1  0.79800000  0.41290000  0.84340000  1.0 0.0904892667
C  C1  1  0.00000000  0.04380000  0.78080000  1.0 0.2109026901
C  C2  1  0.00000000  0.95620000  0.21920000  1.0 0.2109026901
C  C3  1  0.00000000  0.45620000  0.28080000  1.0 0.2109026901
C  C4  1  0.00000000  0.54380000  0.71920000  1.0 0.2109026901
C  C5  1  0.26630000  0.23530000  0.67830000  1.0 -0.0790898639
C  C6  1  0.26630000  0.76470000  0.32170000  1.0 -0.0790898639
C  C7  1  0.73370000  0.26470000  0.17830000  1.0 -0.0790898639
C  C8  1  0.73370000  0.73530000  0.82170000  1.0 -0.0790898639
C  C9  1  0.73370000  0.76470000  0.32170000  1.0 -0.0790898639
C  C10  1  0.73370000  0.23530000  0.67830000  1.0 -0.0790898639
C  C11  1  0.26630000  0.73530000  0.82170000  1.0 -0.0790898639
C  C12  1  0.26630000  0.26470000  0.17830000  1.0 -0.0790898639
C  C13  1  0.15930000  0.10540000  0.66900000  1.0 0.0111952045
C  C14  1  0.15930000  0.89460000  0.33100000  1.0 0.0111952045
C  C15  1  0.84070000  0.39460000  0.16900000  1.0 0.0111952045
C  C16  1  0.84070000  0.60540000  0.83100000  1.0 0.0111952045
C  C17  1  0.84070000  0.89460000  0.33100000  1.0 0.0111952045
C  C18  1  0.84070000  0.10540000  0.66900000  1.0 0.0111952045
C  C19  1  0.15930000  0.60540000  0.83100000  1.0 0.0111952045
C  C20  1  0.15930000  0.39460000  0.16900000  1.0 0.0111952045
C  C21  1  0.36330000  0.21730000  0.64720000  1.0 -0.161109822
C  C22  1  0.36330000  0.78270000  0.35280000  1.0 -0.161109822
C  C23  1  0.63670000  0.28270000  0.14720000  1.0 -0.161109822
C  C24  1  0.63670000  0.71730000  0.85280000  1.0 -0.161109822
C  C25  1  0.63670000  0.78270000  0.35280000  1.0 -0.161109822
C  C26  1  0.63670000  0.21730000  0.64720000  1.0 -0.161109822
C  C27  1  0.36330000  0.71730000  0.85280000  1.0 -0.161109822
C  C28  1  0.36330000  0.28270000  0.14720000  1.0 -0.161109822
C  C29  1  0.24850000  0.08670000  0.63650000  1.0 -0.0997889149
C  C30  1  0.24850000  0.91330000  0.36350000  1.0 -0.0997889149
C  C31  1  0.75150000  0.41330000  0.13650000  1.0 -0.0997889149
C  C32  1  0.75150000  0.58670000  0.86350000  1.0 -0.0997889149
C  C33  1  0.75150000  0.91330000  0.36350000  1.0 -0.0997889149
C  C34  1  0.75150000  0.08670000  0.63650000  1.0 -0.0997889149
C  C35  1  0.24850000  0.58670000  0.86350000  1.0 -0.0997889149
C  C36  1  0.24850000  0.41330000  0.13650000  1.0 -0.0997889149
C  C37  1  0.00000000  0.90280000  0.79830000  1.0 0.3719690658
C  C38  1  0.00000000  0.09720000  0.20170000  1.0 0.3719690658
C  C39  1  0.00000000  0.59720000  0.29830000  1.0 0.3719690658
C  C40  1  0.00000000  0.40280000  0.70170000  1.0 0.3719690658
C  C41  1  0.33710000  0.14150000  0.62100000  1.0 0.078059661
C  C42  1  0.33710000  0.85850000  0.37900000  1.0 0.078059661
C  C43  1  0.66290000  0.35850000  0.12100000  1.0 0.078059661
C  C44  1  0.66290000  0.64150000  0.87900000  1.0 0.078059661
C  C45  1  0.66290000  0.85850000  0.37900000  1.0 0.078059661
C  C46  1  0.66290000  0.14150000  0.62100000  1.0 0.078059661
C  C47  1  0.33710000  0.64150000  0.87900000  1.0 0.078059661
C  C48  1  0.33710000  0.35850000  0.12100000  1.0 0.078059661
C  C49  1  0.43130000  0.12370000  0.58360000  1.0 -0.0907920187
C  C50  1  0.43130000  0.87630000  0.41640000  1.0 -0.0907920187
C  C51  1  0.56870000  0.37630000  0.08360000  1.0 -0.0790898639
C  C52  1  0.56870000  0.62370000  0.91640000  1.0 -0.0907920187
C  C53  1  0.56870000  0.87630000  0.41640000  1.0 -0.0907920187
C  C54  1  0.56870000  0.12370000  0.58360000  1.0 -0.0907920187
C  C55  1  0.43130000  0.62370000  0.91640000  1.0 -0.0907920187
C  C56  1  0.43130000  0.37630000  0.08360000  1.0 -0.0790898639
C  C57  1  0.50000000  0.10650000  0.50020000  1.0 -0.0997889149
C  C58  1  0.50000000  0.89350000  0.49980000  1.0 -0.0997889149
C  C59  1  0.50000000  0.39350000  0.00020000  1.0 -0.0997889149
C  C60  1  0.50000000  0.60650000  0.99980000  1.0 -0.0997889149
C  C61  1  0.50000000  0.11410000  0.45500000  1.0 -0.1068207983
C  C62  1  0.50000000  0.88590000  0.54500000  1.0 -0.1068207983
C  C63  1  0.50000000  0.38590000  0.95500000  1.0 -0.1068207983
C  C64  1  0.50000000  0.61410000  0.04500000  1.0 -0.1068207983
C  C65  1  0.43170000  0.16440000  0.37610000  1.0 -0.0907920187
C  C66  1  0.43170000  0.83560000  0.62390000  1.0 -0.0907920187
C  C67  1  0.56830000  0.33560000  0.87610000  1.0 -0.0907920187
C  C68  1  0.56830000  0.66440000  0.12390000  1.0 -0.0907920187
C  C69  1  0.56830000  0.83560000  0.62390000  1.0 -0.0907920187
C  C70  1  0.56830000  0.16440000  0.37610000  1.0 -0.0907920187
C  C71  1  0.43170000  0.66440000  0.12390000  1.0 -0.0907920187
C  C72  1  0.43170000  0.33560000  0.87610000  1.0 -0.0907920187
C  C73  1  0.33620000  0.19230000  0.34040000  1.0 0.0617593668
C  C74  1  0.33620000  0.80770000  0.65960000  1.0 0.0617593668
C  C75  1  0.66380000  0.30770000  0.84040000  1.0 0.0617593668
C  C76  1  0.66380000  0.69230000  0.15960000  1.0 0.0617593668
C  C77  1  0.66380000  0.80770000  0.65960000  1.0 0.0617593668
C  C78  1  0.66380000  0.19230000  0.34040000  1.0 0.0617593668
C  C79  1  0.33620000  0.69230000  0.15960000  1.0 0.0617593668
C  C80  1  0.33620000  0.30770000  0.84040000  1.0 0.0617593668
C  C81  1  0.34840000  0.17420000  0.29750000  1.0 -0.0675744571
C  C82  1  0.34840000  0.82580000  0.70250000  1.0 -0.0675744571
C  C83  1  0.65160000  0.32580000  0.79750000  1.0 -0.0675744571
C  C84  1  0.65160000  0.67420000  0.20250000  1.0 -0.0675744571
C  C85  1  0.65160000  0.82580000  0.70250000  1.0 -0.0675744571
C  C86  1  0.65160000  0.17420000  0.29750000  1.0 -0.0675744571
C  C87  1  0.34840000  0.67420000  0.20250000  1.0 -0.0675744571
C  C88  1  0.34840000  0.32580000  0.79750000  1.0 -0.0675744571
C  C89  1  0.21980000  0.25120000  0.35160000  1.0 -0.0907920187
C  C90  1  0.21980000  0.74880000  0.64840000  1.0 -0.0907920187
C  C91  1  0.78020000  0.24880000  0.85160000  1.0 -0.0907920187
C  C92  1  0.78020000  0.75120000  0.14840000  1.0 -0.0907920187
C  C93  1  0.78020000  0.74880000  0.64840000  1.0 -0.0907920187
C  C94  1  0.78020000  0.25120000  0.35160000  1.0 -0.0907920187
C  C95  1  0.21980000  0.75120000  0.14840000  1.0 -0.0907920187
C  C96  1  0.21980000  0.24880000  0.85160000  1.0 -0.0907920187
C  C97  1  0.24920000  0.20000000  0.26360000  1.0 -0.0004812724
C  C98  1  0.24920000  0.80000000  0.73640000  1.0 -0.0004812724
C  C99  1  0.75080000  0.30000000  0.76360000  1.0 -0.0004812724
C  C100  1  0.75080000  0.70000000  0.23640000  1.0 -0.0004812724
C  C101  1  0.75080000  0.80000000  0.73640000  1.0 -0.0004812724
C  C102  1  0.75080000  0.20000000  0.26360000  1.0 -0.0004812724
C  C103  1  0.24920000  0.70000000  0.23640000  1.0 -0.0004812724
C  C104  1  0.24920000  0.30000000  0.76360000  1.0 0.0003092342
C  C105  1  0.13370000  0.27730000  0.31940000  1.0 0.0111952045
C  C106  1  0.13370000  0.72270000  0.68060000  1.0 0.0111952045
C  C107  1  0.86630000  0.22270000  0.81940000  1.0 0.0111952045
C  C108  1  0.86630000  0.77730000  0.18060000  1.0 0.0111952045
C  C109  1  0.86630000  0.72270000  0.68060000  1.0 0.0111952045
C  C110  1  0.86630000  0.27730000  0.31940000  1.0 0.0111952045
C  C111  1  0.13370000  0.77730000  0.18060000  1.0 0.0111952045
C  C112  1  0.13370000  0.22270000  0.81940000  1.0 0.0111952045
C  C113  1  0.88450000  0.21150000  0.64410000  1.0 -0.1218797665
C  C114  1  0.88450000  0.78850000  0.35590000  1.0 -0.1218797665
C  C115  1  0.11550000  0.28850000  0.14410000  1.0 -0.1218797665
C  C116  1  0.11550000  0.71150000  0.85590000  1.0 -0.1218797665
C  C117  1  0.11550000  0.78850000  0.35590000  1.0 -0.1218797665
C  C118  1  0.11550000  0.21150000  0.64410000  1.0 -0.1218797665
C  C119  1  0.88450000  0.71150000  0.85590000  1.0 -0.1218797665
C  C120  1  0.88450000  0.28850000  0.14410000  1.0 -0.1218797665
C  C121  1  0.79490000  0.19610000  0.61130000  1.0 -0.161109822
C  C122  1  0.79490000  0.80390000  0.38870000  1.0 -0.161109822
C  C123  1  0.20510000  0.30390000  0.11130000  1.0 -0.161109822
C  C124  1  0.20510000  0.69610000  0.88870000  1.0 -0.161109822
C  C125  1  0.20510000  0.80390000  0.38870000  1.0 -0.161109822
C  C126  1  0.20510000  0.19610000  0.61130000  1.0 -0.161109822
C  C127  1  0.79490000  0.69610000  0.88870000  1.0 -0.161109822
C  C128  1  0.79490000  0.30390000  0.11130000  1.0 -0.161109822
C  C129  1  0.66666667  0.10850000  0.66150000  1.0 -0.05756002
C  C130  1  0.66666667  0.89150000  0.33850000  1.0 -0.05756002
C  C131  1  0.33333333  0.39150000  0.16150000  1.0 -0.05756002
C  C132  1  0.33333333  0.60850000  0.83850000  1.0 -0.05756002
C  C133  1  0.33333333  0.89150000  0.33850000  1.0 -0.05756002
C  C134  1  0.33333333  0.10850000  0.66150000  1.0 -0.05756002
C  C135  1  0.66666667  0.60850000  0.83850000  1.0 -0.05756002
C  C136  1  0.66666667  0.39150000  0.16150000  1.0 -0.05756002
C  C137  1  0.76160000  0.12930000  0.69380000  1.0 0.0416445017
C  C138  1  0.76160000  0.87070000  0.30620000  1.0 0.0416445017
C  C139  1  0.23840000  0.37070000  0.19380000  1.0 0.0416445017
C  C140  1  0.23840000  0.62930000  0.80620000  1.0 0.0416445017
C  C141  1  0.23840000  0.87070000  0.30620000  1.0 0.0416445017
C  C142  1  0.23840000  0.12930000  0.69380000  1.0 0.0416445017
C  C143  1  0.76160000  0.62930000  0.80620000  1.0 0.0416445017
C  C144  1  0.76160000  0.37070000  0.19380000  1.0 0.0416445017
C  C145  1  0.65120000  0.26740000  0.31780000  1.0 -0.0790898639
C  C146  1  0.65120000  0.73260000  0.68220000  1.0 -0.0790898639
C  C147  1  0.34880000  0.23260000  0.81780000  1.0 -0.0790898639
C  C148  1  0.34880000  0.76740000  0.18220000  1.0 -0.0790898639
C  C149  1  0.34880000  0.73260000  0.68220000  1.0 -0.0790898639
C  C150  1  0.34880000  0.26740000  0.31780000  1.0 -0.0790898639
C  C151  1  0.65120000  0.76740000  0.18220000  1.0 -0.0790898639
C  C152  1  0.65120000  0.23260000  0.81780000  1.0 -0.0790898639
C  C153  1  0.73640000  0.29400000  0.28880000  1.0 -0.0117601925
C  C154  1  0.73640000  0.70600000  0.71120000  1.0 -0.0117601925
C  C155  1  0.26360000  0.20600000  0.78880000  1.0 -0.0117601925
C  C156  1  0.26360000  0.79400000  0.21120000  1.0 -0.0117601925
C  C157  1  0.26360000  0.70600000  0.71120000  1.0 -0.0117601925
C  C158  1  0.26360000  0.29400000  0.28880000  1.0 -0.0117601925
C  C159  1  0.73640000  0.79400000  0.21120000  1.0 -0.0117601925
C  C160  1  0.73640000  0.20600000  0.78880000  1.0 -0.0117601925
C  C161  1  0.86400000  0.17160000  0.29890000  1.0 -0.0203400953
C  C162  1  0.86400000  0.82840000  0.70110000  1.0 -0.0203400953
C  C163  1  0.13600000  0.32840000  0.79890000  1.0 -0.0203400953
C  C164  1  0.13600000  0.67160000  0.20110000  1.0 -0.0203400953
C  C165  1  0.13600000  0.82840000  0.70110000  1.0 -0.0203400953
C  C166  1  0.13600000  0.17160000  0.29890000  1.0 -0.0203400953
C  C167  1  0.86400000  0.67160000  0.20110000  1.0 -0.0203400953
C  C168  1  0.86400000  0.32840000  0.79890000  1.0 -0.0203400953
C  C169  1  0.78170000  0.13950000  0.32970000  1.0 -0.161109822
C  C170  1  0.78170000  0.86050000  0.67030000  1.0 -0.161109822
C  C171  1  0.21830000  0.36050000  0.82970000  1.0 -0.161109822
C  C172  1  0.21830000  0.63950000  0.17030000  1.0 -0.161109822
C  C173  1  0.21830000  0.86050000  0.67030000  1.0 -0.161109822
C  C174  1  0.21830000  0.13950000  0.32970000  1.0 -0.161109822
C  C175  1  0.78170000  0.63950000  0.17030000  1.0 -0.161109822
C  C176  1  0.78170000  0.36050000  0.82970000  1.0 -0.161109822
S  S1  1  0.34783000  0.10067000  0.53192000  1.0 0.05049891
S  S2  1  0.34783000  0.89933000  0.46808000  1.0 0.05049891
S  S3  1  0.65217000  0.39933000  0.03192000  1.0 0.05049891
S  S4  1  0.65217000  0.60067000  0.96808000  1.0 0.0617593668
S  S5  1  0.65217000  0.89933000  0.46808000  1.0 0.05049891
S  S6  1  0.65217000  0.10067000  0.53192000  1.0 0.05049891
S  S7  1  0.34783000  0.60067000  0.96808000  1.0 0.0617593668
S  S8  1  0.34783000  0.39933000  0.03192000  1.0 0.05049891
S  S9  1  0.34822000  0.12120000  0.42384000  1.0 0.05049891
S  S10  1  0.34822000  0.87880000  0.57616000  1.0 0.05049891
S  S11  1  0.65178000  0.37880000  0.92384000  1.0 0.05049891
S  S12  1  0.65178000  0.62120000  0.07616000  1.0 0.05049891
S  S13  1  0.65178000  0.87880000  0.57616000  1.0 0.05049891
S  S14  1  0.65178000  0.12120000  0.42384000  1.0 0.05049891
S  S15  1  0.34822000  0.62120000  0.07616000  1.0 0.05049891
S  S16  1  0.34822000  0.37880000  0.92384000  1.0 0.05049891
N  N1  1  0.85520000  0.18170000  0.68790000  1.0 -0.0790898639
N  N2  1  0.85520000  0.81830000  0.31210000  1.0 -0.0790898639
N  N3  1  0.14480000  0.31830000  0.18790000  1.0 -0.0790898639
N  N4  1  0.14480000  0.68170000  0.81210000  1.0 -0.0790898639
N  N5  1  0.14480000  0.81830000  0.31210000  1.0 -0.0790898639
N  N6  1  0.14480000  0.18170000  0.68790000  1.0 -0.0790898639
N  N7  1  0.85520000  0.68170000  0.81210000  1.0 -0.0790898639
N  N8  1  0.85520000  0.31830000  0.18790000  1.0 -0.0790898639
N  N9  1  0.00000000  0.10170000  0.75910000  1.0 -0.5262597707
N  N10  1  0.00000000  0.89830000  0.24090000  1.0 -0.5262597707
N  N11  1  0.00000000  0.39830000  0.25910000  1.0 -0.5262597707
N  N12  1  0.00000000  0.60170000  0.74090000  1.0 -0.5247093149
N  N13  1  0.14280000  0.24940000  0.77649000  1.0 -0.1478027113
N  N14  1  0.14280000  0.75060000  0.22351000  1.0 -0.1478027113
N  N15  1  0.85720000  0.25060000  0.27649000  1.0 -0.1478027113
N  N16  1  0.85720000  0.74940000  0.72351000  1.0 -0.1478027113
N  N17  1  0.85720000  0.75060000  0.22351000  1.0 -0.1478027113
N  N18  1  0.85720000  0.24940000  0.77649000  1.0 -0.1478027113
N  N19  1  0.14280000  0.74940000  0.72351000  1.0 -0.1478027113
N  N20  1  0.14280000  0.25060000  0.27649000  1.0 -0.1478027113
N  N21  1  0.00000000  0.33120000  0.70860000  1.0 -0.5553199358
N  N22  1  0.00000000  0.66880000  0.29140000  1.0 -0.5535375185
N  N23  1  0.00000000  0.16880000  0.20860000  1.0 -0.5553199358
N  N24  1  0.00000000  0.83120000  0.79140000  1.0 -0.5535375185
N  N25  1  0.00000000  0.98110000  0.81150000  1.0 -0.3727947406
N  N26  1  0.00000000  0.01890000  0.18850000  1.0 -0.3727947406
N  N27  1  0.00000000  0.51890000  0.31150000  1.0 -0.3727947406
N  N28  1  0.00000000  0.48110000  0.68850000  1.0 -0.3727947406
