# DDEC6 charges by PACMAN v1.1 (https://github.com/mtap-research/PACMAN-charge/)
data_WASMIP_FSR_pacman
_symmetry_space_group_name_H-M   'P 1'
_cell_length_a   8.29360000
_cell_length_b   16.25390000
_cell_length_c   17.00730000
_cell_angle_alpha   90.00000000
_cell_angle_beta   100.02300000
_cell_angle_gamma   90.00000000
_symmetry_Int_Tables_number   1
_chemical_formula_structural   FeH8C17S2N9
_chemical_formula_sum   'Fe4 H32 C68 S8 N36'
_cell_volume   2257.65056816
_cell_formula_units_Z   4
loop_
 _symmetry_equiv_pos_site_id
 _symmetry_equiv_pos_as_xyz
  1  'x, y, z'
loop_
 _atom_site_type_symbol
 _atom_site_label
 _atom_site_symmetry_multiplicity
 _atom_site_fract_x
 _atom_site_fract_y
 _atom_site_fract_z
 _atom_site_occupancy
 _atom_site_charge
Fe  Fe1  1  0.98344000  0.24689000  0.76696000  1.0 0.8297474256
Fe  Fe2  1  0.01656000  0.74689000  0.73304000  1.0 0.8297474256
Fe  Fe3  1  0.01656000  0.75311000  0.23304000  1.0 0.8297474256
Fe  Fe4  1  0.98344000  0.25311000  0.26696000  1.0 0.8297474256
H  H1  1  0.10310000  0.10020000  0.87410000  1.0 0.0991423556
H  H2  1  0.32820000  0.02270000  0.92240000  1.0 0.1304476915
H  H3  1  0.60240000  0.18010000  0.82310000  1.0 0.1417115947
H  H4  1  0.36880000  0.25230000  0.77240000  1.0 0.1097358634
H  H5  1  0.54410000  0.81280000  0.93140000  1.0 0.1304476915
H  H6  1  0.32130000  0.73620000  0.87000000  1.0 0.0991423556
H  H7  1  0.23120000  0.89260000  0.69440000  1.0 0.1097358634
H  H8  1  0.45300000  0.97290000  0.75020000  1.0 0.1417115947
H  H9  1  0.89690000  0.60020000  0.62590000  1.0 0.0991423556
H  H10  1  0.67180000  0.52270000  0.57760000  1.0 0.1304476915
H  H11  1  0.39760000  0.68010000  0.67690000  1.0 0.1417115947
H  H12  1  0.63120000  0.75230000  0.72760000  1.0 0.1097358634
H  H13  1  0.45590000  0.31280000  0.56860000  1.0 0.1304476915
H  H14  1  0.67870000  0.23620000  0.63000000  1.0 0.0991423556
H  H15  1  0.76880000  0.39260000  0.80560000  1.0 0.1097358634
H  H16  1  0.54700000  0.47290000  0.74980000  1.0 0.1417115947
H  H17  1  0.89690000  0.89980000  0.12590000  1.0 0.0991423556
H  H18  1  0.67180000  0.97730000  0.07760000  1.0 0.1304476915
H  H19  1  0.39760000  0.81990000  0.17690000  1.0 0.1417115947
H  H20  1  0.63120000  0.74770000  0.22760000  1.0 0.1097358634
H  H21  1  0.45590000  0.18720000  0.06860000  1.0 0.1304476915
H  H22  1  0.67870000  0.26380000  0.13000000  1.0 0.0991423556
H  H23  1  0.76880000  0.10740000  0.30560000  1.0 0.1097358634
H  H24  1  0.54700000  0.02710000  0.24980000  1.0 0.1417115947
H  H25  1  0.10310000  0.39980000  0.37410000  1.0 0.0991423556
H  H26  1  0.32820000  0.47730000  0.42240000  1.0 0.1304476915
H  H27  1  0.60240000  0.31990000  0.32310000  1.0 0.1417115947
H  H28  1  0.36880000  0.24770000  0.27240000  1.0 0.1097358634
H  H29  1  0.54410000  0.68720000  0.43140000  1.0 0.1304476915
H  H30  1  0.32130000  0.76380000  0.37000000  1.0 0.0991423556
H  H31  1  0.23120000  0.60740000  0.19440000  1.0 0.1097358634
H  H32  1  0.45300000  0.52710000  0.25020000  1.0 0.1417115947
C  C1  1  0.20410000  0.11570000  0.86220000  1.0 0.0735129138
C  C2  1  0.33880000  0.06900000  0.89160000  1.0 -0.1819034198
C  C3  1  0.48920000  0.09070000  0.87520000  1.0 0.1222109572
C  C4  1  0.50100000  0.16180000  0.83220000  1.0 -0.1720264087
C  C5  1  0.36040000  0.20550000  0.80290000  1.0 0.0991423556
C  C6  1  0.63600000  0.03850000  0.90320000  1.0 -0.0536281037
C  C7  1  0.65070000  0.95770000  0.89020000  1.0 -0.0587897187
C  C8  1  0.51840000  0.90310000  0.84820000  1.0 0.1222109572
C  C9  1  0.48110000  0.83070000  0.88390000  1.0 -0.1981354634
C  C10  1  0.34590000  0.78530000  0.84660000  1.0 0.0991423556
C  C11  1  0.29310000  0.87720000  0.74320000  1.0 0.0944153612
C  C12  1  0.42670000  0.92590000  0.77640000  1.0 -0.1637609134
C  C13  1  0.92720000  0.99950000  0.97640000  1.0 -0.1145795564
C  C14  1  0.81750000  0.06640000  0.73030000  1.0 0.4377947023
C  C15  1  0.83430000  0.92680000  0.71430000  1.0 0.4377947023
C  C16  1  0.01890000  0.20690000  0.58580000  1.0 0.307590889
C  C17  1  0.97070000  0.20820000  0.44850000  1.0 0.3000928258
C  C18  1  0.79590000  0.61570000  0.63780000  1.0 0.0735129138
C  C19  1  0.66120000  0.56900000  0.60840000  1.0 -0.1819034198
C  C20  1  0.51080000  0.59070000  0.62480000  1.0 0.1222109572
C  C21  1  0.49900000  0.66180000  0.66780000  1.0 -0.1720264087
C  C22  1  0.63960000  0.70550000  0.69710000  1.0 0.0991423556
C  C23  1  0.36400000  0.53850000  0.59680000  1.0 -0.0536281037
C  C24  1  0.34930000  0.45770000  0.60980000  1.0 -0.0587897187
C  C25  1  0.48160000  0.40310000  0.65180000  1.0 0.1222109572
C  C26  1  0.51890000  0.33070000  0.61610000  1.0 -0.1981354634
C  C27  1  0.65410000  0.28530000  0.65340000  1.0 0.0991423556
C  C28  1  0.70690000  0.37720000  0.75680000  1.0 0.0944153612
C  C29  1  0.57330000  0.42590000  0.72360000  1.0 -0.1637609134
C  C30  1  0.07280000  0.49950000  0.52360000  1.0 -0.1145795564
C  C31  1  0.18250000  0.56640000  0.76970000  1.0 0.4377947023
C  C32  1  0.16570000  0.42680000  0.78570000  1.0 0.4347403815
C  C33  1  0.98110000  0.70690000  0.91420000  1.0 0.307590889
C  C34  1  0.02930000  0.70820000  0.05150000  1.0 0.3000928258
C  C35  1  0.79590000  0.88430000  0.13780000  1.0 0.0735129138
C  C36  1  0.66120000  0.93100000  0.10840000  1.0 -0.1819034198
C  C37  1  0.51080000  0.90930000  0.12480000  1.0 0.1222109572
C  C38  1  0.49900000  0.83820000  0.16780000  1.0 -0.1720264087
C  C39  1  0.63960000  0.79450000  0.19710000  1.0 0.0991423556
C  C40  1  0.36400000  0.96150000  0.09680000  1.0 -0.0536281037
C  C41  1  0.34930000  0.04230000  0.10980000  1.0 -0.0587897187
C  C42  1  0.48160000  0.09690000  0.15180000  1.0 0.1222109572
C  C43  1  0.51890000  0.16930000  0.11610000  1.0 -0.1981354634
C  C44  1  0.65410000  0.21470000  0.15340000  1.0 0.0991423556
C  C45  1  0.70690000  0.12280000  0.25680000  1.0 0.0944153612
C  C46  1  0.57330000  0.07410000  0.22360000  1.0 -0.1637609134
C  C47  1  0.07280000  0.00050000  0.02360000  1.0 -0.1145795564
C  C48  1  0.18250000  0.93360000  0.26970000  1.0 0.4377947023
C  C49  1  0.16570000  0.07320000  0.28570000  1.0 0.4347403815
C  C50  1  0.98110000  0.79310000  0.41420000  1.0 0.307590889
C  C51  1  0.02930000  0.79180000  0.55150000  1.0 0.3000928258
C  C52  1  0.20410000  0.38430000  0.36220000  1.0 0.0735129138
C  C53  1  0.33880000  0.43100000  0.39160000  1.0 -0.1819034198
C  C54  1  0.48920000  0.40930000  0.37520000  1.0 0.1222109572
C  C55  1  0.50100000  0.33820000  0.33220000  1.0 -0.1720264087
C  C56  1  0.36040000  0.29450000  0.30290000  1.0 0.0991423556
C  C57  1  0.63600000  0.46150000  0.40320000  1.0 -0.0536281037
C  C58  1  0.65070000  0.54230000  0.39020000  1.0 -0.0587897187
C  C59  1  0.51840000  0.59690000  0.34820000  1.0 0.1222109572
C  C60  1  0.48110000  0.66930000  0.38390000  1.0 -0.1981354634
C  C61  1  0.34590000  0.71470000  0.34660000  1.0 0.0991423556
C  C62  1  0.29310000  0.62280000  0.24320000  1.0 0.0944153612
C  C63  1  0.42670000  0.57410000  0.27640000  1.0 -0.1637609134
C  C64  1  0.92720000  0.50050000  0.47640000  1.0 -0.1145795564
C  C65  1  0.81750000  0.43360000  0.23030000  1.0 0.4377947023
C  C66  1  0.83430000  0.57320000  0.21430000  1.0 0.4347403815
C  C67  1  0.01890000  0.29310000  0.08580000  1.0 0.307590889
C  C68  1  0.97070000  0.29180000  0.94850000  1.0 0.3000928258
S  S1  1  0.83830000  0.91108000  0.92849000  1.0 0.0991423556
S  S2  1  0.80496000  0.08873000  0.95997000  1.0 0.0834468921
S  S3  1  0.16170000  0.41108000  0.57151000  1.0 0.0991423556
S  S4  1  0.19504000  0.58873000  0.54003000  1.0 0.0834468921
S  S5  1  0.16170000  0.08892000  0.07151000  1.0 0.0991423556
S  S6  1  0.19504000  0.91127000  0.04003000  1.0 0.0834468921
S  S7  1  0.83830000  0.58892000  0.42849000  1.0 0.0991423556
S  S8  1  0.80496000  0.41127000  0.45997000  1.0 0.0834468921
N  N1  1  0.21130000  0.18290000  0.81690000  1.0 -0.2292295134
N  N2  1  0.25130000  0.80900000  0.77930000  1.0 -0.2292295134
N  N3  1  0.85700000  0.13000000  0.75380000  1.0 -0.5319349469
N  N4  1  0.88850000  0.86240000  0.72380000  1.0 -0.5217166151
N  N5  1  0.02980000  0.22840000  0.64940000  1.0 -0.5217166151
N  N6  1  0.94130000  0.23280000  0.38580000  1.0 -0.5319349469
N  N7  1  0.95300000  0.16800000  0.51540000  1.0 -0.0773384924
N  N8  1  0.75650000  0.99640000  0.70040000  1.0 -0.3845188151
N  N9  1  0.06600000  0.18270000  0.51710000  1.0 -0.0942254195
N  N10  1  0.78870000  0.68290000  0.68310000  1.0 -0.2292295134
N  N11  1  0.74870000  0.30900000  0.72070000  1.0 -0.2292295134
N  N12  1  0.14300000  0.63000000  0.74620000  1.0 -0.5319349469
N  N13  1  0.11150000  0.36240000  0.77620000  1.0 -0.5217166151
N  N14  1  0.97020000  0.72840000  0.85060000  1.0 -0.5217166151
N  N15  1  0.05870000  0.73280000  0.11420000  1.0 -0.5319349469
N  N16  1  0.04700000  0.66800000  0.98460000  1.0 -0.0773384924
N  N17  1  0.24350000  0.49640000  0.79960000  1.0 -0.3845188151
N  N18  1  0.93400000  0.68270000  0.98290000  1.0 -0.0953958461
N  N19  1  0.78870000  0.81710000  0.18310000  1.0 -0.2292295134
N  N20  1  0.74870000  0.19100000  0.22070000  1.0 -0.2292295134
N  N21  1  0.14300000  0.87000000  0.24620000  1.0 -0.5350360999
N  N22  1  0.11150000  0.13760000  0.27620000  1.0 -0.5217166151
N  N23  1  0.97020000  0.77160000  0.35060000  1.0 -0.5217166151
N  N24  1  0.05870000  0.76720000  0.61420000  1.0 -0.5319349469
N  N25  1  0.04700000  0.83200000  0.48460000  1.0 -0.0773384924
N  N26  1  0.24350000  0.00360000  0.29960000  1.0 -0.3845188151
N  N27  1  0.93400000  0.81730000  0.48290000  1.0 -0.0953958461
N  N28  1  0.21130000  0.31710000  0.31690000  1.0 -0.2292295134
N  N29  1  0.25130000  0.69100000  0.27930000  1.0 -0.2292295134
N  N30  1  0.85700000  0.37000000  0.25380000  1.0 -0.5319349469
N  N31  1  0.88850000  0.63760000  0.22380000  1.0 -0.5217166151
N  N32  1  0.02980000  0.27160000  0.14940000  1.0 -0.5217166151
N  N33  1  0.94130000  0.26720000  0.88580000  1.0 -0.5319349469
N  N34  1  0.95300000  0.33200000  0.01540000  1.0 -0.0773384924
N  N35  1  0.75650000  0.50360000  0.20040000  1.0 -0.3845188151
N  N36  1  0.06600000  0.31730000  0.01710000  1.0 -0.0942254195
